# generated using pymatgen
data_NaCa4(BO3)3
_symmetry_space_group_name_H-M   'P 1'
_cell_length_a   6.53951128
_cell_length_b   6.56002452
_cell_length_c   10.77737967
_cell_angle_alpha   90.00000000
_cell_angle_beta   90.00000000
_cell_angle_gamma   119.89661828
_symmetry_Int_Tables_number   1
_chemical_formula_structural   NaCa4(BO3)3
_chemical_formula_sum   'Na2 Ca8 B6 O18'
_cell_volume   400.81692476
_cell_formula_units_Z   2
loop_
 _symmetry_equiv_pos_site_id
 _symmetry_equiv_pos_as_xyz
  1  'x, y, z'
loop_
 _atom_site_type_symbol
 _atom_site_label
 _atom_site_symmetry_multiplicity
 _atom_site_fract_x
 _atom_site_fract_y
 _atom_site_fract_z
 _atom_site_occupancy
  Na  Na0  1  0.38646489  0.85027436  0.75000000  1
  Na  Na1  1  0.53619053  0.14972564  0.25000000  1
  Ca  Ca2  1  0.60543956  0.42813075  0.52790338  1
  Ca  Ca3  1  0.17730881  0.57186925  0.47209662  1
  Ca  Ca4  1  0.60543956  0.42813075  0.97209662  1
  Ca  Ca5  1  0.17730881  0.57186925  0.02790338  1
  Ca  Ca6  1  0.03273830  -0.00000000  0.50000000  1
  Ca  Ca7  1  0.03273830  -0.00000000  -0.00000000  1
  Ca  Ca8  1  0.90768852  0.29925093  0.75000000  1
  Ca  Ca9  1  0.60843759  0.70074907  0.25000000  1
  B  B10  1  0.92445318  0.75640408  0.75000000  1
  B  B11  1  0.16804910  0.24359592  0.25000000  1
  B  B12  1  0.35614804  0.34437175  0.75000000  1
  B  B13  1  0.01177629  0.65562825  0.25000000  1
  B  B14  1  0.60768033  -0.00000000  0.50000000  1
  B  B15  1  0.60768033  -0.00000000  0.00000000  1
  O  O16  1  0.52910083  0.28283758  0.75000000  1
  O  O17  1  0.24626324  0.71716242  0.25000000  1
  O  O18  1  0.39700790  0.00000000  0.50000000  1
  O  O19  1  0.39700790  0.00000000  -0.00000000  1
  O  O20  1  0.81546288  0.20551700  0.52870424  1
  O  O21  1  0.60994588  0.79448300  0.47129576  1
  O  O22  1  0.81546288  0.20551700  0.97129576  1
  O  O23  1  0.60994588  0.79448300  0.02870424  1
  O  O24  1  0.97616412  0.67666195  0.63899339  1
  O  O25  1  0.29950217  0.32333805  0.36100661  1
  O  O26  1  0.97616412  0.67666195  0.86100661  1
  O  O27  1  0.29950217  0.32333805  0.13899339  1
  O  O28  1  0.26874303  0.38088401  0.63886014  1
  O  O29  1  0.88785902  0.61911599  0.36113986  1
  O  O30  1  0.26874303  0.38088401  0.86113986  1
  O  O31  1  0.88785902  0.61911599  0.13886014  1
  O  O32  1  0.84269676  0.91152972  0.75000000  1
  O  O33  1  0.93116704  0.08847028  0.25000000  1
