# generated using pymatgen
data_Ba2BiSbO6
_symmetry_space_group_name_H-M   'P 1'
_cell_length_a   6.13126712
_cell_length_b   6.13127966
_cell_length_c   6.13127406
_cell_angle_alpha   60.02739054
_cell_angle_beta   60.02743878
_cell_angle_gamma   60.02733119
_symmetry_Int_Tables_number   1
_chemical_formula_structural   Ba2BiSbO6
_chemical_formula_sum   'Ba2 Bi1 Sb1 O6'
_cell_volume   163.08222559
_cell_formula_units_Z   1
loop_
 _symmetry_equiv_pos_site_id
 _symmetry_equiv_pos_as_xyz
  1  'x, y, z'
loop_
 _atom_site_type_symbol
 _atom_site_label
 _atom_site_symmetry_multiplicity
 _atom_site_fract_x
 _atom_site_fract_y
 _atom_site_fract_z
 _atom_site_occupancy
  O  O0  1  0.73266003  0.26713909  0.26713876  1
  Ba  Ba1  1  0.25016873  0.25017005  0.25016669  1
  O  O2  1  0.26734074  0.73286129  0.73286082  1
  O  O3  1  0.26713980  0.26713816  0.73265988  1
  Bi  Bi4  1  0.00000043  0.99999927  1.00000006  1
  Ba  Ba5  1  0.74983022  0.74983285  0.74983308  1
  O  O6  1  0.26713804  0.73265926  0.26713886  1
  O  O7  1  0.73286107  0.26734053  0.73286157  1
  O  O8  1  0.73286117  0.73285992  0.26733994  1
  Sb  Sb9  1  0.49999977  0.49999957  0.50000035  1
