# generated using pymatgen
data_U(TeO3)3
_symmetry_space_group_name_H-M   'P 1'
_cell_length_a   11.48703271
_cell_length_b   11.48703271
_cell_length_c   11.48703271
_cell_angle_alpha   90.00000000
_cell_angle_beta   90.00000000
_cell_angle_gamma   90.00000000
_symmetry_Int_Tables_number   1
_chemical_formula_structural   U(TeO3)3
_chemical_formula_sum   'U8 Te24 O72'
_cell_volume   1515.73602671
_cell_formula_units_Z   8
loop_
 _symmetry_equiv_pos_site_id
 _symmetry_equiv_pos_as_xyz
  1  'x, y, z'
loop_
 _atom_site_type_symbol
 _atom_site_label
 _atom_site_symmetry_multiplicity
 _atom_site_fract_x
 _atom_site_fract_y
 _atom_site_fract_z
 _atom_site_occupancy
  U  U0  1  0.50000000  0.50000000  0.50000000  1
  U  U1  1  0.50000000  0.00000000  0.50000000  1
  U  U2  1  0.00000000  0.50000000  0.50000000  1
  U  U3  1  0.50000000  0.00000000  0.00000000  1
  U  U4  1  0.00000000  0.00000000  0.00000000  1
  U  U5  1  0.50000000  0.50000000  0.00000000  1
  U  U6  1  0.00000000  0.00000000  0.50000000  1
  U  U7  1  0.00000000  0.50000000  0.00000000  1
  Te  Te8  1  0.95088255  0.76294329  0.21410815  1
  Te  Te9  1  0.73705671  0.78589185  0.45088255  1
  Te  Te10  1  0.28589185  0.04911745  0.26294329  1
  Te  Te11  1  0.45088255  0.76294329  0.28589185  1
  Te  Te12  1  0.54911745  0.23705671  0.71410815  1
  Te  Te13  1  0.78589185  0.04911745  0.23705671  1
  Te  Te14  1  0.04911745  0.23705671  0.78589185  1
  Te  Te15  1  0.04911745  0.26294329  0.28589185  1
  Te  Te16  1  0.28589185  0.45088255  0.76294329  1
  Te  Te17  1  0.45088255  0.73705671  0.78589185  1
  Te  Te18  1  0.76294329  0.28589185  0.45088255  1
  Te  Te19  1  0.26294329  0.21410815  0.54911745  1
  Te  Te20  1  0.23705671  0.78589185  0.04911745  1
  Te  Te21  1  0.76294329  0.21410815  0.95088255  1
  Te  Te22  1  0.71410815  0.95088255  0.73705671  1
  Te  Te23  1  0.21410815  0.95088255  0.76294329  1
  Te  Te24  1  0.21410815  0.54911745  0.26294329  1
  Te  Te25  1  0.54911745  0.26294329  0.21410815  1
  Te  Te26  1  0.73705671  0.71410815  0.95088255  1
  Te  Te27  1  0.71410815  0.54911745  0.23705671  1
  Te  Te28  1  0.23705671  0.71410815  0.54911745  1
  Te  Te29  1  0.95088255  0.73705671  0.71410815  1
  Te  Te30  1  0.26294329  0.28589185  0.04911745  1
  Te  Te31  1  0.78589185  0.45088255  0.73705671  1
  O  O32  1  0.90835193  0.40835193  0.09164807  1
  O  O33  1  0.65592839  0.61325540  0.08821579  1
  O  O34  1  0.59164807  0.59164807  0.59164807  1
  O  O35  1  0.40786152  0.90786152  0.59213848  1
  O  O36  1  0.91820609  0.09826377  0.32417526  1
  O  O37  1  0.88674460  0.58821579  0.65592839  1
  O  O38  1  0.09164807  0.90835193  0.40835193  1
  O  O39  1  0.08821579  0.65592839  0.61325540  1
  O  O40  1  0.84407161  0.38674460  0.58821579  1
  O  O41  1  0.41178421  0.15592839  0.61325540  1
  O  O42  1  0.09213848  0.09213848  0.09213848  1
  O  O43  1  0.08179391  0.90173623  0.67582474  1
  O  O44  1  0.90786152  0.59213848  0.40786152  1
  O  O45  1  0.58179391  0.59826377  0.32417526  1
  O  O46  1  0.11325540  0.08821579  0.84407161  1
  O  O47  1  0.58821579  0.65592839  0.88674460  1
  O  O48  1  0.09826377  0.32417526  0.91820609  1
  O  O49  1  0.59164807  0.90835193  0.09164807  1
  O  O50  1  0.59213848  0.40786152  0.90786152  1
  O  O51  1  0.77325473  0.77325473  0.77325473  1
  O  O52  1  0.90173623  0.82417526  0.58179391  1
  O  O53  1  0.65592839  0.88674460  0.58821579  1
  O  O54  1  0.09164807  0.59164807  0.90835193  1
  O  O55  1  0.40173623  0.67582474  0.41820609  1
  O  O56  1  0.41820609  0.40173623  0.67582474  1
  O  O57  1  0.72674527  0.27325473  0.77325473  1
  O  O58  1  0.58179391  0.90173623  0.82417526  1
  O  O59  1  0.38674460  0.91178421  0.34407161  1
  O  O60  1  0.59826377  0.17582474  0.08179391  1
  O  O61  1  0.91178421  0.15592839  0.88674460  1
  O  O62  1  0.82417526  0.58179391  0.90173623  1
  O  O63  1  0.82417526  0.91820609  0.40173623  1
  O  O64  1  0.32417526  0.58179391  0.59826377  1
  O  O65  1  0.90835193  0.09164807  0.59164807  1
  O  O66  1  0.34407161  0.38674460  0.91178421  1
  O  O67  1  0.34407161  0.11325540  0.41178421  1
  O  O68  1  0.59213848  0.09213848  0.40786152  1
  O  O69  1  0.15592839  0.88674460  0.91178421  1
  O  O70  1  0.90786152  0.90786152  0.90786152  1
  O  O71  1  0.40835193  0.09164807  0.90835193  1
  O  O72  1  0.91178421  0.34407161  0.38674460  1
  O  O73  1  0.61325540  0.08821579  0.65592839  1
  O  O74  1  0.58821579  0.84407161  0.38674460  1
  O  O75  1  0.72674527  0.22674527  0.27325473  1
  O  O76  1  0.08179391  0.59826377  0.17582474  1
  O  O77  1  0.59826377  0.32417526  0.58179391  1
  O  O78  1  0.67582474  0.08179391  0.90173623  1
  O  O79  1  0.15592839  0.61325540  0.41178421  1
  O  O80  1  0.22674527  0.22674527  0.22674527  1
  O  O81  1  0.77325473  0.72674527  0.27325473  1
  O  O82  1  0.40835193  0.40835193  0.40835193  1
  O  O83  1  0.41820609  0.09826377  0.17582474  1
  O  O84  1  0.61325540  0.41178421  0.15592839  1
  O  O85  1  0.08821579  0.84407161  0.11325540  1
  O  O86  1  0.22674527  0.27325473  0.72674527  1
  O  O87  1  0.17582474  0.41820609  0.09826377  1
  O  O88  1  0.11325540  0.41178421  0.34407161  1
  O  O89  1  0.67582474  0.41820609  0.40173623  1
  O  O90  1  0.91820609  0.40173623  0.82417526  1
  O  O91  1  0.32417526  0.91820609  0.09826377  1
  O  O92  1  0.17582474  0.08179391  0.59826377  1
  O  O93  1  0.90173623  0.67582474  0.08179391  1
  O  O94  1  0.40173623  0.82417526  0.91820609  1
  O  O95  1  0.09826377  0.17582474  0.41820609  1
  O  O96  1  0.88674460  0.91178421  0.15592839  1
  O  O97  1  0.40786152  0.59213848  0.09213848  1
  O  O98  1  0.41178421  0.34407161  0.11325540  1
  O  O99  1  0.84407161  0.11325540  0.08821579  1
  O  O100  1  0.27325473  0.77325473  0.72674527  1
  O  O101  1  0.27325473  0.72674527  0.22674527  1
  O  O102  1  0.38674460  0.58821579  0.84407161  1
  O  O103  1  0.09213848  0.40786152  0.59213848  1
