# generated using pymatgen
data_MgB2P2H8O13
_symmetry_space_group_name_H-M   'P 1'
_cell_length_a   7.80768439
_cell_length_b   8.34547775
_cell_length_c   14.82632614
_cell_angle_alpha   90.00000000
_cell_angle_beta   90.00000000
_cell_angle_gamma   90.45328222
_symmetry_Int_Tables_number   1
_chemical_formula_structural   MgB2P2H8O13
_chemical_formula_sum   'Mg4 B8 P8 H32 O52'
_cell_volume   966.03622292
_cell_formula_units_Z   4
loop_
 _symmetry_equiv_pos_site_id
 _symmetry_equiv_pos_as_xyz
  1  'x, y, z'
loop_
 _atom_site_type_symbol
 _atom_site_label
 _atom_site_symmetry_multiplicity
 _atom_site_fract_x
 _atom_site_fract_y
 _atom_site_fract_z
 _atom_site_occupancy
  Mg  Mg0  1  0.75079760  0.20004618  0.46431597  1
  Mg  Mg1  1  0.24920240  0.29995382  0.96431597  1
  Mg  Mg2  1  0.24920240  0.79995382  0.53568403  1
  Mg  Mg3  1  0.75079760  0.70004618  0.03568403  1
  B  B4  1  0.08357715  0.93923847  0.71731131  1
  B  B5  1  0.91642285  0.56076153  0.21731131  1
  B  B6  1  0.91642285  0.06076153  0.28268869  1
  B  B7  1  0.08357715  0.43923847  0.78268869  1
  B  B8  1  0.58331201  0.22669947  0.66433506  1
  B  B9  1  0.41668799  0.27330053  0.16433506  1
  B  B10  1  0.41668799  0.77330053  0.33566494  1
  B  B11  1  0.58331201  0.72669947  0.83566494  1
  P  P12  1  0.43332999  0.93394272  0.71304494  1
  P  P13  1  0.56667001  0.56605728  0.21304494  1
  P  P14  1  0.56667001  0.06605728  0.28695506  1
  P  P15  1  0.43332999  0.43394272  0.78695506  1
  P  P16  1  0.93463645  0.72521609  0.83903459  1
  P  P17  1  0.06536355  0.77478391  0.33903459  1
  P  P18  1  0.06536355  0.27478391  0.16096541  1
  P  P19  1  0.93463645  0.22521609  0.66096541  1
  O  O20  1  0.95589437  0.69812465  0.93956867  1
  O  O21  1  0.04410563  0.80187535  0.43956867  1
  O  O22  1  0.04410563  0.30187535  0.06043133  1
  O  O23  1  0.95589437  0.19812465  0.56043133  1
  O  O24  1  0.45466800  0.84140387  0.80315893  1
  O  O25  1  0.54533200  0.65859613  0.30315893  1
  O  O26  1  0.54533200  0.15859613  0.19684107  1
  O  O27  1  0.45466800  0.34140387  0.69684107  1
  O  O28  1  0.45106739  0.82994442  0.62914526  1
  O  O29  1  0.54893261  0.67005558  0.12914526  1
  O  O30  1  0.54893261  0.17005558  0.37085474  1
  O  O31  1  0.45106739  0.32994442  0.87085474  1
  O  O32  1  0.95335675  0.56903996  0.78216475  1
  O  O33  1  0.04664325  0.93096004  0.28216475  1
  O  O34  1  0.04664325  0.43096004  0.21783525  1
  O  O35  1  0.95335675  0.06903996  0.71783525  1
  O  O36  1  0.06439166  0.85525556  0.80616702  1
  O  O37  1  0.93560834  0.64474444  0.30616702  1
  O  O38  1  0.93560834  0.14474444  0.19383298  1
  O  O39  1  0.06439166  0.35525556  0.69383298  1
  O  O40  1  0.56694250  0.57295946  0.78445544  1
  O  O41  1  0.43305750  0.92704054  0.28445544  1
  O  O42  1  0.43305750  0.42704054  0.21554456  1
  O  O43  1  0.56694250  0.07295946  0.71554456  1
  O  O44  1  0.74609164  0.48495784  0.21750559  1
  O  O45  1  0.25390836  0.01504216  0.71750559  1
  O  O46  1  0.25390836  0.51504216  0.78249441  1
  O  O47  1  0.74609164  0.98495784  0.28249441  1
  O  O48  1  0.75477887  0.79365980  0.81508850  1
  O  O49  1  0.24522113  0.70634020  0.31508850  1
  O  O50  1  0.24522113  0.20634020  0.18491150  1
  O  O51  1  0.75477887  0.29365980  0.68491150  1
  O  O52  1  0.93151175  0.66548485  0.13882026  1
  O  O53  1  0.06848825  0.83451515  0.63882026  1
  O  O54  1  0.06848825  0.33451515  0.86117974  1
  O  O55  1  0.93151175  0.16548485  0.36117974  1
  H  H56  1  0.04083708  0.72469872  0.13285378  1
  H  H57  1  0.95916292  0.77530128  0.63285378  1
  H  H58  1  0.95916292  0.27530128  0.86714622  1
  H  H59  1  0.04083708  0.22469872  0.36714622  1
  O  O60  1  0.56674950  0.20466223  0.56758068  1
  O  O61  1  0.43325050  0.29533777  0.06758068  1
  O  O62  1  0.43325050  0.79533777  0.43241932  1
  O  O63  1  0.56674950  0.70466223  0.93241932  1
  H  H64  1  0.45194712  0.16386708  0.55029137  1
  H  H65  1  0.54805288  0.33613292  0.05029137  1
  H  H66  1  0.54805288  0.83613292  0.44970863  1
  H  H67  1  0.45194712  0.66386708  0.94970863  1
  O  O68  1  0.75806119  0.94627116  0.04501725  1
  O  O69  1  0.24193881  0.55372884  0.54501725  1
  O  O70  1  0.24193881  0.05372884  0.95498275  1
  O  O71  1  0.75806119  0.44627116  0.45498275  1
  H  H72  1  0.75503616  0.02070694  0.99281717  1
  H  H73  1  0.24496384  0.47929306  0.49281717  1
  H  H74  1  0.24496384  0.97929306  0.00718283  1
  H  H75  1  0.75503616  0.52070694  0.50718283  1
  H  H76  1  0.79025803  0.00906256  0.09806189  1
  H  H77  1  0.20974197  0.49093744  0.59806189  1
  H  H78  1  0.20974197  0.99093744  0.90193811  1
  H  H79  1  0.79025803  0.50906256  0.40193811  1
  O  O80  1  0.74342088  0.43824678  0.01302682  1
  O  O81  1  0.25657912  0.06175322  0.51302682  1
  O  O82  1  0.25657912  0.56175322  0.98697318  1
  O  O83  1  0.74342088  0.93824678  0.48697318  1
  H  H84  1  0.72350762  0.42007206  0.94883770  1
  H  H85  1  0.27649238  0.07992794  0.44883770  1
  H  H86  1  0.27649238  0.57992794  0.05116230  1
  H  H87  1  0.72350762  0.92007206  0.55116230  1
  H  H88  1  0.85416741  0.38334065  0.02780640  1
  H  H89  1  0.14583259  0.11665935  0.52780640  1
  H  H90  1  0.14583259  0.61665935  0.97219360  1
  H  H91  1  0.85416741  0.88334065  0.47219360  1
  O  O92  1  0.75574803  0.14597733  0.89298393  1
  O  O93  1  0.24425197  0.35402267  0.39298393  1
  O  O94  1  0.24425197  0.85402267  0.10701607  1
  O  O95  1  0.75574803  0.64597733  0.60701607  1
  H  H96  1  0.76953758  0.07199315  0.84212442  1
  H  H97  1  0.23046242  0.42800685  0.34212442  1
  H  H98  1  0.23046242  0.92800685  0.15787558  1
  H  H99  1  0.76953758  0.57199315  0.65787558  1
  H  H100  1  0.64129659  0.19352989  0.88271633  1
  H  H101  1  0.35870341  0.30647011  0.38271633  1
  H  H102  1  0.35870341  0.80647011  0.11728367  1
  H  H103  1  0.64129659  0.69352989  0.61728367  1
