# generated using pymatgen
data_V8C7
_symmetry_space_group_name_H-M   'P 1'
_cell_length_a   8.33487482
_cell_length_b   8.33487482
_cell_length_c   8.33487482
_cell_angle_alpha   90.00000000
_cell_angle_beta   90.00000000
_cell_angle_gamma   90.00000000
_symmetry_Int_Tables_number   1
_chemical_formula_structural   V8C7
_chemical_formula_sum   'V32 C28'
_cell_volume   579.02490617
_cell_formula_units_Z   4
loop_
 _symmetry_equiv_pos_site_id
 _symmetry_equiv_pos_as_xyz
  1  'x, y, z'
loop_
 _atom_site_type_symbol
 _atom_site_label
 _atom_site_symmetry_multiplicity
 _atom_site_fract_x
 _atom_site_fract_y
 _atom_site_fract_z
 _atom_site_occupancy
  V  V0  1  0.37816579  0.37816579  0.37816579  1
  V  V1  1  0.12816579  0.37183421  0.62816579  1
  V  V2  1  0.62816579  0.12816579  0.37183421  1
  V  V3  1  0.37183421  0.62816579  0.12816579  1
  V  V4  1  0.12183421  0.62183421  0.87816579  1
  V  V5  1  0.87816579  0.12183421  0.62183421  1
  V  V6  1  0.62183421  0.87816579  0.12183421  1
  V  V7  1  0.87183421  0.87183421  0.87183421  1
  V  V8  1  0.14420001  0.37242999  0.11960605  1
  V  V9  1  0.89420001  0.63039395  0.62242999  1
  V  V10  1  0.39420001  0.86960605  0.37757001  1
  V  V11  1  0.36960605  0.12242999  0.60579999  1
  V  V12  1  0.63039395  0.62242999  0.89420001  1
  V  V13  1  0.37757001  0.39420001  0.86960605  1
  V  V14  1  0.12242999  0.60579999  0.36960605  1
  V  V15  1  0.11960605  0.14420001  0.37242999  1
  V  V16  1  0.37242999  0.11960605  0.14420001  1
  V  V17  1  0.12757001  0.88039395  0.64420001  1
  V  V18  1  0.61960605  0.35579999  0.62757001  1
  V  V19  1  0.62757001  0.61960605  0.35579999  1
  V  V20  1  0.38039395  0.85579999  0.87242999  1
  V  V21  1  0.88039395  0.64420001  0.12757001  1
  V  V22  1  0.87242999  0.38039395  0.85579999  1
  V  V23  1  0.64420001  0.12757001  0.88039395  1
  V  V24  1  0.85579999  0.87242999  0.38039395  1
  V  V25  1  0.35579999  0.62757001  0.61960605  1
  V  V26  1  0.62242999  0.89420001  0.63039395  1
  V  V27  1  0.87757001  0.10579999  0.13039395  1
  V  V28  1  0.86960605  0.37757001  0.39420001  1
  V  V29  1  0.13039395  0.87757001  0.10579999  1
  V  V30  1  0.60579999  0.36960605  0.12242999  1
  V  V31  1  0.10579999  0.13039395  0.87757001  1
  C  C32  1  0.12500000  0.12500000  0.12500000  1
  C  C33  1  0.87500000  0.62500000  0.37500000  1
  C  C34  1  0.37500000  0.87500000  0.62500000  1
  C  C35  1  0.62500000  0.37500000  0.87500000  1
  C  C36  1  0.12500000  0.62880357  0.62119643  1
  C  C37  1  0.87500000  0.12880357  0.87880357  1
  C  C38  1  0.37500000  0.37119643  0.12119643  1
  C  C39  1  0.87119643  0.37880357  0.62500000  1
  C  C40  1  0.12880357  0.87880357  0.87500000  1
  C  C41  1  0.12119643  0.37500000  0.37119643  1
  C  C42  1  0.37880357  0.62500000  0.87119643  1
  C  C43  1  0.62119643  0.12500000  0.62880357  1
  C  C44  1  0.62880357  0.62119643  0.12500000  1
  C  C45  1  0.37119643  0.12119643  0.37500000  1
  C  C46  1  0.87880357  0.87500000  0.12880357  1
  C  C47  1  0.62500000  0.87119643  0.37880357  1
  C  C48  1  0.12500000  0.37380324  0.87619676  1
  C  C49  1  0.87500000  0.87380324  0.62380324  1
  C  C50  1  0.37500000  0.62619676  0.37619676  1
  C  C51  1  0.12619676  0.12380324  0.62500000  1
  C  C52  1  0.87380324  0.62380324  0.87500000  1
  C  C53  1  0.37619676  0.37500000  0.62619676  1
  C  C54  1  0.12380324  0.62500000  0.12619676  1
  C  C55  1  0.87619676  0.12500000  0.37380324  1
  C  C56  1  0.37380324  0.87619676  0.12500000  1
  C  C57  1  0.62619676  0.37619676  0.37500000  1
  C  C58  1  0.62380324  0.87500000  0.87380324  1
  C  C59  1  0.62500000  0.12619676  0.12380324  1
