# generated using pymatgen
data_SiO2
_symmetry_space_group_name_H-M   'P 1'
_cell_length_a   8.47756448
_cell_length_b   9.89435219
_cell_length_c   9.91581151
_cell_angle_alpha   90.00000000
_cell_angle_beta   90.00000000
_cell_angle_gamma   90.00000000
_symmetry_Int_Tables_number   1
_chemical_formula_structural   SiO2
_chemical_formula_sum   'Si16 O32'
_cell_volume   831.73835551
_cell_formula_units_Z   16
loop_
 _symmetry_equiv_pos_site_id
 _symmetry_equiv_pos_as_xyz
  1  'x, y, z'
loop_
 _atom_site_type_symbol
 _atom_site_label
 _atom_site_symmetry_multiplicity
 _atom_site_fract_x
 _atom_site_fract_y
 _atom_site_fract_z
 _atom_site_occupancy
  Si  Si0  1  0.31270717  0.17001733  0.12063648  1
  Si  Si1  1  0.18731053  0.37875540  0.32976312  1
  Si  Si2  1  0.31270717  0.32998267  0.62063648  1
  Si  Si3  1  0.31270717  0.82998267  0.87936352  1
  Si  Si4  1  0.18731053  0.62124460  0.67023688  1
  Si  Si5  1  0.81268947  0.12124460  0.82976312  1
  Si  Si6  1  0.68729283  0.32998267  0.62063648  1
  Si  Si7  1  0.18731053  0.12124460  0.82976312  1
  Si  Si8  1  0.81268947  0.87875540  0.17023688  1
  Si  Si9  1  0.81268947  0.62124460  0.67023688  1
  Si  Si10  1  0.68729283  0.82998267  0.87936352  1
  Si  Si11  1  0.81268947  0.37875540  0.32976312  1
  Si  Si12  1  0.31270717  0.67001733  0.37936352  1
  Si  Si13  1  0.68729283  0.67001733  0.37936352  1
  Si  Si14  1  0.18731053  0.87875540  0.17023688  1
  Si  Si15  1  0.68729283  0.17001733  0.12063648  1
  O  O16  1  0.50000000  0.64951373  0.35327046  1
  O  O17  1  0.21799352  0.04085186  0.18256222  1
  O  O18  1  0.25120816  0.30700308  0.19328284  1
  O  O19  1  0.78200648  0.45914814  0.68256222  1
  O  O20  1  0.00000000  0.85141632  0.15180228  1
  O  O21  1  0.50000000  0.14951373  0.14672954  1
  O  O22  1  0.71911420  0.68352821  0.54084556  1
  O  O23  1  0.71911420  0.18352821  0.95915444  1
  O  O24  1  0.78200648  0.54085186  0.31743778  1
  O  O25  1  0.21799352  0.95914814  0.81743778  1
  O  O26  1  0.00000000  0.14858368  0.84819772  1
  O  O27  1  0.50000000  0.35048627  0.64672954  1
  O  O28  1  0.28088580  0.18352821  0.95915444  1
  O  O29  1  0.21799352  0.54085186  0.31743778  1
  O  O30  1  0.50000000  0.85048627  0.85327046  1
  O  O31  1  0.25120816  0.19299692  0.69328284  1
  O  O32  1  0.00000000  0.35141632  0.34819772  1
  O  O33  1  0.74879184  0.80700308  0.30671716  1
  O  O34  1  0.21799352  0.45914814  0.68256222  1
  O  O35  1  0.25120816  0.69299692  0.80671716  1
  O  O36  1  0.00000000  0.64858368  0.65180228  1
  O  O37  1  0.74879184  0.30700308  0.19328284  1
  O  O38  1  0.74879184  0.69299692  0.80671716  1
  O  O39  1  0.28088580  0.81647179  0.04084556  1
  O  O40  1  0.28088580  0.31647179  0.45915444  1
  O  O41  1  0.71911420  0.31647179  0.45915444  1
  O  O42  1  0.25120816  0.80700308  0.30671716  1
  O  O43  1  0.74879184  0.19299692  0.69328284  1
  O  O44  1  0.78200648  0.95914814  0.81743778  1
  O  O45  1  0.28088580  0.68352821  0.54084556  1
  O  O46  1  0.71911420  0.81647179  0.04084556  1
  O  O47  1  0.78200648  0.04085186  0.18256222  1
