# generated using pymatgen
data_Lu(PO3)3
_symmetry_space_group_name_H-M   'P 1'
_cell_length_a   6.75715201
_cell_length_b   7.84706455
_cell_length_c   8.78731343
_cell_angle_alpha   74.40182449
_cell_angle_beta   67.38832770
_cell_angle_gamma   64.49735048
_symmetry_Int_Tables_number   1
_chemical_formula_structural   Lu(PO3)3
_chemical_formula_sum   'Lu2 P6 O18'
_cell_volume   385.21436033
_cell_formula_units_Z   2
loop_
 _symmetry_equiv_pos_site_id
 _symmetry_equiv_pos_as_xyz
  1  'x, y, z'
loop_
 _atom_site_type_symbol
 _atom_site_label
 _atom_site_symmetry_multiplicity
 _atom_site_fract_x
 _atom_site_fract_y
 _atom_site_fract_z
 _atom_site_occupancy
  Lu  Lu0  1  0.60976446  0.89942044  0.35394315  1
  Lu  Lu1  1  0.13687196  0.39942044  0.85394315  1
  P  P2  1  0.55470857  0.65486164  0.08270218  1
  P  P3  1  0.11087804  0.93894977  0.02234850  1
  P  P4  1  0.92782369  0.43894977  0.52234850  1
  P  P5  1  0.12114933  0.86754848  0.69194793  1
  P  P6  1  0.70772761  0.15486164  0.58270218  1
  P  P7  1  0.31935426  0.36754848  0.19194793  1
  O  O8  1  0.95671981  0.86889135  0.17780359  1
  O  O9  1  0.37146977  0.78547231  0.98392994  1
  O  O10  1  0.87670201  0.96503893  0.65968996  1
  O  O11  1  0.15319272  0.43494421  0.36910795  1
  O  O12  1  0.78579903  0.59585080  0.95440760  1
  O  O13  1  0.99658525  0.36889135  0.67780359  1
  O  O14  1  0.11178670  0.13359565  0.00733826  1
  O  O15  1  0.74727939  0.63359565  0.50733826  1
  O  O16  1  0.52274675  0.75095300  0.22143175  1
  O  O17  1  0.49856909  0.46503893  0.15968996  1
  O  O18  1  0.85912798  0.28547231  0.48392994  1
  O  O19  1  0.28941294  0.95069216  0.56365680  1
  O  O20  1  0.18978202  0.65648127  0.70959238  1
  O  O21  1  0.66394257  0.09585080  0.45440760  1
  O  O22  1  0.50486850  0.25095300  0.72143175  1
  O  O23  1  0.04275512  0.93494421  0.86910795  1
  O  O24  1  0.44414433  0.15648127  0.20959238  1
  O  O25  1  0.19623810  0.45069216  0.06365680  1
