# generated using pymatgen
data_Na2YbC2O6F
_symmetry_space_group_name_H-M   'P 1'
_cell_length_a   6.16925346
_cell_length_b   9.33085469
_cell_length_c   11.50340470
_cell_angle_alpha   94.32147852
_cell_angle_beta   90.00000000
_cell_angle_gamma   109.30419623
_symmetry_Int_Tables_number   1
_chemical_formula_structural   Na2YbC2O6F
_chemical_formula_sum   'Na8 Yb4 C8 O24 F4'
_cell_volume   622.96125708
_cell_formula_units_Z   4
loop_
 _symmetry_equiv_pos_site_id
 _symmetry_equiv_pos_as_xyz
  1  'x, y, z'
loop_
 _atom_site_type_symbol
 _atom_site_label
 _atom_site_symmetry_multiplicity
 _atom_site_fract_x
 _atom_site_fract_y
 _atom_site_fract_z
 _atom_site_occupancy
  Yb  Yb0  1  0.88908391  0.10600792  0.13233694  1
  Yb  Yb1  1  0.11091609  0.89399208  0.86766306  1
  Yb  Yb2  1  0.21692401  0.10600792  0.63233694  1
  Yb  Yb3  1  0.78307599  0.89399208  0.36766306  1
  Na  Na4  1  0.35197916  0.51806556  0.85932230  1
  Na  Na5  1  0.83391360  0.48193444  0.64067770  1
  Na  Na6  1  0.64802084  0.48193444  0.14067770  1
  Na  Na7  1  0.69505559  0.21684995  0.88246150  1
  Na  Na8  1  0.30494441  0.78315005  0.11753850  1
  Na  Na9  1  0.47820564  0.78315005  0.61753850  1
  Na  Na10  1  0.16608640  0.51806556  0.35932230  1
  Na  Na11  1  0.52179436  0.21684995  0.38246150  1
  C  C12  1  0.29665214  0.41873359  0.58193775  1
  C  C13  1  0.22968205  0.86613420  0.38393664  1
  C  C14  1  0.63645215  0.86613420  0.88393664  1
  C  C15  1  0.77031795  0.13386580  0.61606336  1
  C  C16  1  0.12208146  0.41873359  0.08193775  1
  C  C17  1  0.70334786  0.58126641  0.41806225  1
  C  C18  1  0.87791854  0.58126641  0.91806225  1
  C  C19  1  0.36354785  0.13386580  0.11606336  1
  O  O20  1  0.69000551  0.46906485  0.92421282  1
  O  O21  1  0.05872301  0.31201989  0.99889187  1
  O  O22  1  0.94127699  0.68798011  0.00110813  1
  O  O23  1  0.00445233  0.58924692  0.82757251  1
  O  O24  1  0.74670312  0.68798011  0.50110813  1
  O  O25  1  0.58479459  0.58924692  0.32757251  1
  O  O26  1  0.42631273  0.82336883  0.91652223  1
  O  O27  1  0.25329688  0.31201989  0.49889187  1
  O  O28  1  0.99554767  0.41075308  0.17242749  1
  O  O29  1  0.60294391  0.17663117  0.58347777  1
  O  O30  1  0.77905934  0.46906485  0.42421282  1
  O  O31  1  0.41520541  0.41075308  0.67242749  1
  O  O32  1  0.90930747  0.21181820  0.69937322  1
  O  O33  1  0.30999449  0.53093515  0.07578718  1
  O  O34  1  0.19635123  0.98617215  0.43342283  1
  O  O35  1  0.22094066  0.53093515  0.57578718  1
  O  O36  1  0.09069253  0.78818180  0.30062678  1
  O  O37  1  0.30251073  0.21181820  0.19937322  1
  O  O38  1  0.21017907  0.01382785  0.06657717  1
  O  O39  1  0.39705609  0.82336883  0.41652223  1
  O  O40  1  0.78982093  0.98617215  0.93342283  1
  O  O41  1  0.57368727  0.17663117  0.08347777  1
  O  O42  1  0.69748927  0.78818180  0.80062678  1
  O  O43  1  0.80364877  0.01382785  0.56657717  1
  F  F44  1  0.80390529  0.12293934  0.31896212  1
  F  F45  1  0.68096595  0.87706066  0.18103788  1
  F  F46  1  0.19609471  0.87706066  0.68103788  1
  F  F47  1  0.31903405  0.12293934  0.81896212  1
