# generated using pymatgen
data_LiEr(PO3)4
_symmetry_space_group_name_H-M   'P 1'
_cell_length_a   7.11255968
_cell_length_b   8.93607922
_cell_length_c   8.92096186
_cell_angle_alpha   65.23746943
_cell_angle_beta   66.50708373
_cell_angle_gamma   66.54393784
_symmetry_Int_Tables_number   1
_chemical_formula_structural   LiEr(PO3)4
_chemical_formula_sum   'Li2 Er2 P8 O24'
_cell_volume   453.64832562
_cell_formula_units_Z   2
loop_
 _symmetry_equiv_pos_site_id
 _symmetry_equiv_pos_as_xyz
  1  'x, y, z'
loop_
 _atom_site_type_symbol
 _atom_site_label
 _atom_site_symmetry_multiplicity
 _atom_site_fract_x
 _atom_site_fract_y
 _atom_site_fract_z
 _atom_site_occupancy
  Li  Li0  1  0.29343446  0.75001309  0.24998748  1
  Li  Li1  1  0.70656554  0.24998691  0.75001252  1
  Er  Er2  1  0.79677112  0.75000679  0.24999929  1
  Er  Er3  1  0.20322888  0.24999321  0.75000071  1
  P  P4  1  0.99640773  0.30689546  0.40249179  1
  P  P5  1  0.41356959  0.61628204  0.65716936  1
  P  P6  1  0.70578737  0.19309184  0.09755315  1
  P  P7  1  0.58643041  0.38371796  0.34283064  1
  P  P8  1  0.00359227  0.69310454  0.59750821  1
  P  P9  1  0.31299455  0.11628043  0.15718962  1
  P  P10  1  0.68700545  0.88371957  0.84281038  1
  P  P11  1  0.29421263  0.80690816  0.90244685  1
  O  O12  1  0.84879165  0.22477870  0.91664932  1
  O  O13  1  0.43649337  0.42798164  0.70384728  1
  O  O14  1  0.17711218  0.15178487  0.33879433  1
  O  O15  1  0.56350663  0.57201836  0.29615272  1
  O  O16  1  0.82337043  0.81562440  0.96187007  1
  O  O17  1  0.24302561  0.97802250  0.77085685  1
  O  O18  1  0.56827361  0.07201955  0.79614607  1
  O  O19  1  0.66766275  0.34820863  0.16123750  1
  O  O20  1  0.00806376  0.47800719  0.27093905  1
  O  O21  1  0.52757054  0.76596166  0.92294062  1
  O  O22  1  0.47242946  0.23403834  0.07705938  1
  O  O23  1  0.00979013  0.72482964  0.41657773  1
  O  O24  1  0.33233725  0.65179137  0.83876250  1
  O  O25  1  0.21646865  0.73404718  0.57704161  1
  O  O26  1  0.75697439  0.02197750  0.22914315  1
  O  O27  1  0.43172639  0.92798045  0.20385393  1
  O  O28  1  0.78353135  0.26595282  0.42295839  1
  O  O29  1  0.82288782  0.84821513  0.66120567  1
  O  O30  1  0.17662957  0.18437560  0.03812993  1
  O  O31  1  0.15120835  0.77522130  0.08335068  1
  O  O32  1  0.99193624  0.52199281  0.72906095  1
  O  O33  1  0.99020987  0.27517036  0.58342227  1
  O  O34  1  0.39911315  0.31562736  0.46188172  1
  O  O35  1  0.60088685  0.68437264  0.53811828  1
