# generated using pymatgen
data_SiO2
_symmetry_space_group_name_H-M   'P 1'
_cell_length_a   9.22883379
_cell_length_b   9.22882505
_cell_length_c   12.25194308
_cell_angle_alpha   112.12453649
_cell_angle_beta   112.12443706
_cell_angle_gamma   89.99943895
_symmetry_Int_Tables_number   1
_chemical_formula_structural   SiO2
_chemical_formula_sum   'Si16 O32'
_cell_volume   883.18341357
_cell_formula_units_Z   16
loop_
 _symmetry_equiv_pos_site_id
 _symmetry_equiv_pos_as_xyz
  1  'x, y, z'
loop_
 _atom_site_type_symbol
 _atom_site_label
 _atom_site_symmetry_multiplicity
 _atom_site_fract_x
 _atom_site_fract_y
 _atom_site_fract_z
 _atom_site_occupancy
  Si  Si0  1  0.76436581  0.51011752  0.86674845  1
  Si  Si1  1  0.51008536  0.10239210  0.36671182  1
  Si  Si2  1  0.14338044  0.23565826  0.63325290  1
  Si  Si3  1  0.23565608  0.14338051  0.13325125  1
  Si  Si4  1  0.51011837  0.76436357  0.36674706  1
  Si  Si5  1  0.10237761  0.85662019  0.86674309  1
  Si  Si6  1  0.10239198  0.51008464  0.86671194  1
  Si  Si7  1  0.48991464  0.89760790  0.63328818  1
  Si  Si8  1  0.48988163  0.23563643  0.63325294  1
  Si  Si9  1  0.23563419  0.48988248  0.13325155  1
  Si  Si10  1  0.76434392  0.85661949  0.86674875  1
  Si  Si11  1  0.14337778  0.89762258  0.63325718  1
  Si  Si12  1  0.89762239  0.14337981  0.13325691  1
  Si  Si13  1  0.85662222  0.10237742  0.36674282  1
  Si  Si14  1  0.89760802  0.48991536  0.13328806  1
  Si  Si15  1  0.85661956  0.76434174  0.36674710  1
  O  O16  1  0.45497619  0.91813756  0.33627619  1
  O  O17  1  0.91813657  0.45497617  0.83627670  1
  O  O18  1  0.11864591  0.08184764  0.66370546  1
  O  O19  1  0.24791055  0.30885979  0.11771455  1
  O  O20  1  0.08186343  0.54502383  0.16372330  1
  O  O21  1  0.85492060  0.14507939  0.25000059  1
  O  O22  1  0.54502381  0.08186244  0.66372381  1
  O  O23  1  0.14510106  0.39510627  0.74998734  1
  O  O24  1  0.85489894  0.60489373  0.25001266  1
  O  O25  1  0.08184877  0.11864651  0.16370524  1
  O  O26  1  0.77905857  1.00002529  0.00001847  1
  O  O27  1  0.22093999  0.50000327  0.00001065  1
  O  O28  1  0.88135409  0.91815236  0.33629454  1
  O  O29  1  0.69113789  0.75208891  0.38228481  1
  O  O30  1  0.60489215  0.85489896  0.75001152  1
  O  O31  1  0.22094143  -0.00002529  0.99998153  1
  O  O32  1  0.39510785  0.14510104  0.24998848  1
  O  O33  1  0.14507940  0.85492061  0.74999941  1
  O  O34  1  0.39510144  0.60490076  0.25000080  1
  O  O35  1  0.30886211  0.24791109  0.61771519  1
  O  O36  1  0.13018132  0.69116896  0.88224779  1
  O  O37  1  0.49999670  0.77906019  0.49999016  1
  O  O38  1  0.30883388  0.86981870  0.61775247  1
  O  O39  1  0.50000330  0.22093981  0.50000984  1
  O  O40  1  1.00002659  0.77905888  0.50001933  1
  O  O41  1  0.75208945  0.69114021  0.88228545  1
  O  O42  1  0.86981868  0.30883104  0.11775221  1
  O  O43  1  0.69116612  0.13018130  0.38224753  1
  O  O44  1  0.60489856  0.39509924  0.74999920  1
  O  O45  1  -0.00002659  0.22094112  0.49998067  1
  O  O46  1  0.91815123  0.88135349  0.83629476  1
  O  O47  1  0.77906001  0.49999673  0.99998935  1
