# generated using pymatgen
data_Ca5Nb5O17
_symmetry_space_group_name_H-M   'P 1'
_cell_length_a   5.54759513
_cell_length_b   7.84663554
_cell_length_c   32.87761968
_cell_angle_alpha   96.92486188
_cell_angle_beta   90.00000000
_cell_angle_gamma   90.00000000
_symmetry_Int_Tables_number   1
_chemical_formula_structural   Ca5Nb5O17
_chemical_formula_sum   'Ca20 Nb20 O68'
_cell_volume   1420.72122236
_cell_formula_units_Z   4
loop_
 _symmetry_equiv_pos_site_id
 _symmetry_equiv_pos_as_xyz
  1  'x, y, z'
loop_
 _atom_site_type_symbol
 _atom_site_label
 _atom_site_symmetry_multiplicity
 _atom_site_fract_x
 _atom_site_fract_y
 _atom_site_fract_z
 _atom_site_occupancy
  Ca  Ca0  1  0.01672695  0.63622399  0.29015478  1
  Ca  Ca1  1  0.49305525  0.74481944  0.99245349  1
  Ca  Ca2  1  0.99305525  0.25518056  0.50754651  1
  Ca  Ca3  1  0.58871904  0.86300725  0.22275146  1
  Ca  Ca4  1  0.49715328  0.69981346  0.40305741  1
  Ca  Ca5  1  1.00084156  0.79117872  0.08247079  1
  Ca  Ca6  1  0.50284672  0.30018654  0.59694259  1
  Ca  Ca7  1  0.98327305  0.36377601  0.70984522  1
  Ca  Ca8  1  -0.00084156  0.20882128  0.91752921  1
  Ca  Ca9  1  0.41128096  0.13699275  0.77724854  1
  Ca  Ca10  1  0.49915844  0.79117872  0.58247079  1
  Ca  Ca11  1  0.00694475  0.74481944  0.49245349  1
  Ca  Ca12  1  0.99715328  0.30018654  0.09694259  1
  Ca  Ca13  1  0.50084156  0.20882128  0.41752921  1
  Ca  Ca14  1  0.51672695  0.36377601  0.20984522  1
  Ca  Ca15  1  0.00284672  0.69981346  0.90305741  1
  Ca  Ca16  1  0.50694475  0.25518056  0.00754651  1
  Ca  Ca17  1  0.91128096  0.86300725  0.72275146  1
  Ca  Ca18  1  0.48327305  0.63622399  0.79015478  1
  Ca  Ca19  1  0.08871904  0.13699275  0.27724854  1
  Nb  Nb20  1  0.53143006  0.40456430  0.32204036  1
  Nb  Nb21  1  0.52678243  0.91445258  0.32299627  1
  Nb  Nb22  1  0.50643154  0.04914880  0.09095968  1
  Nb  Nb23  1  0.97321757  0.91445258  0.82299627  1
  Nb  Nb24  1  0.49416887  0.45746628  0.90824739  1
  Nb  Nb25  1  0.00000000  0.50000000  0.00000000  1
  Nb  Nb26  1  0.46856994  0.59543570  0.67795964  1
  Nb  Nb27  1  0.49356846  0.95085120  0.90904032  1
  Nb  Nb28  1  0.00583113  0.45746628  0.40824739  1
  Nb  Nb29  1  0.50583113  0.54253372  0.09175261  1
  Nb  Nb30  1  0.47321757  0.08554742  0.67700373  1
  Nb  Nb31  1  0.03143006  0.59543570  0.17795964  1
  Nb  Nb32  1  0.00000000  0.00000000  0.00000000  1
  Nb  Nb33  1  0.50000000  0.50000000  0.50000000  1
  Nb  Nb34  1  0.99356846  0.04914880  0.59095968  1
  Nb  Nb35  1  0.02678243  0.08554742  0.17700373  1
  Nb  Nb36  1  0.99416887  0.54253372  0.59175261  1
  Nb  Nb37  1  0.96856994  0.40456430  0.82204036  1
  Nb  Nb38  1  0.50000000  0.00000000  0.50000000  1
  Nb  Nb39  1  0.00643154  0.95085120  0.40904032  1
  O  O40  1  0.20387768  0.07697806  0.71104867  1
  O  O41  1  0.42512121  0.16452358  0.32995260  1
  O  O42  1  0.81519117  0.96758642  0.88194227  1
  O  O43  1  0.59366705  0.66377880  0.33040354  1
  O  O44  1  0.40633295  0.33622120  0.66959646  1
  O  O45  1  0.30178137  0.86224906  0.28022211  1
  O  O46  1  0.18202877  0.58503074  0.11723232  1
  O  O47  1  0.09170212  0.28962315  0.57866684  1
  O  O48  1  0.06806841  0.20545574  0.41039535  1
  O  O49  1  0.29472361  0.87336609  0.86470838  1
  O  O50  1  0.29654136  0.55858876  0.03367546  1
  O  O51  1  0.79694784  0.02530187  0.46623355  1
  O  O52  1  0.29454251  0.93185970  0.44864055  1
  O  O53  1  0.56806841  0.79454426  0.08960465  1
  O  O54  1  0.82397307  0.36223029  0.29703865  1
  O  O55  1  0.19821863  0.86224906  0.78022211  1
  O  O56  1  0.43193159  0.20545574  0.91039535  1
  O  O57  1  0.70615239  0.48358443  0.55159291  1
  O  O58  1  0.93193159  0.79454426  0.58960465  1
  O  O59  1  0.68480883  0.96758642  0.38194227  1
  O  O60  1  0.70242131  0.50958328  0.13648668  1
  O  O61  1  0.20615239  0.51641557  0.94840709  1
  O  O62  1  0.32397307  0.63776971  0.20296135  1
  O  O63  1  0.79454251  0.06814030  0.05135945  1
  O  O64  1  0.70545749  0.06814030  0.55135945  1
  O  O65  1  0.20242131  0.49041672  0.36351332  1
  O  O66  1  0.40829788  0.28962315  0.07866684  1
  O  O67  1  0.80178137  0.13775094  0.21977789  1
  O  O68  1  0.67602693  0.36223029  0.79703865  1
  O  O69  1  0.29757869  0.49041672  0.86351332  1
  O  O70  1  0.20527639  0.87336609  0.36470838  1
  O  O71  1  0.20305216  0.97469813  0.53376645  1
  O  O72  1  0.79757869  0.50958328  0.63648668  1
  O  O73  1  0.70387768  0.92302194  0.78895133  1
  O  O74  1  0.91400695  0.75247949  0.00489092  1
  O  O75  1  0.31797123  0.58503074  0.61723232  1
  O  O76  1  0.08599305  0.24752051  0.99510908  1
  O  O77  1  0.82420326  0.59141363  0.22457306  1
  O  O78  1  0.81797123  0.41496926  0.88276768  1
  O  O79  1  0.79654136  0.44141124  0.46632454  1
  O  O80  1  0.92512121  0.83547642  0.17004740  1
  O  O81  1  0.29384761  0.51641557  0.44840709  1
  O  O82  1  0.17579674  0.40858637  0.77542694  1
  O  O83  1  0.79612232  0.92302194  0.28895133  1
  O  O84  1  0.31519117  0.03241358  0.61805773  1
  O  O85  1  0.20345864  0.55858876  0.53367546  1
  O  O86  1  0.59170212  0.71037685  0.92133316  1
  O  O87  1  0.70305216  0.02530187  0.96623355  1
  O  O88  1  0.70527639  0.12663391  0.13529162  1
  O  O89  1  0.32420326  0.40858637  0.27542694  1
  O  O90  1  0.79384761  0.48358443  0.05159291  1
  O  O91  1  0.09366705  0.33622120  0.16959646  1
  O  O92  1  0.17602693  0.63776971  0.70296135  1
  O  O93  1  0.29612232  0.07697806  0.21104867  1
  O  O94  1  0.67579674  0.59141363  0.72457306  1
  O  O95  1  0.29694784  0.97469813  0.03376645  1
  O  O96  1  0.18480883  0.03241358  0.11805773  1
  O  O97  1  0.90829788  0.71037685  0.42133316  1
  O  O98  1  0.90633295  0.66377880  0.83040354  1
  O  O99  1  0.79472361  0.12663391  0.63529162  1
  O  O100  1  0.07487879  0.16452358  0.82995260  1
  O  O101  1  0.68202877  0.41496926  0.38276768  1
  O  O102  1  0.58599305  0.75247949  0.50489092  1
  O  O103  1  0.70345864  0.44141124  0.96632454  1
  O  O104  1  0.41400695  0.24752051  0.49510908  1
  O  O105  1  0.20545749  0.93185970  0.94864055  1
  O  O106  1  0.57487879  0.83547642  0.67004740  1
  O  O107  1  0.69821863  0.13775094  0.71977789  1
