# generated using pymatgen
data_Na2Ca3Al2F14
_symmetry_space_group_name_H-M   'P 1'
_cell_length_a   8.98290162
_cell_length_b   8.98290196
_cell_length_c   8.98290244
_cell_angle_alpha   109.47122169
_cell_angle_beta   109.47122246
_cell_angle_gamma   109.47122137
_symmetry_Int_Tables_number   1
_chemical_formula_structural   Na2Ca3Al2F14
_chemical_formula_sum   'Na4 Ca6 Al4 F28'
_cell_volume   557.99213313
_cell_formula_units_Z   2
loop_
 _symmetry_equiv_pos_site_id
 _symmetry_equiv_pos_as_xyz
  1  'x, y, z'
loop_
 _atom_site_type_symbol
 _atom_site_label
 _atom_site_symmetry_multiplicity
 _atom_site_fract_x
 _atom_site_fract_y
 _atom_site_fract_z
 _atom_site_occupancy
  Na  Na0  1  0.00000000  0.33032314  0.50000000  1
  Na  Na1  1  0.33032314  0.50000000  0.00000000  1
  Na  Na2  1  0.16967686  0.16967686  0.16967686  1
  Na  Na3  1  0.50000000  0.00000000  0.33032314  1
  Ca  Ca4  1  0.71657931  0.46657931  0.25000000  1
  Ca  Ca5  1  0.75000000  0.78342069  0.03342069  1
  Ca  Ca6  1  0.03342069  0.75000000  0.78342069  1
  Ca  Ca7  1  0.46657931  0.25000000  0.71657931  1
  Ca  Ca8  1  0.25000000  0.71657931  0.46657931  1
  Ca  Ca9  1  0.78342069  0.03342069  0.75000000  1
  Al  Al10  1  1.00000000  0.00359164  0.50000000  1
  Al  Al11  1  0.49640836  0.49640836  0.49640836  1
  Al  Al12  1  0.00359164  0.50000000  1.00000000  1
  Al  Al13  1  0.50000000  0.00000000  0.00359164  1
  F  F14  1  0.50000000  0.00000000  0.57761321  1
  F  F15  1  0.18635241  0.24172899  0.66825959  1
  F  F16  1  0.66825959  0.18635241  0.24172899  1
  F  F17  1  0.72755877  0.54987120  0.55108370  1
  F  F18  1  0.98190718  0.05537658  0.31364759  1
  F  F19  1  0.17647507  0.94891630  0.49878750  1
  F  F20  1  0.31364759  0.98190718  0.05537658  1
  F  F21  1  0.44462342  0.42653060  0.25827101  1
  F  F22  1  0.32352493  0.82231243  0.77244123  1
  F  F23  1  0.95012880  0.67768757  0.00121250  1
  F  F24  1  0.92238679  0.92238679  0.92238679  1
  F  F25  1  1.00000000  0.57761321  0.50000000  1
  F  F26  1  0.94891630  0.49878750  0.17647507  1
  F  F27  1  0.05537658  0.31364759  0.98190718  1
  F  F28  1  0.25827101  0.44462342  0.42653060  1
  F  F29  1  0.82231243  0.77244123  0.32352493  1
  F  F30  1  0.54987120  0.55108370  0.72755877  1
  F  F31  1  0.67768757  0.00121250  0.95012880  1
  F  F32  1  0.83174041  0.07346940  0.51809282  1
  F  F33  1  0.07346940  0.51809282  0.83174041  1
  F  F34  1  0.00121250  0.95012880  0.67768757  1
  F  F35  1  0.57761321  0.50000000  1.00000000  1
  F  F36  1  0.24172899  0.66825959  0.18635241  1
  F  F37  1  0.42653060  0.25827101  0.44462342  1
  F  F38  1  0.77244123  0.32352493  0.82231243  1
  F  F39  1  0.55108370  0.72755877  0.54987120  1
  F  F40  1  0.51809282  0.83174041  0.07346940  1
  F  F41  1  0.49878750  0.17647507  0.94891630  1
