# generated using pymatgen
data_Na2CuP2O7
_symmetry_space_group_name_H-M   'P 1'
_cell_length_a   5.14189371
_cell_length_b   8.98502030
_cell_length_c   13.72007589
_cell_angle_alpha   90.00000000
_cell_angle_beta   90.00000000
_cell_angle_gamma   92.97340085
_symmetry_Int_Tables_number   1
_chemical_formula_structural   Na2CuP2O7
_chemical_formula_sum   'Na8 Cu4 P8 O28'
_cell_volume   633.01441151
_cell_formula_units_Z   4
loop_
 _symmetry_equiv_pos_site_id
 _symmetry_equiv_pos_as_xyz
  1  'x, y, z'
loop_
 _atom_site_type_symbol
 _atom_site_label
 _atom_site_symmetry_multiplicity
 _atom_site_fract_x
 _atom_site_fract_y
 _atom_site_fract_z
 _atom_site_occupancy
  Na  Na0  1  0.28496031  0.36698430  0.38920314  1
  Na  Na1  1  0.73510926  0.15287042  0.29171825  1
  Na  Na2  1  0.23510926  0.65287042  0.20828175  1
  Na  Na3  1  0.71503969  0.63301570  0.61079686  1
  Na  Na4  1  0.78496031  0.86698430  0.11079686  1
  Na  Na5  1  0.76489074  0.34712958  0.79171825  1
  Na  Na6  1  0.26489074  0.84712958  0.70828175  1
  Na  Na7  1  0.21503969  0.13301570  0.88920314  1
  Cu  Cu8  1  0.20469768  0.26094447  0.15590905  1
  Cu  Cu9  1  0.70469768  0.76094447  0.34409095  1
  Cu  Cu10  1  0.29530232  0.23905553  0.65590905  1
  Cu  Cu11  1  0.79530232  0.73905553  0.84409095  1
  P  P12  1  0.77104851  0.04464322  0.67938450  1
  P  P13  1  0.27104851  0.54464322  0.82061550  1
  P  P14  1  0.70732059  0.22873963  0.03708524  1
  P  P15  1  0.22895149  0.95535678  0.32061550  1
  P  P16  1  0.29267941  0.77126037  0.96291476  1
  P  P17  1  0.72895149  0.45535678  0.17938450  1
  P  P18  1  0.79267941  0.27126037  0.53708524  1
  P  P19  1  0.20732059  0.72873963  0.46291476  1
  O  O20  1  0.99525548  0.14260599  0.72566440  1
  O  O21  1  0.49456089  0.91447785  0.27697371  1
  O  O22  1  0.18973395  0.12073252  0.31523838  1
  O  O23  1  0.79678563  0.21525742  0.93352649  1
  O  O24  1  0.08326428  0.32132282  0.55140877  1
  O  O25  1  0.49525548  0.64260599  0.77433560  1
  O  O26  1  0.91673572  0.67867718  0.44859123  1
  O  O27  1  0.99456089  0.41447785  0.22302629  1
  O  O28  1  0.58326428  0.82132282  0.94859123  1
  O  O29  1  0.00474452  0.85739401  0.27433560  1
  O  O30  1  0.87833403  0.15025666  0.11371498  1
  O  O31  1  0.37833403  0.65025666  0.38628502  1
  O  O32  1  0.62166597  0.34974334  0.61371498  1
  O  O33  1  0.81026605  0.87926748  0.68476162  1
  O  O34  1  0.00543911  0.58552215  0.77697371  1
  O  O35  1  0.76521001  0.09257567  0.56504520  1
  O  O36  1  0.26521001  0.59257567  0.93495480  1
  O  O37  1  0.68973395  0.62073252  0.18476162  1
  O  O38  1  0.12166597  0.84974334  0.88628502  1
  O  O39  1  0.50474452  0.35739401  0.22566440  1
  O  O40  1  0.73478999  0.40742433  0.06504520  1
  O  O41  1  0.41673572  0.17867718  0.05140877  1
  O  O42  1  0.31026605  0.37926748  0.81523838  1
  O  O43  1  0.20321437  0.78474258  0.06647351  1
  O  O44  1  0.50543911  0.08552215  0.72302629  1
  O  O45  1  0.23478999  0.90742433  0.43495480  1
  O  O46  1  0.70321437  0.28474258  0.43352649  1
  O  O47  1  0.29678563  0.71525742  0.56647351  1
