# generated using pymatgen
data_Mo17O47
_symmetry_space_group_name_H-M   'P 1'
_cell_length_a   3.92928878
_cell_length_b   20.36455423
_cell_length_c   22.31317526
_cell_angle_alpha   90.00000000
_cell_angle_beta   90.00000000
_cell_angle_gamma   90.00000000
_symmetry_Int_Tables_number   1
_chemical_formula_structural   Mo17O47
_chemical_formula_sum   'Mo34 O94'
_cell_volume   1785.46044292
_cell_formula_units_Z   2
loop_
 _symmetry_equiv_pos_site_id
 _symmetry_equiv_pos_as_xyz
  1  'x, y, z'
loop_
 _atom_site_type_symbol
 _atom_site_label
 _atom_site_symmetry_multiplicity
 _atom_site_fract_x
 _atom_site_fract_y
 _atom_site_fract_z
 _atom_site_occupancy
  Mo  Mo0  1  0.43519320  0.43709701  0.96077950  1
  Mo  Mo1  1  0.43519320  0.56290299  0.03922050  1
  Mo  Mo2  1  0.43519320  0.06290299  0.46077950  1
  Mo  Mo3  1  0.43519320  0.93709701  0.53922050  1
  Mo  Mo4  1  0.56371072  0.13392444  0.88617254  1
  Mo  Mo5  1  0.56371072  0.86607556  0.11382746  1
  Mo  Mo6  1  0.56371072  0.36607556  0.38617254  1
  Mo  Mo7  1  0.56371072  0.63392444  0.61382746  1
  Mo  Mo8  1  0.56446172  0.30315055  0.87943529  1
  Mo  Mo9  1  0.56446172  0.69684945  0.12056471  1
  Mo  Mo10  1  0.56446172  0.19684945  0.37943529  1
  Mo  Mo11  1  0.56446172  0.80315055  0.62056471  1
  Mo  Mo12  1  0.44452264  0.43292547  0.78670084  1
  Mo  Mo13  1  0.44452264  0.56707453  0.21329916  1
  Mo  Mo14  1  0.44452264  0.06707453  0.28670084  1
  Mo  Mo15  1  0.44452264  0.93292547  0.71329916  1
  Mo  Mo16  1  0.44571374  0.23972741  0.74005058  1
  Mo  Mo17  1  0.44571374  0.76027259  0.25994942  1
  Mo  Mo18  1  0.44571374  0.26027259  0.24005058  1
  Mo  Mo19  1  0.44571374  0.73972741  0.75994942  1
  Mo  Mo20  1  0.50924184  0.09666796  0.63128174  1
  Mo  Mo21  1  0.50924184  0.90333204  0.36871826  1
  Mo  Mo22  1  0.50924184  0.40333204  0.13128174  1
  Mo  Mo23  1  0.50924184  0.59666796  0.86871826  1
  Mo  Mo24  1  0.55488574  0.38112272  0.62871519  1
  Mo  Mo25  1  0.55488574  0.61887728  0.37128481  1
  Mo  Mo26  1  0.55488574  0.11887728  0.12871519  1
  Mo  Mo27  1  0.55488574  0.88112272  0.87128481  1
  Mo  Mo28  1  0.44201581  0.24089489  0.52288670  1
  Mo  Mo29  1  0.44201581  0.75910511  0.47711330  1
  Mo  Mo30  1  0.44201581  0.25910511  0.02288670  1
  Mo  Mo31  1  0.44201581  0.74089489  0.97711330  1
  Mo  Mo32  1  0.44081954  0.50000000  0.50000000  1
  Mo  Mo33  1  0.44081954  0.00000000  0.00000000  1
  O  O34  1  0.98460143  0.43818480  0.96126490  1
  O  O35  1  0.98460143  0.56181520  0.03873510  1
  O  O36  1  0.98460143  0.06181520  0.46126490  1
  O  O37  1  0.98460143  0.93818480  0.53873510  1
  O  O38  1  0.01730117  0.14502235  0.89052564  1
  O  O39  1  0.01730117  0.85497765  0.10947436  1
  O  O40  1  0.01730117  0.35497765  0.39052564  1
  O  O41  1  0.01730117  0.64502235  0.60947436  1
  O  O42  1  0.01143954  0.30526883  0.88081116  1
  O  O43  1  0.01143954  0.69473117  0.11918884  1
  O  O44  1  0.01143954  0.19473117  0.38081116  1
  O  O45  1  0.01143954  0.80526883  0.61918884  1
  O  O46  1  0.99274167  0.42693493  0.78977751  1
  O  O47  1  0.99274167  0.57306507  0.21022249  1
  O  O48  1  0.99274167  0.07306507  0.28977751  1
  O  O49  1  0.99274167  0.92693493  0.71022249  1
  O  O50  1  0.99478070  0.24164690  0.74700620  1
  O  O51  1  0.99478070  0.75835310  0.25299380  1
  O  O52  1  0.99478070  0.25835310  0.24700620  1
  O  O53  1  0.99478070  0.74164690  0.75299380  1
  O  O54  1  0.00001866  0.09552488  0.63060422  1
  O  O55  1  0.00001866  0.90447512  0.36939578  1
  O  O56  1  0.00001866  0.40447512  0.13060422  1
  O  O57  1  0.00001866  0.59552488  0.86939578  1
  O  O58  1  0.01425620  0.37908773  0.63158426  1
  O  O59  1  0.01425620  0.62091227  0.36841574  1
  O  O60  1  0.01425620  0.12091227  0.13158426  1
  O  O61  1  0.01425620  0.87908773  0.86841574  1
  O  O62  1  0.50490438  0.08235388  0.95487152  1
  O  O63  1  0.50490438  0.91764612  0.04512848  1
  O  O64  1  0.50490438  0.41764612  0.45487152  1
  O  O65  1  0.50494823  0.27157336  0.43652601  1
  O  O66  1  0.50490438  0.58235388  0.54512848  1
  O  O67  1  0.50494823  0.77157336  0.06347399  1
  O  O68  1  0.99456888  0.00000000  0.00000000  1
  O  O69  1  0.99456888  0.50000000  0.50000000  1
  O  O70  1  0.50213502  0.95408907  0.92661061  1
  O  O71  1  0.50213502  0.04591093  0.07338939  1
  O  O72  1  0.50213502  0.54591093  0.42661061  1
  O  O73  1  0.50213502  0.45408907  0.57338939  1
  O  O74  1  0.50328879  0.82021440  0.94212434  1
  O  O75  1  0.50328879  0.17978560  0.05787566  1
  O  O76  1  0.50328879  0.67978560  0.44212434  1
  O  O77  1  0.50328879  0.32021440  0.55787566  1
  O  O78  1  0.49337328  0.68063260  0.91747403  1
  O  O79  1  0.49337328  0.31936740  0.08252597  1
  O  O80  1  0.49337328  0.81936740  0.41747403  1
  O  O81  1  0.49337328  0.18063260  0.58252597  1
  O  O82  1  0.49426134  0.53704185  0.94989791  1
  O  O83  1  0.49426134  0.46295815  0.05010209  1
  O  O84  1  0.49426134  0.96295815  0.44989791  1
  O  O85  1  0.49426134  0.03704185  0.55010209  1
  O  O86  1  0.50523257  0.93324837  0.79412822  1
  O  O87  1  0.50523257  0.06675163  0.20587178  1
  O  O88  1  0.50523257  0.56675163  0.29412822  1
  O  O89  1  0.50523257  0.43324837  0.70587178  1
  O  O90  1  0.49862425  0.79605028  0.82179925  1
  O  O91  1  0.49862425  0.20394972  0.17820075  1
  O  O92  1  0.49862425  0.70394972  0.32179925  1
  O  O93  1  0.49862425  0.29605028  0.67820075  1
  O  O94  1  0.49520724  0.65977796  0.79479942  1
  O  O95  1  0.49520724  0.34022204  0.20520058  1
  O  O96  1  0.49520724  0.84022204  0.29479942  1
  O  O97  1  0.49520724  0.15977796  0.70520058  1
  O  O98  1  0.49407877  0.51694155  0.81248446  1
  O  O99  1  0.49407877  0.48305845  0.18751554  1
  O  O100  1  0.49407877  0.98305845  0.31248446  1
  O  O101  1  0.49407877  0.01694155  0.68751554  1
  O  O102  1  0.49907329  0.82984328  0.70559998  1
  O  O103  1  0.49907329  0.17015672  0.29440002  1
  O  O104  1  0.49907329  0.67015672  0.20559998  1
  O  O105  1  0.49907329  0.32984328  0.79440002  1
  O  O106  1  0.51147819  0.71916102  0.66992302  1
  O  O107  1  0.51147819  0.28083898  0.33007698  1
  O  O108  1  0.51147819  0.78083898  0.16992302  1
  O  O109  1  0.51147819  0.21916102  0.83007698  1
  O  O110  1  0.99080941  0.73956530  0.98183661  1
  O  O111  1  0.99080941  0.26043470  0.01816339  1
  O  O112  1  0.99080941  0.76043470  0.48183661  1
  O  O113  1  0.99080941  0.23956530  0.51816339  1
  O  O114  1  0.52379689  0.58066745  0.67268867  1
  O  O115  1  0.52379689  0.41933255  0.32731133  1
  O  O116  1  0.52379689  0.91933255  0.17268867  1
  O  O117  1  0.52379689  0.08066745  0.82731133  1
  O  O118  1  0.50501226  0.90445066  0.62362568  1
  O  O119  1  0.50501226  0.09554934  0.37637432  1
  O  O120  1  0.50501226  0.59554934  0.12362568  1
  O  O121  1  0.50501226  0.40445066  0.87637432  1
  O  O122  1  0.50569910  0.84012713  0.53503947  1
  O  O123  1  0.50569910  0.15987287  0.46496053  1
  O  O124  1  0.50569910  0.65987287  0.03503947  1
  O  O125  1  0.50569910  0.34012713  0.96496053  1
  O  O126  1  0.50494823  0.72842664  0.56347399  1
  O  O127  1  0.50494823  0.22842664  0.93652601  1
