# generated using pymatgen
data_CsHSO4
_symmetry_space_group_name_H-M   'P 1'
_cell_length_a   5.60325247
_cell_length_b   5.94645815
_cell_length_c   7.29717513
_cell_angle_alpha   90.00000000
_cell_angle_beta   100.15598791
_cell_angle_gamma   90.00000000
_symmetry_Int_Tables_number   1
_chemical_formula_structural   CsHSO4
_chemical_formula_sum   'Cs2 H2 S2 O8'
_cell_volume   239.32862324
_cell_formula_units_Z   2
loop_
 _symmetry_equiv_pos_site_id
 _symmetry_equiv_pos_as_xyz
  1  'x, y, z'
loop_
 _atom_site_type_symbol
 _atom_site_label
 _atom_site_symmetry_multiplicity
 _atom_site_fract_x
 _atom_site_fract_y
 _atom_site_fract_z
 _atom_site_occupancy
  Cs  Cs0  1  0.01384962  0.75000000  0.71528470  1
  Cs  Cs1  1  0.98615038  0.25000000  0.28471530  1
  H  H2  1  0.50000000  0.50000000  0.00000000  1
  H  H3  1  0.50000000  0.00000000  0.00000000  1
  S  S4  1  0.54563678  0.25000000  0.75934069  1
  S  S5  1  0.45436322  0.75000000  0.24065931  1
  O  O6  1  0.37766500  0.54326416  0.11684960  1
  O  O7  1  0.62233500  0.45673584  0.88315040  1
  O  O8  1  0.68740192  0.25000000  0.61077800  1
  O  O9  1  0.37766500  0.95673584  0.11684960  1
  O  O10  1  0.62233500  0.04326416  0.88315040  1
  O  O11  1  0.71801470  0.75000000  0.29870780  1
  O  O12  1  0.31259808  0.75000000  0.38922200  1
  O  O13  1  0.28198530  0.25000000  0.70129220  1
