# generated using pymatgen
data_Sc2C3
_symmetry_space_group_name_H-M   'P 1'
_cell_length_a   6.67109083
_cell_length_b   6.67109082
_cell_length_c   6.67109082
_cell_angle_alpha   109.47122063
_cell_angle_beta   109.47122061
_cell_angle_gamma   109.47122063
_symmetry_Int_Tables_number   1
_chemical_formula_structural   Sc2C3
_chemical_formula_sum   'Sc8 C12'
_cell_volume   228.54339242
_cell_formula_units_Z   4
loop_
 _symmetry_equiv_pos_site_id
 _symmetry_equiv_pos_as_xyz
  1  'x, y, z'
loop_
 _atom_site_type_symbol
 _atom_site_label
 _atom_site_symmetry_multiplicity
 _atom_site_fract_x
 _atom_site_fract_y
 _atom_site_fract_z
 _atom_site_occupancy
  C  C0  1  0.75000000  0.78831327  0.03831327  1
  C  C1  1  0.75000000  0.96168673  0.21168673  1
  C  C2  1  0.28831327  0.25000000  0.53831327  1
  C  C3  1  0.53831327  0.28831327  0.25000000  1
  C  C4  1  0.21168673  0.75000000  0.96168673  1
  C  C5  1  0.96168673  0.21168673  0.75000000  1
  C  C6  1  0.25000000  0.71168673  0.46168673  1
  C  C7  1  0.71168673  0.46168673  0.25000000  1
  C  C8  1  0.25000000  0.53831327  0.28831327  1
  C  C9  1  0.46168673  0.25000000  0.71168673  1
  C  C10  1  0.03831327  0.75000000  0.78831327  1
  C  C11  1  0.78831327  0.03831327  0.75000000  1
  Sc  Sc12  1  0.59978056  0.59978056  0.59978056  1
  Sc  Sc13  1  0.40021944  0.50000000  0.00000000  1
  Sc  Sc14  1  0.50000000  0.00000000  0.40021944  1
  Sc  Sc15  1  0.00000000  0.40021944  0.50000000  1
  Sc  Sc16  1  0.50000000  0.00000000  0.90021944  1
  Sc  Sc17  1  0.00000000  0.90021944  0.50000000  1
  Sc  Sc18  1  0.90021944  0.50000000  0.00000000  1
  Sc  Sc19  1  0.09978056  0.09978056  0.09978056  1
