# generated using pymatgen
data_Na2CuSi3O8
_symmetry_space_group_name_H-M   'P 1'
_cell_length_a   8.01281155
_cell_length_b   9.73027584
_cell_length_c   10.41055661
_cell_angle_alpha   90.00006658
_cell_angle_beta   90.00007265
_cell_angle_gamma   105.65603427
_symmetry_Int_Tables_number   1
_chemical_formula_structural   Na2CuSi3O8
_chemical_formula_sum   'Na8 Si12 Cu4 O32'
_cell_volume   781.56448230
_cell_formula_units_Z   4
loop_
 _symmetry_equiv_pos_site_id
 _symmetry_equiv_pos_as_xyz
  1  'x, y, z'
loop_
 _atom_site_type_symbol
 _atom_site_label
 _atom_site_symmetry_multiplicity
 _atom_site_fract_x
 _atom_site_fract_y
 _atom_site_fract_z
 _atom_site_occupancy
  Na  Na0  1  0.20563881  0.12901557  0.48923977  1
  Na  Na1  1  0.20563856  0.62901564  0.01076062  1
  Na  Na2  1  0.79436120  0.87098426  0.51076039  1
  Na  Na3  1  0.19657086  0.95940999  0.02604789  1
  Na  Na4  1  0.79436080  0.37098441  0.98923972  1
  Na  Na5  1  0.19657091  0.45940980  0.47395243  1
  Na  Na6  1  0.80342910  0.54059027  0.52604757  1
  Na  Na7  1  0.80342994  0.04059052  0.97395216  1
  Si  Si8  1  0.61648723  0.60901496  0.78331040  1
  Si  Si9  1  0.38351299  0.39098515  0.21668929  1
  Si  Si10  1  0.61833970  0.19261140  0.22875195  1
  Cu  Cu11  1  0.98624808  0.31254226  0.72817478  1
  Si  Si12  1  0.80459095  0.19161306  0.47718543  1
  Si  Si13  1  0.19540876  0.80838694  0.52281463  1
  Si  Si14  1  0.38166051  0.80738845  0.77124789  1
  Si  Si15  1  0.61648704  0.10901468  0.71668951  1
  Cu  Cu16  1  0.98625594  0.81253789  0.77182355  1
  Cu  Cu17  1  0.01374143  0.18746233  0.22817745  1
  Si  Si18  1  0.38351312  0.89098528  0.28331037  1
  Si  Si19  1  0.38166021  0.30738852  0.72875206  1
  Si  Si20  1  0.80459214  0.69161336  0.02281492  1
  Si  Si21  1  0.61834001  0.69261145  0.27124786  1
  Si  Si22  1  0.19540769  0.30838649  0.97718512  1
  Cu  Cu23  1  0.01375360  0.68745889  0.27182449  1
  O  O24  1  0.10253164  0.66312522  0.44424710  1
  O  O25  1  0.92872222  0.11589070  0.39670546  1
  O  O26  1  0.92872310  0.61589165  0.10329648  1
  O  O27  1  0.29816672  0.93214939  0.41753579  1
  O  O28  1  0.53489043  0.95797453  0.79373143  1
  O  O29  1  0.76100757  0.70988947  0.69093930  1
  O  O30  1  0.45868671  0.67845710  0.82799753  1
  O  O31  1  0.34522743  0.27351136  0.88227482  1
  O  O32  1  0.45868658  0.17845715  0.67200215  1
  O  O33  1  0.65477260  0.22648870  0.38227485  1
  O  O34  1  0.65477240  0.72648867  0.11772508  1
  O  O35  1  0.70183324  0.56785048  0.91753579  1
  O  O36  1  0.23899260  0.29011046  0.30906088  1
  O  O37  1  0.89746842  0.33687473  0.55575281  1
  O  O38  1  0.46510951  0.04202533  0.20626835  1
  O  O39  1  0.53489056  0.45797444  0.70626826  1
  O  O40  1  0.78938988  0.18992193  0.14793149  1
  O  O41  1  0.78939088  0.68992196  0.35206872  1
  O  O42  1  0.54131321  0.32154281  0.17200229  1
  O  O43  1  0.70183314  0.06785043  0.58246405  1
  O  O44  1  0.34522724  0.77351112  0.61772513  1
  O  O45  1  0.07127671  0.38410817  0.89670350  1
  O  O46  1  0.21061040  0.81007798  0.85206876  1
  O  O47  1  0.23899353  0.79011080  0.19093919  1
  O  O48  1  0.21060953  0.31007792  0.64793096  1
  O  O49  1  0.10253089  0.16312614  0.05575464  1
  O  O50  1  0.76100692  0.20988923  0.80906054  1
  O  O51  1  0.89746916  0.83687394  0.94424591  1
  O  O52  1  0.54131353  0.82154278  0.32799769  1
  O  O53  1  0.46510933  0.54202553  0.29373150  1
  O  O54  1  0.29816671  0.43214954  0.08246413  1
  O  O55  1  0.07127764  0.88410879  0.60329515  1
