# generated using pymatgen
data_SiO2
_symmetry_space_group_name_H-M   'P 1'
_cell_length_a   16.13070502
_cell_length_b   16.13070530
_cell_length_c   16.13070473
_cell_angle_alpha   51.12487779
_cell_angle_beta   51.12487703
_cell_angle_gamma   51.12487641
_symmetry_Int_Tables_number   1
_chemical_formula_structural   SiO2
_chemical_formula_sum   'Si40 O80'
_cell_volume   2347.13363457
_cell_formula_units_Z   40
loop_
 _symmetry_equiv_pos_site_id
 _symmetry_equiv_pos_as_xyz
  1  'x, y, z'
loop_
 _atom_site_type_symbol
 _atom_site_label
 _atom_site_symmetry_multiplicity
 _atom_site_fract_x
 _atom_site_fract_y
 _atom_site_fract_z
 _atom_site_occupancy
  Si  Si0  1  0.12958158  0.76995704  0.77284197  1
  Si  Si1  1  0.38465107  0.81340246  0.00958761  1
  Si  Si2  1  0.03004714  0.77282450  0.40007258  1
  Si  Si3  1  0.40007258  0.03004714  0.77282450  1
  Si  Si4  1  0.22304919  0.01149866  0.76515128  1
  Si  Si5  1  0.96995286  0.22717550  0.59992742  1
  Si  Si6  1  0.21359432  0.21359432  0.21359432  1
  Si  Si7  1  0.64757765  0.61561384  0.23381282  1
  Si  Si8  1  0.87041842  0.23004296  0.22715803  1
  Si  Si9  1  0.99041239  0.61534893  0.18659754  1
  Si  Si10  1  0.77284197  0.12958158  0.76995704  1
  Si  Si11  1  0.76515128  0.22304919  0.01149866  1
  Si  Si12  1  0.22717550  0.59992742  0.96995286  1
  Si  Si13  1  0.38438616  0.76618718  0.35242235  1
  Si  Si14  1  0.23004296  0.22715803  0.87041842  1
  Si  Si15  1  0.81340246  0.00958761  0.38465107  1
  Si  Si16  1  0.23381282  0.64757765  0.61561384  1
  Si  Si17  1  0.64747110  0.02636097  0.62891957  1
  Si  Si18  1  0.61534893  0.18659754  0.99041239  1
  Si  Si19  1  0.01149866  0.76515128  0.22304919  1
  Si  Si20  1  0.77695081  0.98850134  0.23484872  1
  Si  Si21  1  0.97363903  0.37108043  0.35252890  1
  Si  Si22  1  0.78640568  0.78640568  0.78640568  1
  Si  Si23  1  0.76995704  0.77284197  0.12958158  1
  Si  Si24  1  0.86315204  0.86315204  0.86315204  1
  Si  Si25  1  0.23484872  0.77695081  0.98850134  1
  Si  Si26  1  0.77282450  0.40007258  0.03004714  1
  Si  Si27  1  0.76618718  0.35242235  0.38438616  1
  Si  Si28  1  0.59992742  0.96995286  0.22717550  1
  Si  Si29  1  0.00958761  0.38465107  0.81340246  1
  Si  Si30  1  0.22715803  0.87041842  0.23004296  1
  Si  Si31  1  0.18659754  0.99041239  0.61534893  1
  Si  Si32  1  0.61561384  0.23381282  0.64757765  1
  Si  Si33  1  0.37108043  0.35252890  0.97363903  1
  Si  Si34  1  0.62891957  0.64747110  0.02636097  1
  Si  Si35  1  0.35252890  0.97363903  0.37108043  1
  Si  Si36  1  0.02636097  0.62891957  0.64747110  1
  Si  Si37  1  0.98850134  0.23484872  0.77695081  1
  Si  Si38  1  0.35242235  0.38438616  0.76618718  1
  Si  Si39  1  0.13684796  0.13684796  0.13684796  1
  O  O40  1  0.66809747  0.52389152  0.03227545  1
  O  O41  1  0.47610848  0.96772455  0.33190253  1
  O  O42  1  0.28185912  0.95139809  0.50697602  1
  O  O43  1  0.34431732  0.75236623  0.99695799  1
  O  O44  1  0.79154360  0.10462504  0.12080694  1
  O  O45  1  0.96772455  0.33190253  0.47610848  1
  O  O46  1  0.89984376  0.70271385  0.71837695  1
  O  O47  1  0.89304221  0.72200667  0.13214830  1
  O  O48  1  0.82481375  0.82481375  0.82481375  1
  O  O49  1  0.17518625  0.17518625  0.17518625  1
  O  O50  1  0.50697602  0.28185912  0.95139809  1
  O  O51  1  0.99650369  0.78003555  0.85073609  1
  O  O52  1  0.68394159  0.30904725  0.51962300  1
  O  O53  1  0.33326094  0.81522087  0.26270878  1
  O  O54  1  0.21996445  0.14926391  0.00349631  1
  O  O55  1  0.91624595  0.88754371  0.42065561  1
  O  O56  1  0.65568268  0.24763377  0.00304201  1
  O  O57  1  0.42065561  0.91624595  0.88754371  1
  O  O58  1  0.27799333  0.86785170  0.10695779  1
  O  O59  1  0.14607688  0.79678285  0.32992772  1
  O  O60  1  0.52389152  0.03227545  0.66809747  1
  O  O61  1  0.10695779  0.27799333  0.86785170  1
  O  O62  1  0.81522087  0.26270878  0.33326094  1
  O  O63  1  0.08375405  0.11245629  0.57934439  1
  O  O64  1  0.32992772  0.14607688  0.79678285  1
  O  O65  1  0.33190253  0.47610848  0.96772455  1
  O  O66  1  0.87444796  0.35224610  0.37140412  1
  O  O67  1  0.97263772  0.26683409  0.66893078  1
  O  O68  1  0.48037700  0.31605841  0.69095275  1
  O  O69  1  0.37140412  0.87444796  0.35224610  1
  O  O70  1  0.30904725  0.51962300  0.68394159  1
  O  O71  1  0.20845640  0.89537496  0.87919306  1
  O  O72  1  0.35224610  0.37140412  0.87444796  1
  O  O73  1  0.51962300  0.68394159  0.30904725  1
  O  O74  1  0.71837695  0.89984376  0.70271385  1
  O  O75  1  0.18477913  0.73729122  0.66673906  1
  O  O76  1  0.66893078  0.97263772  0.26683409  1
  O  O77  1  0.29728615  0.28162305  0.10015624  1
  O  O78  1  0.71814088  0.04860191  0.49302398  1
  O  O79  1  0.04860191  0.49302398  0.71814088  1
  O  O80  1  0.95139809  0.50697602  0.28185912  1
  O  O81  1  0.12555204  0.64775390  0.62859588  1
  O  O82  1  0.87919306  0.20845640  0.89537496  1
  O  O83  1  0.73316591  0.33106922  0.02736228  1
  O  O84  1  0.62859588  0.12555204  0.64775390  1
  O  O85  1  0.85392312  0.20321715  0.67007228  1
  O  O86  1  0.57934439  0.08375405  0.11245629  1
  O  O87  1  0.85073609  0.99650369  0.78003555  1
  O  O88  1  0.86785170  0.10695779  0.27799333  1
  O  O89  1  0.02736228  0.73316591  0.33106922  1
  O  O90  1  0.13214830  0.89304221  0.72200667  1
  O  O91  1  0.67007228  0.85392312  0.20321715  1
  O  O92  1  0.64775390  0.62859588  0.12555204  1
  O  O93  1  0.73729122  0.66673906  0.18477913  1
  O  O94  1  0.33106922  0.02736228  0.73316591  1
  O  O95  1  0.20321715  0.67007228  0.85392312  1
  O  O96  1  0.24763377  0.00304201  0.65568268  1
  O  O97  1  0.72200667  0.13214830  0.89304221  1
  O  O98  1  0.00349631  0.21996445  0.14926391  1
  O  O99  1  0.10462504  0.12080694  0.79154360  1
  O  O100  1  0.70271385  0.71837695  0.89984376  1
  O  O101  1  0.66673906  0.18477913  0.73729122  1
  O  O102  1  0.03227545  0.66809747  0.52389152  1
  O  O103  1  0.49302398  0.71814088  0.04860191  1
  O  O104  1  0.79678285  0.32992772  0.14607688  1
  O  O105  1  0.31605841  0.69095275  0.48037700  1
  O  O106  1  0.14926391  0.00349631  0.21996445  1
  O  O107  1  0.00304201  0.65568268  0.24763377  1
  O  O108  1  0.26683409  0.66893078  0.97263772  1
  O  O109  1  0.11245629  0.57934439  0.08375405  1
  O  O110  1  0.10015624  0.29728615  0.28162305  1
  O  O111  1  0.26270878  0.33326094  0.81522087  1
  O  O112  1  0.78003555  0.85073609  0.99650369  1
  O  O113  1  0.88754371  0.42065561  0.91624595  1
  O  O114  1  0.75236623  0.99695799  0.34431732  1
  O  O115  1  0.99695799  0.34431732  0.75236623  1
  O  O116  1  0.28162305  0.10015624  0.29728615  1
  O  O117  1  0.89537496  0.87919306  0.20845640  1
  O  O118  1  0.12080694  0.79154360  0.10462504  1
  O  O119  1  0.69095275  0.48037700  0.31605841  1
