# generated using pymatgen
data_K3ReClF6
_symmetry_space_group_name_H-M   'P 1'
_cell_length_a   6.09198572
_cell_length_b   8.43464597
_cell_length_c   8.43464597
_cell_angle_alpha   90.00000000
_cell_angle_beta   90.00000000
_cell_angle_gamma   90.00000000
_symmetry_Int_Tables_number   1
_chemical_formula_structural   K3ReClF6
_chemical_formula_sum   'K6 Re2 Cl2 F12'
_cell_volume   433.40367915
_cell_formula_units_Z   2
loop_
 _symmetry_equiv_pos_site_id
 _symmetry_equiv_pos_as_xyz
  1  'x, y, z'
loop_
 _atom_site_type_symbol
 _atom_site_label
 _atom_site_symmetry_multiplicity
 _atom_site_fract_x
 _atom_site_fract_y
 _atom_site_fract_z
 _atom_site_occupancy
  K  K0  1  0.50000000  0.18551369  0.68551369  1
  K  K1  1  0.50000000  0.68551369  0.81448631  1
  K  K2  1  0.00000000  0.50000000  0.50000000  1
  K  K3  1  0.50000000  0.31448631  0.18551369  1
  K  K4  1  0.50000000  0.81448631  0.31448631  1
  K  K5  1  0.00000000  0.00000000  0.00000000  1
  Re  Re6  1  0.00000000  0.00000000  0.50000000  1
  Re  Re7  1  0.00000000  0.50000000  0.00000000  1
  Cl  Cl8  1  0.50000000  0.50000000  0.50000000  1
  Cl  Cl9  1  0.50000000  0.00000000  0.00000000  1
  F  F10  1  0.24109701  0.38751876  0.88751876  1
  F  F11  1  0.75890299  0.88751876  0.61248124  1
  F  F12  1  0.00000000  0.33326335  0.16673665  1
  F  F13  1  0.75890299  0.38751876  0.88751876  1
  F  F14  1  0.75890299  0.11248124  0.38751876  1
  F  F15  1  0.00000000  0.66673665  0.83326335  1
  F  F16  1  0.24109701  0.61248124  0.11248124  1
  F  F17  1  0.00000000  0.16673665  0.66673665  1
  F  F18  1  0.24109701  0.88751876  0.61248124  1
  F  F19  1  0.24109701  0.11248124  0.38751876  1
  F  F20  1  0.75890299  0.61248124  0.11248124  1
  F  F21  1  0.00000000  0.83326335  0.33326335  1
