# generated using pymatgen
data_Ba3Ho2Cu2PtO10
_symmetry_space_group_name_H-M   'P 1'
_cell_length_a   5.85804361
_cell_length_b   6.94151455
_cell_length_c   7.48554469
_cell_angle_alpha   104.10956689
_cell_angle_beta   90.00000000
_cell_angle_gamma   114.95821331
_symmetry_Int_Tables_number   1
_chemical_formula_structural   Ba3Ho2Cu2PtO10
_chemical_formula_sum   'Ba3 Ho2 Cu2 Pt1 O10'
_cell_volume   265.80140659
_cell_formula_units_Z   1
loop_
 _symmetry_equiv_pos_site_id
 _symmetry_equiv_pos_as_xyz
  1  'x, y, z'
loop_
 _atom_site_type_symbol
 _atom_site_label
 _atom_site_symmetry_multiplicity
 _atom_site_fract_x
 _atom_site_fract_y
 _atom_site_fract_z
 _atom_site_occupancy
  Ba  Ba0  1  0.84724225  0.69448450  0.46195314  1
  Ba  Ba1  1  0.00000000  0.00000000  0.00000000  1
  Ba  Ba2  1  0.15275775  0.30551550  0.53804686  1
  Ho  Ho3  1  0.31117268  0.62234535  0.12572206  1
  Ho  Ho4  1  0.68882732  0.37765465  0.87427794  1
  Cu  Cu5  1  0.59012951  0.18025902  0.19952690  1
  Cu  Cu6  1  0.40987049  0.81974098  0.80047310  1
  Pt  Pt7  1  0.50000000  0.00000000  0.50000000  1
  O  O8  1  0.70192438  0.96368658  0.28053251  1
  O  O9  1  0.54521497  0.63179135  0.87496525  1
  O  O10  1  0.33268530  0.66537061  0.44808670  1
  O  O11  1  0.08657638  0.63179135  0.87496525  1
  O  O12  1  0.91342362  0.36820865  0.12503475  1
  O  O13  1  0.45478503  0.36820865  0.12503475  1
  O  O14  1  0.29807562  0.03631342  0.71946749  1
  O  O15  1  0.66731470  0.33462939  0.55191330  1
  O  O16  1  0.73823780  0.03631342  0.71946749  1
  O  O17  1  0.26176220  0.96368658  0.28053251  1
