# generated using pymatgen
data_MnP4O11
_symmetry_space_group_name_H-M   'P 1'
_cell_length_a   9.48344088
_cell_length_b   9.51200119
_cell_length_c   11.02281422
_cell_angle_alpha   108.94894549
_cell_angle_beta   108.69867329
_cell_angle_gamma   90.25155150
_symmetry_Int_Tables_number   1
_chemical_formula_structural   MnP4O11
_chemical_formula_sum   'Mn4 P16 O44'
_cell_volume   884.24986969
_cell_formula_units_Z   4
loop_
 _symmetry_equiv_pos_site_id
 _symmetry_equiv_pos_as_xyz
  1  'x, y, z'
loop_
 _atom_site_type_symbol
 _atom_site_label
 _atom_site_symmetry_multiplicity
 _atom_site_fract_x
 _atom_site_fract_y
 _atom_site_fract_z
 _atom_site_occupancy
  Mn  Mn0  1  0.74624269  0.72984447  0.97991788  1
  Mn  Mn1  1  0.25375731  0.27015553  0.02008212  1
  Mn  Mn2  1  0.77317129  0.23347631  0.50355860  1
  Mn  Mn3  1  0.22682871  0.76652369  0.49644140  1
  P  P4  1  0.08732600  0.94321716  0.75296202  1
  P  P5  1  0.91267400  0.05678284  0.24703798  1
  P  P6  1  0.76675005  0.91934777  0.60891349  1
  P  P7  1  0.23324995  0.08065223  0.39108651  1
  P  P8  1  0.10131700  0.72920586  0.91064914  1
  P  P9  1  0.89868300  0.27079414  0.08935086  1
  P  P10  1  0.73586039  0.58572342  0.43760964  1
  P  P11  1  0.26413961  0.41427658  0.56239036  1
  P  P12  1  0.56041607  0.91894810  0.76515506  1
  P  P13  1  0.43958393  0.08105190  0.23484494  1
  P  P14  1  0.43119926  0.74967554  0.07831822  1
  P  P15  1  0.56880074  0.25032446  0.92168178  1
  P  P16  1  0.10415302  0.41002162  0.76397985  1
  P  P17  1  0.89584698  0.58997838  0.23602015  1
  P  P18  1  0.41301868  0.60024208  0.27928438  1
  P  P19  1  0.58698132  0.39975792  0.72071562  1
  O  O20  1  0.91110567  0.96058880  0.74217508  1
  O  O21  1  0.08889433  0.03941120  0.25782492  1
  O  O22  1  0.08540156  0.83665937  0.61912991  1
  O  O23  1  0.91459844  0.16334063  0.38087009  1
  O  O24  1  0.17623508  0.09327523  0.82079338  1
  O  O25  1  0.82376492  0.90672477  0.17920662  1
  O  O26  1  0.13643511  0.86414599  0.86931810  1
  O  O27  1  0.86356489  0.13585401  0.13068190  1
  O  O28  1  0.74165398  0.73991345  0.55534608  1
  O  O29  1  0.25834602  0.26008655  0.44465392  1
  O  O30  1  0.76912006  0.98855404  0.50777005  1
  O  O31  1  0.23087994  0.01144596  0.49222995  1
  O  O32  1  0.63630756  0.96520807  0.66661490  1
  O  O33  1  0.36369244  0.03479193  0.33338510  1
  O  O34  1  0.25212392  0.73684450  0.03308002  1
  O  O35  1  0.74787608  0.26315550  0.96691998  1
  O  O36  1  0.09406093  0.58881524  0.78244754  1
  O  O37  1  0.90593907  0.41118476  0.21755246  1
  O  O38  1  0.97389038  0.73647051  0.95970861  1
  O  O39  1  0.02610962  0.26352949  0.04029139  1
  O  O40  1  0.80882908  0.63490747  0.34692024  1
  O  O41  1  0.19117092  0.36509253  0.65307976  1
  O  O42  1  0.56509018  0.53618998  0.35092580  1
  O  O43  1  0.43490982  0.46381002  0.64907420  1
  O  O44  1  0.80244905  0.47129657  0.49383059  1
  O  O45  1  0.19755095  0.52870343  0.50616941  1
  O  O46  1  0.51110933  0.08167206  0.83187208  1
  O  O47  1  0.48889067  0.91832794  0.16812792  1
  O  O48  1  0.41935587  0.81775846  0.67930071  1
  O  O49  1  0.58064413  0.18224154  0.32069929  1
  O  O50  1  0.68004493  0.88191122  0.87188974  1
  O  O51  1  0.31995507  0.11808878  0.12811026  1
  O  O52  1  0.49454361  0.69822790  0.96769660  1
  O  O53  1  0.50545639  0.30177210  0.03230340  1
  O  O54  1  0.47574088  0.66204092  0.18080988  1
  O  O55  1  0.52425912  0.33795908  0.81919012  1
  O  O56  1  0.95301437  0.32325012  0.69588562  1
  O  O57  1  0.04698563  0.67674988  0.30411438  1
  O  O58  1  0.20817960  0.40865412  0.89705169  1
  O  O59  1  0.79182040  0.59134588  0.10294831  1
  O  O60  1  0.38328906  0.72966091  0.38402561  1
  O  O61  1  0.61671094  0.27033909  0.61597439  1
  O  O62  1  0.30029382  0.46706698  0.19534545  1
  O  O63  1  0.69970618  0.53293302  0.80465455  1
