# generated using pymatgen
data_Cd4Te6Cl6O13
_symmetry_space_group_name_H-M   'P 1'
_cell_length_a   8.01540924
_cell_length_b   10.10584716
_cell_length_c   14.35040913
_cell_angle_alpha   76.08934329
_cell_angle_beta   74.98418796
_cell_angle_gamma   89.88081313
_symmetry_Int_Tables_number   1
_chemical_formula_structural   Cd4Te6Cl6O13
_chemical_formula_sum   'Cd8 Te12 Cl12 O26'
_cell_volume   1087.55042582
_cell_formula_units_Z   2
loop_
 _symmetry_equiv_pos_site_id
 _symmetry_equiv_pos_as_xyz
  1  'x, y, z'
loop_
 _atom_site_type_symbol
 _atom_site_label
 _atom_site_symmetry_multiplicity
 _atom_site_fract_x
 _atom_site_fract_y
 _atom_site_fract_z
 _atom_site_occupancy
  Cd  Cd0  1  0.90798973  0.35287183  0.46514698  1
  Cd  Cd1  1  0.89168093  0.84474223  0.96186159  1
  Cd  Cd2  1  0.09201027  0.64712817  0.53485302  1
  Cd  Cd3  1  0.58798290  0.64478763  0.54076854  1
  Cd  Cd4  1  0.41201710  0.35521237  0.45923146  1
  Cd  Cd5  1  0.60555890  0.15557751  0.03911963  1
  Cd  Cd6  1  0.10831907  0.15525777  0.03813841  1
  Cd  Cd7  1  0.39444110  0.84442249  0.96088037  1
  Te  Te8  1  0.70017297  0.99478783  0.39652515  1
  Te  Te9  1  0.75186080  0.43953103  0.24340276  1
  Te  Te10  1  0.44637631  0.72419134  0.31847801  1
  Te  Te11  1  0.01633576  0.32398762  0.70945857  1
  Te  Te12  1  0.29982703  0.00521217  0.60347485  1
  Te  Te13  1  0.13850535  0.00085611  0.39378142  1
  Te  Te14  1  0.98366424  0.67601238  0.29054143  1
  Te  Te15  1  0.72062501  0.56250181  0.75711842  1
  Te  Te16  1  0.24813920  0.56046897  0.75659724  1
  Te  Te17  1  0.55362369  0.27580866  0.68152199  1
  Te  Te18  1  0.86149465  0.99914389  0.60621858  1
  Te  Te19  1  0.27937499  0.43749819  0.24288158  1
  Cl  Cl20  1  0.67899971  0.03665707  0.88873162  1
  Cl  Cl21  1  0.51903596  0.19843330  0.21500884  1
  Cl  Cl22  1  0.32100029  0.96334293  0.11126838  1
  Cl  Cl23  1  0.03023671  0.21743835  0.20908740  1
  Cl  Cl24  1  0.39143674  0.32015439  0.96621781  1
  Cl  Cl25  1  0.88972326  0.31673219  0.96693219  1
  Cl  Cl26  1  0.48096404  0.80156670  0.78499116  1
  Cl  Cl27  1  0.60856326  0.67984561  0.03378219  1
  Cl  Cl28  1  0.82356487  0.96345722  0.11362472  1
  Cl  Cl29  1  0.11027674  0.68326781  0.03306781  1
  Cl  Cl30  1  0.96976329  0.78256165  0.79091260  1
  Cl  Cl31  1  0.17643513  0.03654278  0.88637528  1
  O  O32  1  0.93719558  0.11220995  0.46811160  1
  O  O33  1  0.76192140  0.18477230  0.62589476  1
  O  O34  1  0.60119643  0.40741187  0.55879419  1
  O  O35  1  0.29319858  0.67095410  0.62551746  1
  O  O36  1  0.39880357  0.59258813  0.44120581  1
  O  O37  1  0.40123451  0.17864427  0.60363098  1
  O  O38  1  0.20177012  0.33603215  0.37619074  1
  O  O39  1  0.07376456  0.08520781  0.62973592  1
  O  O40  1  0.79822988  0.66396785  0.62380926  1
  O  O41  1  0.92623544  0.91479219  0.37026408  1
  O  O42  1  0.74861194  0.62255608  0.27518674  1
  O  O43  1  0.49926051  0.52399000  0.72457449  1
  O  O44  1  0.92152654  0.59804959  0.42959941  1
  O  O45  1  0.64516042  0.94289530  0.53867244  1
  O  O46  1  0.35483958  0.05710470  0.46132756  1
  O  O47  1  0.98996620  0.50685398  0.73904311  1
  O  O48  1  0.50073949  0.47601000  0.27542551  1
  O  O49  1  0.70680142  0.32904590  0.37448254  1
  O  O50  1  0.06280442  0.88779005  0.53188840  1
  O  O51  1  0.07847346  0.40195041  0.57040059  1
  O  O52  1  0.74527633  0.37414147  0.72864895  1
  O  O53  1  0.25138806  0.37744392  0.72481326  1
  O  O54  1  0.23807860  0.81522770  0.37410524  1
  O  O55  1  0.59876549  0.82135573  0.39636902  1
  O  O56  1  0.25472367  0.62585853  0.27135105  1
  O  O57  1  0.01003380  0.49314602  0.26095689  1
