# generated using pymatgen
data_SiO2
_symmetry_space_group_name_H-M   'P 1'
_cell_length_a   7.49645018
_cell_length_b   19.60776162
_cell_length_c   19.60776162
_cell_angle_alpha   90.00000000
_cell_angle_beta   90.00000000
_cell_angle_gamma   90.00000000
_symmetry_Int_Tables_number   1
_chemical_formula_structural   SiO2
_chemical_formula_sum   'Si48 O96'
_cell_volume   2882.11758898
_cell_formula_units_Z   48
loop_
 _symmetry_equiv_pos_site_id
 _symmetry_equiv_pos_as_xyz
  1  'x, y, z'
loop_
 _atom_site_type_symbol
 _atom_site_label
 _atom_site_symmetry_multiplicity
 _atom_site_fract_x
 _atom_site_fract_y
 _atom_site_fract_z
 _atom_site_occupancy
  Si  Si0  1  0.15725258  0.24434855  0.64330571  1
  Si  Si1  1  0.78974456  0.41903751  0.19197862  1
  Si  Si2  1  0.78974456  0.19197862  0.58096249  1
  Si  Si3  1  0.34381468  0.14323072  0.74442534  1
  Si  Si4  1  0.71130169  0.69200387  0.91904091  1
  Si  Si5  1  0.34381468  0.85676928  0.25557466  1
  Si  Si6  1  0.34381468  0.74442534  0.85676928  1
  Si  Si7  1  -0.00009415  0.92021070  0.19242860  1
  Si  Si8  1  -0.00009415  0.80757140  0.92021070  1
  Si  Si9  1  0.15725258  0.64330571  0.24434855  1
  Si  Si10  1  -0.00009415  0.07978930  0.19242860  1
  Si  Si11  1  -0.00009415  0.19242860  0.07978930  1
  Si  Si12  1  0.71130169  0.08095909  0.30799613  1
  Si  Si13  1  0.50102640  0.57978969  0.69243812  1
  Si  Si14  1  0.50102640  0.42021031  0.69243812  1
  Si  Si15  1  0.34381468  0.25557466  0.14323072  1
  Si  Si16  1  0.50102640  0.57978969  0.30756188  1
  Si  Si17  1  0.15725258  0.75565145  0.35669429  1
  Si  Si18  1  0.15725258  0.35669429  0.24434855  1
  Si  Si19  1  0.71130169  0.08095909  0.69200387  1
  Si  Si20  1  0.78974456  0.80802138  0.41903751  1
  Si  Si21  1  0.15725258  0.35669429  0.75565145  1
  Si  Si22  1  0.50102640  0.30756188  0.57978969  1
  Si  Si23  1  0.50102640  0.42021031  0.30756188  1
  Si  Si24  1  0.71130169  0.30799613  0.08095909  1
  Si  Si25  1  0.15725258  0.75565145  0.64330571  1
  Si  Si26  1  0.15725258  0.64330571  0.75565145  1
  Si  Si27  1  0.78974456  0.58096249  0.80802138  1
  Si  Si28  1  0.71130169  0.91904091  0.30799613  1
  Si  Si29  1  0.34381468  0.74442534  0.14323072  1
  Si  Si30  1  0.15725258  0.24434855  0.35669429  1
  Si  Si31  1  0.78974456  0.41903751  0.80802138  1
  Si  Si32  1  0.50102640  0.30756188  0.42021031  1
  Si  Si33  1  0.50102640  0.69243812  0.57978969  1
  Si  Si34  1  0.78974456  0.58096249  0.19197862  1
  Si  Si35  1  0.71130169  0.30799613  0.91904091  1
  Si  Si36  1  0.71130169  0.91904091  0.69200387  1
  Si  Si37  1  -0.00009415  0.80757140  0.07978930  1
  Si  Si38  1  0.78974456  0.80802138  0.58096249  1
  Si  Si39  1  0.34381468  0.14323072  0.25557466  1
  Si  Si40  1  0.71130169  0.69200387  0.08095909  1
  Si  Si41  1  -0.00009415  0.92021070  0.80757140  1
  Si  Si42  1  0.34381468  0.25557466  0.85676928  1
  Si  Si43  1  -0.00009415  0.19242860  0.92021070  1
  Si  Si44  1  0.50102640  0.69243812  0.42021031  1
  Si  Si45  1  0.34381468  0.85676928  0.74442534  1
  Si  Si46  1  -0.00009415  0.07978930  0.80757140  1
  Si  Si47  1  0.78974456  0.19197862  0.41903751  1
  O  O48  1  0.75039614  0.12146492  0.37852990  1
  O  O49  1  0.75039614  0.12146492  0.62147010  1
  O  O50  1  0.97297688  0.00000000  0.17339960  1
  O  O51  1  0.86015351  0.89712952  0.74839708  1
  O  O52  1  0.09299405  0.70232938  0.29767062  1
  O  O53  1  0.25057041  0.32199386  0.17793905  1
  O  O54  1  0.64095053  0.75158062  0.39720686  1
  O  O55  1  0.86015351  0.25160292  0.89712952  1
  O  O56  1  0.29786116  0.71892993  0.40802656  1
  O  O57  1  0.64095053  0.60279314  0.75158062  1
  O  O58  1  0.51418122  0.90103384  0.72070001  1
  O  O59  1  0.96163929  0.12424345  0.87575655  1
  O  O60  1  0.86015351  0.74839708  0.10287048  1
  O  O61  1  0.29786116  0.40802656  0.28107007  1
  O  O62  1  0.52773116  0.50000000  0.67335872  1
  O  O63  1  0.86015351  0.74839708  0.89712952  1
  O  O64  1  0.09299405  0.29767062  0.29767062  1
  O  O65  1  0.52773116  0.50000000  0.32664128  1
  O  O66  1  0.72301430  0.67618862  0.00000000  1
  O  O67  1  0.77828119  0.50000000  0.17614354  1
  O  O68  1  0.98687168  0.40094359  0.22060994  1
  O  O69  1  0.25057041  0.67800614  0.17793905  1
  O  O70  1  0.25057041  0.82206095  0.67800614  1
  O  O71  1  0.29786116  0.59197344  0.28107007  1
  O  O72  1  0.98687168  0.22060994  0.40094359  1
  O  O73  1  0.53927586  0.62426576  0.37573424  1
  O  O74  1  0.20314563  0.09191282  0.78113243  1
  O  O75  1  0.86015351  0.10287048  0.25160292  1
  O  O76  1  0.20314563  0.09191282  0.21886757  1
  O  O77  1  0.77828119  0.17614354  0.50000000  1
  O  O78  1  0.75039614  0.87853508  0.37852990  1
  O  O79  1  0.29786116  0.59197344  0.71892993  1
  O  O80  1  0.64095053  0.24841938  0.60279314  1
  O  O81  1  0.72301430  0.00000000  0.67618862  1
  O  O82  1  0.97297688  0.00000000  0.82660040  1
  O  O83  1  0.98687168  0.77939006  0.40094359  1
  O  O84  1  0.40807521  0.20225099  0.79774901  1
  O  O85  1  0.25057041  0.67800614  0.82206095  1
  O  O86  1  0.96163929  0.87575655  0.12424345  1
  O  O87  1  0.29786116  0.28107007  0.59197344  1
  O  O88  1  0.75039614  0.37852990  0.87853508  1
  O  O89  1  0.53927586  0.37573424  0.62426576  1
  O  O90  1  0.20314563  0.90808718  0.21886757  1
  O  O91  1  0.64095053  0.39720686  0.24841938  1
  O  O92  1  0.51418122  0.09896616  0.72070001  1
  O  O93  1  0.09299405  0.70232938  0.70232938  1
  O  O94  1  0.64095053  0.75158062  0.60279314  1
  O  O95  1  0.53927586  0.62426576  0.62426576  1
  O  O96  1  0.25057041  0.82206095  0.32199386  1
  O  O97  1  0.64095053  0.39720686  0.75158062  1
  O  O98  1  0.97297688  0.82660040  0.00000000  1
  O  O99  1  0.40807521  0.79774901  0.20225099  1
  O  O100  1  0.77828119  0.82385646  0.50000000  1
  O  O101  1  0.64095053  0.24841938  0.39720686  1
  O  O102  1  0.86015351  0.89712952  0.25160292  1
  O  O103  1  0.25057041  0.32199386  0.82206095  1
  O  O104  1  0.75039614  0.37852990  0.12146492  1
  O  O105  1  0.29786116  0.28107007  0.40802656  1
  O  O106  1  0.51418122  0.72070001  0.90103384  1
  O  O107  1  0.97297688  0.17339960  0.00000000  1
  O  O108  1  0.09299405  0.29767062  0.70232938  1
  O  O109  1  0.51418122  0.27929999  0.09896616  1
  O  O110  1  0.52773116  0.67335872  0.50000000  1
  O  O111  1  0.75039614  0.62147010  0.12146492  1
  O  O112  1  0.72301430  0.00000000  0.32381138  1
  O  O113  1  0.51418122  0.72070001  0.09896616  1
  O  O114  1  0.86015351  0.25160292  0.10287048  1
  O  O115  1  0.20314563  0.21886757  0.09191282  1
  O  O116  1  0.98687168  0.77939006  0.59905641  1
  O  O117  1  0.98687168  0.59905641  0.22060994  1
  O  O118  1  0.20314563  0.21886757  0.90808718  1
  O  O119  1  0.77828119  0.50000000  0.82385646  1
  O  O120  1  0.51418122  0.09896616  0.27929999  1
  O  O121  1  0.96163929  0.87575655  0.87575655  1
  O  O122  1  0.98687168  0.59905641  0.77939006  1
  O  O123  1  0.51418122  0.90103384  0.27929999  1
  O  O124  1  0.86015351  0.10287048  0.74839708  1
  O  O125  1  0.25057041  0.17793905  0.67800614  1
  O  O126  1  0.51418122  0.27929999  0.90103384  1
  O  O127  1  0.98687168  0.22060994  0.59905641  1
  O  O128  1  0.75039614  0.87853508  0.62147010  1
  O  O129  1  0.72301430  0.32381138  0.00000000  1
  O  O130  1  0.20314563  0.90808718  0.78113243  1
  O  O131  1  0.75039614  0.62147010  0.87853508  1
  O  O132  1  0.20314563  0.78113243  0.09191282  1
  O  O133  1  0.40807521  0.79774901  0.79774901  1
  O  O134  1  0.52773116  0.32664128  0.50000000  1
  O  O135  1  0.53927586  0.37573424  0.37573424  1
  O  O136  1  0.29786116  0.71892993  0.59197344  1
  O  O137  1  0.98687168  0.40094359  0.77939006  1
  O  O138  1  0.25057041  0.17793905  0.32199386  1
  O  O139  1  0.29786116  0.40802656  0.71892993  1
  O  O140  1  0.64095053  0.60279314  0.24841938  1
  O  O141  1  0.20314563  0.78113243  0.90808718  1
  O  O142  1  0.96163929  0.12424345  0.12424345  1
  O  O143  1  0.40807521  0.20225099  0.20225099  1
