# generated using pymatgen
data_Na3Li4Th6F31
_symmetry_space_group_name_H-M   'P 1'
_cell_length_a   9.96199692
_cell_length_b   9.96199671
_cell_length_c   13.46531388
_cell_angle_alpha   90.00000000
_cell_angle_beta   90.00000000
_cell_angle_gamma   120.00000070
_symmetry_Int_Tables_number   1
_chemical_formula_structural   Na3Li4Th6F31
_chemical_formula_sum   'Na6 Li8 Th12 F62'
_cell_volume   1157.28388848
_cell_formula_units_Z   2
loop_
 _symmetry_equiv_pos_site_id
 _symmetry_equiv_pos_as_xyz
  1  'x, y, z'
loop_
 _atom_site_type_symbol
 _atom_site_label
 _atom_site_symmetry_multiplicity
 _atom_site_fract_x
 _atom_site_fract_y
 _atom_site_fract_z
 _atom_site_occupancy
  Na  Na0  1  0.33333300  0.66666700  0.75727694  1
  Na  Na1  1  0.00000000  0.00000000  0.12350908  1
  Na  Na2  1  0.33333300  0.66666700  0.25727694  1
  Na  Na3  1  0.66666700  0.33333300  0.95347458  1
  Na  Na4  1  0.66666700  0.33333300  0.45347458  1
  Na  Na5  1  0.00000000  0.00000000  0.62350908  1
  Li  Li6  1  0.23829647  0.95119461  0.31173952  1
  Li  Li7  1  0.71289814  0.95119461  0.81173952  1
  Li  Li8  1  0.00000000  0.00000000  0.36103183  1
  Li  Li9  1  0.00000000  0.00000000  0.86103183  1
  Li  Li10  1  0.04880539  0.28710186  0.31173952  1
  Li  Li11  1  0.04880539  0.76170353  0.81173952  1
  Li  Li12  1  0.71289814  0.76170353  0.31173952  1
  Li  Li13  1  0.23829647  0.28710186  0.81173952  1
  Th  Th14  1  0.91386112  0.32530098  0.70666914  1
  Th  Th15  1  0.60397299  0.92092426  0.50090931  1
  Th  Th16  1  0.41143986  0.08613888  0.70666914  1
  Th  Th17  1  0.67469902  0.08613888  0.20666914  1
  Th  Th18  1  0.07907574  0.68304873  0.50090931  1
  Th  Th19  1  0.91386112  0.58856014  0.20666914  1
  Th  Th20  1  0.31695127  0.92092426  0.00090931  1
  Th  Th21  1  0.67469902  0.58856014  0.70666914  1
  Th  Th22  1  0.07907574  0.39602701  0.00090931  1
  Th  Th23  1  0.31695127  0.39602701  0.50090931  1
  Th  Th24  1  0.41143986  0.32530098  0.20666914  1
  Th  Th25  1  0.60397299  0.68304873  0.00090931  1
  F  F26  1  0.81084767  0.68978447  0.08371695  1
  F  F27  1  0.16565523  0.65464551  0.95478967  1
  F  F28  1  0.44316332  0.12977642  0.88476912  1
  F  F29  1  0.28503710  0.42516928  0.31096380  1
  F  F30  1  0.89341015  0.08085275  0.26422492  1
  F  F31  1  0.48899028  0.83434477  0.95478967  1
  F  F32  1  0.44316332  0.31338690  0.38476912  1
  F  F33  1  0.14013218  0.42516928  0.81096380  1
  F  F34  1  0.18854356  0.88321230  0.62430390  1
  F  F35  1  0.41560118  0.54602000  0.64690831  1
  F  F36  1  0.28503710  0.85986782  0.81096380  1
  F  F37  1  0.13041882  0.58439882  0.64690831  1
  F  F38  1  0.68661310  0.55683668  0.88476912  1
  F  F39  1  0.69466874  0.81145644  0.62430390  1
  F  F40  1  0.11678770  0.81145644  0.12430390  1
  F  F41  1  0.80050285  0.90621129  0.93311779  1
  F  F42  1  0.89341015  0.81255740  0.76422492  1
  F  F43  1  0.31021553  0.12106320  0.08371695  1
  F  F44  1  0.88409675  0.46476870  0.05187127  1
  F  F45  1  0.58067196  0.11590325  0.05187127  1
  F  F46  1  0.41560118  0.86958118  0.14690831  1
  F  F47  1  0.64813223  0.55413813  0.26264837  1
  F  F48  1  0.11678770  0.30533126  0.62430390  1
  F  F49  1  0.58067196  0.46476870  0.55187127  1
  F  F50  1  0.45398000  0.58439882  0.14690831  1
  F  F51  1  0.80050285  0.89429156  0.43311779  1
  F  F52  1  0.57483072  0.85986782  0.31096380  1
  F  F53  1  0.90600590  0.35186777  0.26264837  1
  F  F54  1  0.10570844  0.90621129  0.43311779  1
  F  F55  1  0.09378871  0.19949715  0.43311779  1
  F  F56  1  0.18854356  0.30533126  0.12430390  1
  F  F57  1  0.31021553  0.18915233  0.58371695  1
  F  F58  1  0.68661310  0.12977642  0.38476912  1
  F  F59  1  0.87893680  0.68978447  0.58371695  1
  F  F60  1  0.09378871  0.89429156  0.93311779  1
  F  F61  1  0.87022358  0.31338690  0.88476912  1
  F  F62  1  0.34535449  0.51100972  0.95478967  1
  F  F63  1  0.64813223  0.09399410  0.76264837  1
  F  F64  1  0.44586187  0.09399410  0.26264837  1
  F  F65  1  0.87893680  0.18915233  0.08371695  1
  F  F66  1  0.81084767  0.12106320  0.58371695  1
  F  F67  1  0.53523130  0.41932804  0.05187127  1
  F  F68  1  0.34535449  0.83434477  0.45478967  1
  F  F69  1  0.14013218  0.71496290  0.31096380  1
  F  F70  1  0.45398000  0.86958118  0.64690831  1
  F  F71  1  0.53523130  0.11590325  0.55187127  1
  F  F72  1  0.10570844  0.19949715  0.93311779  1
  F  F73  1  0.44586187  0.35186777  0.76264837  1
  F  F74  1  0.66666700  0.33333300  0.69401138  1
  F  F75  1  0.88409675  0.41932804  0.55187127  1
  F  F76  1  0.13041882  0.54602000  0.14690831  1
  F  F77  1  0.90600590  0.55413813  0.76264837  1
  F  F78  1  0.57483072  0.71496290  0.81096380  1
  F  F79  1  0.18744260  0.08085275  0.76422492  1
  F  F80  1  0.91914725  0.10658985  0.76422492  1
  F  F81  1  0.91914725  0.81255740  0.26422492  1
  F  F82  1  0.87022358  0.55683668  0.38476912  1
  F  F83  1  0.18744260  0.10658985  0.26422492  1
  F  F84  1  0.66666700  0.33333300  0.19401138  1
  F  F85  1  0.16565523  0.51100972  0.45478967  1
  F  F86  1  0.69466874  0.88321230  0.12430390  1
  F  F87  1  0.48899028  0.65464551  0.45478967  1
