# generated using pymatgen
data_CaAl2O4
_symmetry_space_group_name_H-M   'P 1'
_cell_length_a   8.83602614
_cell_length_b   8.83602593
_cell_length_c   8.20259724
_cell_angle_alpha   90.00000000
_cell_angle_beta   90.00000000
_cell_angle_gamma   120.00000081
_symmetry_Int_Tables_number   1
_chemical_formula_structural   CaAl2O4
_chemical_formula_sum   'Ca6 Al12 O24'
_cell_volume   554.62059138
_cell_formula_units_Z   6
loop_
 _symmetry_equiv_pos_site_id
 _symmetry_equiv_pos_as_xyz
  1  'x, y, z'
loop_
 _atom_site_type_symbol
 _atom_site_label
 _atom_site_symmetry_multiplicity
 _atom_site_fract_x
 _atom_site_fract_y
 _atom_site_fract_z
 _atom_site_occupancy
  Ca  Ca0  1  0.00000000  0.00000000  0.22625889  1
  Ca  Ca1  1  0.00000000  0.00000000  0.72625889  1
  Ca  Ca2  1  0.33333300  0.66666700  0.73688940  1
  Ca  Ca3  1  0.33333300  0.66666700  0.30423278  1
  Ca  Ca4  1  0.66666700  0.33333300  0.80423278  1
  Ca  Ca5  1  0.66666700  0.33333300  0.23688940  1
  Al  Al6  1  0.02813425  0.34308424  0.04423188  1
  Al  Al7  1  0.31828118  0.97913485  0.43679705  1
  Al  Al8  1  0.31494999  0.97186575  0.04423188  1
  Al  Al9  1  0.66085367  0.68171882  0.43679705  1
  Al  Al10  1  0.97186575  0.65691576  0.54423188  1
  Al  Al11  1  0.68171882  0.02086515  0.93679705  1
  Al  Al12  1  0.34308424  0.31494999  0.54423188  1
  Al  Al13  1  0.65691576  0.68505001  0.04423188  1
  Al  Al14  1  0.97913485  0.66085367  0.93679705  1
  Al  Al15  1  0.33914633  0.31828118  0.93679705  1
  Al  Al16  1  0.02086515  0.33914633  0.43679705  1
  Al  Al17  1  0.68505001  0.02813425  0.54423188  1
  O  O18  1  0.79060556  0.58277257  0.41001276  1
  O  O19  1  0.90186360  0.44761145  0.01922408  1
  O  O20  1  0.38503649  0.26407698  0.74134384  1
  O  O21  1  0.58277257  0.79216700  0.91001276  1
  O  O22  1  0.77429348  0.88661735  0.53536337  1
  O  O23  1  0.41722743  0.20783300  0.41001276  1
  O  O24  1  0.44761145  0.54574784  0.51922408  1
  O  O25  1  0.09813640  0.55238855  0.51922408  1
  O  O26  1  0.73592302  0.12095951  0.74134384  1
  O  O27  1  0.11338265  0.88767613  0.53536337  1
  O  O28  1  0.11232387  0.22570652  0.53536337  1
  O  O29  1  0.79216700  0.20939444  0.41001276  1
  O  O30  1  0.22570652  0.11338265  0.03536337  1
  O  O31  1  0.88661735  0.11232387  0.03536337  1
  O  O32  1  0.20783300  0.79060556  0.91001276  1
  O  O33  1  0.45425216  0.90186360  0.51922408  1
  O  O34  1  0.55238855  0.45425216  0.01922408  1
  O  O35  1  0.61496351  0.73592302  0.24134384  1
  O  O36  1  0.88767613  0.77429348  0.03536337  1
  O  O37  1  0.54574784  0.09813640  0.01922408  1
  O  O38  1  0.87904049  0.61496351  0.74134384  1
  O  O39  1  0.20939444  0.41722743  0.91001276  1
  O  O40  1  0.12095951  0.38503649  0.24134384  1
  O  O41  1  0.26407698  0.87904049  0.24134384  1
