# generated using pymatgen
data_AgBO2
_symmetry_space_group_name_H-M   'P 1'
_cell_length_a   8.64050399
_cell_length_b   8.76595625
_cell_length_c   19.96976464
_cell_angle_alpha   90.00000000
_cell_angle_beta   90.00000000
_cell_angle_gamma   90.00000000
_symmetry_Int_Tables_number   1
_chemical_formula_structural   AgBO2
_chemical_formula_sum   'Ag32 B32 O64'
_cell_volume   1512.55550398
_cell_formula_units_Z   32
loop_
 _symmetry_equiv_pos_site_id
 _symmetry_equiv_pos_as_xyz
  1  'x, y, z'
loop_
 _atom_site_type_symbol
 _atom_site_label
 _atom_site_symmetry_multiplicity
 _atom_site_fract_x
 _atom_site_fract_y
 _atom_site_fract_z
 _atom_site_occupancy
  Ag  Ag0  1  0.69181276  0.23951023  0.73073153  1
  Ag  Ag1  1  0.28228378  0.13293660  0.41395483  1
  Ag  Ag2  1  0.69181276  0.76048977  0.23073153  1
  Ag  Ag3  1  0.50290669  0.79246017  0.38935888  1
  Ag  Ag4  1  0.19181276  0.26048977  0.26926847  1
  Ag  Ag5  1  0.49709331  0.79246017  0.11064112  1
  Ag  Ag6  1  0.00000000  0.46562842  0.75000000  1
  Ag  Ag7  1  0.30818724  0.23951023  0.76926847  1
  Ag  Ag8  1  0.71771622  0.86706340  0.58604517  1
  Ag  Ag9  1  0.00000000  0.00000000  0.00000000  1
  Ag  Ag10  1  0.21771622  0.63293660  0.41395483  1
  Ag  Ag11  1  0.00290669  0.29246017  0.11064112  1
  Ag  Ag12  1  0.99709331  0.70753983  0.88935888  1
  Ag  Ag13  1  0.21771622  0.36706340  0.91395483  1
  Ag  Ag14  1  0.28228378  0.86706340  0.91395483  1
  Ag  Ag15  1  0.19181276  0.73951023  0.76926847  1
  Ag  Ag16  1  0.50290669  0.20753983  0.88935888  1
  Ag  Ag17  1  0.71771622  0.13293660  0.08604517  1
  Ag  Ag18  1  0.49709331  0.20753983  0.61064112  1
  Ag  Ag19  1  0.50000000  0.50000000  0.50000000  1
  Ag  Ag20  1  0.00000000  0.00000000  0.50000000  1
  Ag  Ag21  1  0.78228378  0.63293660  0.08604517  1
  Ag  Ag22  1  0.78228378  0.36706340  0.58604517  1
  Ag  Ag23  1  0.00000000  0.53437158  0.25000000  1
  Ag  Ag24  1  0.50000000  0.96562842  0.75000000  1
  Ag  Ag25  1  0.00290669  0.70753983  0.61064112  1
  Ag  Ag26  1  0.50000000  0.03437158  0.25000000  1
  Ag  Ag27  1  0.99709331  0.29246017  0.38935888  1
  Ag  Ag28  1  0.50000000  0.50000000  0.00000000  1
  Ag  Ag29  1  0.30818724  0.76048977  0.26926847  1
  Ag  Ag30  1  0.80818724  0.73951023  0.73073153  1
  Ag  Ag31  1  0.80818724  0.26048977  0.23073153  1
  B  B32  1  0.88881428  0.26134122  0.86713818  1
  B  B33  1  0.32365354  0.12692883  0.02358479  1
  B  B34  1  0.44341443  0.54722688  0.82647372  1
  B  B35  1  0.28164002  0.50641562  0.13350803  1
  B  B36  1  0.67634646  0.87307117  0.97641521  1
  B  B37  1  0.67634646  0.12692883  0.47641521  1
  B  B38  1  0.32365354  0.87307117  0.52358479  1
  B  B39  1  0.71835998  0.49358438  0.86649197  1
  B  B40  1  0.88881428  0.73865878  0.36713818  1
  B  B41  1  0.17634646  0.62692883  0.02358479  1
  B  B42  1  0.61118572  0.23865878  0.36713818  1
  B  B43  1  0.05658557  0.95277312  0.32647372  1
  B  B44  1  0.38881428  0.76134122  0.63286182  1
  B  B45  1  0.94341443  0.04722688  0.67352628  1
  B  B46  1  0.44341443  0.45277312  0.32647372  1
  B  B47  1  0.78164002  0.00641562  0.36649197  1
  B  B48  1  0.82365354  0.37307117  0.97641521  1
  B  B49  1  0.61118572  0.76134122  0.86713818  1
  B  B50  1  0.38881428  0.23865878  0.13286182  1
  B  B51  1  0.55658557  0.45277312  0.17352628  1
  B  B52  1  0.21835998  0.00641562  0.13350803  1
  B  B53  1  0.05658557  0.04722688  0.82647372  1
  B  B54  1  0.17634646  0.37307117  0.52358479  1
  B  B55  1  0.11118572  0.73865878  0.13286182  1
  B  B56  1  0.21835998  0.99358438  0.63350803  1
  B  B57  1  0.78164002  0.99358438  0.86649197  1
  B  B58  1  0.55658557  0.54722688  0.67352628  1
  B  B59  1  0.11118572  0.26134122  0.63286182  1
  B  B60  1  0.71835998  0.50641562  0.36649197  1
  B  B61  1  0.82365354  0.62692883  0.47641521  1
  B  B62  1  0.28164002  0.49358438  0.63350803  1
  B  B63  1  0.94341443  0.95277312  0.17352628  1
  O  O64  1  0.67752498  0.11605199  0.54458200  1
  O  O65  1  0.67752498  0.88394801  0.04458200  1
  O  O66  1  0.24171365  0.84451341  0.14390164  1
  O  O67  1  0.74171365  0.65548659  0.85609836  1
  O  O68  1  0.28766950  0.54287566  0.05894454  1
  O  O69  1  0.78766950  0.95712434  0.94105546  1
  O  O70  1  0.80300377  0.00375478  0.19462687  1
  O  O71  1  0.92420881  0.28276885  0.94015500  1
  O  O72  1  0.56525712  0.55439622  0.33908716  1
  O  O73  1  0.71233050  0.45712434  0.94105546  1
  O  O74  1  0.34771879  0.09079874  0.16289690  1
  O  O75  1  0.80300377  0.99624522  0.69462687  1
  O  O76  1  0.46918349  0.29697655  0.33549718  1
  O  O77  1  0.84771879  0.59079874  0.33710310  1
  O  O78  1  0.19699623  0.00375478  0.30537313  1
  O  O79  1  0.21233050  0.04287566  0.05894454  1
  O  O80  1  0.15228121  0.40920126  0.66289690  1
  O  O81  1  0.78766950  0.04287566  0.44105546  1
  O  O82  1  0.43474288  0.44560378  0.66091284  1
  O  O83  1  0.30300377  0.49624522  0.80537313  1
  O  O84  1  0.06525712  0.05439622  0.16091284  1
  O  O85  1  0.42420881  0.78276885  0.55984500  1
  O  O86  1  0.34771879  0.90920126  0.66289690  1
  O  O87  1  0.57579119  0.21723115  0.44015500  1
  O  O88  1  0.82247502  0.61605199  0.54458200  1
  O  O89  1  0.28766950  0.45712434  0.55894454  1
  O  O90  1  0.53081651  0.29697655  0.16450282  1
  O  O91  1  0.19699623  0.99624522  0.80537313  1
  O  O92  1  0.07579119  0.71723115  0.05984500  1
  O  O93  1  0.93474288  0.94560378  0.83908716  1
  O  O94  1  0.03081651  0.79697655  0.33549718  1
  O  O95  1  0.24171365  0.15548659  0.64390164  1
  O  O96  1  0.65228121  0.09079874  0.33710310  1
  O  O97  1  0.75828635  0.84451341  0.35609836  1
  O  O98  1  0.53081651  0.70302345  0.66450282  1
  O  O99  1  0.30300377  0.50375478  0.30537313  1
  O  O100  1  0.43474288  0.55439622  0.16091284  1
  O  O101  1  0.56525712  0.44560378  0.83908716  1
  O  O102  1  0.32247502  0.11605199  0.95541800  1
  O  O103  1  0.93474288  0.05439622  0.33908716  1
  O  O104  1  0.03081651  0.20302345  0.83549718  1
  O  O105  1  0.17752498  0.61605199  0.95541800  1
  O  O106  1  0.25828635  0.65548659  0.64390164  1
  O  O107  1  0.69699623  0.50375478  0.19462687  1
  O  O108  1  0.21233050  0.95712434  0.55894454  1
  O  O109  1  0.17752498  0.38394801  0.45541800  1
  O  O110  1  0.57579119  0.78276885  0.94015500  1
  O  O111  1  0.06525712  0.94560378  0.66091284  1
  O  O112  1  0.71233050  0.54287566  0.44105546  1
  O  O113  1  0.65228121  0.90920126  0.83710310  1
  O  O114  1  0.82247502  0.38394801  0.04458200  1
  O  O115  1  0.75828635  0.15548659  0.85609836  1
  O  O116  1  0.74171365  0.34451341  0.35609836  1
  O  O117  1  0.69699623  0.49624522  0.69462687  1
  O  O118  1  0.84771879  0.40920126  0.83710310  1
  O  O119  1  0.25828635  0.34451341  0.14390164  1
  O  O120  1  0.42420881  0.21723115  0.05984500  1
  O  O121  1  0.96918349  0.20302345  0.66450282  1
  O  O122  1  0.46918349  0.70302345  0.83549718  1
  O  O123  1  0.15228121  0.59079874  0.16289690  1
  O  O124  1  0.07579119  0.28276885  0.55984500  1
  O  O125  1  0.32247502  0.88394801  0.45541800  1
  O  O126  1  0.96918349  0.79697655  0.16450282  1
  O  O127  1  0.92420881  0.71723115  0.44015500  1
