# generated using pymatgen
data_Gd(IO3)3
_symmetry_space_group_name_H-M   'P 1'
_cell_length_a   7.28651702
_cell_length_b   8.66106550
_cell_length_c   13.63808607
_cell_angle_alpha   90.00000000
_cell_angle_beta   100.34096912
_cell_angle_gamma   90.00000000
_symmetry_Int_Tables_number   1
_chemical_formula_structural   Gd(IO3)3
_chemical_formula_sum   'Gd4 I12 O36'
_cell_volume   846.70581113
_cell_formula_units_Z   4
loop_
 _symmetry_equiv_pos_site_id
 _symmetry_equiv_pos_as_xyz
  1  'x, y, z'
loop_
 _atom_site_type_symbol
 _atom_site_label
 _atom_site_symmetry_multiplicity
 _atom_site_fract_x
 _atom_site_fract_y
 _atom_site_fract_z
 _atom_site_occupancy
  Gd  Gd0  1  0.17326939  0.24529278  0.64539232  1
  Gd  Gd1  1  0.82673061  0.74529278  0.85460768  1
  Gd  Gd2  1  0.17326939  0.25470722  0.14539232  1
  Gd  Gd3  1  0.82673061  0.75470722  0.35460768  1
  I  I4  1  0.26662336  0.02024189  0.39046507  1
  I  I5  1  0.83222677  0.20621721  0.88961267  1
  I  I6  1  0.16777323  0.70621721  0.61038733  1
  I  I7  1  0.33194293  0.95644468  0.85689273  1
  I  I8  1  0.26662336  0.47975811  0.89046507  1
  I  I9  1  0.73337664  0.52024189  0.10953493  1
  I  I10  1  0.16777323  0.79378279  0.11038733  1
  I  I11  1  0.83222677  0.29378279  0.38961267  1
  I  I12  1  0.33194293  0.54355532  0.35689273  1
  I  I13  1  0.66805707  0.04355532  0.14310727  1
  I  I14  1  0.73337664  0.97975811  0.60953493  1
  I  I15  1  0.66805707  0.45644468  0.64310727  1
  O  O16  1  0.33853853  0.46803468  0.23195259  1
  O  O17  1  0.14772650  0.68900525  0.32343439  1
  O  O18  1  0.03274042  0.33093865  0.48828423  1
  O  O19  1  0.36081233  0.83426813  0.04527816  1
  O  O20  1  0.83847922  0.02800329  0.81771834  1
  O  O21  1  0.02081616  0.97221938  0.38646024  1
  O  O22  1  0.76890634  0.79278907  0.67516357  1
  O  O23  1  0.23109366  0.20721093  0.32483643  1
  O  O24  1  0.32106882  0.42205417  0.02076773  1
  O  O25  1  0.03274042  0.16906135  0.98828423  1
  O  O26  1  0.02081616  0.52778062  0.88646024  1
  O  O27  1  0.96725958  0.66906135  0.51171577  1
  O  O28  1  0.66146147  0.96803468  0.26804741  1
  O  O29  1  0.97918384  0.02778062  0.61353976  1
  O  O30  1  0.47184769  0.17430826  0.13698483  1
  O  O31  1  0.32106882  0.07794583  0.52076773  1
  O  O32  1  0.66146147  0.53196532  0.76804741  1
  O  O33  1  0.63918767  0.16573187  0.95472184  1
  O  O34  1  0.23109366  0.29278907  0.82483643  1
  O  O35  1  0.85227350  0.18900525  0.17656561  1
  O  O36  1  0.96725958  0.83093865  0.01171577  1
  O  O37  1  0.97918384  0.47221938  0.11353976  1
  O  O38  1  0.52815231  0.82569174  0.86301517  1
  O  O39  1  0.47184769  0.32569174  0.63698483  1
  O  O40  1  0.52815231  0.67430826  0.36301517  1
  O  O41  1  0.63918767  0.33426813  0.45472184  1
  O  O42  1  0.85227350  0.31099475  0.67656561  1
  O  O43  1  0.36081233  0.66573187  0.54527816  1
  O  O44  1  0.33853853  0.03196532  0.73195259  1
  O  O45  1  0.83847922  0.47199671  0.31771834  1
  O  O46  1  0.67893118  0.57794583  0.97923227  1
  O  O47  1  0.14772650  0.81099475  0.82343439  1
  O  O48  1  0.67893118  0.92205417  0.47923227  1
  O  O49  1  0.16152078  0.97199671  0.18228166  1
  O  O50  1  0.16152078  0.52800329  0.68228166  1
  O  O51  1  0.76890634  0.70721093  0.17516357  1
