# generated using pymatgen
data_PNF2
_symmetry_space_group_name_H-M   'P 1'
_cell_length_a   7.27377408
_cell_length_b   9.28430741
_cell_length_c   12.39778429
_cell_angle_alpha   90.00000000
_cell_angle_beta   90.00000000
_cell_angle_gamma   90.00000000
_symmetry_Int_Tables_number   1
_chemical_formula_structural   PNF2
_chemical_formula_sum   'P12 N12 F24'
_cell_volume   837.24660568
_cell_formula_units_Z   12
loop_
 _symmetry_equiv_pos_site_id
 _symmetry_equiv_pos_as_xyz
  1  'x, y, z'
loop_
 _atom_site_type_symbol
 _atom_site_label
 _atom_site_symmetry_multiplicity
 _atom_site_fract_x
 _atom_site_fract_y
 _atom_site_fract_z
 _atom_site_occupancy
  P  P0  1  0.66669211  0.59860216  0.13920530  1
  P  P1  1  0.59105987  0.55854819  0.75000000  1
  P  P2  1  0.83330789  0.09860216  0.86079470  1
  P  P3  1  0.90894013  0.05854819  0.25000000  1
  P  P4  1  0.33330789  0.40139784  0.63920530  1
  P  P5  1  0.09105987  0.94145181  0.75000000  1
  P  P6  1  0.16669211  0.90139784  0.13920530  1
  P  P7  1  0.33330789  0.40139784  0.86079470  1
  P  P8  1  0.66669211  0.59860216  0.36079470  1
  P  P9  1  0.83330789  0.09860216  0.63920530  1
  P  P10  1  0.40894013  0.44145181  0.25000000  1
  P  P11  1  0.16669211  0.90139784  0.36079470  1
  N  N12  1  0.50265599  0.50842170  0.63989092  1
  N  N13  1  0.49734401  0.49157830  0.13989092  1
  N  N14  1  0.99734401  0.00842170  0.36010808  1
  N  N15  1  0.25276395  0.84995039  0.25000000  1
  N  N16  1  0.00265599  0.99157830  0.86010908  1
  N  N17  1  0.49734401  0.49157830  0.36010808  1
  N  N18  1  0.99734401  0.00842170  0.13989092  1
  N  N19  1  0.00265599  0.99157830  0.63989092  1
  N  N20  1  0.74723605  0.15004961  0.75000000  1
  N  N21  1  0.24723605  0.34995039  0.75000000  1
  N  N22  1  0.75276395  0.65004961  0.25000000  1
  N  N23  1  0.50265599  0.50842170  0.86010908  1
  F  F24  1  0.11907373  0.76677116  0.43010706  1
  F  F25  1  0.89183377  0.22607207  0.25000000  1
  F  F26  1  0.69983358  0.02296805  0.25000000  1
  F  F27  1  0.61907373  0.73322884  0.43010706  1
  F  F28  1  0.60816623  0.72607207  0.75000000  1
  F  F29  1  0.80016642  0.52296805  0.75000000  1
  F  F30  1  0.17864181  0.46454130  0.56692665  1
  F  F31  1  0.88092627  0.23322884  0.93010706  1
  F  F32  1  0.11907373  0.76677116  0.06989294  1
  F  F33  1  0.39183377  0.27392793  0.25000000  1
  F  F34  1  0.82135819  0.53545870  0.06692665  1
  F  F35  1  0.19983358  0.47703195  0.25000000  1
  F  F36  1  0.82135819  0.53545870  0.43307335  1
  F  F37  1  0.30016642  0.97703195  0.75000000  1
  F  F38  1  0.32135819  0.96454130  0.06692665  1
  F  F39  1  0.67864181  0.03545870  0.56692665  1
  F  F40  1  0.10816623  0.77392793  0.75000000  1
  F  F41  1  0.88092627  0.23322884  0.56989294  1
  F  F42  1  0.17864181  0.46454130  0.93307335  1
  F  F43  1  0.38092627  0.26677116  0.56989294  1
  F  F44  1  0.61907373  0.73322884  0.06989294  1
  F  F45  1  0.67864181  0.03545870  0.93307335  1
  F  F46  1  0.32135819  0.96454130  0.43307335  1
  F  F47  1  0.38092627  0.26677116  0.93010706  1
