# generated using pymatgen
data_Cu4Bi4S9
_symmetry_space_group_name_H-M   'P 1'
_cell_length_a   3.94921363
_cell_length_b   11.64421771
_cell_length_c   31.96578909
_cell_angle_alpha   90.00000000
_cell_angle_beta   90.00000000
_cell_angle_gamma   90.00000000
_symmetry_Int_Tables_number   1
_chemical_formula_structural   Cu4Bi4S9
_chemical_formula_sum   'Cu16 Bi16 S36'
_cell_volume   1469.96289940
_cell_formula_units_Z   4
loop_
 _symmetry_equiv_pos_site_id
 _symmetry_equiv_pos_as_xyz
  1  'x, y, z'
loop_
 _atom_site_type_symbol
 _atom_site_label
 _atom_site_symmetry_multiplicity
 _atom_site_fract_x
 _atom_site_fract_y
 _atom_site_fract_z
 _atom_site_occupancy
  Cu  Cu0  1  0.25000000  0.42673964  0.30451225  1
  Cu  Cu1  1  0.75000000  0.83638112  0.30676127  1
  Cu  Cu2  1  0.25000000  0.07326036  0.80451225  1
  Cu  Cu3  1  0.75000000  0.90564050  0.01612191  1
  Cu  Cu4  1  0.25000000  0.16361888  0.69323873  1
  Cu  Cu5  1  0.25000000  0.88173558  0.36418219  1
  Cu  Cu6  1  0.75000000  0.59435950  0.51612191  1
  Cu  Cu7  1  0.25000000  0.09435950  0.98387809  1
  Cu  Cu8  1  0.75000000  0.66361888  0.80676127  1
  Cu  Cu9  1  0.75000000  0.92673964  0.19548775  1
  Cu  Cu10  1  0.75000000  0.38173558  0.13581781  1
  Cu  Cu11  1  0.75000000  0.11826442  0.63581781  1
  Cu  Cu12  1  0.25000000  0.33638112  0.19323873  1
  Cu  Cu13  1  0.75000000  0.57326036  0.69548775  1
  Cu  Cu14  1  0.25000000  0.40564050  0.48387809  1
  Cu  Cu15  1  0.25000000  0.61826442  0.86418219  1
  Bi  Bi16  1  0.25000000  0.35638827  0.77928777  1
  Bi  Bi17  1  0.75000000  0.22862099  0.39174084  1
  Bi  Bi18  1  0.75000000  0.64361173  0.22071223  1
  Bi  Bi19  1  0.25000000  0.14361173  0.27928777  1
  Bi  Bi20  1  0.25000000  0.09666237  0.08922759  1
  Bi  Bi21  1  0.75000000  0.13041784  0.52832721  1
  Bi  Bi22  1  0.25000000  0.40333763  0.58922759  1
  Bi  Bi23  1  0.25000000  0.72862099  0.10825916  1
  Bi  Bi24  1  0.75000000  0.59666237  0.41077241  1
  Bi  Bi25  1  0.75000000  0.85638827  0.72071223  1
  Bi  Bi26  1  0.75000000  0.90333763  0.91077241  1
  Bi  Bi27  1  0.75000000  0.36958216  0.02832721  1
  Bi  Bi28  1  0.25000000  0.77137901  0.60825916  1
  Bi  Bi29  1  0.75000000  0.27137901  0.89174084  1
  Bi  Bi30  1  0.25000000  0.86958216  0.47167279  1
  Bi  Bi31  1  0.25000000  0.63041784  0.97167279  1
  S  S32  1  0.25000000  0.01280381  0.73646340  1
  S  S33  1  0.75000000  0.31934056  0.31560894  1
  S  S34  1  0.25000000  0.07582793  0.35721145  1
  S  S35  1  0.25000000  0.32685127  0.09754610  1
  S  S36  1  0.25000000  0.42417207  0.85721145  1
  S  S37  1  0.25000000  0.87020741  0.97960560  1
  S  S38  1  0.75000000  0.88813460  0.08664671  1
  S  S39  1  0.25000000  0.11656206  0.46977718  1
  S  S40  1  0.75000000  0.18065944  0.81560894  1
  S  S41  1  0.25000000  0.38343794  0.96977718  1
  S  S42  1  0.75000000  0.92417207  0.64278855  1
  S  S43  1  0.75000000  0.61656206  0.03022282  1
  S  S44  1  0.25000000  0.38813460  0.41335329  1
  S  S45  1  0.75000000  0.57582793  0.14278855  1
  S  S46  1  0.75000000  0.51280381  0.76353660  1
  S  S47  1  0.25000000  0.75604663  0.81016408  1
  S  S48  1  0.75000000  0.37020741  0.52039440  1
  S  S49  1  0.75000000  0.08934678  0.15331388  1
  S  S50  1  0.25000000  0.91065322  0.84668612  1
  S  S51  1  0.75000000  0.25604663  0.68983592  1
  S  S52  1  0.75000000  0.88343794  0.53022282  1
  S  S53  1  0.75000000  0.24395337  0.18983592  1
  S  S54  1  0.75000000  0.61186540  0.58664671  1
  S  S55  1  0.75000000  0.67314873  0.90245390  1
  S  S56  1  0.25000000  0.58934678  0.34668612  1
  S  S57  1  0.75000000  0.98719619  0.26353660  1
  S  S58  1  0.25000000  0.74395337  0.31016408  1
  S  S59  1  0.25000000  0.11186540  0.91335329  1
  S  S60  1  0.25000000  0.81934056  0.18439106  1
  S  S61  1  0.25000000  0.68065944  0.68439106  1
  S  S62  1  0.25000000  0.62979259  0.47960560  1
  S  S63  1  0.25000000  0.48719619  0.23646340  1
  S  S64  1  0.75000000  0.82685127  0.40245390  1
  S  S65  1  0.25000000  0.17314873  0.59754610  1
  S  S66  1  0.75000000  0.12979259  0.02039440  1
  S  S67  1  0.75000000  0.41065322  0.65331388  1
