# generated using pymatgen
data_Al3Pb5F19
_symmetry_space_group_name_H-M   'P 1'
_cell_length_a   7.30904049
_cell_length_b   10.87716604
_cell_length_c   10.87716592
_cell_angle_alpha   83.51845251
_cell_angle_beta   70.36780270
_cell_angle_gamma   70.36779809
_symmetry_Int_Tables_number   1
_chemical_formula_structural   Al3Pb5F19
_chemical_formula_sum   'Al6 Pb10 F38'
_cell_volume   767.13656943
_cell_formula_units_Z   2
loop_
 _symmetry_equiv_pos_site_id
 _symmetry_equiv_pos_as_xyz
  1  'x, y, z'
loop_
 _atom_site_type_symbol
 _atom_site_label
 _atom_site_symmetry_multiplicity
 _atom_site_fract_x
 _atom_site_fract_y
 _atom_site_fract_z
 _atom_site_occupancy
  Al  Al0  1  0.75288114  1.00000000  0.00000000  1
  Al  Al1  1  0.24711886  0.00000000  1.00000000  1
  Al  Al2  1  0.15815989  0.16660176  0.51707847  1
  Al  Al3  1  0.84184011  0.83339824  0.48292153  1
  Al  Al4  1  0.67523836  0.48292153  0.16660176  1
  Al  Al5  1  0.32476164  0.51707847  0.83339824  1
  Pb  Pb6  1  0.75856962  0.15808686  0.32477390  1
  Pb  Pb7  1  0.24143038  0.84191314  0.67522610  1
  Pb  Pb8  1  0.28070997  0.27749439  0.16108568  1
  Pb  Pb9  1  0.71929003  0.72250561  0.83891432  1
  Pb  Pb10  1  0.08334352  0.67522610  0.15808686  1
  Pb  Pb11  1  0.55820436  0.16108568  0.72250561  1
  Pb  Pb12  1  0.91665648  0.32477390  0.84191314  1
  Pb  Pb13  1  0.25000000  0.50000000  0.50000000  1
  Pb  Pb14  1  0.44179564  0.83891432  0.27749439  1
  Pb  Pb15  1  0.75000000  0.50000000  0.50000000  1
  F  F16  1  0.93414094  0.14322747  0.64278509  1
  F  F17  1  0.04740745  0.34152319  0.56366190  1
  F  F18  1  0.25722449  0.47839564  0.00715539  1
  F  F19  1  0.61106935  0.43633810  0.34152319  1
  F  F20  1  0.06585906  0.85677253  0.35721491  1
  F  F21  1  0.86196323  0.93351628  0.83533392  1
  F  F22  1  0.42307397  0.64278509  0.85677253  1
  F  F23  1  0.74277551  0.52160436  0.99284461  1
  F  F24  1  0.13803677  0.06648372  0.16466608  1
  F  F25  1  0.20452048  0.16466608  0.93351628  1
  F  F26  1  0.42027615  0.70117020  0.45827749  1
  F  F27  1  0.97287415  0.79300368  0.60704971  1
  F  F28  1  0.57972385  0.29882980  0.54172251  1
  F  F29  1  0.62707246  0.79300368  0.60704971  1
  F  F30  1  0.79547952  0.83533392  0.06648372  1
  F  F31  1  0.92263159  0.35721491  0.14322747  1
  F  F32  1  0.87855365  0.54172251  0.70117020  1
  F  F33  1  0.76587783  0.60704971  0.20699632  1
  F  F34  1  0.12144635  0.45827749  0.29882980  1
  F  F35  1  0.23412217  0.39295029  0.79300368  1
  F  F36  1  0.07736841  0.64278509  0.85677253  1
  F  F37  1  0.36918656  0.93351628  0.83533392  1
  F  F38  1  0.73562012  0.00715539  0.52160436  1
  F  F39  1  0.37292754  0.20699632  0.39295029  1
  F  F40  1  0.27984649  0.14322747  0.64278509  1
  F  F41  1  0.26437988  0.99284461  0.47839564  1
  F  F42  1  0.00000000  0.00000000  0.00000000  1
  F  F43  1  0.95259255  0.65847681  0.43633810  1
  F  F44  1  0.02712585  0.20699632  0.39295029  1
  F  F45  1  0.72015351  0.85677253  0.35721491  1
  F  F46  1  0.63081344  0.06648372  0.16466608  1
  F  F47  1  0.42007614  0.60704971  0.20699632  1
  F  F48  1  0.38893065  0.56366190  0.65847681  1
  F  F49  1  0.30270284  0.83533392  0.06648372  1
  F  F50  1  0.57692603  0.35721491  0.14322747  1
  F  F51  1  0.57992386  0.39295029  0.79300368  1
  F  F52  1  0.50000000  0.00000000  0.00000000  1
  F  F53  1  0.69729716  0.16466608  0.93351628  1
