# generated using pymatgen
data_CaFeWO6
_symmetry_space_group_name_H-M   'P 1'
_cell_length_a   5.53898869
_cell_length_b   5.53905724
_cell_length_c   5.53899096
_cell_angle_alpha   59.99387276
_cell_angle_beta   59.99345810
_cell_angle_gamma   59.99395253
_symmetry_Int_Tables_number   1
_chemical_formula_structural   CaFeWO6
_chemical_formula_sum   'Ca1 Fe1 W1 O6'
_cell_volume   120.14910821
_cell_formula_units_Z   1
loop_
 _symmetry_equiv_pos_site_id
 _symmetry_equiv_pos_as_xyz
  1  'x, y, z'
loop_
 _atom_site_type_symbol
 _atom_site_label
 _atom_site_symmetry_multiplicity
 _atom_site_fract_x
 _atom_site_fract_y
 _atom_site_fract_z
 _atom_site_occupancy
  Ca  Ca0  1  0.74999975  0.75000082  0.75000059  1
  Fe  Fe1  1  0.50000358  0.50000136  0.50000849  1
  W  W2  1  0.99999504  -0.00000002  0.99999517  1
  O  O3  1  0.24640205  0.75361045  0.75360539  1
  O  O4  1  0.24639211  0.75360331  0.24638892  1
  O  O5  1  0.75360954  0.24639888  0.75360671  1
  O  O6  1  0.24639393  0.24638951  0.75359881  1
  O  O7  1  0.75360120  0.24638985  0.24639184  1
  O  O8  1  0.75360680  0.75360985  0.24640008  1
