# generated using pymatgen
data_Tl2MoO4
_symmetry_space_group_name_H-M   'P 1'
_cell_length_a   6.40921133
_cell_length_b   6.40921115
_cell_length_c   8.38426093
_cell_angle_alpha   90.00000000
_cell_angle_beta   90.00000000
_cell_angle_gamma   120.00000086
_symmetry_Int_Tables_number   1
_chemical_formula_structural   Tl2MoO4
_chemical_formula_sum   'Tl4 Mo2 O8'
_cell_volume   298.26657364
_cell_formula_units_Z   2
loop_
 _symmetry_equiv_pos_site_id
 _symmetry_equiv_pos_as_xyz
  1  'x, y, z'
loop_
 _atom_site_type_symbol
 _atom_site_label
 _atom_site_symmetry_multiplicity
 _atom_site_fract_x
 _atom_site_fract_y
 _atom_site_fract_z
 _atom_site_occupancy
  Tl  Tl0  1  0.33333300  0.66666700  0.81574846  1
  Tl  Tl1  1  0.00000000  0.00000000  0.00000000  1
  Tl  Tl2  1  0.66666700  0.33333300  0.18425154  1
  Tl  Tl3  1  0.00000000  0.00000000  0.50000000  1
  Mo  Mo4  1  0.66666700  0.33333300  0.68861640  1
  Mo  Mo5  1  0.33333300  0.66666700  0.31138360  1
  O  O6  1  0.18079513  0.36159025  0.23806327  1
  O  O7  1  0.66666700  0.33333300  0.47388821  1
  O  O8  1  0.81920487  0.18079513  0.76193673  1
  O  O9  1  0.81920487  0.63840975  0.76193673  1
  O  O10  1  0.63840975  0.81920487  0.23806327  1
  O  O11  1  0.36159025  0.18079513  0.76193673  1
  O  O12  1  0.18079513  0.81920487  0.23806327  1
  O  O13  1  0.33333300  0.66666700  0.52611179  1
