# generated using pymatgen
data_Mo4O11
_symmetry_space_group_name_H-M   'P 1'
_cell_length_a   5.59916212
_cell_length_b   6.89605033
_cell_length_c   25.20770363
_cell_angle_alpha   93.89010728
_cell_angle_beta   90.00000000
_cell_angle_gamma   90.00000000
_symmetry_Int_Tables_number   1
_chemical_formula_structural   Mo4O11
_chemical_formula_sum   'Mo16 O44'
_cell_volume   971.07994159
_cell_formula_units_Z   4
loop_
 _symmetry_equiv_pos_site_id
 _symmetry_equiv_pos_as_xyz
  1  'x, y, z'
loop_
 _atom_site_type_symbol
 _atom_site_label
 _atom_site_symmetry_multiplicity
 _atom_site_fract_x
 _atom_site_fract_y
 _atom_site_fract_z
 _atom_site_occupancy
  Mo  Mo0  1  0.22165474  0.31674856  0.04471804  1
  Mo  Mo1  1  0.23185505  0.66035697  0.27969191  1
  Mo  Mo2  1  0.72887016  0.00195388  0.33647725  1
  Mo  Mo3  1  0.27834526  0.31674856  0.54471804  1
  Mo  Mo4  1  0.26814495  0.66035697  0.77969191  1
  Mo  Mo5  1  0.77834526  0.68325144  0.95528196  1
  Mo  Mo6  1  0.22887016  0.99804612  0.16352275  1
  Mo  Mo7  1  0.23611440  0.33840832  0.39887833  1
  Mo  Mo8  1  0.26388560  0.33840832  0.89887833  1
  Mo  Mo9  1  0.72165474  0.68325144  0.45528196  1
  Mo  Mo10  1  0.76388560  0.66159168  0.60112167  1
  Mo  Mo11  1  0.77112984  0.00195388  0.83647725  1
  Mo  Mo12  1  0.27112984  0.99804612  0.66352275  1
  Mo  Mo13  1  0.76814495  0.33964303  0.72030809  1
  Mo  Mo14  1  0.73611440  0.66159168  0.10112167  1
  Mo  Mo15  1  0.73185505  0.33964303  0.22030809  1
  O  O16  1  0.00323454  0.79424107  0.11879737  1
  O  O17  1  0.53237692  0.13906183  0.68209933  1
  O  O18  1  0.23625054  0.83267437  0.21589769  1
  O  O19  1  0.45524408  0.48391604  0.06184715  1
  O  O20  1  0.76513449  0.88216673  0.91320754  1
  O  O21  1  0.05916828  0.56139884  0.94472453  1
  O  O22  1  0.50323454  0.20575893  0.38120263  1
  O  O23  1  0.50909995  0.82990181  0.12288584  1
  O  O24  1  0.24475677  0.22802162  0.47583352  1
  O  O25  1  0.76374946  0.16732563  0.78410231  1
  O  O26  1  0.26513449  0.11783327  0.58679246  1
  O  O27  1  0.46762308  0.86093817  0.31790067  1
  O  O28  1  0.99676546  0.20575893  0.88120263  1
  O  O29  1  0.94083172  0.43860116  0.05527547  1
  O  O30  1  0.03237692  0.86093817  0.81790067  1
  O  O31  1  0.55916828  0.43860116  0.55527547  1
  O  O32  1  0.73625054  0.16732563  0.28410231  1
  O  O33  1  0.49923465  0.49287338  0.74477856  1
  O  O34  1  0.95664584  0.83309261  0.31326780  1
  O  O35  1  1.00076535  0.49287338  0.24477856  1
  O  O36  1  0.72612929  0.49806096  0.15338608  1
  O  O37  1  0.54475592  0.51608396  0.93815285  1
  O  O38  1  0.23486551  0.11783327  0.08679246  1
  O  O39  1  0.73486551  0.88216673  0.41320754  1
  O  O40  1  0.49676546  0.79424107  0.61879737  1
  O  O41  1  0.45664584  0.16690739  0.18673220  1
  O  O42  1  0.00909995  0.17009819  0.37711416  1
  O  O43  1  0.99090005  0.82990181  0.62288584  1
  O  O44  1  0.75524323  0.77197838  0.52416648  1
  O  O45  1  -0.00076535  0.50712662  0.75522144  1
  O  O46  1  0.44083172  0.56139884  0.44472453  1
  O  O47  1  0.50076535  0.50712662  0.25522144  1
  O  O48  1  0.27387071  0.50193904  0.84661392  1
  O  O49  1  0.25524323  0.22802162  0.97583352  1
  O  O50  1  0.04475592  0.48391604  0.56184715  1
  O  O51  1  0.77387071  0.49806096  0.65338608  1
  O  O52  1  0.49090005  0.17009819  0.87711416  1
  O  O53  1  0.22612929  0.50193904  0.34661392  1
  O  O54  1  0.26374946  0.83267437  0.71589769  1
  O  O55  1  0.96762308  0.13906183  0.18209933  1
  O  O56  1  0.04335416  0.16690739  0.68673220  1
  O  O57  1  0.95524408  0.51608396  0.43815285  1
  O  O58  1  0.54335416  0.83309261  0.81326780  1
  O  O59  1  0.74475677  0.77197838  0.02416648  1
