# generated using pymatgen
data_FeTe2BrO5
_symmetry_space_group_name_H-M   'P 1'
_cell_length_a   6.70159252
_cell_length_b   13.62165819
_cell_length_c   14.55829110
_cell_angle_alpha   107.74241218
_cell_angle_beta   90.00000000
_cell_angle_gamma   90.00000000
_symmetry_Int_Tables_number   1
_chemical_formula_structural   FeTe2BrO5
_chemical_formula_sum   'Fe8 Te16 Br8 O40'
_cell_volume   1265.76846775
_cell_formula_units_Z   8
loop_
 _symmetry_equiv_pos_site_id
 _symmetry_equiv_pos_as_xyz
  1  'x, y, z'
loop_
 _atom_site_type_symbol
 _atom_site_label
 _atom_site_symmetry_multiplicity
 _atom_site_fract_x
 _atom_site_fract_y
 _atom_site_fract_z
 _atom_site_occupancy
  Fe  Fe0  1  0.50097563  0.88356852  0.52306949  1
  Fe  Fe1  1  0.70858124  0.06246090  0.14375518  1
  Fe  Fe2  1  0.79141876  0.06246090  0.64375518  1
  Fe  Fe3  1  0.00097563  0.11643148  0.97693051  1
  Fe  Fe4  1  0.29141876  0.93753910  0.85624482  1
  Fe  Fe5  1  0.20858124  0.93753910  0.35624482  1
  Fe  Fe6  1  0.99902437  0.88356852  0.02306949  1
  Fe  Fe7  1  0.49902437  0.11643148  0.47693051  1
  Te  Te8  1  0.51693083  0.80468366  0.98071552  1
  Te  Te9  1  0.02969194  0.63775616  0.86385215  1
  Te  Te10  1  0.97030806  0.36224384  0.13614785  1
  Te  Te11  1  0.30873671  0.10939391  0.71314563  1
  Te  Te12  1  0.71038147  0.27820211  0.35876051  1
  Te  Te13  1  0.21038147  0.72179789  0.14123949  1
  Te  Te14  1  0.48306917  0.19531634  0.01928448  1
  Te  Te15  1  0.80873671  0.89060609  0.78685437  1
  Te  Te16  1  0.28961853  0.72179789  0.64123949  1
  Te  Te17  1  0.19126329  0.10939391  0.21314563  1
  Te  Te18  1  0.52969194  0.36224384  0.63614785  1
  Te  Te19  1  0.01693083  0.19531634  0.51928448  1
  Te  Te20  1  0.47030806  0.63775616  0.36385215  1
  Te  Te21  1  0.78961853  0.27820211  0.85876051  1
  Te  Te22  1  0.98306917  0.80468366  0.48071552  1
  Te  Te23  1  0.69126329  0.89060609  0.28685437  1
  Br  Br24  1  0.63990540  0.61534485  0.72145380  1
  Br  Br25  1  0.27510306  0.43628371  0.54298472  1
  Br  Br26  1  0.77510306  0.56371629  0.95701528  1
  Br  Br27  1  0.22489694  0.43628371  0.04298472  1
  Br  Br28  1  0.86009460  0.61534485  0.22145380  1
  Br  Br29  1  0.72489694  0.56371629  0.45701528  1
  Br  Br30  1  0.13990540  0.38465515  0.77854620  1
  Br  Br31  1  0.36009460  0.38465515  0.27854620  1
  O  O32  1  0.23443692  0.66548582  0.95623504  1
  O  O33  1  0.25633122  0.98975145  0.74716581  1
  O  O34  1  0.26556308  0.66548582  0.45623504  1
  O  O35  1  0.76556308  0.33451418  0.04376496  1
  O  O36  1  0.75633122  0.01024855  0.75283419  1
  O  O37  1  0.21531318  0.88840701  0.48003240  1
  O  O38  1  0.95055079  0.20924296  0.39199428  1
  O  O39  1  0.22623981  0.79141339  0.77380290  1
  O  O40  1  0.92527610  0.90138013  0.36369079  1
  O  O41  1  0.29831972  0.08814988  0.94869234  1
  O  O42  1  0.72623981  0.20858661  0.72619710  1
  O  O43  1  0.20168028  0.08814988  0.44869234  1
  O  O44  1  0.79831972  0.91185012  0.55130766  1
  O  O45  1  0.51374925  0.96259900  0.39713626  1
  O  O46  1  0.01374925  0.03740100  0.10286374  1
  O  O47  1  0.77376019  0.20858661  0.22619710  1
  O  O48  1  0.98340636  0.18518255  0.87841640  1
  O  O49  1  0.51659364  0.18518255  0.37841640  1
  O  O50  1  0.71531318  0.11159299  0.01996760  1
  O  O51  1  0.42527610  0.09861987  0.13630921  1
  O  O52  1  0.28468682  0.88840701  0.98003240  1
  O  O53  1  0.48625075  0.03740100  0.60286374  1
  O  O54  1  0.74366878  0.01024855  0.25283419  1
  O  O55  1  0.73443692  0.33451418  0.54376496  1
  O  O56  1  0.70168028  0.91185012  0.05130766  1
  O  O57  1  0.48340636  0.81481745  0.62158360  1
  O  O58  1  0.54944921  0.20924296  0.89199428  1
  O  O59  1  0.24366878  0.98975145  0.24716581  1
  O  O60  1  0.07472390  0.09861987  0.63630921  1
  O  O61  1  0.57472390  0.90138013  0.86369079  1
  O  O62  1  0.90630293  0.77121013  0.90996228  1
  O  O63  1  0.01659364  0.81481745  0.12158360  1
  O  O64  1  0.40630293  0.22878987  0.59003772  1
  O  O65  1  0.04944921  0.79075704  0.60800572  1
  O  O66  1  0.98625075  0.96259900  0.89713626  1
  O  O67  1  0.78468682  0.11159299  0.51996760  1
  O  O68  1  0.27376019  0.79141339  0.27380290  1
  O  O69  1  0.09369707  0.22878987  0.09003772  1
  O  O70  1  0.59369707  0.77121013  0.40996228  1
  O  O71  1  0.45055079  0.79075704  0.10800572  1
