# generated using pymatgen
data_Rb6U2Mo4O21
_symmetry_space_group_name_H-M   'P 1'
_cell_length_a   10.35353546
_cell_length_b   10.36330053
_cell_length_c   13.63263323
_cell_angle_alpha   76.86496751
_cell_angle_beta   76.35909622
_cell_angle_gamma   64.84506517
_symmetry_Int_Tables_number   1
_chemical_formula_structural   Rb6U2Mo4O21
_chemical_formula_sum   'Rb12 U4 Mo8 O42'
_cell_volume   1273.18643335
_cell_formula_units_Z   2
loop_
 _symmetry_equiv_pos_site_id
 _symmetry_equiv_pos_as_xyz
  1  'x, y, z'
loop_
 _atom_site_type_symbol
 _atom_site_label
 _atom_site_symmetry_multiplicity
 _atom_site_fract_x
 _atom_site_fract_y
 _atom_site_fract_z
 _atom_site_occupancy
  Rb  Rb0  1  0.58982342  0.86741573  0.27683883  1
  Rb  Rb1  1  0.11938872  0.33529762  0.27690056  1
  Rb  Rb2  1  0.29996692  0.54711613  0.56175744  1
  Rb  Rb3  1  0.02881924  0.27769367  0.93532469  1
  Rb  Rb4  1  0.97118076  0.72230633  0.06467531  1
  Rb  Rb5  1  0.79870705  0.05352944  0.55806734  1
  Rb  Rb6  1  0.88061128  0.66470238  0.72309944  1
  Rb  Rb7  1  0.55462234  0.27350362  0.06749715  1
  Rb  Rb8  1  0.20129295  0.94647056  0.44193266  1
  Rb  Rb9  1  0.70003308  0.45288387  0.43824256  1
  Rb  Rb10  1  0.44537766  0.72649638  0.93250285  1
  Rb  Rb11  1  0.41017658  0.13258427  0.72316117  1
  U  U12  1  0.29738445  0.66473498  0.23189314  1
  U  U13  1  0.91514701  0.05526249  0.23220769  1
  U  U14  1  0.70261555  0.33526502  0.76810686  1
  U  U15  1  0.08485299  0.94473751  0.76779231  1
  Mo  Mo16  1  0.73962509  0.49829548  0.12786125  1
  Mo  Mo17  1  0.51694887  0.76213874  0.63957597  1
  Mo  Mo18  1  0.26037491  0.50170452  0.87213875  1
  Mo  Mo19  1  0.48305113  0.23786126  0.36042403  1
  Mo  Mo20  1  0.95175346  0.71209952  0.40450006  1
  Mo  Mo21  1  0.69387124  0.95640515  0.90282177  1
  Mo  Mo22  1  0.04824654  0.28790048  0.59549994  1
  Mo  Mo23  1  0.30612876  0.04359485  0.09717823  1
  O  O24  1  0.38701045  0.12285900  0.39455302  1
  O  O25  1  0.99067078  0.24566973  0.49747763  1
  O  O26  1  0.07736136  0.87605819  0.65558436  1
  O  O27  1  0.36559117  0.66981873  0.34513357  1
  O  O28  1  0.65511589  0.91384256  0.03710115  1
  O  O29  1  0.52187952  0.27358410  0.47015599  1
  O  O30  1  0.37769080  0.12007918  0.16472732  1
  O  O31  1  0.34848787  0.84855928  0.72187439  1
  O  O32  1  0.15653839  0.38579224  0.53773723  1
  O  O33  1  0.00932922  0.75433027  0.50252237  1
  O  O34  1  0.21252930  0.43807541  0.77974660  1
  O  O35  1  0.62230920  0.87992082  0.83527268  1
  O  O36  1  0.54473629  0.55574686  0.14088046  1
  O  O37  1  0.11050013  0.86432580  0.26116975  1
  O  O38  1  0.92263864  0.12394181  0.34441564  1
  O  O39  1  0.37271264  0.84921016  0.13597479  1
  O  O40  1  0.82049407  0.30274053  0.14473704  1
  O  O41  1  0.88882187  0.87901452  0.86491587  1
  O  O42  1  0.61929920  0.59602602  0.71573625  1
  O  O43  1  0.88949987  0.13567420  0.73883025  1
  O  O44  1  0.47812048  0.72641590  0.52984401  1
  O  O45  1  0.10709315  0.99796346  0.88050009  1
  O  O46  1  0.18986060  0.43726598  0.99564429  1
  O  O47  1  0.17950593  0.69725947  0.85526296  1
  O  O48  1  0.62728736  0.15078984  0.86402521  1
  O  O49  1  0.81013940  0.56273402  0.00435571  1
  O  O50  1  0.34488411  0.08615744  0.96289885  1
  O  O51  1  0.84346161  0.61420776  0.46226277  1
  O  O52  1  0.10208526  0.59865353  0.31949126  1
  O  O53  1  0.38070080  0.40397398  0.28426375  1
  O  O54  1  0.24879563  0.64967702  0.11414432  1
  O  O55  1  0.45526371  0.44425314  0.85911954  1
  O  O56  1  0.83385937  0.87704573  0.33452845  1
  O  O57  1  0.89290685  0.00203654  0.11949991  1
  O  O58  1  0.16614063  0.12295427  0.66547155  1
  O  O59  1  0.63440883  0.33018127  0.65486643  1
  O  O60  1  0.61298955  0.87714100  0.60544698  1
  O  O61  1  0.11117813  0.12098548  0.13508413  1
  O  O62  1  0.78747070  0.56192459  0.22025340  1
  O  O63  1  0.75120437  0.35032298  0.88585568  1
  O  O64  1  0.65151213  0.15144072  0.27812561  1
  O  O65  1  0.89791474  0.40134647  0.68050874  1
