# generated using pymatgen
data_Bi2WO6
_symmetry_space_group_name_H-M   'P 1'
_cell_length_a   3.85529559
_cell_length_b   8.34198074
_cell_length_c   8.46319027
_cell_angle_alpha   101.39506894
_cell_angle_beta   103.15900569
_cell_angle_gamma   89.99669400
_symmetry_Int_Tables_number   1
_chemical_formula_structural   Bi2WO6
_chemical_formula_sum   'Bi4 W2 O12'
_cell_volume   259.52382076
_cell_formula_units_Z   2
loop_
 _symmetry_equiv_pos_site_id
 _symmetry_equiv_pos_as_xyz
  1  'x, y, z'
loop_
 _atom_site_type_symbol
 _atom_site_label
 _atom_site_symmetry_multiplicity
 _atom_site_fract_x
 _atom_site_fract_y
 _atom_site_fract_z
 _atom_site_occupancy
  Bi  Bi0  1  0.68159359  0.60540374  0.36291341  1
  Bi  Bi1  1  0.31840641  0.39459626  0.63708659  1
  Bi  Bi2  1  0.33275984  0.92860078  0.66595573  1
  Bi  Bi3  1  0.66724016  0.07139922  0.33404427  1
  W  W4  1  0.00490199  0.70279200  0.00887199  1
  W  W5  1  0.99509801  0.29720800  0.99112801  1
  O  O6  1  0.75155623  0.88035885  0.50316212  1
  O  O7  1  0.73295130  0.36553984  0.46579886  1
  O  O8  1  0.92196155  0.48517258  0.84389936  1
  O  O9  1  0.26704870  0.63446016  0.53420114  1
  O  O10  1  0.07395959  0.17211077  0.14800062  1
  O  O11  1  0.89305941  0.15336981  0.78591387  1
  O  O12  1  0.07803845  0.51482742  0.15610064  1
  O  O13  1  0.10694059  0.84663019  0.21408613  1
  O  O14  1  0.24844377  0.11964115  0.49683788  1
  O  O15  1  0.92604041  0.82788923  0.85199938  1
  O  O16  1  0.50665330  0.68612085  0.01300569  1
  O  O17  1  0.49334670  0.31387915  0.98699431  1
