# generated using pymatgen
data_Mo5O14
_symmetry_space_group_name_H-M   'P 1'
_cell_length_a   5.56933845
_cell_length_b   6.85483710
_cell_length_c   31.51071050
_cell_angle_alpha   88.94804354
_cell_angle_beta   90.00000000
_cell_angle_gamma   90.00000000
_symmetry_Int_Tables_number   1
_chemical_formula_structural   Mo5O14
_chemical_formula_sum   'Mo20 O56'
_cell_volume   1202.77873743
_cell_formula_units_Z   4
loop_
 _symmetry_equiv_pos_site_id
 _symmetry_equiv_pos_as_xyz
  1  'x, y, z'
loop_
 _atom_site_type_symbol
 _atom_site_label
 _atom_site_symmetry_multiplicity
 _atom_site_fract_x
 _atom_site_fract_y
 _atom_site_fract_z
 _atom_site_occupancy
  Mo  Mo0  1  0.26822363  0.09662112  0.72637628  1
  Mo  Mo1  1  0.76822363  0.40337888  0.77362372  1
  Mo  Mo2  1  0.73177637  0.90337888  0.27362372  1
  Mo  Mo3  1  0.23177637  0.59662112  0.22637628  1
  Mo  Mo4  1  0.76594819  0.77495473  0.68053930  1
  Mo  Mo5  1  0.26594819  0.72504527  0.81946070  1
  Mo  Mo6  1  0.23405181  0.22504527  0.31946070  1
  Mo  Mo7  1  0.73405181  0.27495473  0.18053930  1
  Mo  Mo8  1  0.26943878  0.45426987  0.63036020  1
  Mo  Mo9  1  0.76943878  0.04573013  0.86963980  1
  Mo  Mo10  1  0.73056122  0.54573013  0.36963980  1
  Mo  Mo11  1  0.23056122  0.95426987  0.13036020  1
  Mo  Mo12  1  0.76179548  0.12678982  0.58169215  1
  Mo  Mo13  1  0.26179548  0.37321018  0.91830785  1
  Mo  Mo14  1  0.23820452  0.87321018  0.41830785  1
  Mo  Mo15  1  0.73820452  0.62678982  0.08169215  1
  Mo  Mo16  1  0.27597417  0.80112864  0.53503141  1
  Mo  Mo17  1  0.77597417  0.69887136  0.96496859  1
  Mo  Mo18  1  0.72402583  0.19887136  0.46496859  1
  Mo  Mo19  1  0.22402583  0.30112864  0.03503141  1
  O  O20  1  0.53109050  0.24166985  0.74822691  1
  O  O21  1  0.03109050  0.25833015  0.75177309  1
  O  O22  1  0.46890950  0.75833015  0.25177309  1
  O  O23  1  0.96890950  0.74166985  0.24822691  1
  O  O24  1  0.76904129  0.58798221  0.72182225  1
  O  O25  1  0.26904129  0.91201779  0.77817775  1
  O  O26  1  0.23095871  0.41201779  0.27817775  1
  O  O27  1  0.73095871  0.08798221  0.22182225  1
  O  O28  1  -0.00022411  0.93163580  0.70062514  1
  O  O29  1  0.49977589  0.56836420  0.79937486  1
  O  O30  1  1.00022411  0.06836420  0.29937486  1
  O  O31  1  0.50022411  0.43163580  0.20062514  1
  O  O32  1  0.50716476  0.91316828  0.69752198  1
  O  O33  1  0.00716476  0.58683172  0.80247802  1
  O  O34  1  0.49283524  0.08683172  0.30247802  1
  O  O35  1  0.99283524  0.41316828  0.19752198  1
  O  O36  1  0.26526845  0.27672257  0.67274387  1
  O  O37  1  0.76526845  0.22327743  0.82725613  1
  O  O38  1  0.53012306  0.59418845  0.64397879  1
  O  O39  1  0.73473155  0.72327743  0.32725613  1
  O  O40  1  0.74526565  0.76441340  0.02004787  1
  O  O41  1  0.24526565  0.73558660  0.47995213  1
  O  O42  1  0.25473435  0.23558660  0.97995213  1
  O  O43  1  0.75473435  0.26441340  0.52004787  1
  O  O44  1  0.45919728  0.46237837  0.04935730  1
  O  O45  1  0.95919728  0.03762163  0.45064270  1
  O  O46  1  0.54080272  0.53762163  0.95064270  1
  O  O47  1  0.04080272  0.96237837  0.54935730  1
  O  O48  1  0.94302952  0.42071557  0.04423015  1
  O  O49  1  0.44302952  0.07928443  0.45576985  1
  O  O50  1  0.05697048  0.57928443  0.95576985  1
  O  O51  1  0.55697048  0.92071557  0.54423015  1
  O  O52  1  0.23759555  0.08558012  0.06796646  1
  O  O53  1  0.73759555  0.41441988  0.43203354  1
  O  O54  1  0.76240445  0.91441988  0.93203354  1
  O  O55  1  0.26240445  0.58558012  0.56796646  1
  O  O56  1  0.50918871  0.78785140  0.09919486  1
  O  O57  1  0.00918871  0.71214860  0.40080514  1
  O  O58  1  0.49081129  0.21214860  0.90080514  1
  O  O59  1  0.99081129  0.28785140  0.59919486  1
  O  O60  1  0.00468036  0.75718505  0.09574157  1
  O  O61  1  0.50468036  0.74281495  0.40425843  1
  O  O62  1  0.99531964  0.24281495  0.90425843  1
  O  O63  1  0.49531964  0.25718505  0.59574157  1
  O  O64  1  0.73212694  0.44381868  0.12317886  1
  O  O65  1  0.23212694  0.05618132  0.37682114  1
  O  O66  1  0.26787306  0.55618132  0.87682114  1
  O  O67  1  0.76787306  0.94381868  0.62317886  1
  O  O68  1  0.46273051  0.11670110  0.14729851  1
  O  O69  1  0.96273051  0.38329890  0.35270149  1
  O  O70  1  0.53726949  0.88329890  0.85270149  1
  O  O71  1  0.03726949  0.61670110  0.64729851  1
  O  O72  1  0.96987694  0.09418845  0.14397879  1
  O  O73  1  0.46987694  0.40581155  0.35602121  1
  O  O74  1  0.03012306  0.90581155  0.85602121  1
  O  O75  1  0.23473155  0.77672257  0.17274387  1
