# generated using pymatgen
data_Ag2Mo3SeO12
_symmetry_space_group_name_H-M   'P 1'
_cell_length_a   7.50215292
_cell_length_b   11.26793793
_cell_length_c   13.10796934
_cell_angle_alpha   90.00000000
_cell_angle_beta   104.67353252
_cell_angle_gamma   90.00000000
_symmetry_Int_Tables_number   1
_chemical_formula_structural   Ag2Mo3SeO12
_chemical_formula_sum   'Ag8 Mo12 Se4 O48'
_cell_volume   1071.92664539
_cell_formula_units_Z   4
loop_
 _symmetry_equiv_pos_site_id
 _symmetry_equiv_pos_as_xyz
  1  'x, y, z'
loop_
 _atom_site_type_symbol
 _atom_site_label
 _atom_site_symmetry_multiplicity
 _atom_site_fract_x
 _atom_site_fract_y
 _atom_site_fract_z
 _atom_site_occupancy
  Ag  Ag0  1  0.56292568  0.07136106  0.81919195  1
  Ag  Ag1  1  0.43707432  0.92863894  0.18080805  1
  Ag  Ag2  1  0.40538987  0.60112533  0.18996603  1
  Ag  Ag3  1  0.59461013  0.39887467  0.81003397  1
  Ag  Ag4  1  0.06292568  0.42863894  0.31919195  1
  Ag  Ag5  1  0.09461013  0.10112533  0.31003397  1
  Ag  Ag6  1  0.90538987  0.89887467  0.68996603  1
  Ag  Ag7  1  0.93707432  0.57136106  0.68080805  1
  Mo  Mo8  1  0.14534763  0.75227696  0.94284431  1
  Mo  Mo9  1  0.84906673  0.91744150  0.05822566  1
  Mo  Mo10  1  0.34906673  0.58255850  0.55822566  1
  Mo  Mo11  1  0.85465237  0.24772304  0.05715569  1
  Mo  Mo12  1  0.36561426  0.91748585  0.56928238  1
  Mo  Mo13  1  0.63438574  0.08251415  0.43071762  1
  Mo  Mo14  1  0.13438574  0.41748585  0.93071762  1
  Mo  Mo15  1  0.64534763  0.74772304  0.44284431  1
  Mo  Mo16  1  0.65093327  0.41744150  0.44177434  1
  Mo  Mo17  1  0.35465237  0.25227696  0.55715569  1
  Mo  Mo18  1  0.86561426  0.58251415  0.06928238  1
  Mo  Mo19  1  0.15093327  0.08255850  0.94177434  1
  Se  Se20  1  0.15859878  0.80754051  0.30793901  1
  Se  Se21  1  0.84140122  0.19245949  0.69206099  1
  Se  Se22  1  0.65859878  0.69245949  0.80793901  1
  Se  Se23  1  0.34140122  0.30754051  0.19206099  1
  O  O24  1  0.95198688  0.41599542  0.81466980  1
  O  O25  1  0.89959260  0.41740543  0.03316031  1
  O  O26  1  0.38609606  0.40460684  0.29903562  1
  O  O27  1  0.41344099  0.74841816  0.53642037  1
  O  O28  1  0.39959260  0.08259457  0.53316031  1
  O  O29  1  0.11268586  0.26926514  0.19149532  1
  O  O30  1  0.73114702  0.91726510  0.15645141  1
  O  O31  1  0.19499644  0.91411440  0.40717465  1
  O  O32  1  0.76106070  0.74522022  0.34520232  1
  O  O33  1  0.30500356  0.41411440  0.09282535  1
  O  O34  1  0.69499644  0.58588560  0.90717465  1
  O  O35  1  0.61268586  0.23073486  0.69149532  1
  O  O36  1  0.76885298  0.41726510  0.34354859  1
  O  O37  1  0.82468374  0.73539780  0.55919673  1
  O  O38  1  0.88731414  0.73073486  0.80850468  1
  O  O39  1  0.83374950  0.42658083  0.55480794  1
  O  O40  1  0.26885298  0.08273490  0.84354859  1
  O  O41  1  0.91344099  0.75158184  0.03642037  1
  O  O42  1  0.11390394  0.90460684  0.20096438  1
  O  O43  1  0.45198688  0.08400458  0.31466980  1
  O  O44  1  0.67531626  0.23539780  0.94080327  1
  O  O45  1  0.17531626  0.26460220  0.44080327  1
  O  O46  1  0.60040740  0.91740543  0.46683969  1
  O  O47  1  0.23114702  0.58273490  0.65645141  1
  O  O48  1  0.17391458  0.91561818  0.61964667  1
  O  O49  1  0.32468374  0.76460220  0.05919673  1
  O  O50  1  0.23893930  0.25477978  0.65479768  1
  O  O51  1  0.08655901  0.24841816  0.96357963  1
  O  O52  1  0.44069568  0.41952663  0.55440005  1
  O  O53  1  0.73893930  0.24522022  0.15479768  1
  O  O54  1  0.32608542  0.41561818  0.88035333  1
  O  O55  1  0.58655901  0.25158184  0.46357963  1
  O  O56  1  0.82608542  0.08438182  0.38035333  1
  O  O57  1  0.80500356  0.08588560  0.59282535  1
  O  O58  1  0.33374950  0.07341917  0.05480794  1
  O  O59  1  0.61390394  0.59539316  0.70096438  1
  O  O60  1  0.05930432  0.91952663  0.94559995  1
  O  O61  1  0.26106070  0.75477978  0.84520232  1
  O  O62  1  0.66625050  0.92658083  0.94519206  1
  O  O63  1  0.04801312  0.58400458  0.18533020  1
  O  O64  1  0.94069568  0.08047337  0.05440005  1
  O  O65  1  0.10040740  0.58259457  0.96683969  1
  O  O66  1  0.88609606  0.09539316  0.79903562  1
  O  O67  1  0.67391458  0.58438182  0.11964667  1
  O  O68  1  0.55930432  0.58047337  0.44559995  1
  O  O69  1  0.54801312  0.91599542  0.68533020  1
  O  O70  1  0.16625050  0.57341917  0.44519206  1
  O  O71  1  0.38731414  0.76926514  0.30850468  1
