# generated using pymatgen
data_LiGa(MoO4)2
_symmetry_space_group_name_H-M   'P 1'
_cell_length_a   6.83020647
_cell_length_b   7.18987824
_cell_length_c   7.49834147
_cell_angle_alpha   91.14344281
_cell_angle_beta   110.59998265
_cell_angle_gamma   104.74849105
_symmetry_Int_Tables_number   1
_chemical_formula_structural   LiGa(MoO4)2
_chemical_formula_sum   'Li2 Ga2 Mo4 O16'
_cell_volume   330.88096545
_cell_formula_units_Z   2
loop_
 _symmetry_equiv_pos_site_id
 _symmetry_equiv_pos_as_xyz
  1  'x, y, z'
loop_
 _atom_site_type_symbol
 _atom_site_label
 _atom_site_symmetry_multiplicity
 _atom_site_fract_x
 _atom_site_fract_y
 _atom_site_fract_z
 _atom_site_occupancy
  Li  Li0  1  0.23096210  0.55294992  0.75191728  1
  Li  Li1  1  0.76903790  0.44705008  0.24808272  1
  Ga  Ga2  1  0.40557666  0.09954222  0.31948199  1
  Ga  Ga3  1  0.59442334  0.90045778  0.68051801  1
  Mo  Mo4  1  0.82275675  0.96712599  0.21170045  1
  Mo  Mo5  1  0.17724325  0.03287401  0.78829955  1
  Mo  Mo6  1  0.66829223  0.42365270  0.71114547  1
  Mo  Mo7  1  0.33170777  0.57634730  0.28885453  1
  O  O8  1  0.24488228  0.03971624  0.04283941  1
  O  O9  1  0.75511772  0.96028376  0.95716059  1
  O  O10  1  0.25266729  0.57720037  0.04181337  1
  O  O11  1  0.68800938  0.13201167  0.27423887  1
  O  O12  1  0.57527189  0.15746725  0.60894686  1
  O  O13  1  0.27655276  0.27219538  0.74350465  1
  O  O14  1  0.72344724  0.72780462  0.25649535  1
  O  O15  1  0.48269567  0.38358903  0.34601850  1
  O  O16  1  0.11442964  0.05321062  0.34015046  1
  O  O17  1  0.51730433  0.61641097  0.65398150  1
  O  O18  1  0.88557036  0.94678938  0.65984954  1
  O  O19  1  0.09031210  0.48411728  0.32842564  1
  O  O20  1  0.90968790  0.51588272  0.67157436  1
  O  O21  1  0.31199062  0.86798833  0.72576113  1
  O  O22  1  0.42472811  0.84253275  0.39105314  1
  O  O23  1  0.74733271  0.42279963  0.95818663  1
