# generated using pymatgen
data_UGe2
_symmetry_space_group_name_H-M   'P 1'
_cell_length_a   3.97815901
_cell_length_b   4.18228871
_cell_length_c   7.76892277
_cell_angle_alpha   105.61475600
_cell_angle_beta   90.00000000
_cell_angle_gamma   90.00000000
_symmetry_Int_Tables_number   1
_chemical_formula_structural   UGe2
_chemical_formula_sum   'U2 Ge4'
_cell_volume   124.48737329
_cell_formula_units_Z   2
loop_
 _symmetry_equiv_pos_site_id
 _symmetry_equiv_pos_as_xyz
  1  'x, y, z'
loop_
 _atom_site_type_symbol
 _atom_site_label
 _atom_site_symmetry_multiplicity
 _atom_site_fract_x
 _atom_site_fract_y
 _atom_site_fract_z
 _atom_site_occupancy
  Ge  Ge0  1  0.25000000  0.56081337  0.12162673  1
  Ge  Ge1  1  0.75000000  0.43918663  0.87837327  1
  Ge  Ge2  1  0.75000000  0.74754588  0.49509176  1
  Ge  Ge3  1  0.25000000  0.25245412  0.50490824  1
  U  U4  1  0.25000000  0.89991409  0.79982819  1
  U  U5  1  0.75000000  0.10008591  0.20017181  1
