# generated using pymatgen
data_CoTeMoO6
_symmetry_space_group_name_H-M   'P 1'
_cell_length_a   5.11601163
_cell_length_b   5.33282542
_cell_length_c   9.18835955
_cell_angle_alpha   90.00082637
_cell_angle_beta   90.01425875
_cell_angle_gamma   90.00327410
_symmetry_Int_Tables_number   1
_chemical_formula_structural   CoTeMoO6
_chemical_formula_sum   'Co2 Te2 Mo2 O12'
_cell_volume   250.68413920
_cell_formula_units_Z   2
loop_
 _symmetry_equiv_pos_site_id
 _symmetry_equiv_pos_as_xyz
  1  'x, y, z'
loop_
 _atom_site_type_symbol
 _atom_site_label
 _atom_site_symmetry_multiplicity
 _atom_site_fract_x
 _atom_site_fract_y
 _atom_site_fract_z
 _atom_site_occupancy
  O  O0  1  0.24247031  0.81489329  0.29970872  1
  O  O1  1  0.28150641  0.82075417  0.60398555  1
  O  O2  1  0.75742924  0.18508271  0.29978682  1
  O  O3  1  0.71862293  0.17939578  0.60408274  1
  O  O4  1  0.66148086  0.79178608  0.08340030  1
  Te  Te5  1  0.99992533  0.49999143  0.26011760  1
  Mo  Mo6  1  0.99997127  0.49989041  0.80212396  1
  Co  Co7  1  0.99999600  0.00005961  0.47401306  1
  O  O8  1  0.78143137  0.67935378  0.39595226  1
  O  O9  1  0.16146228  0.70808773  0.91657701  1
  O  O10  1  0.83851101  0.29179567  0.91657458  1
  Te  Te11  1  0.50007936  0.00002031  0.73989079  1
  O  O12  1  0.21852294  0.32073832  0.39599657  1
  O  O13  1  0.74255397  0.68511063  0.70021855  1
  O  O14  1  0.33850928  0.20811337  0.08338680  1
  O  O15  1  0.25754021  0.31489227  0.70028763  1
  Co  Co16  1  0.50001640  0.50008668  0.52599783  1
  Mo  Mo17  1  0.49997083  0.99994776  0.19789923  1
