# generated using pymatgen
data_Hf2Te
_symmetry_space_group_name_H-M   'P 1'
_cell_length_a   3.75675772
_cell_length_b   7.84691798
_cell_length_c   10.12845918
_cell_angle_alpha   90.23959066
_cell_angle_beta   90.00000000
_cell_angle_gamma   103.84982727
_symmetry_Int_Tables_number   1
_chemical_formula_structural   Hf2Te
_chemical_formula_sum   'Hf8 Te4'
_cell_volume   289.89317933
_cell_formula_units_Z   4
loop_
 _symmetry_equiv_pos_site_id
 _symmetry_equiv_pos_as_xyz
  1  'x, y, z'
loop_
 _atom_site_type_symbol
 _atom_site_label
 _atom_site_symmetry_multiplicity
 _atom_site_fract_x
 _atom_site_fract_y
 _atom_site_fract_z
 _atom_site_occupancy
  Hf  Hf0  1  0.74493885  0.48987769  0.38244638  1
  Hf  Hf1  1  0.21844192  0.43688385  0.12732346  1
  Hf  Hf2  1  0.59261668  0.18523336  0.65238675  1
  Hf  Hf3  1  0.78155808  0.56311615  0.87267654  1
  Hf  Hf4  1  0.25506115  0.51012231  0.61755362  1
  Hf  Hf5  1  0.91443392  0.82886784  0.58056072  1
  Hf  Hf6  1  0.08556608  0.17113216  0.41943928  1
  Hf  Hf7  1  0.40738332  0.81476664  0.34761325  1
  Te  Te8  1  0.57892822  0.15785643  0.19460892  1
  Te  Te9  1  0.86498333  0.72996667  0.13290470  1
  Te  Te10  1  0.13501667  0.27003333  0.86709530  1
  Te  Te11  1  0.42107178  0.84214357  0.80539108  1
