# generated using pymatgen
data_Ti3Ni4
_symmetry_space_group_name_H-M   'P 1'
_cell_length_a   5.03877793
_cell_length_b   6.70284628
_cell_length_c   6.70284634
_cell_angle_alpha   113.94222508
_cell_angle_beta   104.51178089
_cell_angle_gamma   104.51177474
_symmetry_Int_Tables_number   1
_chemical_formula_structural   Ti3Ni4
_chemical_formula_sum   'Ti6 Ni8'
_cell_volume   183.74323431
_cell_formula_units_Z   2
loop_
 _symmetry_equiv_pos_site_id
 _symmetry_equiv_pos_as_xyz
  1  'x, y, z'
loop_
 _atom_site_type_symbol
 _atom_site_label
 _atom_site_symmetry_multiplicity
 _atom_site_fract_x
 _atom_site_fract_y
 _atom_site_fract_z
 _atom_site_occupancy
  Ti  Ti0  1  0.24136437  0.13329902  0.73661506  1
  Ti  Ti1  1  0.10806535  0.60331604  0.86670098  1
  Ti  Ti2  1  0.50474931  0.26338494  0.39668396  1
  Ti  Ti3  1  0.75863563  0.86670098  0.26338494  1
  Ti  Ti4  1  0.89193465  0.39668396  0.13329902  1
  Ti  Ti5  1  0.49525069  0.73661506  0.60331604  1
  Ni  Ni6  1  -0.00000000  -0.00000000  0.00000000  1
  Ni  Ni7  1  0.50000000  -0.00000000  0.00000000  1
  Ni  Ni8  1  0.74412845  0.15794037  0.68056312  1
  Ni  Ni9  1  0.58618808  0.52262275  0.84205963  1
  Ni  Ni10  1  0.06356533  0.31943688  0.47737725  1
  Ni  Ni11  1  0.25587155  0.84205963  0.31943688  1
  Ni  Ni12  1  0.41381192  0.47737725  0.15794037  1
  Ni  Ni13  1  0.93643467  0.68056312  0.52262275  1
