# generated using pymatgen
data_Hg6MoAs4Cl7
_symmetry_space_group_name_H-M   'P 1'
_cell_length_a   12.45795421
_cell_length_b   12.45795421
_cell_length_c   12.45795421
_cell_angle_alpha   90.00000000
_cell_angle_beta   90.00000000
_cell_angle_gamma   90.00000000
_symmetry_Int_Tables_number   1
_chemical_formula_structural   Hg6MoAs4Cl7
_chemical_formula_sum   'Hg24 Mo4 As16 Cl28'
_cell_volume   1933.48225592
_cell_formula_units_Z   4
loop_
 _symmetry_equiv_pos_site_id
 _symmetry_equiv_pos_as_xyz
  1  'x, y, z'
loop_
 _atom_site_type_symbol
 _atom_site_label
 _atom_site_symmetry_multiplicity
 _atom_site_fract_x
 _atom_site_fract_y
 _atom_site_fract_z
 _atom_site_occupancy
  Hg  Hg0  1  0.45438667  0.18735464  0.30095281  1
  Hg  Hg1  1  0.19904719  0.95438667  0.18735464  1
  Hg  Hg2  1  0.81264536  0.80095281  0.04561333  1
  Hg  Hg3  1  0.80095281  0.45438667  0.31264536  1
  Hg  Hg4  1  0.31264536  0.69904719  0.95438667  1
  Hg  Hg5  1  0.95438667  0.18735464  0.19904719  1
  Hg  Hg6  1  0.18735464  0.30095281  0.45438667  1
  Hg  Hg7  1  0.54561333  0.81264536  0.69904719  1
  Hg  Hg8  1  0.54561333  0.68735464  0.19904719  1
  Hg  Hg9  1  0.68735464  0.30095281  0.04561333  1
  Hg  Hg10  1  0.31264536  0.80095281  0.45438667  1
  Hg  Hg11  1  0.04561333  0.81264536  0.80095281  1
  Hg  Hg12  1  0.19904719  0.54561333  0.68735464  1
  Hg  Hg13  1  0.95438667  0.31264536  0.69904719  1
  Hg  Hg14  1  0.18735464  0.19904719  0.95438667  1
  Hg  Hg15  1  0.30095281  0.04561333  0.68735464  1
  Hg  Hg16  1  0.30095281  0.45438667  0.18735464  1
  Hg  Hg17  1  0.69904719  0.95438667  0.31264536  1
  Hg  Hg18  1  0.45438667  0.31264536  0.80095281  1
  Hg  Hg19  1  0.68735464  0.19904719  0.54561333  1
  Hg  Hg20  1  0.81264536  0.69904719  0.54561333  1
  Hg  Hg21  1  0.04561333  0.68735464  0.30095281  1
  Hg  Hg22  1  0.69904719  0.54561333  0.81264536  1
  Hg  Hg23  1  0.80095281  0.04561333  0.81264536  1
  Mo  Mo24  1  0.50000000  0.50000000  0.50000000  1
  Mo  Mo25  1  0.00000000  0.50000000  0.00000000  1
  Mo  Mo26  1  0.50000000  0.00000000  0.00000000  1
  Mo  Mo27  1  0.00000000  0.00000000  0.50000000  1
  As  As28  1  0.34841687  0.65158313  0.15158313  1
  As  As29  1  0.15158313  0.15158313  0.15158313  1
  As  As30  1  0.34841687  0.84841687  0.65158313  1
  As  As31  1  0.76688658  0.26688658  0.23311342  1
  As  As32  1  0.65158313  0.34841687  0.84841687  1
  As  As33  1  0.23311342  0.76688658  0.26688658  1
  As  As34  1  0.23311342  0.73311342  0.76688658  1
  As  As35  1  0.84841687  0.84841687  0.84841687  1
  As  As36  1  0.65158313  0.15158313  0.34841687  1
  As  As37  1  0.76688658  0.23311342  0.73311342  1
  As  As38  1  0.26688658  0.23311342  0.76688658  1
  As  As39  1  0.84841687  0.65158313  0.34841687  1
  As  As40  1  0.26688658  0.26688658  0.26688658  1
  As  As41  1  0.73311342  0.73311342  0.73311342  1
  As  As42  1  0.73311342  0.76688658  0.23311342  1
  As  As43  1  0.15158313  0.34841687  0.65158313  1
  Cl  Cl44  1  0.54419384  0.68739498  0.46186147  1
  Cl  Cl45  1  0.53813853  0.04419384  0.81260502  1
  Cl  Cl46  1  0.03813853  0.04419384  0.68739498  1
  Cl  Cl47  1  0.95580616  0.31260502  0.96186147  1
  Cl  Cl48  1  0.31260502  0.53813853  0.45580616  1
  Cl  Cl49  1  0.31260502  0.96186147  0.95580616  1
  Cl  Cl50  1  0.46186147  0.54419384  0.68739498  1
  Cl  Cl51  1  0.00000000  0.00000000  0.00000000  1
  Cl  Cl52  1  0.03813853  0.45580616  0.18739498  1
  Cl  Cl53  1  0.18739498  0.03813853  0.45580616  1
  Cl  Cl54  1  0.95580616  0.18739498  0.46186147  1
  Cl  Cl55  1  0.81260502  0.53813853  0.04419384  1
  Cl  Cl56  1  0.68739498  0.03813853  0.04419384  1
  Cl  Cl57  1  0.45580616  0.18739498  0.03813853  1
  Cl  Cl58  1  0.81260502  0.96186147  0.54419384  1
  Cl  Cl59  1  0.68739498  0.46186147  0.54419384  1
  Cl  Cl60  1  0.50000000  0.00000000  0.50000000  1
  Cl  Cl61  1  0.00000000  0.50000000  0.50000000  1
  Cl  Cl62  1  0.50000000  0.50000000  0.00000000  1
  Cl  Cl63  1  0.04419384  0.68739498  0.03813853  1
  Cl  Cl64  1  0.04419384  0.81260502  0.53813853  1
  Cl  Cl65  1  0.46186147  0.95580616  0.18739498  1
  Cl  Cl66  1  0.96186147  0.54419384  0.81260502  1
  Cl  Cl67  1  0.54419384  0.81260502  0.96186147  1
  Cl  Cl68  1  0.45580616  0.31260502  0.53813853  1
  Cl  Cl69  1  0.53813853  0.45580616  0.31260502  1
  Cl  Cl70  1  0.18739498  0.46186147  0.95580616  1
  Cl  Cl71  1  0.96186147  0.95580616  0.31260502  1
