# generated using pymatgen
data_Cs2CdI4
_symmetry_space_group_name_H-M   'P 1'
_cell_length_a   8.74763242
_cell_length_b   11.09988947
_cell_length_c   15.40484053
_cell_angle_alpha   90.00000000
_cell_angle_beta   90.00000000
_cell_angle_gamma   90.00000000
_symmetry_Int_Tables_number   1
_chemical_formula_structural   Cs2CdI4
_chemical_formula_sum   'Cs8 Cd4 I16'
_cell_volume   1495.77540057
_cell_formula_units_Z   4
loop_
 _symmetry_equiv_pos_site_id
 _symmetry_equiv_pos_as_xyz
  1  'x, y, z'
loop_
 _atom_site_type_symbol
 _atom_site_label
 _atom_site_symmetry_multiplicity
 _atom_site_fract_x
 _atom_site_fract_y
 _atom_site_fract_z
 _atom_site_occupancy
  Cs  Cs0  1  0.25000000  0.98379909  0.66759001  1
  Cs  Cs1  1  0.25000000  0.11756053  0.10129800  1
  Cs  Cs2  1  0.75000000  0.88243947  0.89870200  1
  Cs  Cs3  1  0.25000000  0.61756053  0.39870200  1
  Cs  Cs4  1  0.25000000  0.48379909  0.83240999  1
  Cs  Cs5  1  0.75000000  0.01620091  0.33240999  1
  Cs  Cs6  1  0.75000000  0.38243947  0.60129800  1
  Cs  Cs7  1  0.75000000  0.51620091  0.16759001  1
  Cd  Cd8  1  0.25000000  0.22476769  0.42116049  1
  Cd  Cd9  1  0.25000000  0.72476769  0.07883951  1
  Cd  Cd10  1  0.75000000  0.77523231  0.57883951  1
  Cd  Cd11  1  0.75000000  0.27523231  0.92116049  1
  I  I12  1  0.48905425  0.67985255  0.66100771  1
  I  I13  1  0.98905425  0.82014745  0.16100771  1
  I  I14  1  0.75000000  0.67666772  0.40949959  1
  I  I15  1  0.25000000  0.97203275  0.41208082  1
  I  I16  1  0.01094575  0.17985255  0.83899229  1
  I  I17  1  0.25000000  0.32333228  0.59050041  1
  I  I18  1  0.98905425  0.32014745  0.33899229  1
  I  I19  1  0.75000000  0.17666772  0.09050041  1
  I  I20  1  0.75000000  0.52796725  0.91208082  1
  I  I21  1  0.75000000  0.02796725  0.58791918  1
  I  I22  1  0.01094575  0.67985255  0.66100771  1
  I  I23  1  0.51094575  0.82014745  0.16100771  1
  I  I24  1  0.25000000  0.82333228  0.90949959  1
  I  I25  1  0.51094575  0.32014745  0.33899229  1
  I  I26  1  0.25000000  0.47203275  0.08791918  1
  I  I27  1  0.48905425  0.17985255  0.83899229  1
