# generated using pymatgen
data_Li17(AgSn2)3
_symmetry_space_group_name_H-M   'P 1'
_cell_length_a   8.08102140
_cell_length_b   8.08102129
_cell_length_c   8.54888693
_cell_angle_alpha   90.00000000
_cell_angle_beta   90.00000000
_cell_angle_gamma   120.00000046
_symmetry_Int_Tables_number   1
_chemical_formula_structural   Li17(AgSn2)3
_chemical_formula_sum   'Li17 Ag3 Sn6'
_cell_volume   483.47353968
_cell_formula_units_Z   1
loop_
 _symmetry_equiv_pos_site_id
 _symmetry_equiv_pos_as_xyz
  1  'x, y, z'
loop_
 _atom_site_type_symbol
 _atom_site_label
 _atom_site_symmetry_multiplicity
 _atom_site_fract_x
 _atom_site_fract_y
 _atom_site_fract_z
 _atom_site_occupancy
  Li  Li0  1  0.00000000  0.30113683  0.32715980  1
  Li  Li1  1  0.30113683  0.00000000  0.32715980  1
  Li  Li2  1  0.64411907  0.00000000  0.82454016  1
  Li  Li3  1  1.00000000  0.64806529  0.15024765  1
  Li  Li4  1  0.35193471  0.35193471  0.15024765  1
  Li  Li5  1  0.69886317  0.69886317  0.32715980  1
  Li  Li6  1  0.33333300  0.66666700  0.67448679  1
  Li  Li7  1  0.00000000  0.30812255  0.65233427  1
  Li  Li8  1  0.33333300  0.66666700  0.34164970  1
  Li  Li9  1  0.30812255  0.00000000  0.65233427  1
  Li  Li10  1  1.00000000  0.64411907  0.82454016  1
  Li  Li11  1  0.66666700  0.33333300  0.34164970  1
  Li  Li12  1  0.35588093  0.35588093  0.82454016  1
  Li  Li13  1  0.64806529  0.00000000  0.15024765  1
  Li  Li14  1  0.69187745  0.69187745  0.65233427  1
  Li  Li15  1  0.66666700  0.33333300  0.67448679  1
  Li  Li16  1  0.00000000  0.00000000  0.86632688  1
  Ag  Ag17  1  0.00000000  0.00000000  0.50579828  1
  Ag  Ag18  1  0.33333300  0.66666700  0.00315656  1
  Ag  Ag19  1  0.66666700  0.33333300  0.00315656  1
  Sn  Sn20  1  0.00000000  0.64771930  0.49460048  1
  Sn  Sn21  1  0.64771930  0.00000000  0.49460048  1
  Sn  Sn22  1  0.31547514  0.00000000  0.99359723  1
  Sn  Sn23  1  0.35228070  0.35228070  0.49460048  1
  Sn  Sn24  1  1.00000000  0.31547514  0.99359723  1
  Sn  Sn25  1  0.68452486  0.68452486  0.99359723  1
