# generated using pymatgen
data_ICl
_symmetry_space_group_name_H-M   'P 1'
_cell_length_a   8.90511004
_cell_length_b   8.48548450
_cell_length_c   9.34424574
_cell_angle_alpha   90.00000000
_cell_angle_beta   85.72024092
_cell_angle_gamma   90.00000000
_symmetry_Int_Tables_number   1
_chemical_formula_structural   ICl
_chemical_formula_sum   'I8 Cl8'
_cell_volume   704.12131251
_cell_formula_units_Z   8
loop_
 _symmetry_equiv_pos_site_id
 _symmetry_equiv_pos_as_xyz
  1  'x, y, z'
loop_
 _atom_site_type_symbol
 _atom_site_label
 _atom_site_symmetry_multiplicity
 _atom_site_fract_x
 _atom_site_fract_y
 _atom_site_fract_z
 _atom_site_occupancy
  I  I0  1  0.36789715  0.52414814  0.20036344  1
  I  I1  1  0.74558597  0.88249607  0.48633720  1
  I  I2  1  0.63210285  0.47585186  0.79963656  1
  I  I3  1  0.75441403  0.38249607  0.51366280  1
  I  I4  1  0.86789715  0.97585186  0.20036344  1
  I  I5  1  0.24558597  0.61750393  0.48633720  1
  I  I6  1  0.13210285  0.02414814  0.79963656  1
  I  I7  1  0.25441403  0.11750393  0.51366280  1
  Cl  Cl8  1  0.10870997  0.29220648  0.88654300  1
  Cl  Cl9  1  0.86468324  0.29520232  0.26484465  1
  Cl  Cl10  1  0.63531676  0.79520232  0.73515535  1
  Cl  Cl11  1  0.60870997  0.20779352  0.88654300  1
  Cl  Cl12  1  0.36468324  0.20479768  0.26484465  1
  Cl  Cl13  1  0.39129003  0.79220648  0.11345700  1
  Cl  Cl14  1  0.89129003  0.70779352  0.11345700  1
  Cl  Cl15  1  0.13531676  0.70479768  0.73515535  1
