# generated using pymatgen
data_Tl4Ni7(PO4)6
_symmetry_space_group_name_H-M   'P 1'
_cell_length_a   6.78230134
_cell_length_b   9.03733367
_cell_length_c   9.03733435
_cell_angle_alpha   106.23163879
_cell_angle_beta   97.99226911
_cell_angle_gamma   97.99227921
_symmetry_Int_Tables_number   1
_chemical_formula_structural   Tl4Ni7(PO4)6
_chemical_formula_sum   'Tl4 Ni7 P6 O24'
_cell_volume   517.38601072
_cell_formula_units_Z   1
loop_
 _symmetry_equiv_pos_site_id
 _symmetry_equiv_pos_as_xyz
  1  'x, y, z'
loop_
 _atom_site_type_symbol
 _atom_site_label
 _atom_site_symmetry_multiplicity
 _atom_site_fract_x
 _atom_site_fract_y
 _atom_site_fract_z
 _atom_site_occupancy
  Tl  Tl0  1  0.49537991  0.69793982  0.69793982  1
  Tl  Tl1  1  0.46688510  0.49356081  0.26447913  1
  Tl  Tl2  1  0.52070707  0.08185532  0.08185532  1
  Tl  Tl3  1  0.46688510  0.26447913  0.49356081  1
  Ni  Ni4  1  0.00031732  0.00066942  0.00066942  1
  Ni  Ni5  1  0.17442421  0.01687955  0.63749839  1
  Ni  Ni6  1  0.81461860  0.36211447  0.96961132  1
  Ni  Ni7  1  0.99040881  0.37719670  0.61767066  1
  Ni  Ni8  1  0.17442421  0.63749839  0.01687955  1
  Ni  Ni9  1  0.81461860  0.96961132  0.36211447  1
  Ni  Ni10  1  0.99040881  0.61767066  0.37719670  1
  P  P11  1  0.98865621  0.69536799  0.69536799  1
  P  P12  1  0.26674257  0.28418255  0.88350351  1
  P  P13  1  0.26674257  0.88350351  0.28418255  1
  P  P14  1  0.72702111  0.10100747  0.71574947  1
  P  P15  1  0.99112898  0.29962432  0.29962432  1
  P  P16  1  0.72702111  0.71574947  0.10100747  1
  O  O17  1  0.85374962  0.60213478  0.01066779  1
  O  O18  1  0.89592052  0.80967890  0.80967890  1
  O  O19  1  0.49227806  0.95467036  0.33838518  1
  O  O20  1  0.12046479  0.77946414  0.60143334  1
  O  O21  1  0.13960207  0.39687560  0.97621398  1
  O  O22  1  0.83026097  0.56438717  0.56438717  1
  O  O23  1  0.77326687  0.28175643  0.72203509  1
  O  O24  1  0.12046479  0.60143334  0.77946414  1
  O  O25  1  0.19884050  0.88014925  0.10869373  1
  O  O26  1  0.86155956  0.21017569  0.39086951  1
  O  O27  1  0.50086613  0.03085985  0.66664683  1
  O  O28  1  0.21492504  0.70324119  0.27143701  1
  O  O29  1  0.86155956  0.39086951  0.21017569  1
  O  O30  1  0.13627890  0.43646018  0.43646018  1
  O  O31  1  0.10261560  0.19346239  0.19346239  1
  O  O32  1  0.49227806  0.33838518  0.95467036  1
  O  O33  1  0.85374962  0.01066779  0.60213478  1
  O  O34  1  0.21492504  0.27143701  0.70324119  1
  O  O35  1  0.13960207  0.97621398  0.39687560  1
  O  O36  1  0.79981373  0.89256453  0.11412516  1
  O  O37  1  0.50086613  0.66664683  0.03085985  1
  O  O38  1  0.19884050  0.10869373  0.88014925  1
  O  O39  1  0.77326687  0.72203509  0.28175643  1
  O  O40  1  0.79981373  0.11412516  0.89256453  1
