# generated using pymatgen
data_BS4N4F3
_symmetry_space_group_name_H-M   'P 1'
_cell_length_a   7.49552038
_cell_length_b   10.91721680
_cell_length_c   11.09415722
_cell_angle_alpha   90.00000000
_cell_angle_beta   94.72367161
_cell_angle_gamma   90.00000000
_symmetry_Int_Tables_number   1
_chemical_formula_structural   BS4N4F3
_chemical_formula_sum   'B4 S16 N16 F12'
_cell_volume   904.75382095
_cell_formula_units_Z   4
loop_
 _symmetry_equiv_pos_site_id
 _symmetry_equiv_pos_as_xyz
  1  'x, y, z'
loop_
 _atom_site_type_symbol
 _atom_site_label
 _atom_site_symmetry_multiplicity
 _atom_site_fract_x
 _atom_site_fract_y
 _atom_site_fract_z
 _atom_site_occupancy
  B  B0  1  0.50975131  0.40307519  0.30124389  1
  B  B1  1  0.99024869  0.90307519  0.19875611  1
  B  B2  1  0.49024869  0.59692481  0.69875611  1
  B  B3  1  0.00975131  0.09692481  0.80124389  1
  N  N4  1  0.20533792  0.43771485  0.91435963  1
  N  N5  1  0.07387005  0.43791726  0.67686454  1
  N  N6  1  0.57387005  0.06208274  0.17686454  1
  N  N7  1  0.92612995  0.56208274  0.32313546  1
  N  N8  1  0.29466208  0.93771485  0.58564037  1
  N  N9  1  0.79466208  0.56228515  0.08564037  1
  N  N10  1  0.70533792  0.06228515  0.41435963  1
  N  N11  1  0.42612995  0.93791726  0.82313546  1
  N  N12  1  0.00916641  0.80171616  0.64724284  1
  N  N13  1  0.49083359  0.30171616  0.85275716  1
  N  N14  1  0.99083359  0.19828384  0.35275716  1
  N  N15  1  0.42881835  0.45973808  0.66823233  1
  N  N16  1  0.57118165  0.54026192  0.33176767  1
  N  N17  1  0.92881835  0.04026192  0.16823233  1
  N  N18  1  0.07118165  0.95973808  0.83176767  1
  N  N19  1  0.50916641  0.69828384  0.14724284  1
  F  F20  1  0.13364523  0.15219779  0.72943667  1
  F  F21  1  0.66129002  0.58973389  0.75994983  1
  F  F22  1  0.16129002  0.91026611  0.25994983  1
  F  F23  1  0.33870998  0.41026611  0.24005017  1
  F  F24  1  0.83870998  0.08973389  0.74005017  1
  F  F25  1  0.99217822  0.83933084  0.08837963  1
  F  F26  1  0.49217822  0.66066916  0.58837963  1
  F  F27  1  0.00782178  0.16066916  0.91162037  1
  F  F28  1  0.63364523  0.34780221  0.22943667  1
  F  F29  1  0.86635477  0.84780221  0.27056333  1
  F  F30  1  0.36635477  0.65219779  0.77056333  1
  F  F31  1  0.50782178  0.33933084  0.41162037  1
  S  S32  1  0.26538158  0.92685866  0.90901206  1
  S  S33  1  0.23461842  0.42685866  0.59098794  1
  S  S34  1  0.73461842  0.07314134  0.09098794  1
  S  S35  1  0.76538158  0.57314134  0.40901206  1
  S  S36  1  0.45746088  0.95232078  0.68640309  1
  S  S37  1  0.04253912  0.45232078  0.81359691  1
  S  S38  1  0.54253912  0.04767922  0.31359691  1
  S  S39  1  0.95746088  0.54767922  0.18640309  1
  S  S40  1  0.13610652  0.84383905  0.55023693  1
  S  S41  1  0.36389348  0.34383905  0.94976307  1
  S  S42  1  0.86389348  0.15616095  0.44976307  1
  S  S43  1  0.63610652  0.65616095  0.05023693  1
  S  S44  1  0.96376491  0.83387003  0.78187082  1
  S  S45  1  0.53623509  0.33387003  0.71812918  1
  S  S46  1  0.03623509  0.16612997  0.21812918  1
  S  S47  1  0.46376491  0.66612997  0.28187082  1
