# generated using pymatgen
data_Nd3NCl6
_symmetry_space_group_name_H-M   'P 1'
_cell_length_a   10.57950360
_cell_length_b   11.36032880
_cell_length_c   16.51251030
_cell_angle_alpha   90.00000000
_cell_angle_beta   90.00000000
_cell_angle_gamma   90.00000000
_symmetry_Int_Tables_number   1
_chemical_formula_structural   Nd3NCl6
_chemical_formula_sum   'Nd24 N8 Cl48'
_cell_volume   1984.58312162
_cell_formula_units_Z   8
loop_
 _symmetry_equiv_pos_site_id
 _symmetry_equiv_pos_as_xyz
  1  'x, y, z'
loop_
 _atom_site_type_symbol
 _atom_site_label
 _atom_site_symmetry_multiplicity
 _atom_site_fract_x
 _atom_site_fract_y
 _atom_site_fract_z
 _atom_site_occupancy
  Nd  Nd0  1  0.98775354  0.71264154  0.54814653  1
  Nd  Nd1  1  0.65564801  0.46243106  0.67691120  1
  Nd  Nd2  1  0.48775354  0.71264154  0.95185347  1
  Nd  Nd3  1  0.84435199  0.96243106  0.67691120  1
  Nd  Nd4  1  0.51224646  0.21264154  0.54814653  1
  Nd  Nd5  1  0.64024289  0.02069846  0.93880106  1
  Nd  Nd6  1  0.51224646  0.28735846  0.04814653  1
  Nd  Nd7  1  0.34435199  0.96243106  0.82308880  1
  Nd  Nd8  1  0.85975711  0.52069846  0.93880106  1
  Nd  Nd9  1  0.35975711  0.97930154  0.06119894  1
  Nd  Nd10  1  0.34435199  0.53756894  0.32308880  1
  Nd  Nd11  1  0.64024289  0.47930154  0.43880106  1
  Nd  Nd12  1  0.01224646  0.21264154  0.95185347  1
  Nd  Nd13  1  0.85975711  0.97930154  0.43880106  1
  Nd  Nd14  1  0.14024289  0.47930154  0.06119894  1
  Nd  Nd15  1  0.01224646  0.28735846  0.45185347  1
  Nd  Nd16  1  0.48775354  0.78735846  0.45185347  1
  Nd  Nd17  1  0.65564801  0.03756894  0.17691120  1
  Nd  Nd18  1  0.15564801  0.03756894  0.32308880  1
  Nd  Nd19  1  0.98775354  0.78735846  0.04814653  1
  Nd  Nd20  1  0.84435199  0.53756894  0.17691120  1
  Nd  Nd21  1  0.35975711  0.52069846  0.56119894  1
  Nd  Nd22  1  0.15564801  0.46243106  0.82308880  1
  Nd  Nd23  1  0.14024289  0.02069846  0.56119894  1
  N  N24  1  0.95149495  0.59257597  0.06048664  1
  N  N25  1  0.45149495  0.59257597  0.43951336  1
  N  N26  1  0.04850505  0.40742403  0.93951336  1
  N  N27  1  0.04850505  0.09257597  0.43951336  1
  N  N28  1  0.54850505  0.40742403  0.56048664  1
  N  N29  1  0.95149495  0.90742403  0.56048664  1
  N  N30  1  0.54850505  0.09257597  0.06048664  1
  N  N31  1  0.45149495  0.90742403  0.93951336  1
  Cl  Cl32  1  0.47137809  0.31608204  0.37490334  1
  Cl  Cl33  1  0.63118115  0.93372065  0.33985002  1
  Cl  Cl34  1  0.25152339  0.78555836  0.54425100  1
  Cl  Cl35  1  0.89600289  0.42342009  0.77230471  1
  Cl  Cl36  1  0.02862191  0.68391796  0.87490334  1
  Cl  Cl37  1  0.83403495  0.78359653  0.18558134  1
  Cl  Cl38  1  0.47137809  0.18391796  0.87490334  1
  Cl  Cl39  1  0.33403495  0.71640347  0.81441866  1
  Cl  Cl40  1  0.52862191  0.68391796  0.62509666  1
  Cl  Cl41  1  0.52862191  0.81608204  0.12509666  1
  Cl  Cl42  1  0.97137809  0.18391796  0.62509666  1
  Cl  Cl43  1  0.35602023  0.47081664  0.94573800  1
  Cl  Cl44  1  0.39600289  0.42342009  0.72769529  1
  Cl  Cl45  1  0.36881885  0.43372065  0.16014998  1
  Cl  Cl46  1  0.13118115  0.56627935  0.66014998  1
  Cl  Cl47  1  0.36881885  0.06627935  0.66014998  1
  Cl  Cl48  1  0.97137809  0.31608204  0.12509666  1
  Cl  Cl49  1  0.25152339  0.71444164  0.04425100  1
  Cl  Cl50  1  0.64397977  0.52918336  0.05426200  1
  Cl  Cl51  1  0.16596505  0.21640347  0.81441866  1
  Cl  Cl52  1  0.60399711  0.57657991  0.27230471  1
  Cl  Cl53  1  0.89600289  0.07657991  0.27230471  1
  Cl  Cl54  1  0.10399711  0.57657991  0.22769529  1
  Cl  Cl55  1  0.16596505  0.28359653  0.31441866  1
  Cl  Cl56  1  0.74847661  0.21444164  0.45574900  1
  Cl  Cl57  1  0.74847661  0.28555836  0.95574900  1
  Cl  Cl58  1  0.86881885  0.43372065  0.33985002  1
  Cl  Cl59  1  0.83403495  0.71640347  0.68558134  1
  Cl  Cl60  1  0.35602023  0.02918336  0.44573800  1
  Cl  Cl61  1  0.02862191  0.81608204  0.37490334  1
  Cl  Cl62  1  0.75152339  0.71444164  0.45574900  1
  Cl  Cl63  1  0.60399711  0.92342009  0.77230471  1
  Cl  Cl64  1  0.64397977  0.97081664  0.55426200  1
  Cl  Cl65  1  0.85602023  0.02918336  0.05426200  1
  Cl  Cl66  1  0.66596505  0.28359653  0.18558134  1
  Cl  Cl67  1  0.63118115  0.56627935  0.83985002  1
  Cl  Cl68  1  0.13118115  0.93372065  0.16014998  1
  Cl  Cl69  1  0.86881885  0.06627935  0.83985002  1
  Cl  Cl70  1  0.75152339  0.78555836  0.95574900  1
  Cl  Cl71  1  0.24847661  0.28555836  0.54425100  1
  Cl  Cl72  1  0.14397977  0.52918336  0.44573800  1
  Cl  Cl73  1  0.14397977  0.97081664  0.94573800  1
  Cl  Cl74  1  0.33403495  0.78359653  0.31441866  1
  Cl  Cl75  1  0.10399711  0.92342009  0.72769529  1
  Cl  Cl76  1  0.66596505  0.21640347  0.68558134  1
  Cl  Cl77  1  0.39600289  0.07657991  0.22769529  1
  Cl  Cl78  1  0.85602023  0.47081664  0.55426200  1
  Cl  Cl79  1  0.24847661  0.21444164  0.04425100  1
