# generated using pymatgen
data_TiFeO3
_symmetry_space_group_name_H-M   'P 1'
_cell_length_a   2.92056583
_cell_length_b   5.01185850
_cell_length_c   7.25684489
_cell_angle_alpha   90.00000000
_cell_angle_beta   90.00000000
_cell_angle_gamma   106.93972722
_symmetry_Int_Tables_number   1
_chemical_formula_structural   TiFeO3
_chemical_formula_sum   'Ti2 Fe2 O6'
_cell_volume   101.61302263
_cell_formula_units_Z   2
loop_
 _symmetry_equiv_pos_site_id
 _symmetry_equiv_pos_as_xyz
  1  'x, y, z'
loop_
 _atom_site_type_symbol
 _atom_site_label
 _atom_site_symmetry_multiplicity
 _atom_site_fract_x
 _atom_site_fract_y
 _atom_site_fract_z
 _atom_site_occupancy
  O  O0  1  0.36931260  0.73862521  0.43487750  1
  O  O1  1  0.36931260  0.73862521  0.06512224  1
  O  O2  1  0.91578105  0.83156435  0.74999960  1
  O  O3  1  0.63068607  0.26137439  0.93487724  1
  O  O4  1  0.63068607  0.26137439  0.56512197  1
  O  O5  1  0.08421762  0.16843525  0.24999987  1
  Ti  Ti6  1  0.00000000  0.00000000  0.00000000  1
  Ti  Ti7  1  0.00000000  0.00000000  0.49999974  1
  Fe  Fe8  1  0.74696531  0.49393289  0.24999987  1
  Fe  Fe9  1  0.25303335  0.50606671  0.74999960  1
