# generated using pymatgen
data_Na2Ti3Cl8
_symmetry_space_group_name_H-M   'P 1'
_cell_length_a   7.93656816
_cell_length_b   7.93656757
_cell_length_c   7.93656777
_cell_angle_alpha   52.03641527
_cell_angle_beta   52.03641846
_cell_angle_gamma   52.03641455
_symmetry_Int_Tables_number   1
_chemical_formula_structural   Na2Ti3Cl8
_chemical_formula_sum   'Na2 Ti3 Cl8'
_cell_volume   287.31713046
_cell_formula_units_Z   1
loop_
 _symmetry_equiv_pos_site_id
 _symmetry_equiv_pos_as_xyz
  1  'x, y, z'
loop_
 _atom_site_type_symbol
 _atom_site_label
 _atom_site_symmetry_multiplicity
 _atom_site_fract_x
 _atom_site_fract_y
 _atom_site_fract_z
 _atom_site_occupancy
  Na  Na0  1  0.82894491  0.82894491  0.82894491  1
  Na  Na1  1  0.15813142  0.15813142  0.15813142  1
  Ti  Ti2  1  0.06100058  0.47059256  0.47059256  1
  Ti  Ti3  1  0.47059256  0.47059256  0.06100058  1
  Ti  Ti4  1  0.47059256  0.06100058  0.47059256  1
  Cl  Cl5  1  0.89898488  0.89898488  0.40527279  1
  Cl  Cl6  1  0.89898488  0.40527279  0.89898488  1
  Cl  Cl7  1  0.58602067  0.09345403  0.09345403  1
  Cl  Cl8  1  0.40527279  0.89898488  0.89898488  1
  Cl  Cl9  1  0.41864934  0.41864934  0.41864934  1
  Cl  Cl10  1  0.09345403  0.58602067  0.09345403  1
  Cl  Cl11  1  0.60535134  0.60535134  0.60535134  1
  Cl  Cl12  1  0.09345403  0.09345403  0.58602067  1
