# generated using pymatgen
data_Tb8CrTe13Cl
_symmetry_space_group_name_H-M   'P 1'
_cell_length_a   4.19810138
_cell_length_b   13.46663213
_cell_length_c   23.83521872
_cell_angle_alpha   89.99983916
_cell_angle_beta   90.00000000
_cell_angle_gamma   98.96728591
_symmetry_Int_Tables_number   1
_chemical_formula_structural   Tb8CrTe13Cl
_chemical_formula_sum   'Tb16 Cr2 Te26 Cl2'
_cell_volume   1331.03718679
_cell_formula_units_Z   2
loop_
 _symmetry_equiv_pos_site_id
 _symmetry_equiv_pos_as_xyz
  1  'x, y, z'
loop_
 _atom_site_type_symbol
 _atom_site_label
 _atom_site_symmetry_multiplicity
 _atom_site_fract_x
 _atom_site_fract_y
 _atom_site_fract_z
 _atom_site_occupancy
  Tb  Tb0  1  0.10745127  0.21490253  0.61544289  1
  Tb  Tb1  1  0.27541962  0.55083923  0.59498706  1
  Tb  Tb2  1  0.14780212  0.29560424  0.28244266  1
  Tb  Tb3  1  0.72457744  0.44915488  0.09498650  1
  Tb  Tb4  1  0.01776882  0.03553765  0.77771811  1
  Tb  Tb5  1  0.55942744  0.11885488  0.10269080  1
  Tb  Tb6  1  0.98222964  0.96445927  0.27771861  1
  Tb  Tb7  1  0.30668358  0.61336716  0.26826493  1
  Tb  Tb8  1  0.05227550  0.10455101  0.44366150  1
  Tb  Tb9  1  0.44057152  0.88114303  0.60269037  1
  Tb  Tb10  1  0.94772324  0.89544648  0.94366327  1
  Tb  Tb11  1  0.63201921  0.26403841  0.93506778  1
  Tb  Tb12  1  0.89254824  0.78509648  0.11544217  1
  Tb  Tb13  1  0.36797910  0.73595821  0.43506614  1
  Tb  Tb14  1  0.85219521  0.70439041  0.78244171  1
  Tb  Tb15  1  0.69331516  0.38663033  0.76826374  1
  Cr  Cr16  1  0.70882517  0.41765034  0.44101360  1
  Cr  Cr17  1  0.29118937  0.58237874  0.94097358  1
  Te  Te18  1  0.62290096  0.24580191  0.38052296  1
  Te  Te19  1  0.56606741  0.13213482  0.24004312  1
  Te  Te20  1  0.44982631  0.89965262  0.04123989  1
  Te  Te21  1  0.30430212  0.60860423  0.13544632  1
  Te  Te22  1  0.20243785  0.40487570  0.99790336  1
  Te  Te23  1  0.82662033  0.65324066  0.00453582  1
  Te  Te24  1  0.13018802  0.26037605  0.83660533  1
  Te  Te25  1  0.79756517  0.59513034  0.49790612  1
  Te  Te26  1  0.51863597  0.03727194  0.87871030  1
  Te  Te27  1  0.14358360  0.28716721  0.14181643  1
  Te  Te28  1  0.69569674  0.39139348  0.63544695  1
  Te  Te29  1  0.85641523  0.71283046  0.64181635  1
  Te  Te30  1  0.55017251  0.10034501  0.54123960  1
  Te  Te31  1  0.43393118  0.86786236  0.74004293  1
  Te  Te32  1  0.24372116  0.48744232  0.37671761  1
  Te  Te33  1  0.75628070  0.51256139  0.87671371  1
  Te  Te34  1  0.27465272  0.54930544  0.73442749  1
  Te  Te35  1  0.17338102  0.34676205  0.50453965  1
  Te  Te36  1  0.06183008  0.12366017  -0.00003882  1
  Te  Te37  1  0.41379662  0.82759324  0.21501231  1
  Te  Te38  1  0.58620239  0.17240477  0.71501222  1
  Te  Te39  1  0.93816888  0.87633776  0.49996096  1
  Te  Te40  1  0.37710396  0.75420793  0.88051900  1
  Te  Te41  1  0.72534607  0.45069214  0.23442787  1
  Te  Te42  1  0.86981040  0.73962080  0.33660490  1
  Te  Te43  1  0.48136248  0.96272497  0.37871032  1
  Cl  Cl44  1  1.00050294  1.00100588  0.14648081  1
  Cl  Cl45  1  -0.00050447  -0.00100895  0.64648108  1
