# generated using pymatgen
data_Tl3Bi2I9
_symmetry_space_group_name_H-M   'P 1'
_cell_length_a   8.08884971
_cell_length_b   14.80314364
_cell_length_c   21.28487917
_cell_angle_alpha   93.07996355
_cell_angle_beta   90.00000000
_cell_angle_gamma   90.00000000
_symmetry_Int_Tables_number   1
_chemical_formula_structural   Tl3Bi2I9
_chemical_formula_sum   'Tl12 Bi8 I36'
_cell_volume   2544.97854727
_cell_formula_units_Z   4
loop_
 _symmetry_equiv_pos_site_id
 _symmetry_equiv_pos_as_xyz
  1  'x, y, z'
loop_
 _atom_site_type_symbol
 _atom_site_label
 _atom_site_symmetry_multiplicity
 _atom_site_fract_x
 _atom_site_fract_y
 _atom_site_fract_z
 _atom_site_occupancy
  Tl  Tl0  1  0.96050815  0.36562813  0.38481050  1
  Tl  Tl1  1  0.04275000  0.96136715  0.28604125  1
  Tl  Tl2  1  0.53949185  0.86562813  0.88481050  1
  Tl  Tl3  1  0.46229624  0.79961213  0.45186740  1
  Tl  Tl4  1  0.03770376  0.29961213  0.95186740  1
  Tl  Tl5  1  0.96229624  0.70038787  0.04813260  1
  Tl  Tl6  1  0.03949185  0.63437187  0.61518950  1
  Tl  Tl7  1  0.54275000  0.53863285  0.21395875  1
  Tl  Tl8  1  0.53770376  0.20038787  0.54813260  1
  Tl  Tl9  1  0.45725000  0.46136715  0.78604125  1
  Tl  Tl10  1  0.95725000  0.03863285  0.71395875  1
  Tl  Tl11  1  0.46050815  0.13437187  0.11518950  1
  Bi  Bi12  1  0.99745786  0.33236116  0.15988344  1
  Bi  Bi13  1  0.51507663  0.16715538  0.84055523  1
  Bi  Bi14  1  0.50254214  0.83236116  0.65988344  1
  Bi  Bi15  1  0.00254214  0.66763884  0.84011656  1
  Bi  Bi16  1  0.48492337  0.83284462  0.15944477  1
  Bi  Bi17  1  0.98492337  0.66715538  0.34055523  1
  Bi  Bi18  1  0.01507663  0.33284462  0.65944477  1
  Bi  Bi19  1  0.49745786  0.16763884  0.34011656  1
  I  I20  1  0.82177288  0.73318084  0.20948434  1
  I  I21  1  0.39034515  0.32638214  0.42395632  1
  I  I22  1  0.68168650  0.96454293  0.58316132  1
  I  I23  1  0.32243809  0.10031986  0.94904206  1
  I  I24  1  0.67756191  0.89968014  0.05095794  1
  I  I25  1  0.81935708  0.06885770  0.87591034  1
  I  I26  1  0.87307483  0.51091840  0.73984763  1
  I  I27  1  0.37307483  0.98908160  0.76015237  1
  I  I28  1  0.82712918  0.81209841  0.74834396  1
  I  I29  1  0.81072040  0.14410279  0.41291060  1
  I  I30  1  0.17287082  0.18790159  0.25165604  1
  I  I31  1  0.18927960  0.85589721  0.58708940  1
  I  I32  1  0.18064292  0.93114230  0.12408966  1
  I  I33  1  0.31935708  0.43114230  0.62408966  1
  I  I34  1  0.89034515  0.17361786  0.07604368  1
  I  I35  1  0.11151316  0.16107050  0.58893177  1
  I  I36  1  0.60965485  0.67361786  0.57604368  1
  I  I37  1  0.18168650  0.53545707  0.91683868  1
  I  I38  1  0.68927960  0.64410279  0.91291060  1
  I  I39  1  0.32712918  0.68790159  0.75165604  1
  I  I40  1  0.88848684  0.83892950  0.41106823  1
  I  I41  1  0.67822712  0.23318084  0.70948434  1
  I  I42  1  0.62692517  0.01091840  0.23984763  1
  I  I43  1  0.17756191  0.60031986  0.44904206  1
  I  I44  1  0.68064292  0.56885770  0.37591034  1
  I  I45  1  0.31831350  0.03545707  0.41683868  1
  I  I46  1  0.31072040  0.35589721  0.08708940  1
  I  I47  1  0.82243809  0.39968014  0.55095794  1
  I  I48  1  0.38848684  0.66107050  0.08893177  1
  I  I49  1  0.17822712  0.26681916  0.79051566  1
  I  I50  1  0.10965485  0.82638214  0.92395632  1
  I  I51  1  0.67287082  0.31209841  0.24834396  1
  I  I52  1  0.61151316  0.33892950  0.91106823  1
  I  I53  1  0.32177288  0.76681916  0.29051566  1
  I  I54  1  0.12692517  0.48908160  0.26015237  1
  I  I55  1  0.81831350  0.46454293  0.08316132  1
