# generated using pymatgen
data_Ca(BH4)2
_symmetry_space_group_name_H-M   'P 1'
_cell_length_a   7.35432216
_cell_length_b   8.76523218
_cell_length_c   13.35253547
_cell_angle_alpha   90.00000000
_cell_angle_beta   90.00000000
_cell_angle_gamma   90.00000000
_symmetry_Int_Tables_number   1
_chemical_formula_structural   Ca(BH4)2
_chemical_formula_sum   'Ca8 B16 H64'
_cell_volume   860.73569814
_cell_formula_units_Z   8
loop_
 _symmetry_equiv_pos_site_id
 _symmetry_equiv_pos_as_xyz
  1  'x, y, z'
loop_
 _atom_site_type_symbol
 _atom_site_label
 _atom_site_symmetry_multiplicity
 _atom_site_fract_x
 _atom_site_fract_y
 _atom_site_fract_z
 _atom_site_occupancy
  Ca  Ca0  1  0.68657769  0.43159716  0.88538022  1
  Ca  Ca1  1  0.31342231  0.06840284  0.38538022  1
  Ca  Ca2  1  0.81342231  0.93159716  0.11461978  1
  Ca  Ca3  1  0.18657769  0.56840284  0.61461978  1
  Ca  Ca4  1  0.31342231  0.56840284  0.11461978  1
  Ca  Ca5  1  0.68657769  0.93159716  0.61461978  1
  Ca  Ca6  1  0.81342231  0.43159716  0.38538022  1
  Ca  Ca7  1  0.18657769  0.06840284  0.88538022  1
  B  B8  1  0.53951352  0.05385582  0.21890636  1
  B  B9  1  0.46048648  0.44614418  0.71890636  1
  B  B10  1  0.85634207  0.68708425  0.51508032  1
  B  B11  1  0.96048648  0.55385582  0.78109364  1
  B  B12  1  0.35634207  0.81291575  0.51508032  1
  B  B13  1  0.03951352  0.94614418  0.28109364  1
  B  B14  1  0.64365793  0.18708425  0.48491968  1
  B  B15  1  0.14365793  0.31291575  0.48491968  1
  B  B16  1  0.53951352  0.55385582  0.28109364  1
  B  B17  1  0.46048648  0.94614418  0.78109364  1
  B  B18  1  0.03951352  0.44614418  0.21890636  1
  B  B19  1  0.85634207  0.18708425  0.98491968  1
  B  B20  1  0.64365793  0.68708425  0.01508032  1
  B  B21  1  0.14365793  0.81291575  0.01508032  1
  B  B22  1  0.96048648  0.05385582  0.71890636  1
  B  B23  1  0.35634207  0.31291575  0.98491968  1
  H  H24  1  0.99415358  0.48387244  0.85862074  1
  H  H25  1  0.27466716  0.89916169  0.01376870  1
  H  H26  1  0.51244968  0.63584117  0.96889586  1
  H  H27  1  0.49415358  0.01612756  0.85862074  1
  H  H28  1  0.72533284  0.10083831  0.98623130  1
  H  H29  1  0.50584642  0.98387244  0.14137926  1
  H  H30  1  0.91963209  0.35034820  0.22973189  1
  H  H31  1  0.08036791  0.64965180  0.77026811  1
  H  H32  1  0.98755032  0.63584117  0.46889586  1
  H  H33  1  0.31443660  0.37826405  0.71353280  1
  H  H34  1  0.81970530  0.80823340  0.47467118  1
  H  H35  1  0.81970530  0.30823340  0.02532882  1
  H  H36  1  0.45139162  0.53839802  0.78835921  1
  H  H37  1  0.99415358  0.98387244  0.64137926  1
  H  H38  1  0.77466716  0.10083831  0.48623130  1
  H  H39  1  0.45139162  0.03839802  0.71164079  1
  H  H40  1  0.60237397  0.70629198  0.10351350  1
  H  H41  1  0.95139162  0.46160198  0.71164079  1
  H  H42  1  0.54860838  0.46160198  0.21164079  1
  H  H43  1  0.48755032  0.86415883  0.46889586  1
  H  H44  1  0.27466716  0.39916169  0.48623130  1
  H  H45  1  0.77466716  0.60083831  0.01376870  1
  H  H46  1  0.39762603  0.29370802  0.89648650  1
  H  H47  1  0.95139162  0.96160198  0.78835921  1
  H  H48  1  0.54860838  0.96160198  0.28835921  1
  H  H49  1  0.18029470  0.69176660  0.97467118  1
  H  H50  1  0.31443660  0.87826405  0.78646720  1
  H  H51  1  0.58036791  0.35034820  0.72973189  1
  H  H52  1  0.31970530  0.19176660  0.02532882  1
  H  H53  1  0.08036791  0.14965180  0.72973189  1
  H  H54  1  0.41963209  0.14965180  0.22973189  1
  H  H55  1  0.41963209  0.64965180  0.27026811  1
  H  H56  1  0.98755032  0.13584117  0.03110414  1
  H  H57  1  0.18029470  0.19176660  0.52532882  1
  H  H58  1  0.68029470  0.30823340  0.52532882  1
  H  H59  1  0.00584642  0.01612756  0.35862074  1
  H  H60  1  0.89762603  0.70629198  0.60351350  1
  H  H61  1  0.04860838  0.53839802  0.28835921  1
  H  H62  1  0.51244968  0.13584117  0.53110414  1
  H  H63  1  0.58036791  0.85034820  0.77026811  1
  H  H64  1  0.72533284  0.60083831  0.51376870  1
  H  H65  1  0.81443660  0.12173595  0.71353280  1
  H  H66  1  0.68029470  0.80823340  0.97467118  1
  H  H67  1  0.10237397  0.29370802  0.39648650  1
  H  H68  1  0.10237397  0.79370802  0.10351350  1
  H  H69  1  0.60237397  0.20629198  0.39648650  1
  H  H70  1  0.50584642  0.48387244  0.35862074  1
  H  H71  1  0.48755032  0.36415883  0.03110414  1
  H  H72  1  0.91963209  0.85034820  0.27026811  1
  H  H73  1  0.49415358  0.51612756  0.64137926  1
  H  H74  1  0.31970530  0.69176660  0.47467118  1
  H  H75  1  0.01244968  0.86415883  0.96889586  1
  H  H76  1  0.18556340  0.87826405  0.28646720  1
  H  H77  1  0.68556340  0.12173595  0.21353280  1
  H  H78  1  0.04860838  0.03839802  0.21164079  1
  H  H79  1  0.01244968  0.36415883  0.53110414  1
  H  H80  1  0.18556340  0.37826405  0.21353280  1
  H  H81  1  0.39762603  0.79370802  0.60351350  1
  H  H82  1  0.22533284  0.89916169  0.51376870  1
  H  H83  1  0.81443660  0.62173595  0.78646720  1
  H  H84  1  0.00584642  0.51612756  0.14137926  1
  H  H85  1  0.22533284  0.39916169  0.98623130  1
  H  H86  1  0.89762603  0.20629198  0.89648650  1
  H  H87  1  0.68556340  0.62173595  0.28646720  1
