# generated using pymatgen
data_AuSe
_symmetry_space_group_name_H-M   'P 1'
_cell_length_a   3.79251566
_cell_length_b   6.57338519
_cell_length_c   8.83547278
_cell_angle_alpha   101.01726106
_cell_angle_beta   90.00000000
_cell_angle_gamma   106.76668340
_symmetry_Int_Tables_number   1
_chemical_formula_structural   AuSe
_chemical_formula_sum   'Au4 Se4'
_cell_volume   206.65790230
_cell_formula_units_Z   4
loop_
 _symmetry_equiv_pos_site_id
 _symmetry_equiv_pos_as_xyz
  1  'x, y, z'
loop_
 _atom_site_type_symbol
 _atom_site_label
 _atom_site_symmetry_multiplicity
 _atom_site_fract_x
 _atom_site_fract_y
 _atom_site_fract_z
 _atom_site_occupancy
  Au  Au0  1  0.03154170  0.06308339  0.28726818  1
  Au  Au1  1  0.96845830  0.93691661  0.71273182  1
  Au  Au2  1  0.35083714  0.70167428  0.98298303  1
  Au  Au3  1  0.64916286  0.29832572  0.01701697  1
  Se  Se4  1  0.39573731  0.79147462  0.26770543  1
  Se  Se5  1  0.66680829  0.33361658  0.30079971  1
  Se  Se6  1  0.33319171  0.66638342  0.69920029  1
  Se  Se7  1  0.60426269  0.20852538  0.73229457  1
