# generated using pymatgen
data_Tl3BiI6
_symmetry_space_group_name_H-M   'P 1'
_cell_length_a   9.27898997
_cell_length_b   14.01648121
_cell_length_c   13.96208534
_cell_angle_alpha   104.33760405
_cell_angle_beta   90.00000000
_cell_angle_gamma   90.00000000
_symmetry_Int_Tables_number   1
_chemical_formula_structural   Tl3BiI6
_chemical_formula_sum   'Tl12 Bi4 I24'
_cell_volume   1759.33307052
_cell_formula_units_Z   4
loop_
 _symmetry_equiv_pos_site_id
 _symmetry_equiv_pos_as_xyz
  1  'x, y, z'
loop_
 _atom_site_type_symbol
 _atom_site_label
 _atom_site_symmetry_multiplicity
 _atom_site_fract_x
 _atom_site_fract_y
 _atom_site_fract_z
 _atom_site_occupancy
  Tl  Tl0  1  0.15931524  0.95327330  0.69173159  1
  Tl  Tl1  1  0.12314988  0.64983705  0.86914277  1
  Tl  Tl2  1  0.84068476  0.04672670  0.30826841  1
  Tl  Tl3  1  0.85858839  0.79413660  0.51491204  1
  Tl  Tl4  1  0.35858839  0.20586340  0.98508796  1
  Tl  Tl5  1  0.65931524  0.04672670  0.80826841  1
  Tl  Tl6  1  0.62314988  0.35016295  0.63085723  1
  Tl  Tl7  1  0.64141161  0.79413660  0.01491204  1
  Tl  Tl8  1  0.37685012  0.64983705  0.36914277  1
  Tl  Tl9  1  0.34068476  0.95327330  0.19173159  1
  Tl  Tl10  1  0.87685012  0.35016295  0.13085723  1
  Tl  Tl11  1  0.14141161  0.20586340  0.48508796  1
  Bi  Bi12  1  0.99636120  0.73334578  0.20146006  1
  Bi  Bi13  1  0.49636120  0.26665422  0.29853994  1
  Bi  Bi14  1  0.00363880  0.26665422  0.79853994  1
  Bi  Bi15  1  0.50363880  0.73334578  0.70146006  1
  I  I16  1  0.85771639  0.10799537  0.61959652  1
  I  I17  1  0.83599009  0.59719672  0.03131426  1
  I  I18  1  0.48584988  0.57491857  0.81826369  1
  I  I19  1  0.19273005  0.18787466  0.20727547  1
  I  I20  1  0.16400991  0.40280328  0.96868574  1
  I  I21  1  0.01415012  0.57491857  0.31826369  1
  I  I22  1  0.80726995  0.81212534  0.79272453  1
  I  I23  1  0.64228361  0.10799537  0.11959652  1
  I  I24  1  0.98842428  0.89760356  0.08561918  1
  I  I25  1  0.30726995  0.18787466  0.70727547  1
  I  I26  1  0.33599009  0.40280328  0.46868574  1
  I  I27  1  0.51157572  0.89760356  0.58561918  1
  I  I28  1  0.80152670  0.31622334  0.38376739  1
  I  I29  1  0.35771639  0.89200463  0.88040348  1
  I  I30  1  0.14228361  0.89200463  0.38040348  1
  I  I31  1  0.51415012  0.42508143  0.18173631  1
  I  I32  1  0.48842428  0.10239644  0.41438082  1
  I  I33  1  0.66400991  0.59719672  0.53131426  1
  I  I34  1  0.98584988  0.42508143  0.68173631  1
  I  I35  1  0.01157572  0.10239644  0.91438082  1
  I  I36  1  0.69847330  0.31622334  0.88376739  1
  I  I37  1  0.19847330  0.68377666  0.61623261  1
  I  I38  1  0.30152670  0.68377666  0.11623261  1
  I  I39  1  0.69273005  0.81212534  0.29272453  1
