# generated using pymatgen
data_Na3VS3O
_symmetry_space_group_name_H-M   'P 1'
_cell_length_a   5.97305245
_cell_length_b   7.74594448
_cell_length_c   7.74594447
_cell_angle_alpha   101.86778833
_cell_angle_beta   90.00000000
_cell_angle_gamma   90.00000000
_symmetry_Int_Tables_number   1
_chemical_formula_structural   Na3VS3O
_chemical_formula_sum   'Na6 V2 S6 O2'
_cell_volume   350.72060841
_cell_formula_units_Z   2
loop_
 _symmetry_equiv_pos_site_id
 _symmetry_equiv_pos_as_xyz
  1  'x, y, z'
loop_
 _atom_site_type_symbol
 _atom_site_label
 _atom_site_symmetry_multiplicity
 _atom_site_fract_x
 _atom_site_fract_y
 _atom_site_fract_z
 _atom_site_occupancy
  O  O0  1  0.60102337  0.30101576  0.69898424  1
  O  O1  1  0.10102337  0.69898424  0.30101576  1
  Na  Na2  1  0.46310641  0.11889999  0.88110001  1
  Na  Na3  1  0.48309252  0.17401823  0.41409034  1
  Na  Na4  1  0.48309252  0.58590966  0.82598177  1
  Na  Na5  1  0.98309252  0.41409034  0.17401823  1
  Na  Na6  1  0.96310641  0.88110001  0.11889999  1
  Na  Na7  1  0.98309252  0.82598177  0.58590966  1
  S  S8  1  0.50014877  0.43513478  0.18747254  1
  S  S9  1  0.98289437  0.11876854  0.88123146  1
  S  S10  1  0.50014877  0.81252746  0.56486522  1
  S  S11  1  0.00014877  0.18747254  0.43513478  1
  S  S12  1  0.00014877  0.56486522  0.81252746  1
  S  S13  1  0.48289437  0.88123146  0.11876854  1
  V  V14  1  0.38505328  0.70372883  0.29627117  1
  V  V15  1  0.88505328  0.29627117  0.70372883  1
