# generated using pymatgen
data_Ca2MnFeO5
_symmetry_space_group_name_H-M   'P 1'
_cell_length_a   5.43713940
_cell_length_b   5.64741084
_cell_length_c   15.14717075
_cell_angle_alpha   90.00000000
_cell_angle_beta   90.00000000
_cell_angle_gamma   90.00000000
_symmetry_Int_Tables_number   1
_chemical_formula_structural   Ca2MnFeO5
_chemical_formula_sum   'Ca8 Mn4 Fe4 O20'
_cell_volume   465.10538952
_cell_formula_units_Z   4
loop_
 _symmetry_equiv_pos_site_id
 _symmetry_equiv_pos_as_xyz
  1  'x, y, z'
loop_
 _atom_site_type_symbol
 _atom_site_label
 _atom_site_symmetry_multiplicity
 _atom_site_fract_x
 _atom_site_fract_y
 _atom_site_fract_z
 _atom_site_occupancy
  Ca  Ca0  1  0.01955815  0.52674374  0.89145132  1
  Ca  Ca1  1  0.51955815  0.97325626  0.60854868  1
  Ca  Ca2  1  0.48044185  0.02674374  0.10854868  1
  Ca  Ca3  1  0.98044185  0.47325626  0.39145132  1
  Ca  Ca4  1  0.98044185  0.47325626  0.10854868  1
  Ca  Ca5  1  0.48044185  0.02674374  0.39145132  1
  Ca  Ca6  1  0.51955815  0.97325626  0.89145132  1
  Ca  Ca7  1  0.01955815  0.52674374  0.60854868  1
  Mn  Mn8  1  0.00000000  0.00000000  0.00000000  1
  Mn  Mn9  1  0.50000000  0.50000000  0.50000000  1
  Mn  Mn10  1  0.50000000  0.50000000  0.00000000  1
  Mn  Mn11  1  0.00000000  0.00000000  0.50000000  1
  Fe  Fe12  1  0.05223365  0.06651891  0.75000000  1
  Fe  Fe13  1  0.55223365  0.43348109  0.75000000  1
  Fe  Fe14  1  0.44776635  0.56651891  0.25000000  1
  Fe  Fe15  1  0.94776635  0.93348109  0.25000000  1
  O  O16  1  0.74309474  0.76423870  0.01566428  1
  O  O17  1  0.24309474  0.73576130  0.48433572  1
  O  O18  1  0.75690526  0.26423870  0.98433572  1
  O  O19  1  0.25690526  0.23576130  0.51566428  1
  O  O20  1  0.25690526  0.23576130  0.98433572  1
  O  O21  1  0.75690526  0.26423870  0.51566428  1
  O  O22  1  0.24309474  0.73576130  0.01566428  1
  O  O23  1  0.74309474  0.76423870  0.48433572  1
  O  O24  1  0.96805136  0.92530694  0.85727048  1
  O  O25  1  0.46805136  0.57469306  0.64272952  1
  O  O26  1  0.53194864  0.42530694  0.14272952  1
  O  O27  1  0.03194864  0.07469306  0.35727048  1
  O  O28  1  0.03194864  0.07469306  0.14272952  1
  O  O29  1  0.53194864  0.42530694  0.35727048  1
  O  O30  1  0.46805136  0.57469306  0.85727048  1
  O  O31  1  0.96805136  0.92530694  0.64272952  1
  O  O32  1  0.91029907  0.38321922  0.75000000  1
  O  O33  1  0.41029907  0.11678078  0.75000000  1
  O  O34  1  0.58970093  0.88321922  0.25000000  1
  O  O35  1  0.08970093  0.61678078  0.25000000  1
