# generated using pymatgen
data_Y10W2O21
_symmetry_space_group_name_H-M   'P 1'
_cell_length_a   10.64376589
_cell_length_b   10.72304670
_cell_length_c   16.08661332
_cell_angle_alpha   90.00000000
_cell_angle_beta   90.00000000
_cell_angle_gamma   90.00000000
_symmetry_Int_Tables_number   1
_chemical_formula_structural   Y10W2O21
_chemical_formula_sum   'Y40 W8 O84'
_cell_volume   1836.02306914
_cell_formula_units_Z   4
loop_
 _symmetry_equiv_pos_site_id
 _symmetry_equiv_pos_as_xyz
  1  'x, y, z'
loop_
 _atom_site_type_symbol
 _atom_site_label
 _atom_site_symmetry_multiplicity
 _atom_site_fract_x
 _atom_site_fract_y
 _atom_site_fract_z
 _atom_site_occupancy
  Y  Y0  1  0.24980890  0.34430873  0.09885203  1
  Y  Y1  1  0.47880684  0.11050094  0.08903420  1
  Y  Y2  1  0.01367354  0.14029999  0.74316488  1
  Y  Y3  1  0.51153359  0.63492190  0.41973533  1
  Y  Y4  1  0.01153359  0.86507810  0.91973533  1
  Y  Y5  1  0.74895359  0.62753529  0.27146031  1
  Y  Y6  1  0.98632646  0.85970001  0.25683512  1
  Y  Y7  1  0.97880684  0.11050094  0.41096580  1
  Y  Y8  1  0.48632646  0.64029999  0.75683512  1
  Y  Y9  1  0.48846641  0.36507810  0.58026467  1
  Y  Y10  1  0.51153359  0.86507810  0.58026467  1
  Y  Y11  1  0.25104641  0.37246471  0.72853969  1
  Y  Y12  1  0.75104641  0.37246471  0.77146031  1
  Y  Y13  1  0.25104641  0.12753529  0.27146031  1
  Y  Y14  1  0.75019110  0.84430773  0.09885203  1
  Y  Y15  1  0.97880684  0.38949906  0.58903420  1
  Y  Y16  1  0.74980890  0.15569227  0.59885203  1
  Y  Y17  1  0.75019110  0.65569227  0.90114797  1
  Y  Y18  1  0.47880684  0.38949906  0.91096580  1
  Y  Y19  1  0.24895359  0.62753529  0.22853969  1
  Y  Y20  1  0.74895359  0.87246471  0.72853969  1
  Y  Y21  1  0.52119316  0.61050094  0.08903420  1
  Y  Y22  1  0.25019110  0.84430773  0.40114797  1
  Y  Y23  1  0.24980890  0.15569227  0.90114797  1
  Y  Y24  1  0.98632646  0.64029999  0.74316488  1
  Y  Y25  1  0.51367354  0.14029999  0.75683512  1
  Y  Y26  1  0.51367354  0.35970001  0.24316488  1
  Y  Y27  1  0.74980890  0.34430873  0.40114797  1
  Y  Y28  1  0.02119316  0.61050094  0.41096580  1
  Y  Y29  1  0.75104641  0.12753529  0.22853969  1
  Y  Y30  1  0.02119316  0.88949906  0.58903420  1
  Y  Y31  1  0.25019110  0.65569227  0.59885203  1
  Y  Y32  1  0.48632646  0.85970001  0.24316488  1
  Y  Y33  1  0.01367354  0.35970001  0.25683512  1
  Y  Y34  1  0.48846641  0.13492190  0.41973533  1
  Y  Y35  1  0.98846641  0.36507810  0.91973533  1
  Y  Y36  1  0.98846641  0.13492190  0.08026467  1
  Y  Y37  1  0.52119316  0.88949906  0.91096580  1
  Y  Y38  1  0.01153359  0.63492190  0.08026467  1
  Y  Y39  1  0.24895359  0.87246471  0.77146031  1
  W  W40  1  0.25181217  0.87668828  0.08550534  1
  W  W41  1  0.75181217  0.87668828  0.41449466  1
  W  W42  1  0.24818783  0.12331172  0.58550534  1
  W  W43  1  0.74818783  0.37668828  0.08550534  1
  W  W44  1  0.25181217  0.62331172  0.91449466  1
  W  W45  1  0.75181217  0.62331172  0.58550534  1
  W  W46  1  0.24818783  0.37668828  0.41449466  1
  W  W47  1  0.74818783  0.12331172  0.91449466  1
  O  O48  1  0.19103205  0.75000000  0.00000000  1
  O  O49  1  0.89283081  0.49125474  0.32937144  1
  O  O50  1  0.38028996  0.78379553  0.67761496  1
  O  O51  1  0.30896795  0.25000000  0.50000000  1
  O  O52  1  0.38525471  0.50610836  0.65853902  1
  O  O53  1  0.12943013  0.24814874  0.63278543  1
  O  O54  1  0.62993259  0.78678400  0.34330014  1
  O  O55  1  0.88012913  0.25000000  0.50000000  1
  O  O56  1  0.62993259  0.71321600  0.65669986  1
  O  O57  1  0.12187234  0.97820656  0.04136597  1
  O  O58  1  0.62187234  0.97820656  0.45863403  1
  O  O59  1  0.87056987  0.74814874  0.63278543  1
  O  O60  1  0.12419813  0.05492728  0.51229793  1
  O  O61  1  0.11971004  0.21620447  0.17761496  1
  O  O62  1  0.11474529  0.00610836  0.84146098  1
  O  O63  1  0.61987087  0.75000000  0.00000000  1
  O  O64  1  0.37580187  0.55492728  0.98770207  1
  O  O65  1  0.87812182  0.27012413  0.67874435  1
  O  O66  1  0.38696681  0.75000000  0.50000000  1
  O  O67  1  0.37580187  0.94507272  0.01229793  1
  O  O68  1  0.89283081  0.00874526  0.67062856  1
  O  O69  1  0.69103205  0.75000000  0.50000000  1
  O  O70  1  0.10716919  0.50874526  0.67062856  1
  O  O71  1  0.11987087  0.75000000  0.50000000  1
  O  O72  1  0.12993259  0.71321600  0.84330014  1
  O  O73  1  0.12993259  0.78678400  0.15669986  1
  O  O74  1  0.38028996  0.71620447  0.32238504  1
  O  O75  1  0.62187818  0.72987587  0.17874435  1
  O  O76  1  0.37006741  0.21321600  0.65669986  1
  O  O77  1  0.37812182  0.27012413  0.82125565  1
  O  O78  1  0.88696681  0.75000000  0.00000000  1
  O  O79  1  0.81156396  0.51605985  0.67020554  1
  O  O80  1  0.12419813  0.44507272  0.48770207  1
  O  O81  1  0.37812766  0.02179344  0.54136597  1
  O  O82  1  0.12187818  0.77012413  0.67874435  1
  O  O83  1  0.62187818  0.77012413  0.82125565  1
  O  O84  1  0.12943013  0.25185126  0.36721457  1
  O  O85  1  0.12187818  0.72987587  0.32125565  1
  O  O86  1  0.60716919  0.99125474  0.17062856  1
  O  O87  1  0.11474529  0.49389164  0.15853902  1
  O  O88  1  0.61971004  0.28379553  0.67761496  1
  O  O89  1  0.37056987  0.75185126  0.13278543  1
  O  O90  1  0.39283081  0.00874526  0.82937144  1
  O  O91  1  0.68843604  0.48394015  0.17020554  1
  O  O92  1  0.87812766  0.47820656  0.04136597  1
  O  O93  1  0.39283081  0.49125474  0.17062856  1
  O  O94  1  0.12187234  0.52179344  0.95863403  1
  O  O95  1  0.61474529  0.00610836  0.65853902  1
  O  O96  1  0.88028996  0.78379553  0.82238504  1
  O  O97  1  0.87812182  0.22987587  0.32125565  1
  O  O98  1  0.18843604  0.48394015  0.32979446  1
  O  O99  1  0.87812766  0.02179344  0.95863403  1
  O  O100  1  0.11971004  0.28379553  0.82238504  1
  O  O101  1  0.31156396  0.51605985  0.82979446  1
  O  O102  1  0.37812766  0.47820656  0.45863403  1
  O  O103  1  0.31156396  0.98394015  0.17020554  1
  O  O104  1  0.88525471  0.50610836  0.84146098  1
  O  O105  1  0.37006741  0.28678400  0.34330014  1
  O  O106  1  0.11303319  0.25000000  0.00000000  1
  O  O107  1  0.87006741  0.21321600  0.84330014  1
  O  O108  1  0.10716919  0.99125474  0.32937144  1
  O  O109  1  0.62419813  0.05492728  0.98770207  1
  O  O110  1  0.68843604  0.01605985  0.82979446  1
  O  O111  1  0.37056987  0.74814874  0.86721457  1
  O  O112  1  0.18843604  0.01605985  0.67020554  1
  O  O113  1  0.81156396  0.98394015  0.32979446  1
  O  O114  1  0.88028996  0.71620447  0.17761496  1
  O  O115  1  0.61303319  0.25000000  0.50000000  1
  O  O116  1  0.61474529  0.49389164  0.34146098  1
  O  O117  1  0.37812182  0.22987587  0.17874435  1
  O  O118  1  0.38012913  0.25000000  0.00000000  1
  O  O119  1  0.62943013  0.24814874  0.86721457  1
  O  O120  1  0.80896795  0.25000000  0.00000000  1
  O  O121  1  0.87056987  0.75185126  0.36721457  1
  O  O122  1  0.87580187  0.55492728  0.51229793  1
  O  O123  1  0.62943013  0.25185126  0.13278543  1
  O  O124  1  0.61971004  0.21620447  0.32238504  1
  O  O125  1  0.60716919  0.50874526  0.82937144  1
  O  O126  1  0.87006741  0.28678400  0.15669986  1
  O  O127  1  0.88525471  0.99389164  0.15853902  1
  O  O128  1  0.62419813  0.44507272  0.01229793  1
  O  O129  1  0.38525471  0.99389164  0.34146098  1
  O  O130  1  0.87580187  0.94507272  0.48770207  1
  O  O131  1  0.62187234  0.52179344  0.54136597  1
