# generated using pymatgen
data_Tl10Hg3Cl16
_symmetry_space_group_name_H-M   'P 1'
_cell_length_a   8.64798973
_cell_length_b   8.64799033
_cell_length_c   13.66393407
_cell_angle_alpha   108.44856331
_cell_angle_beta   108.44856468
_cell_angle_gamma   89.99999761
_symmetry_Int_Tables_number   1
_chemical_formula_structural   Tl10Hg3Cl16
_chemical_formula_sum   'Tl10 Hg3 Cl16'
_cell_volume   913.84738750
_cell_formula_units_Z   1
loop_
 _symmetry_equiv_pos_site_id
 _symmetry_equiv_pos_as_xyz
  1  'x, y, z'
loop_
 _atom_site_type_symbol
 _atom_site_label
 _atom_site_symmetry_multiplicity
 _atom_site_fract_x
 _atom_site_fract_y
 _atom_site_fract_z
 _atom_site_occupancy
  Tl  Tl0  1  0.45243196  0.91634513  0.17857320  1
  Tl  Tl1  1  0.26222807  0.45243196  0.17857320  1
  Tl  Tl2  1  0.27385876  0.73777193  0.82142680  1
  Tl  Tl3  1  0.73695010  0.73695010  0.47390020  1
  Tl  Tl4  1  0.54756804  0.08365487  0.82142680  1
  Tl  Tl5  1  0.73777193  0.54756804  0.82142680  1
  Tl  Tl6  1  0.08365487  0.27385876  0.82142680  1
  Tl  Tl7  1  0.91634513  0.72614124  0.17857320  1
  Tl  Tl8  1  0.26304990  0.26304990  0.52609980  1
  Tl  Tl9  1  0.72614124  0.26222807  0.17857320  1
  Hg  Hg10  1  0.00000000  0.00000000  0.00000000  1
  Hg  Hg11  1  0.75000000  0.25000000  0.50000000  1
  Hg  Hg12  1  0.25000000  0.75000000  0.50000000  1
  Cl  Cl13  1  0.39423881  0.39423881  0.78847763  1
  Cl  Cl14  1  0.48907822  0.66422211  0.62933870  1
  Cl  Cl15  1  0.84877654  0.32648495  1.00000000  1
  Cl  Cl16  1  0.85973952  0.03488340  0.37066130  1
  Cl  Cl17  1  0.96511660  0.48907822  0.62933870  1
  Cl  Cl18  1  0.66422211  0.14026048  0.62933870  1
  Cl  Cl19  1  0.33577789  0.85973952  0.37066130  1
  Cl  Cl20  1  0.03488340  0.51092178  0.37066130  1
  Cl  Cl21  1  0.51092178  0.33577789  0.37066130  1
  Cl  Cl22  1  0.09706243  0.09706243  0.19412485  1
  Cl  Cl23  1  0.67351505  0.84877654  0.00000000  1
  Cl  Cl24  1  0.15122346  0.67351505  0.00000000  1
  Cl  Cl25  1  0.14026048  0.96511660  0.62933870  1
  Cl  Cl26  1  0.60576119  0.60576119  0.21152237  1
  Cl  Cl27  1  0.32648495  0.15122346  1.00000000  1
  Cl  Cl28  1  0.90293757  0.90293757  0.80587515  1
