# generated using pymatgen
data_CsPH3O3F
_symmetry_space_group_name_H-M   'P 1'
_cell_length_a   4.96940828
_cell_length_b   5.75090724
_cell_length_c   18.65610028
_cell_angle_alpha   92.93598956
_cell_angle_beta   90.00000000
_cell_angle_gamma   90.00000000
_symmetry_Int_Tables_number   1
_chemical_formula_structural   CsPH3O3F
_chemical_formula_sum   'Cs4 P4 H12 O12 F4'
_cell_volume   532.46549781
_cell_formula_units_Z   4
loop_
 _symmetry_equiv_pos_site_id
 _symmetry_equiv_pos_as_xyz
  1  'x, y, z'
loop_
 _atom_site_type_symbol
 _atom_site_label
 _atom_site_symmetry_multiplicity
 _atom_site_fract_x
 _atom_site_fract_y
 _atom_site_fract_z
 _atom_site_occupancy
  Cs  Cs0  1  0.66044118  0.72163532  0.91524156  1
  Cs  Cs1  1  0.33955882  0.27836468  0.08475844  1
  Cs  Cs2  1  0.16044118  0.27836468  0.58475844  1
  Cs  Cs3  1  0.83955882  0.72163532  0.41524156  1
  P  P4  1  0.21196207  0.19955822  0.82469451  1
  P  P5  1  0.78803793  0.80044178  0.17530549  1
  P  P6  1  0.28803793  0.19955822  0.32469451  1
  P  P7  1  0.71196207  0.80044178  0.67530549  1
  H  H8  1  0.07432133  0.82328729  0.74419086  1
  H  H9  1  0.47263795  0.74374662  0.55859370  1
  H  H10  1  0.42567867  0.82328729  0.24419086  1
  H  H11  1  0.97263795  0.25625338  0.94140630  1
  H  H12  1  0.05490037  0.31789295  0.77506854  1
  H  H13  1  0.92567867  0.17671271  0.25580914  1
  H  H14  1  0.44509963  0.31789295  0.27506854  1
  H  H15  1  0.94509963  0.68210705  0.22493146  1
  H  H16  1  0.52736205  0.25625338  0.44140630  1
  H  H17  1  0.02736205  0.74374662  0.05859370  1
  H  H18  1  0.55490037  0.68210705  0.72493146  1
  H  H19  1  0.57432133  0.17671271  0.75580914  1
  O  O20  1  0.65133541  0.05969194  0.68350692  1
  O  O21  1  0.83223721  0.68434186  0.10057714  1
  O  O22  1  0.84866459  0.05969194  0.18350692  1
  O  O23  1  0.51404631  0.25822969  0.80411973  1
  O  O24  1  0.34866459  0.94030806  0.31649308  1
  O  O25  1  0.33223721  0.31565814  0.39942286  1
  O  O26  1  0.15133541  0.94030806  0.81649308  1
  O  O27  1  0.01404631  0.74177031  0.69588027  1
  O  O28  1  0.48595369  0.74177031  0.19588027  1
  O  O29  1  0.98595369  0.25822969  0.30411973  1
  O  O30  1  0.66776279  0.68434186  0.60057714  1
  O  O31  1  0.16776279  0.31565814  0.89942286  1
  F  F32  1  0.68485190  0.22120774  0.47871798  1
  F  F33  1  0.18485190  0.77879226  0.02128202  1
  F  F34  1  0.31514810  0.77879226  0.52128202  1
  F  F35  1  0.81514810  0.22120774  0.97871798  1
