# generated using pymatgen
data_Cs2ZnN12
_symmetry_space_group_name_H-M   'P 1'
_cell_length_a   6.86149208
_cell_length_b   7.53408197
_cell_length_c   22.22776045
_cell_angle_alpha   90.00000000
_cell_angle_beta   90.00000000
_cell_angle_gamma   90.00000000
_symmetry_Int_Tables_number   1
_chemical_formula_structural   Cs2ZnN12
_chemical_formula_sum   'Cs8 Zn4 N48'
_cell_volume   1149.06504931
_cell_formula_units_Z   4
loop_
 _symmetry_equiv_pos_site_id
 _symmetry_equiv_pos_as_xyz
  1  'x, y, z'
loop_
 _atom_site_type_symbol
 _atom_site_label
 _atom_site_symmetry_multiplicity
 _atom_site_fract_x
 _atom_site_fract_y
 _atom_site_fract_z
 _atom_site_occupancy
  Cs  Cs0  1  0.32253772  0.88861890  0.48524688  1
  Cs  Cs1  1  0.30717032  0.61408604  0.30542541  1
  Cs  Cs2  1  0.69282968  0.11408604  0.69457459  1
  Cs  Cs3  1  0.67746228  0.38861890  0.51475312  1
  Cs  Cs4  1  0.69282968  0.61408604  0.80542541  1
  Cs  Cs5  1  0.67746228  0.88861890  0.98524688  1
  Cs  Cs6  1  0.30717032  0.11408604  0.19457459  1
  Cs  Cs7  1  0.32253772  0.38861890  0.01475312  1
  Zn  Zn8  1  0.92702208  0.61998161  0.13137495  1
  Zn  Zn9  1  0.07297792  0.61998161  0.63137495  1
  Zn  Zn10  1  0.07297792  0.11998161  0.86862505  1
  Zn  Zn11  1  0.92702208  0.11998161  0.36862505  1
  N  N12  1  0.69173344  0.17449182  0.09532229  1
  N  N13  1  0.32654694  0.38331304  0.74927207  1
  N  N14  1  0.26200027  0.48049322  0.44780596  1
  N  N15  1  0.34496733  0.08085352  0.33937963  1
  N  N16  1  0.17668938  0.26541021  0.60874857  1
  N  N17  1  0.81262450  0.32121782  0.27114038  1
  N  N18  1  0.94421470  0.22839063  0.94242418  1
  N  N19  1  0.50759670  0.61278977  0.63574837  1
  N  N20  1  0.65503267  0.08085352  0.83937963  1
  N  N21  1  0.36342626  0.64506730  0.60723215  1
  N  N22  1  0.67345306  0.88331304  0.25072793  1
  N  N23  1  0.69173344  0.67449182  0.40467771  1
  N  N24  1  0.94421470  0.72839063  0.55757582  1
  N  N25  1  0.73799973  0.98049322  0.55219404  1
  N  N26  1  0.30826656  0.67449182  0.90467771  1
  N  N27  1  0.18737550  0.32121782  0.77114038  1
  N  N28  1  0.96094962  0.26111473  0.29230359  1
  N  N29  1  0.65503267  0.58085352  0.66062037  1
  N  N30  1  0.26200027  0.98049322  0.05219404  1
  N  N31  1  0.05578530  0.72839063  0.05757582  1
  N  N32  1  0.82331062  0.26541021  0.10874857  1
  N  N33  1  0.82331062  0.76541021  0.39125143  1
  N  N34  1  0.63657374  0.64506730  0.10723215  1
  N  N35  1  0.49240330  0.11278977  0.36425163  1
  N  N36  1  0.84015499  0.35634781  0.94382251  1
  N  N37  1  0.49240330  0.61278977  0.13574837  1
  N  N38  1  0.03767036  0.85422358  0.87776518  1
  N  N39  1  0.50759670  0.11278977  0.86425163  1
  N  N40  1  0.63657374  0.14506730  0.39276785  1
  N  N41  1  0.05578530  0.22839063  0.44242418  1
  N  N42  1  0.96232964  0.85422358  0.37776518  1
  N  N43  1  0.03905038  0.26111473  0.79230359  1
  N  N44  1  0.81262450  0.82121782  0.22885962  1
  N  N45  1  0.03905038  0.76111473  0.70769641  1
  N  N46  1  0.96094962  0.76111473  0.20769641  1
  N  N47  1  0.73799973  0.48049322  0.94780596  1
  N  N48  1  0.34496733  0.58085352  0.16062037  1
  N  N49  1  0.15984501  0.35634781  0.44382251  1
  N  N50  1  0.17668938  0.76541021  0.89125143  1
  N  N51  1  0.03767036  0.35422358  0.62223482  1
  N  N52  1  0.30826656  0.17449182  0.59532229  1
  N  N53  1  0.36342626  0.14506730  0.89276785  1
  N  N54  1  0.96232964  0.35422358  0.12223482  1
  N  N55  1  0.32654694  0.88331304  0.75072793  1
  N  N56  1  0.18737550  0.82121782  0.72885962  1
  N  N57  1  0.67345306  0.38331304  0.24927207  1
  N  N58  1  0.84015499  0.85634781  0.55617749  1
  N  N59  1  0.15984501  0.85634781  0.05617749  1
