# generated using pymatgen
data_Eu3As4
_symmetry_space_group_name_H-M   'P 1'
_cell_length_a   5.77559740
_cell_length_b   7.83514201
_cell_length_c   9.10514807
_cell_angle_alpha   83.38257061
_cell_angle_beta   71.47920002
_cell_angle_gamma   68.55233966
_symmetry_Int_Tables_number   1
_chemical_formula_structural   Eu3As4
_chemical_formula_sum   'Eu6 As8'
_cell_volume   363.63722400
_cell_formula_units_Z   2
loop_
 _symmetry_equiv_pos_site_id
 _symmetry_equiv_pos_as_xyz
  1  'x, y, z'
loop_
 _atom_site_type_symbol
 _atom_site_label
 _atom_site_symmetry_multiplicity
 _atom_site_fract_x
 _atom_site_fract_y
 _atom_site_fract_z
 _atom_site_occupancy
  Eu  Eu0  1  0.44961837  0.49322068  0.16861288  1
  Eu  Eu1  1  0.11329220  0.50673211  0.83407945  1
  Eu  Eu2  1  0.35995713  -0.00278601  0.33177722  1
  Eu  Eu3  1  0.69121275  0.00604873  0.66558220  1
  Eu  Eu4  1  0.99534958  0.99875845  0.00063894  1
  Eu  Eu5  1  0.74466003  0.50571106  0.49786293  1
  As  As6  1  0.58979628  0.82033451  0.99259097  1
  As  As7  1  0.69967410  0.33334560  0.83248636  1
  As  As8  1  0.15988363  0.67713017  0.49683000  1
  As  As9  1  0.86383574  0.66697498  0.16291448  1
  As  As10  1  0.78212757  0.17090326  0.33169992  1
  As  As11  1  0.32556743  0.32211863  0.51114630  1
  As  As12  1  0.39820224  0.17727470  0.00978961  1
  As  As13  1  0.28038495  0.83813212  0.66019974  1
