# generated using pymatgen
data_La2Si2O7
_symmetry_space_group_name_H-M   'P 1'
_cell_length_a   6.91797389
_cell_length_b   6.91797389
_cell_length_c   25.19850268
_cell_angle_alpha   90.00000000
_cell_angle_beta   90.00000000
_cell_angle_gamma   90.00000000
_symmetry_Int_Tables_number   1
_chemical_formula_structural   La2Si2O7
_chemical_formula_sum   'La16 Si16 O56'
_cell_volume   1205.95908183
_cell_formula_units_Z   8
loop_
 _symmetry_equiv_pos_site_id
 _symmetry_equiv_pos_as_xyz
  1  'x, y, z'
loop_
 _atom_site_type_symbol
 _atom_site_label
 _atom_site_symmetry_multiplicity
 _atom_site_fract_x
 _atom_site_fract_y
 _atom_site_fract_z
 _atom_site_occupancy
  O  O0  1  0.13772220  0.55913176  0.15352435  1
  O  O1  1  0.44086824  0.13772220  0.40352435  1
  O  O2  1  0.55913176  0.86227780  0.90352435  1
  O  O3  1  0.86227780  0.44086824  0.65352435  1
  O  O4  1  0.18919188  0.24327997  0.09518879  1
  O  O5  1  0.75672003  0.18919188  0.34518879  1
  O  O6  1  0.24327997  0.81080812  0.84518879  1
  O  O7  1  0.81080812  0.75672003  0.59518879  1
  O  O8  1  0.48308615  0.50773666  0.11028567  1
  O  O9  1  0.49226334  0.48308615  0.36028567  1
  O  O10  1  0.50773666  0.51691385  0.86028567  1
  O  O11  1  0.51691385  0.49226334  0.61028567  1
  O  O12  1  0.27511845  0.63552525  0.94068081  1
  O  O13  1  0.36447475  0.27511845  0.19068081  1
  O  O14  1  0.63552525  0.72488155  0.69068081  1
  O  O15  1  0.72488155  0.36447475  0.44068081  1
  O  O16  1  0.10652610  0.61524039  0.03266474  1
  O  O17  1  0.38475961  0.10652610  0.28266474  1
  O  O18  1  0.61524039  0.89347390  0.78266474  1
  O  O19  1  0.89347390  0.38475961  0.53266474  1
  O  O20  1  0.27075945  0.94447944  0.00802782  1
  O  O21  1  0.86179526  0.24273760  0.01895814  1
  O  O22  1  0.05552056  0.27075945  0.25802782  1
  O  O23  1  0.72924055  0.05552056  0.50802782  1
  O  O24  1  0.15498872  0.95147139  0.20239921  1
  O  O25  1  0.04852861  0.15498872  0.45239921  1
  O  O26  1  0.95147139  0.84501128  0.95239921  1
  O  O27  1  0.84501128  0.04852861  0.70239921  1
  O  O28  1  0.54656743  0.24010711  0.95992725  1
  O  O29  1  0.75989289  0.54656743  0.20992725  1
  O  O30  1  0.24010711  0.45343257  0.70992725  1
  O  O31  1  0.45343257  0.75989289  0.45992725  1
  O  O32  1  0.21415767  0.82136117  0.65425648  1
  O  O33  1  0.17863883  0.21415767  0.90425648  1
  O  O34  1  0.82136117  0.78584233  0.40425648  1
  O  O35  1  0.78584233  0.17863883  0.15425648  1
  O  O36  1  0.45856398  0.99045561  0.58319370  1
  O  O37  1  0.00954439  0.45856398  0.83319370  1
  O  O38  1  0.99045561  0.54143602  0.33319370  1
  O  O39  1  0.54143602  0.00954439  0.08319370  1
  O  O40  1  0.12915565  0.16349828  0.60432269  1
  O  O41  1  0.83650172  0.12915565  0.85432269  1
  O  O42  1  0.16349828  0.87084435  0.35432269  1
  O  O43  1  0.87084435  0.83650172  0.10432269  1
  O  O44  1  0.12968080  0.57391517  0.42681495  1
  O  O45  1  0.42608483  0.12968080  0.67681495  1
  O  O46  1  0.57391517  0.87031920  0.17681495  1
  O  O47  1  0.87031920  0.42608483  0.92681495  1
  O  O48  1  0.33404161  0.42792658  0.50943298  1
  O  O49  1  0.57207342  0.33404161  0.75943298  1
  O  O50  1  0.42792658  0.66595839  0.25943298  1
  O  O51  1  0.66595839  0.57207342  0.00943298  1
  O  O52  1  0.13820474  0.75726240  0.51895814  1
  O  O53  1  0.24273760  0.13820474  0.76895814  1
  O  O54  1  0.75726240  0.86179526  0.26895814  1
  O  O55  1  0.94447944  0.72924055  0.75802782  1
  Si  Si56  1  0.30033030  0.39510556  0.13510618  1
  Si  Si57  1  0.60489444  0.30033030  0.38510618  1
  Si  Si58  1  0.39510556  0.69966970  0.88510618  1
  Si  Si59  1  0.69966970  0.60489444  0.63510618  1
  Si  Si60  1  0.14237528  0.76618160  0.98325945  1
  Si  Si61  1  0.23381840  0.14237528  0.23325945  1
  Si  Si62  1  0.76618160  0.85762472  0.73325945  1
  Si  Si63  1  0.85762472  0.23381840  0.48325945  1
  Si  Si64  1  0.72876163  0.37663645  0.97857857  1
  Si  Si65  1  0.62336355  0.72876163  0.22857857  1
  Si  Si66  1  0.37663645  0.27123837  0.72857857  1
  Si  Si67  1  0.27123837  0.62336355  0.47857857  1
  Si  Si68  1  0.97843946  0.29499535  0.87901034  1
  Si  Si69  1  0.70500465  0.97843946  0.12901034  1
  Si  Si70  1  0.29499535  0.02156054  0.62901034  1
  Si  Si71  1  0.02156054  0.70500465  0.37901034  1
  La  La72  1  0.82487152  0.47390591  0.10159560  1
  La  La73  1  0.52609409  0.82487152  0.35159560  1
  La  La74  1  0.47390591  0.17512848  0.85159560  1
  La  La75  1  0.17512848  0.52609409  0.60159560  1
  La  La76  1  0.22064791  0.29844324  0.99777543  1
  La  La77  1  0.70155676  0.22064791  0.24777543  1
  La  La78  1  0.29844324  0.77935209  0.74777543  1
  La  La79  1  0.77935209  0.70155676  0.49777543  1
  La  La80  1  0.22951143  0.87518241  0.10899730  1
  La  La81  1  0.12481759  0.22951143  0.35899730  1
  La  La82  1  0.87518241  0.77048857  0.85899730  1
  La  La83  1  0.77048857  0.12481759  0.60899730  1
  La  La84  1  0.34653807  0.08398062  0.49763955  1
  La  La85  1  0.91601938  0.34653807  0.74763955  1
  La  La86  1  0.08398062  0.65346193  0.24763955  1
  La  La87  1  0.65346193  0.91601938  0.99763955  1
