# generated using pymatgen
data_Na2In5Au6
_symmetry_space_group_name_H-M   'P 1'
_cell_length_a   9.47776726
_cell_length_b   9.47937677
_cell_length_c   9.47955951
_cell_angle_alpha   90.01166487
_cell_angle_beta   89.99364888
_cell_angle_gamma   89.99759487
_symmetry_Int_Tables_number   1
_chemical_formula_structural   Na2In5Au6
_chemical_formula_sum   'Na6 In15 Au18'
_cell_volume   851.67513944
_cell_formula_units_Z   3
loop_
 _symmetry_equiv_pos_site_id
 _symmetry_equiv_pos_as_xyz
  1  'x, y, z'
loop_
 _atom_site_type_symbol
 _atom_site_label
 _atom_site_symmetry_multiplicity
 _atom_site_fract_x
 _atom_site_fract_y
 _atom_site_fract_z
 _atom_site_occupancy
  Na  Na0  1  0.49999863  0.82810305  0.99994865  1
  Na  Na1  1  0.49999035  0.17191499  0.99996868  1
  Na  Na2  1  0.82805500  0.99996551  0.49999072  1
  Na  Na3  1  0.00002952  0.49997698  0.82810507  1
  Na  Na4  1  0.99998348  0.50001256  0.17187421  1
  Na  Na5  1  0.17190820  -0.00000056  0.50002941  1
  In  In6  1  0.28326057  0.28364164  0.71665461  1
  In  In7  1  0.71655873  0.71648872  0.28352030  1
  In  In8  1  0.71636917  0.28332347  0.71651982  1
  In  In9  1  0.50010425  0.00000154  0.33767975  1
  In  In10  1  0.50023113  0.00013024  0.66231903  1
  In  In11  1  0.33778830  0.49999611  0.99998083  1
  In  In12  1  0.66232864  0.50002653  0.00005231  1
  In  In13  1  0.00008667  0.33754113  0.50002810  1
  In  In14  1  0.71669664  0.71667322  0.71641629  1
  In  In15  1  0.28331534  0.71652037  0.28349058  1
  In  In16  1  0.99986517  0.66245803  0.49998738  1
  In  In17  1  0.28338051  0.71648115  0.71638614  1
  In  In18  1  0.71661327  0.28362416  0.28354949  1
  In  In19  1  0.28366188  0.28329083  0.28344356  1
  In  In20  1  0.99995745  0.99992340  0.99988887  1
  Au  Au21  1  0.82695859  0.74063417  0.00001067  1
  Au  Au22  1  0.25933016  0.99996057  0.17308229  1
  Au  Au23  1  0.00000566  0.17296713  0.74056867  1
  Au  Au24  1  0.17300408  0.25932085  0.00003158  1
  Au  Au25  1  0.82689688  0.25930187  0.00004323  1
  Au  Au26  1  0.73512042  0.49993366  0.50007564  1
  Au  Au27  1  0.00003371  0.82696167  0.74068089  1
  Au  Au28  1  0.17304255  0.74059692  0.99998087  1
  Au  Au29  1  0.74061250  0.00008664  0.17295435  1
  Au  Au30  1  0.00001747  0.17308487  0.25932569  1
  Au  Au31  1  0.49999819  0.50001735  0.26498720  1
  Au  Au32  1  0.49998155  0.49994533  0.73510684  1
  Au  Au33  1  0.50001386  0.73510105  0.50005085  1
  Au  Au34  1  0.25940871  0.99997546  0.82688769  1
  Au  Au35  1  0.26485482  0.49997770  0.50000730  1
  Au  Au36  1  0.74066819  0.00002095  0.82692385  1
  Au  Au37  1  0.99992396  0.82705950  0.25941167  1
  Au  Au38  1  0.49994581  0.26496125  0.50003691  1
