# generated using pymatgen
data_Re2Cl5O4
_symmetry_space_group_name_H-M   'P 1'
_cell_length_a   5.72512647
_cell_length_b   9.05375447
_cell_length_c   11.39195557
_cell_angle_alpha   67.63439870
_cell_angle_beta   81.63290086
_cell_angle_gamma   80.36496174
_symmetry_Int_Tables_number   1
_chemical_formula_structural   Re2Cl5O4
_chemical_formula_sum   'Re4 Cl10 O8'
_cell_volume   536.19400765
_cell_formula_units_Z   2
loop_
 _symmetry_equiv_pos_site_id
 _symmetry_equiv_pos_as_xyz
  1  'x, y, z'
loop_
 _atom_site_type_symbol
 _atom_site_label
 _atom_site_symmetry_multiplicity
 _atom_site_fract_x
 _atom_site_fract_y
 _atom_site_fract_z
 _atom_site_occupancy
  Re  Re0  1  0.21421114  0.40089964  0.35162931  1
  Re  Re1  1  0.35302806  0.89488895  0.80964343  1
  Re  Re2  1  0.78578886  0.59910036  0.64837069  1
  Re  Re3  1  0.64697194  0.10511105  0.19035657  1
  Cl  Cl4  1  0.25130546  0.63722728  0.88370875  1
  Cl  Cl5  1  0.60618242  0.80574048  0.96832330  1
  Cl  Cl6  1  0.74869454  0.36277272  0.11629125  1
  Cl  Cl7  1  0.77105462  0.06945942  0.38272465  1
  Cl  Cl8  1  0.39381758  0.19425952  0.03167670  1
  Cl  Cl9  1  0.22894538  0.93054058  0.61727535  1
  Cl  Cl10  1  0.04531851  0.62732787  0.21312863  1
  Cl  Cl11  1  0.42406243  0.89706799  0.29557764  1
  Cl  Cl12  1  0.95468149  0.37267213  0.78687137  1
  Cl  Cl13  1  0.57593757  0.10293201  0.70442236  1
  O  O14  1  0.97868545  0.66748705  0.51373893  1
  O  O15  1  0.70734689  0.74789604  0.71430390  1
  O  O16  1  0.11686721  0.98774164  0.87280738  1
  O  O17  1  0.29265311  0.25210396  0.28569610  1
  O  O18  1  0.88313279  0.01225836  0.12719262  1
  O  O19  1  0.02131455  0.33251295  0.48626107  1
  O  O20  1  0.46669313  0.43878356  0.39496004  1
  O  O21  1  0.53330687  0.56121644  0.60503996  1
