# generated using pymatgen
data_CaAlH5
_symmetry_space_group_name_H-M   'P 1'
_cell_length_a   4.94108516
_cell_length_b   4.41746332
_cell_length_c   12.16854129
_cell_angle_alpha   90.00000000
_cell_angle_beta   90.00000000
_cell_angle_gamma   90.00000000
_symmetry_Int_Tables_number   1
_chemical_formula_structural   CaAlH5
_chemical_formula_sum   'Ca4 Al4 H20'
_cell_volume   265.60351073
_cell_formula_units_Z   4
loop_
 _symmetry_equiv_pos_site_id
 _symmetry_equiv_pos_as_xyz
  1  'x, y, z'
loop_
 _atom_site_type_symbol
 _atom_site_label
 _atom_site_symmetry_multiplicity
 _atom_site_fract_x
 _atom_site_fract_y
 _atom_site_fract_z
 _atom_site_occupancy
  Ca  Ca0  1  0.60244960  0.53174697  0.90921395  1
  Ca  Ca1  1  0.39755040  0.03174697  0.59078605  1
  Ca  Ca2  1  0.10244960  0.96825303  0.09078605  1
  Ca  Ca3  1  0.89755040  0.46825303  0.40921395  1
  Al  Al4  1  0.38017481  0.05914751  0.33734349  1
  Al  Al5  1  0.11982519  0.94085249  0.83734349  1
  Al  Al6  1  0.88017481  0.44085249  0.66265651  1
  Al  Al7  1  0.61982519  0.55914751  0.16265651  1
  H  H8  1  0.62364992  0.28506804  0.73574782  1
  H  H9  1  0.16187153  0.89277276  0.42827908  1
  H  H10  1  0.12298902  0.23855100  0.74282756  1
  H  H11  1  0.15413909  0.56610363  0.58974187  1
  H  H12  1  0.62010455  0.86407999  0.07177057  1
  H  H13  1  0.34586091  0.43389637  0.08974187  1
  H  H14  1  0.87701098  0.73855100  0.75717244  1
  H  H15  1  0.65413909  0.93389637  0.41025813  1
  H  H16  1  0.83812847  0.39277276  0.07172092  1
  H  H17  1  0.87635008  0.71493196  0.23574782  1
  H  H18  1  0.62298902  0.26144900  0.25717244  1
  H  H19  1  0.12364992  0.21493196  0.26425218  1
  H  H20  1  0.12010455  0.63592001  0.92822943  1
  H  H21  1  0.37989545  0.36407999  0.42822943  1
  H  H22  1  0.87989545  0.13592001  0.57177057  1
  H  H23  1  0.33812847  0.10722724  0.92827908  1
  H  H24  1  0.37635008  0.78506804  0.76425218  1
  H  H25  1  0.66187153  0.60722724  0.57172092  1
  H  H26  1  0.37701098  0.76144900  0.24282756  1
  H  H27  1  0.84586091  0.06610363  0.91025813  1
