# generated using pymatgen
data_GePb5O7
_symmetry_space_group_name_H-M   'P 1'
_cell_length_a   9.55875707
_cell_length_b   11.88163083
_cell_length_c   17.66468571
_cell_angle_alpha   90.00000000
_cell_angle_beta   90.00000000
_cell_angle_gamma   90.00000000
_symmetry_Int_Tables_number   1
_chemical_formula_structural   GePb5O7
_chemical_formula_sum   'Ge8 Pb40 O56'
_cell_volume   2006.24234993
_cell_formula_units_Z   8
loop_
 _symmetry_equiv_pos_site_id
 _symmetry_equiv_pos_as_xyz
  1  'x, y, z'
loop_
 _atom_site_type_symbol
 _atom_site_label
 _atom_site_symmetry_multiplicity
 _atom_site_fract_x
 _atom_site_fract_y
 _atom_site_fract_z
 _atom_site_occupancy
  Ge  Ge0  1  0.51253674  0.18837435  0.59990222  1
  Ge  Ge1  1  0.98746326  0.68837435  0.59990222  1
  Ge  Ge2  1  0.01253674  0.31162565  0.40009778  1
  Ge  Ge3  1  0.98746326  0.81162565  0.09990222  1
  Ge  Ge4  1  0.48746326  0.68837435  0.90009778  1
  Ge  Ge5  1  0.51253674  0.31162565  0.09990222  1
  Ge  Ge6  1  0.48746326  0.81162565  0.40009778  1
  Ge  Ge7  1  0.01253674  0.18837435  0.90009778  1
  Pb  Pb8  1  0.70367854  0.07780853  0.41884834  1
  Pb  Pb9  1  0.70849111  0.88594774  0.57643753  1
  Pb  Pb10  1  0.01406656  0.88700856  0.42703831  1
  Pb  Pb11  1  0.98028414  0.41784141  0.77019486  1
  Pb  Pb12  1  0.51406656  0.61299144  0.57296169  1
  Pb  Pb13  1  0.29150889  0.11405226  0.42356247  1
  Pb  Pb14  1  0.98028414  0.08215859  0.27019486  1
  Pb  Pb15  1  0.98593344  0.11299144  0.57296169  1
  Pb  Pb16  1  0.29150889  0.38594774  0.92356247  1
  Pb  Pb17  1  0.70367854  0.42219147  0.91884834  1
  Pb  Pb18  1  0.48028414  0.41784141  0.72980514  1
  Pb  Pb19  1  0.48593344  0.11299144  0.92703831  1
  Pb  Pb20  1  0.01406656  0.61299144  0.92703831  1
  Pb  Pb21  1  0.24278573  0.84836402  0.25702500  1
  Pb  Pb22  1  0.79632146  0.57780853  0.41884834  1
  Pb  Pb23  1  0.25721427  0.15163598  0.75702500  1
  Pb  Pb24  1  0.29632146  0.92219147  0.58115166  1
  Pb  Pb25  1  0.74278573  0.65163598  0.74297500  1
  Pb  Pb26  1  0.48593344  0.38700856  0.42703831  1
  Pb  Pb27  1  0.48028414  0.08215859  0.22980514  1
  Pb  Pb28  1  0.20367854  0.07780853  0.08115166  1
  Pb  Pb29  1  0.51971586  0.91784141  0.77019486  1
  Pb  Pb30  1  0.24278573  0.65163598  0.75702500  1
  Pb  Pb31  1  0.01971586  0.91784141  0.72980514  1
  Pb  Pb32  1  0.01971586  0.58215859  0.22980514  1
  Pb  Pb33  1  0.79150889  0.38594774  0.57643753  1
  Pb  Pb34  1  0.75721427  0.15163598  0.74297500  1
  Pb  Pb35  1  0.79632146  0.92219147  0.91884834  1
  Pb  Pb36  1  0.70849111  0.61405226  0.07643753  1
  Pb  Pb37  1  0.20849111  0.88594774  0.92356247  1
  Pb  Pb38  1  0.51971586  0.58215859  0.27019486  1
  Pb  Pb39  1  0.20849111  0.61405226  0.42356247  1
  Pb  Pb40  1  0.25721427  0.34836402  0.25702500  1
  Pb  Pb41  1  0.51406656  0.88700856  0.07296169  1
  Pb  Pb42  1  0.74278573  0.84836402  0.24297500  1
  Pb  Pb43  1  0.29632146  0.57780853  0.08115166  1
  Pb  Pb44  1  0.75721427  0.34836402  0.24297500  1
  Pb  Pb45  1  0.20367854  0.42219147  0.58115166  1
  Pb  Pb46  1  0.79150889  0.11405226  0.07643753  1
  Pb  Pb47  1  0.98593344  0.38700856  0.07296169  1
  O  O48  1  0.59216566  0.89911902  0.45809802  1
  O  O49  1  0.85499862  0.01573124  0.66870543  1
  O  O50  1  0.64500138  0.51573124  0.66870543  1
  O  O51  1  0.09216566  0.89911902  0.04190198  1
  O  O52  1  0.14500138  0.98426876  0.33129457  1
  O  O53  1  0.85228201  0.99154461  0.50118723  1
  O  O54  1  0.03470578  0.37980004  0.31021279  1
  O  O55  1  0.40783434  0.10088098  0.54190198  1
  O  O56  1  0.67223190  0.03191549  0.82983890  1
  O  O57  1  0.46529422  0.62019996  0.81021279  1
  O  O58  1  0.32776810  0.53191549  0.67016110  1
  O  O59  1  0.40783434  0.39911902  0.04190198  1
  O  O60  1  0.96529422  0.87980004  0.18978721  1
  O  O61  1  0.06846088  0.67773034  0.11595672  1
  O  O62  1  0.14771799  0.00845539  0.49881277  1
  O  O63  1  0.43153912  0.32226966  0.61595672  1
  O  O64  1  0.93153912  0.17773034  0.38404328  1
  O  O65  1  0.35228201  0.50845539  0.49881277  1
  O  O66  1  0.82776810  0.96808451  0.32983890  1
  O  O67  1  0.64500138  0.98426876  0.16870543  1
  O  O68  1  0.14500138  0.51573124  0.83129457  1
  O  O69  1  0.46529422  0.87980004  0.31021279  1
  O  O70  1  0.67925954  0.28516905  0.05668216  1
  O  O71  1  0.35499862  0.48426876  0.33129457  1
  O  O72  1  0.85228201  0.50845539  0.00118723  1
  O  O73  1  0.32776810  0.96808451  0.17016110  1
  O  O74  1  0.35499862  0.01573124  0.83129457  1
  O  O75  1  0.90783434  0.10088098  0.95809802  1
  O  O76  1  0.17925954  0.28516905  0.44331784  1
  O  O77  1  0.93153912  0.32226966  0.88404328  1
  O  O78  1  0.67223190  0.46808451  0.32983890  1
  O  O79  1  0.56846088  0.82226966  0.88404328  1
  O  O80  1  0.03470578  0.12019996  0.81021279  1
  O  O81  1  0.82074046  0.71483095  0.55668216  1
  O  O82  1  0.85499862  0.48426876  0.16870543  1
  O  O83  1  0.43153912  0.17773034  0.11595672  1
  O  O84  1  0.17223190  0.46808451  0.17016110  1
  O  O85  1  0.59216566  0.60088098  0.95809802  1
  O  O86  1  0.64771799  0.00845539  0.00118723  1
  O  O87  1  0.17925954  0.21483095  0.94331784  1
  O  O88  1  0.56846088  0.67773034  0.38404328  1
  O  O89  1  0.14771799  0.49154461  0.99881277  1
  O  O90  1  0.82776810  0.53191549  0.82983890  1
  O  O91  1  0.53470578  0.12019996  0.68978721  1
  O  O92  1  0.90783434  0.39911902  0.45809802  1
  O  O93  1  0.32074046  0.78516905  0.44331784  1
  O  O94  1  0.64771799  0.49154461  0.50118723  1
  O  O95  1  0.67925954  0.21483095  0.55668216  1
  O  O96  1  0.35228201  0.99154461  0.99881277  1
  O  O97  1  0.17223190  0.03191549  0.67016110  1
  O  O98  1  0.09216566  0.60088098  0.54190198  1
  O  O99  1  0.06846088  0.82226966  0.61595672  1
  O  O100  1  0.82074046  0.78516905  0.05668216  1
  O  O101  1  0.53470578  0.37980004  0.18978721  1
  O  O102  1  0.32074046  0.71483095  0.94331784  1
  O  O103  1  0.96529422  0.62019996  0.68978721  1
