# generated using pymatgen
data_Na4VHO5
_symmetry_space_group_name_H-M   'P 1'
_cell_length_a   7.54427470
_cell_length_b   8.40770400
_cell_length_c   9.13524584
_cell_angle_alpha   90.00000000
_cell_angle_beta   90.00000000
_cell_angle_gamma   90.00000000
_symmetry_Int_Tables_number   1
_chemical_formula_structural   Na4VHO5
_chemical_formula_sum   'Na16 V4 H4 O20'
_cell_volume   579.44890465
_cell_formula_units_Z   4
loop_
 _symmetry_equiv_pos_site_id
 _symmetry_equiv_pos_as_xyz
  1  'x, y, z'
loop_
 _atom_site_type_symbol
 _atom_site_label
 _atom_site_symmetry_multiplicity
 _atom_site_fract_x
 _atom_site_fract_y
 _atom_site_fract_z
 _atom_site_occupancy
  Na  Na0  1  0.51265307  0.34643865  0.62911633  1
  Na  Na1  1  0.98734693  0.34643865  0.62911633  1
  Na  Na2  1  0.51265307  0.15356135  0.12911633  1
  Na  Na3  1  0.75000000  0.24066155  0.87311074  1
  Na  Na4  1  0.98734693  0.15356135  0.12911633  1
  Na  Na5  1  0.01265307  0.65356135  0.37088367  1
  Na  Na6  1  0.48734693  0.65356135  0.37088367  1
  Na  Na7  1  0.25000000  0.75933845  0.12688926  1
  Na  Na8  1  0.00000000  0.00000000  0.50000000  1
  Na  Na9  1  0.48734693  0.84643865  0.87088367  1
  Na  Na10  1  0.75000000  0.25933845  0.37311074  1
  Na  Na11  1  0.01265307  0.84643865  0.87088367  1
  Na  Na12  1  0.50000000  0.50000000  0.00000000  1
  Na  Na13  1  0.25000000  0.74066155  0.62688926  1
  Na  Na14  1  0.50000000  0.00000000  0.50000000  1
  Na  Na15  1  0.00000000  0.50000000  0.00000000  1
  V  V16  1  0.25000000  0.34953991  0.36293811  1
  V  V17  1  0.25000000  0.15046009  0.86293811  1
  V  V18  1  0.75000000  0.84953991  0.13706189  1
  V  V19  1  0.75000000  0.65046009  0.63706189  1
  H  H20  1  0.75000000  0.05268617  0.66579325  1
  H  H21  1  0.75000000  0.44731383  0.16579325  1
  H  H22  1  0.25000000  0.55268617  0.83420675  1
  H  H23  1  0.25000000  0.94731383  0.33420675  1
  O  O24  1  0.55969156  0.73180292  0.12898493  1
  O  O25  1  0.75000000  0.34365470  0.11803324  1
  O  O26  1  0.75000000  0.97776746  0.98456681  1
  O  O27  1  0.94030844  0.76819708  0.62898493  1
  O  O28  1  0.75000000  0.52223254  0.48456681  1
  O  O29  1  0.55969156  0.76819708  0.62898493  1
  O  O30  1  0.25000000  0.65634530  0.88196676  1
  O  O31  1  0.25000000  0.03316631  0.70646265  1
  O  O32  1  0.05969156  0.23180292  0.37101507  1
  O  O33  1  0.25000000  0.84365470  0.38196676  1
  O  O34  1  0.44030844  0.26819708  0.87101507  1
  O  O35  1  0.75000000  0.15634530  0.61803324  1
  O  O36  1  0.25000000  0.02223254  0.01543319  1
  O  O37  1  0.94030844  0.73180292  0.12898493  1
  O  O38  1  0.25000000  0.47776746  0.51543319  1
  O  O39  1  0.75000000  0.53316631  0.79353735  1
  O  O40  1  0.05969156  0.26819708  0.87101507  1
  O  O41  1  0.75000000  0.96683369  0.29353735  1
  O  O42  1  0.44030844  0.23180292  0.37101507  1
  O  O43  1  0.25000000  0.46683369  0.20646265  1
