# generated using pymatgen
data_Cs2SrN12
_symmetry_space_group_name_H-M   'P 1'
_cell_length_a   9.75690725
_cell_length_b   9.75690659
_cell_length_c   12.01576418
_cell_angle_alpha   90.00000000
_cell_angle_beta   90.00000000
_cell_angle_gamma   98.11128565
_symmetry_Int_Tables_number   1
_chemical_formula_structural   Cs2SrN12
_chemical_formula_sum   'Cs8 Sr4 N48'
_cell_volume   1132.42411562
_cell_formula_units_Z   4
loop_
 _symmetry_equiv_pos_site_id
 _symmetry_equiv_pos_as_xyz
  1  'x, y, z'
loop_
 _atom_site_type_symbol
 _atom_site_label
 _atom_site_symmetry_multiplicity
 _atom_site_fract_x
 _atom_site_fract_y
 _atom_site_fract_z
 _atom_site_occupancy
  Cs  Cs0  1  0.63430196  0.87620474  0.25000000  1
  Cs  Cs1  1  0.38149760  0.61850240  0.91725276  1
  Cs  Cs2  1  0.36569804  0.12379526  0.75000000  1
  Cs  Cs3  1  0.61850240  0.38149760  0.08274724  1
  Cs  Cs4  1  0.87620474  0.63430196  0.75000000  1
  Cs  Cs5  1  0.38149760  0.61850240  0.58274724  1
  Cs  Cs6  1  0.61850240  0.38149760  0.41725276  1
  Cs  Cs7  1  0.12379526  0.36569804  0.25000000  1
  Sr  Sr8  1  0.86658371  0.13341629  0.57829444  1
  Sr  Sr9  1  0.13341629  0.86658371  0.42170556  1
  Sr  Sr10  1  0.13341629  0.86658371  0.07829444  1
  Sr  Sr11  1  0.86658371  0.13341629  0.92170556  1
  N  N12  1  0.78012707  0.95872907  0.75000000  1
  N  N13  1  0.90226960  0.66307206  0.25000000  1
  N  N14  1  0.27223152  0.72776848  0.25000000  1
  N  N15  1  0.33692794  0.09773040  0.25000000  1
  N  N16  1  0.09773040  0.33692794  0.75000000  1
  N  N17  1  0.54830276  0.84510296  0.75000000  1
  N  N18  1  0.00000000  0.50000000  0.00000000  1
  N  N19  1  0.04127093  0.21987293  0.75000000  1
  N  N20  1  0.95872907  0.78012707  0.25000000  1
  N  N21  1  0.07492606  0.59527100  0.03711551  1
  N  N22  1  0.69135808  0.69135808  0.50000000  1
  N  N23  1  0.12312749  0.12312749  0.50000000  1
  N  N24  1  0.15489704  0.45169724  0.75000000  1
  N  N25  1  0.21637511  0.21637511  0.00000000  1
  N  N26  1  0.83513180  0.16486820  0.34886666  1
  N  N27  1  0.64719216  0.35280784  0.75000000  1
  N  N28  1  0.87687251  0.87687251  0.00000000  1
  N  N29  1  0.84510296  0.54830276  0.25000000  1
  N  N30  1  0.83648994  0.16351006  0.25000000  1
  N  N31  1  0.40472900  0.92507394  0.46288449  1
  N  N32  1  0.56630810  0.43369190  0.75000000  1
  N  N33  1  0.16486820  0.83513180  0.84886666  1
  N  N34  1  0.30864192  0.30864192  0.00000000  1
  N  N35  1  0.59527100  0.07492606  0.96288449  1
  N  N36  1  0.69135808  0.69135808  0.00000000  1
  N  N37  1  0.92507394  0.40472900  0.96288449  1
  N  N38  1  0.92507394  0.40472900  0.53711551  1
  N  N39  1  0.59527100  0.07492606  0.53711551  1
  N  N40  1  0.12312749  0.12312749  0.00000000  1
  N  N41  1  0.45169724  0.15489704  0.25000000  1
  N  N42  1  0.21637511  0.21637511  0.50000000  1
  N  N43  1  0.07492606  0.59527100  0.46288449  1
  N  N44  1  0.78362489  0.78362489  0.00000000  1
  N  N45  1  0.66307206  0.90226960  0.75000000  1
  N  N46  1  0.72776848  0.27223152  0.75000000  1
  N  N47  1  0.16486820  0.83513180  0.65113334  1
  N  N48  1  0.30864192  0.30864192  0.50000000  1
  N  N49  1  0.43369190  0.56630810  0.25000000  1
  N  N50  1  0.00000000  0.50000000  0.50000000  1
  N  N51  1  0.35280784  0.64719216  0.25000000  1
  N  N52  1  0.78362489  0.78362489  0.50000000  1
  N  N53  1  0.16351006  0.83648994  0.75000000  1
  N  N54  1  0.87687251  0.87687251  0.50000000  1
  N  N55  1  0.21987293  0.04127093  0.25000000  1
  N  N56  1  0.40472900  0.92507394  0.03711551  1
  N  N57  1  0.50000000  0.00000000  0.50000000  1
  N  N58  1  0.50000000  0.00000000  0.00000000  1
  N  N59  1  0.83513180  0.16486820  0.15113334  1
