# generated using pymatgen
data_CsNiF3
_symmetry_space_group_name_H-M   'P 1'
_cell_length_a   8.34991808
_cell_length_b   8.34991838
_cell_length_c   8.34991760
_cell_angle_alpha   43.78677039
_cell_angle_beta   43.78676822
_cell_angle_gamma   43.78676899
_symmetry_Int_Tables_number   1
_chemical_formula_structural   CsNiF3
_chemical_formula_sum   'Cs3 Ni3 F9'
_cell_volume   253.07702471
_cell_formula_units_Z   3
loop_
 _symmetry_equiv_pos_site_id
 _symmetry_equiv_pos_as_xyz
  1  'x, y, z'
loop_
 _atom_site_type_symbol
 _atom_site_label
 _atom_site_symmetry_multiplicity
 _atom_site_fract_x
 _atom_site_fract_y
 _atom_site_fract_z
 _atom_site_occupancy
  Ni  Ni0  1  0.50000000  0.50000000  0.50000000  1
  Ni  Ni1  1  0.37946566  0.37946566  0.37946566  1
  Ni  Ni2  1  0.62053434  0.62053434  0.62053434  1
  F  F3  1  0.50000000  0.50000000  0.00000000  1
  F  F4  1  0.00000000  0.50000000  0.50000000  1
  F  F5  1  0.50000000  0.00000000  0.50000000  1
  F  F6  1  0.70107214  0.27573634  0.70107214  1
  F  F7  1  0.70107214  0.70107214  0.27573634  1
  F  F8  1  0.27573634  0.70107214  0.70107214  1
  F  F9  1  0.72426366  0.29892786  0.29892786  1
  F  F10  1  0.29892786  0.72426366  0.29892786  1
  F  F11  1  0.29892786  0.29892786  0.72426366  1
  Cs  Cs12  1  0.00000000  0.00000000  0.00000000  1
  Cs  Cs13  1  0.21460300  0.21460300  0.21460300  1
  Cs  Cs14  1  0.78539700  0.78539700  0.78539700  1
