# generated using pymatgen
data_TmInCu2
_symmetry_space_group_name_H-M   'P 1'
_cell_length_a   4.65230424
_cell_length_b   4.65232055
_cell_length_c   4.65230075
_cell_angle_alpha   60.05443918
_cell_angle_beta   60.05307908
_cell_angle_gamma   60.05245782
_symmetry_Int_Tables_number   1
_chemical_formula_structural   TmInCu2
_chemical_formula_sum   'Tm1 In1 Cu2'
_cell_volume   71.28778138
_cell_formula_units_Z   1
loop_
 _symmetry_equiv_pos_site_id
 _symmetry_equiv_pos_as_xyz
  1  'x, y, z'
loop_
 _atom_site_type_symbol
 _atom_site_label
 _atom_site_symmetry_multiplicity
 _atom_site_fract_x
 _atom_site_fract_y
 _atom_site_fract_z
 _atom_site_occupancy
  Tm  Tm0  1  0.50000119  0.49999976  0.49999479  1
  In  In1  1  -0.00000069  0.00000104  0.00000075  1
  Cu  Cu2  1  0.25004727  0.25004005  0.25003936  1
  Cu  Cu3  1  0.74995223  0.74995915  0.74996510  1
