# generated using pymatgen
data_K2V2P4O15
_symmetry_space_group_name_H-M   'P 1'
_cell_length_a   9.67903565
_cell_length_b   11.69451280
_cell_length_c   22.44622579
_cell_angle_alpha   90.00000000
_cell_angle_beta   90.00000000
_cell_angle_gamma   90.00000000
_symmetry_Int_Tables_number   1
_chemical_formula_structural   K2V2P4O15
_chemical_formula_sum   'K16 V16 P32 O120'
_cell_volume   2540.72435256
_cell_formula_units_Z   8
loop_
 _symmetry_equiv_pos_site_id
 _symmetry_equiv_pos_as_xyz
  1  'x, y, z'
loop_
 _atom_site_type_symbol
 _atom_site_label
 _atom_site_symmetry_multiplicity
 _atom_site_fract_x
 _atom_site_fract_y
 _atom_site_fract_z
 _atom_site_occupancy
  K  K0  1  0.06571375  0.34635593  0.43843725  1
  K  K1  1  0.56571375  0.65364407  0.06156275  1
  K  K2  1  0.93428625  0.65364407  0.56156275  1
  K  K3  1  0.03629050  0.80023730  0.86505807  1
  K  K4  1  0.56571375  0.15364407  0.43843725  1
  K  K5  1  0.46370950  0.30023730  0.13494193  1
  K  K6  1  0.43428625  0.84635593  0.56156275  1
  K  K7  1  0.53629050  0.19976270  0.63494193  1
  K  K8  1  0.03629050  0.30023730  0.63494193  1
  K  K9  1  0.06571375  0.84635593  0.06156275  1
  K  K10  1  0.93428625  0.15364407  0.93843725  1
  K  K11  1  0.53629050  0.69976270  0.86505807  1
  K  K12  1  0.46370950  0.80023730  0.36505807  1
  K  K13  1  0.43428625  0.34635593  0.93843725  1
  K  K14  1  0.96370950  0.19976270  0.13494193  1
  K  K15  1  0.96370950  0.69976270  0.36505807  1
  V  V16  1  0.75832149  0.88048564  0.46961504  1
  V  V17  1  0.25832149  0.61951436  0.46961504  1
  V  V18  1  0.01675785  0.56807174  0.72488094  1
  V  V19  1  0.48324215  0.06807174  0.27511906  1
  V  V20  1  0.24167851  0.61951436  0.96961504  1
  V  V21  1  0.25832149  0.11951436  0.03038496  1
  V  V22  1  0.51675785  0.93192826  0.72488094  1
  V  V23  1  0.98324215  0.43192826  0.27511906  1
  V  V24  1  0.74167851  0.38048564  0.53038496  1
  V  V25  1  0.75832149  0.38048564  0.03038496  1
  V  V26  1  0.01675785  0.06807174  0.77511906  1
  V  V27  1  0.48324215  0.56807174  0.22488094  1
  V  V28  1  0.51675785  0.43192826  0.77511906  1
  V  V29  1  0.98324215  0.93192826  0.22488094  1
  V  V30  1  0.24167851  0.11951436  0.53038496  1
  V  V31  1  0.74167851  0.88048564  0.96961504  1
  P  P32  1  0.71922313  0.94018573  0.11313659  1
  P  P33  1  0.12537046  0.38061618  0.03003692  1
  P  P34  1  0.21922313  0.55981427  0.11313659  1
  P  P35  1  0.48059606  0.34910358  0.30843500  1
  P  P36  1  0.37462954  0.88061618  0.96996308  1
  P  P37  1  0.27022667  0.52688382  0.33206938  1
  P  P38  1  0.28077687  0.05981427  0.88686341  1
  P  P39  1  0.22977333  0.02688382  0.66793062  1
  P  P40  1  0.87462954  0.11938382  0.53003692  1
  P  P41  1  0.71922313  0.44018573  0.38686341  1
  P  P42  1  0.12537046  0.88061618  0.46996308  1
  P  P43  1  0.77022667  0.47311618  0.16793062  1
  P  P44  1  0.78077687  0.44018573  0.88686341  1
  P  P45  1  0.72977333  0.47311618  0.66793062  1
  P  P46  1  0.87462954  0.61938382  0.96996308  1
  P  P47  1  0.21922313  0.05981427  0.38686341  1
  P  P48  1  0.51940394  0.65089642  0.69156500  1
  P  P49  1  0.72977333  0.97311618  0.83206938  1
  P  P50  1  0.37462954  0.38061618  0.53003692  1
  P  P51  1  0.27022667  0.02688382  0.16793062  1
  P  P52  1  0.22977333  0.52688382  0.83206938  1
  P  P53  1  0.98059606  0.15089642  0.30843500  1
  P  P54  1  0.01940394  0.34910358  0.80843500  1
  P  P55  1  0.77022667  0.97311618  0.33206938  1
  P  P56  1  0.62537046  0.11938382  0.03003692  1
  P  P57  1  0.98059606  0.65089642  0.19156500  1
  P  P58  1  0.62537046  0.61938382  0.46996308  1
  P  P59  1  0.48059606  0.84910358  0.19156500  1
  P  P60  1  0.78077687  0.94018573  0.61313659  1
  P  P61  1  0.01940394  0.84910358  0.69156500  1
  P  P62  1  0.28077687  0.55981427  0.61313659  1
  P  P63  1  0.51940394  0.15089642  0.80843500  1
  O  O64  1  0.87440776  0.86969281  0.65899838  1
  O  O65  1  0.62629276  0.52518790  0.16224421  1
  O  O66  1  0.01734432  0.67073692  0.97601875  1
  O  O67  1  0.55182962  0.27581375  0.81611457  1
  O  O68  1  0.44817038  0.22418625  0.31611457  1
  O  O69  1  0.16712577  0.96079319  0.52060514  1
  O  O70  1  0.90635465  0.41449192  0.53614098  1
  O  O71  1  0.70250871  0.88471216  0.88084246  1
  O  O72  1  0.37440776  0.63030719  0.65899838  1
  O  O73  1  0.62559224  0.86969281  0.15899838  1
  O  O74  1  0.87467215  0.58024754  0.15221826  1
  O  O75  1  0.01427531  0.89573962  0.75434742  1
  O  O76  1  0.37467215  0.91975246  0.15221826  1
  O  O77  1  0.48265568  0.67073692  0.47601875  1
  O  O78  1  0.75636846  0.35828134  0.93899963  1
  O  O79  1  0.05182962  0.22418625  0.81611457  1
  O  O80  1  0.62629276  0.02518790  0.33775579  1
  O  O81  1  0.19537926  0.07348663  0.72923100  1
  O  O82  1  0.59364535  0.91449192  0.46385902  1
  O  O83  1  0.83287423  0.53920681  0.02060514  1
  O  O84  1  0.34454093  0.51592392  0.14457045  1
  O  O85  1  0.15545907  0.51592392  0.64457045  1
  O  O86  1  0.58405902  0.61814524  0.27676333  1
  O  O87  1  0.26071092  0.29189713  0.54125460  1
  O  O88  1  0.48265568  0.17073692  0.02398125  1
  O  O89  1  0.40635465  0.08550808  0.53614098  1
  O  O90  1  0.16712577  0.46079319  0.97939486  1
  O  O91  1  0.19537926  0.57348663  0.77076900  1
  O  O92  1  0.70250871  0.38471216  0.61915754  1
  O  O93  1  0.91594098  0.61814524  0.77676333  1
  O  O94  1  0.51734432  0.82926308  0.97601875  1
  O  O95  1  0.91594098  0.11814524  0.72323667  1
  O  O96  1  0.26071092  0.79189713  0.95874540  1
  O  O97  1  0.87467215  0.08024754  0.34778174  1
  O  O98  1  0.48572469  0.39573962  0.24565258  1
  O  O99  1  0.76071092  0.20810287  0.54125460  1
  O  O100  1  0.37925270  0.45775533  0.59178203  1
  O  O101  1  0.30462074  0.57348663  0.27076900  1
  O  O102  1  0.01734432  0.17073692  0.52398125  1
  O  O103  1  0.98572469  0.60426038  0.25434742  1
  O  O104  1  0.66712577  0.03920681  0.97939486  1
  O  O105  1  0.98572469  0.10426038  0.24565258  1
  O  O106  1  0.30462074  0.07348663  0.22923100  1
  O  O107  1  0.59364535  0.41449192  0.03614098  1
  O  O108  1  0.12532785  0.41975246  0.84778174  1
  O  O109  1  0.01427531  0.39573962  0.74565258  1
  O  O110  1  0.62074730  0.04224467  0.09178203  1
  O  O111  1  0.58405902  0.11814524  0.22323667  1
  O  O112  1  0.12559224  0.63030719  0.15899838  1
  O  O113  1  0.25636846  0.14171866  0.93899963  1
  O  O114  1  0.48572469  0.89573962  0.25434742  1
  O  O115  1  0.73928908  0.70810287  0.45874540  1
  O  O116  1  0.29749129  0.11528784  0.11915754  1
  O  O117  1  0.62532785  0.08024754  0.84778174  1
  O  O118  1  0.79749129  0.38471216  0.11915754  1
  O  O119  1  0.73928908  0.20810287  0.04125460  1
  O  O120  1  0.08405902  0.38185476  0.22323667  1
  O  O121  1  0.20250871  0.11528784  0.61915754  1
  O  O122  1  0.37925270  0.95775533  0.90821797  1
  O  O123  1  0.87925270  0.04224467  0.59178203  1
  O  O124  1  0.94817038  0.27581375  0.31611457  1
  O  O125  1  0.23928908  0.29189713  0.04125460  1
  O  O126  1  0.12532785  0.91975246  0.65221826  1
  O  O127  1  0.37440776  0.13030719  0.84100162  1
  O  O128  1  0.74363154  0.85828134  0.06100037  1
  O  O129  1  0.76071092  0.70810287  0.95874540  1
  O  O130  1  0.33287423  0.96079319  0.02060514  1
  O  O131  1  0.37370724  0.47481210  0.83775579  1
  O  O132  1  0.33287423  0.46079319  0.47939486  1
  O  O133  1  0.40635465  0.58550808  0.96385902  1
  O  O134  1  0.34454093  0.01592392  0.35542955  1
  O  O135  1  0.62532785  0.58024754  0.65221826  1
  O  O136  1  0.84454093  0.98407608  0.14457045  1
  O  O137  1  0.44817038  0.72418625  0.18388543  1
  O  O138  1  0.65545907  0.98407608  0.64457045  1
  O  O139  1  0.87925270  0.54224467  0.90821797  1
  O  O140  1  0.41594098  0.88185476  0.77676333  1
  O  O141  1  0.05182962  0.72418625  0.68388543  1
  O  O142  1  0.09364535  0.08550808  0.03614098  1
  O  O143  1  0.37467215  0.41975246  0.34778174  1
  O  O144  1  0.12074730  0.45775533  0.09178203  1
  O  O145  1  0.84454093  0.48407608  0.35542955  1
  O  O146  1  0.62074730  0.54224467  0.40821797  1
  O  O147  1  0.74363154  0.35828134  0.43899963  1
  O  O148  1  0.20250871  0.61528784  0.88084246  1
  O  O149  1  0.12559224  0.13030719  0.34100162  1
  O  O150  1  0.87440776  0.36969281  0.84100162  1
  O  O151  1  0.69537926  0.42651337  0.72923100  1
  O  O152  1  0.41594098  0.38185476  0.72323667  1
  O  O153  1  0.15545907  0.01592392  0.85542955  1
  O  O154  1  0.83287423  0.03920681  0.47939486  1
  O  O155  1  0.94817038  0.77581375  0.18388543  1
  O  O156  1  0.87370724  0.02518790  0.83775579  1
  O  O157  1  0.62559224  0.36969281  0.34100162  1
  O  O158  1  0.98265568  0.32926308  0.02398125  1
  O  O159  1  0.98265568  0.82926308  0.47601875  1
  O  O160  1  0.75636846  0.85828134  0.56100037  1
  O  O161  1  0.23928908  0.79189713  0.45874540  1
  O  O162  1  0.51427531  0.10426038  0.74565258  1
  O  O163  1  0.80462074  0.42651337  0.22923100  1
  O  O164  1  0.69537926  0.92651337  0.77076900  1
  O  O165  1  0.08405902  0.88185476  0.27676333  1
  O  O166  1  0.65545907  0.48407608  0.85542955  1
  O  O167  1  0.66712577  0.53920681  0.52060514  1
  O  O168  1  0.24363154  0.14171866  0.43899963  1
  O  O169  1  0.51734432  0.32926308  0.52398125  1
  O  O170  1  0.51427531  0.60426038  0.75434742  1
  O  O171  1  0.12074730  0.95775533  0.40821797  1
  O  O172  1  0.12629276  0.97481210  0.16224421  1
  O  O173  1  0.90635465  0.91449192  0.96385902  1
  O  O174  1  0.87370724  0.52518790  0.66224421  1
  O  O175  1  0.29749129  0.61528784  0.38084246  1
  O  O176  1  0.79749129  0.88471216  0.38084246  1
  O  O177  1  0.25636846  0.64171866  0.56100037  1
  O  O178  1  0.09364535  0.58550808  0.46385902  1
  O  O179  1  0.24363154  0.64171866  0.06100037  1
  O  O180  1  0.55182962  0.77581375  0.68388543  1
  O  O181  1  0.37370724  0.97481210  0.66224421  1
  O  O182  1  0.12629276  0.47481210  0.33775579  1
  O  O183  1  0.80462074  0.92651337  0.27076900  1
