# generated using pymatgen
data_H9BrO4
_symmetry_space_group_name_H-M   'P 1'
_cell_length_a   7.13585605
_cell_length_b   11.30575588
_cell_length_c   7.73319357
_cell_angle_alpha   90.00000000
_cell_angle_beta   111.40465841
_cell_angle_gamma   90.00000000
_symmetry_Int_Tables_number   1
_chemical_formula_structural   H9BrO4
_chemical_formula_sum   'H36 Br4 O16'
_cell_volume   580.85327599
_cell_formula_units_Z   4
loop_
 _symmetry_equiv_pos_site_id
 _symmetry_equiv_pos_as_xyz
  1  'x, y, z'
loop_
 _atom_site_type_symbol
 _atom_site_label
 _atom_site_symmetry_multiplicity
 _atom_site_fract_x
 _atom_site_fract_y
 _atom_site_fract_z
 _atom_site_occupancy
  H  H0  1  0.35355409  0.33083668  0.99970845  1
  H  H1  1  0.20507567  0.24920128  0.80859506  1
  H  H2  1  0.13704185  0.26517602  0.99760208  1
  H  H3  1  0.64644591  0.83083668  0.00029155  1
  H  H4  1  0.79492433  0.74920128  0.19140494  1
  H  H5  1  0.86295815  0.76517602  0.00239792  1
  H  H6  1  0.97885765  0.19317154  0.14250819  1
  H  H7  1  0.96577958  0.33766731  0.12137740  1
  H  H8  1  0.02114235  0.69317154  0.85749181  1
  H  H9  1  0.03422042  0.83766731  0.87862260  1
  H  H10  1  0.71635930  0.25552961  0.86607164  1
  H  H11  1  0.55858570  0.15605685  0.77850988  1
  H  H12  1  0.44141430  0.65605685  0.22149012  1
  H  H13  1  0.28364070  0.75552961  0.13392836  1
  H  H14  1  0.65593981  0.24519756  0.57739428  1
  H  H15  1  0.65836810  0.30990957  0.38993408  1
  H  H16  1  0.34406019  0.74519756  0.42260572  1
  H  H17  1  0.34163190  0.80990957  0.61006592  1
  H  H18  1  0.13042821  0.14948349  0.55223371  1
  H  H19  1  0.94788487  0.23038580  0.55228812  1
  H  H20  1  0.86957179  0.64948349  0.44776629  1
  H  H21  1  0.05211513  0.73038580  0.44771188  1
  H  H22  1  0.18677444  0.43146501  0.35955233  1
  H  H23  1  0.21108436  0.33258347  0.51752346  1
  H  H24  1  0.38591913  0.46890381  0.59064203  1
  H  H25  1  0.61408087  0.96890381  0.40935797  1
  H  H26  1  0.78891564  0.83258347  0.48247654  1
  H  H27  1  0.81322556  0.93146501  0.64044767  1
  H  H28  1  0.61670404  0.54121911  0.70118713  1
  H  H29  1  0.40824884  0.62176881  0.63902892  1
  H  H30  1  0.38329596  0.04121911  0.29881287  1
  H  H31  1  0.59175116  0.12176881  0.36097108  1
  H  H32  1  0.99853255  0.50795487  0.03844454  1
  H  H33  1  0.86151585  0.50096448  0.16107606  1
  H  H34  1  0.00146745  0.00795487  0.96155546  1
  H  H35  1  0.13848415  0.00096448  0.83892394  1
  Br  Br36  1  0.93322548  0.51971226  0.71852982  1
  Br  Br37  1  0.06677452  0.01971226  0.28147018  1
  Br  Br38  1  0.55835080  0.46431110  0.17916498  1
  Br  Br39  1  0.44164920  0.96431110  0.82083502  1
  O  O40  1  0.25990196  0.26089917  0.95240630  1
  O  O41  1  0.74009804  0.76089917  0.04759370  1
  O  O42  1  0.96037096  0.26125005  0.05497373  1
  O  O43  1  0.03962904  0.76125005  0.94502627  1
  O  O44  1  0.59454961  0.23765043  0.75649725  1
  O  O45  1  0.40545039  0.73765043  0.24350275  1
  O  O46  1  0.70288295  0.23727774  0.46759055  1
  O  O47  1  0.29711705  0.73727774  0.53240945  1
  O  O48  1  0.10103410  0.22442078  0.60235868  1
  O  O49  1  0.89896590  0.72442078  0.39764132  1
  O  O50  1  0.28500717  0.39122541  0.46914240  1
  O  O51  1  0.71499283  0.89122541  0.53085760  1
  O  O52  1  0.47194558  0.54184465  0.69046782  1
  O  O53  1  0.52805442  0.04184465  0.30953218  1
  O  O54  1  0.00083903  0.48905813  0.16455099  1
  O  O55  1  -0.00083903  0.98905813  0.83544901  1
