# generated using pymatgen
data_Ga3Cl7
_symmetry_space_group_name_H-M   'P 1'
_cell_length_a   9.11567035
_cell_length_b   10.77840893
_cell_length_c   12.06599896
_cell_angle_alpha   90.00000000
_cell_angle_beta   90.00000000
_cell_angle_gamma   90.00000000
_symmetry_Int_Tables_number   1
_chemical_formula_structural   Ga3Cl7
_chemical_formula_sum   'Ga12 Cl28'
_cell_volume   1185.51363016
_cell_formula_units_Z   4
loop_
 _symmetry_equiv_pos_site_id
 _symmetry_equiv_pos_as_xyz
  1  'x, y, z'
loop_
 _atom_site_type_symbol
 _atom_site_label
 _atom_site_symmetry_multiplicity
 _atom_site_fract_x
 _atom_site_fract_y
 _atom_site_fract_z
 _atom_site_occupancy
  Ga  Ga0  1  0.85790313  0.12413270  0.39062682  1
  Ga  Ga1  1  0.06957607  0.99967557  0.67372010  1
  Ga  Ga2  1  0.43042393  0.99967557  0.17372010  1
  Ga  Ga3  1  0.61767741  0.75993925  0.61425367  1
  Ga  Ga4  1  0.93042393  0.49967557  0.32627990  1
  Ga  Ga5  1  0.38232259  0.25993925  0.38574633  1
  Ga  Ga6  1  0.88232259  0.75993925  0.11425367  1
  Ga  Ga7  1  0.56957607  0.49967557  0.82627990  1
  Ga  Ga8  1  0.35790313  0.62413270  0.10937318  1
  Ga  Ga9  1  0.14209687  0.62413270  0.60937318  1
  Ga  Ga10  1  0.64209687  0.12413270  0.89062682  1
  Ga  Ga11  1  0.11767741  0.25993925  0.88574633  1
  Cl  Cl12  1  0.95273836  0.34148398  0.21602412  1
  Cl  Cl13  1  0.12728825  0.61486368  0.34516163  1
  Cl  Cl14  1  0.20341411  0.31476530  0.49412810  1
  Cl  Cl15  1  0.73940531  0.63190413  0.74267621  1
  Cl  Cl16  1  0.02025871  0.40787238  0.78903913  1
  Cl  Cl17  1  0.83504724  0.44589547  0.48391437  1
  Cl  Cl18  1  0.66495276  0.44589547  0.98391437  1
  Cl  Cl19  1  0.04309280  0.63856753  0.03339554  1
  Cl  Cl20  1  0.79658589  0.81476530  0.50587190  1
  Cl  Cl21  1  0.47974129  0.40787238  0.28903913  1
  Cl  Cl22  1  0.76059469  0.63190413  0.24267621  1
  Cl  Cl23  1  0.54309280  0.13856753  0.46660446  1
  Cl  Cl24  1  0.52025871  0.90787238  0.71096087  1
  Cl  Cl25  1  0.04726164  0.84148398  0.78397588  1
  Cl  Cl26  1  0.37271175  0.61486368  0.84516163  1
  Cl  Cl27  1  0.70341411  0.81476530  0.00587190  1
  Cl  Cl28  1  0.26059469  0.13190413  0.25732379  1
  Cl  Cl29  1  0.97974129  0.90787238  0.21096087  1
  Cl  Cl30  1  0.33504724  0.94589547  0.01608563  1
  Cl  Cl31  1  0.95690720  0.13856753  0.96660446  1
  Cl  Cl32  1  0.87271175  0.11486368  0.65483837  1
  Cl  Cl33  1  0.62728825  0.11486368  0.15483837  1
  Cl  Cl34  1  0.23940531  0.13190413  0.75732379  1
  Cl  Cl35  1  0.45273836  0.84148398  0.28397588  1
  Cl  Cl36  1  0.16495276  0.94589547  0.51608563  1
  Cl  Cl37  1  0.45690720  0.63856753  0.53339554  1
  Cl  Cl38  1  0.29658589  0.31476530  0.99412810  1
  Cl  Cl39  1  0.54726164  0.34148398  0.71602412  1
