# generated using pymatgen
data_PrCuSO
_symmetry_space_group_name_H-M   'P 1'
_cell_length_a   3.96882060
_cell_length_b   3.96882060
_cell_length_c   8.49517144
_cell_angle_alpha   90.00000000
_cell_angle_beta   90.00000000
_cell_angle_gamma   90.00000000
_symmetry_Int_Tables_number   1
_chemical_formula_structural   PrCuSO
_chemical_formula_sum   'Pr2 Cu2 S2 O2'
_cell_volume   133.81200688
_cell_formula_units_Z   2
loop_
 _symmetry_equiv_pos_site_id
 _symmetry_equiv_pos_as_xyz
  1  'x, y, z'
loop_
 _atom_site_type_symbol
 _atom_site_label
 _atom_site_symmetry_multiplicity
 _atom_site_fract_x
 _atom_site_fract_y
 _atom_site_fract_z
 _atom_site_occupancy
  O  O0  1  0.75000000  0.25000000  0.00000000  1
  O  O1  1  0.25000000  0.75000000  0.00000000  1
  S  S2  1  0.25000000  0.25000000  0.66286751  1
  S  S3  1  0.75000000  0.75000000  0.33713249  1
  Cu  Cu4  1  0.25000000  0.75000000  0.50000000  1
  Cu  Cu5  1  0.75000000  0.25000000  0.50000000  1
  Pr  Pr6  1  0.75000000  0.75000000  0.85290085  1
  Pr  Pr7  1  0.25000000  0.25000000  0.14709915  1
