# generated using pymatgen
data_LuHO2
_symmetry_space_group_name_H-M   'P 1'
_cell_length_a   5.82034052
_cell_length_b   3.56661079
_cell_length_c   4.24658027
_cell_angle_alpha   90.00000000
_cell_angle_beta   109.56376648
_cell_angle_gamma   90.00000000
_symmetry_Int_Tables_number   1
_chemical_formula_structural   LuHO2
_chemical_formula_sum   'Lu2 H2 O4'
_cell_volume   83.06508996
_cell_formula_units_Z   2
loop_
 _symmetry_equiv_pos_site_id
 _symmetry_equiv_pos_as_xyz
  1  'x, y, z'
loop_
 _atom_site_type_symbol
 _atom_site_label
 _atom_site_symmetry_multiplicity
 _atom_site_fract_x
 _atom_site_fract_y
 _atom_site_fract_z
 _atom_site_occupancy
  Lu  Lu0  1  0.18744280  0.76697380  0.33362948  1
  Lu  Lu1  1  0.81255720  0.26697380  0.66637052  1
  H  H2  1  0.59191454  0.82732101  0.98039938  1
  H  H3  1  0.40808546  0.32732101  0.01960062  1
  O  O4  1  0.05547208  0.76797438  0.76847783  1
  O  O5  1  0.94452792  0.26797438  0.23152217  1
  O  O6  1  0.56477052  0.76289281  0.74717065  1
  O  O7  1  0.43522948  0.26289281  0.25282935  1
