# generated using pymatgen
data_Li2P2PdO7
_symmetry_space_group_name_H-M   'P 1'
_cell_length_a   6.53308964
_cell_length_b   7.04297572
_cell_length_c   8.13445501
_cell_angle_alpha   115.65238828
_cell_angle_beta   113.67629939
_cell_angle_gamma   89.99999706
_symmetry_Int_Tables_number   1
_chemical_formula_structural   Li2P2PdO7
_chemical_formula_sum   'Li4 P4 Pd2 O14'
_cell_volume   302.06763938
_cell_formula_units_Z   2
loop_
 _symmetry_equiv_pos_site_id
 _symmetry_equiv_pos_as_xyz
  1  'x, y, z'
loop_
 _atom_site_type_symbol
 _atom_site_label
 _atom_site_symmetry_multiplicity
 _atom_site_fract_x
 _atom_site_fract_y
 _atom_site_fract_z
 _atom_site_occupancy
  Li  Li0  1  0.22841629  0.72841629  0.45683258  1
  Li  Li1  1  0.77158371  0.27158371  0.54316742  1
  Li  Li2  1  0.22841629  0.22841629  0.45683258  1
  Li  Li3  1  0.77158371  0.77158371  0.54316742  1
  P  P4  1  0.44008565  0.36005960  0.22011919  1
  P  P5  1  0.21996645  0.13994040  0.77988081  1
  P  P6  1  0.55991435  0.63994040  0.77988081  1
  P  P7  1  0.78003355  0.86005960  0.22011919  1
  Pd  Pd8  1  -0.00000000  0.00000000  -0.00000000  1
  Pd  Pd9  1  -0.00000000  0.50000000  -0.00000000  1
  O  O10  1  0.31408908  0.17985789  0.22945314  1
  O  O11  1  0.08463594  0.95040475  0.77054686  1
  O  O12  1  0.91536406  0.67985789  0.22945314  1
  O  O13  1  0.55631515  0.75000000  1.00000000  1
  O  O14  1  0.44368485  0.25000000  0.00000000  1
  O  O15  1  0.31827150  0.55534611  0.61069223  1
  O  O16  1  0.68591092  0.45040475  0.77054686  1
  O  O17  1  0.31408908  0.54959525  0.22945314  1
  O  O18  1  0.68172850  0.44465389  0.38930777  1
  O  O19  1  0.91536406  0.04959525  0.22945314  1
  O  O20  1  0.29242073  0.05534611  0.61069223  1
  O  O21  1  0.08463594  0.32014211  0.77054686  1
  O  O22  1  0.70757927  0.94465389  0.38930777  1
  O  O23  1  0.68591092  0.82014211  0.77054686  1
