# generated using pymatgen
data_CdI2
_symmetry_space_group_name_H-M   'P 1'
_cell_length_a   36.42773717
_cell_length_b   36.42773718
_cell_length_c   36.42773758
_cell_angle_alpha   6.86266739
_cell_angle_beta   6.86266734
_cell_angle_gamma   6.86266750
_symmetry_Int_Tables_number   1
_chemical_formula_structural   CdI2
_chemical_formula_sum   'Cd5 I10'
_cell_volume   598.42388639
_cell_formula_units_Z   5
loop_
 _symmetry_equiv_pos_site_id
 _symmetry_equiv_pos_as_xyz
  1  'x, y, z'
loop_
 _atom_site_type_symbol
 _atom_site_label
 _atom_site_symmetry_multiplicity
 _atom_site_fract_x
 _atom_site_fract_y
 _atom_site_fract_z
 _atom_site_occupancy
  Cd  Cd0  1  0.68333941  0.68333941  0.68333941  1
  Cd  Cd1  1  0.88335352  0.88335352  0.88335352  1
  Cd  Cd2  1  0.28331535  0.28331535  0.28331535  1
  Cd  Cd3  1  0.14998638  0.14998638  0.14998638  1
  Cd  Cd4  1  0.75000070  0.75000070  0.75000070  1
  I  I5  1  0.36576122  0.36576122  0.36576122  1
  I  I6  1  0.43242386  0.43242386  0.43242386  1
  I  I7  1  0.80090085  0.80090085  0.80090085  1
  I  I8  1  0.20092019  0.20092019  0.20092019  1
  I  I9  1  0.63242077  0.63242077  0.63242077  1
  I  I10  1  0.56577430  0.56577430  0.56577430  1
  I  I11  1  0.00090933  0.00090933  0.00090933  1
  I  I12  1  0.49908690  0.49908690  0.49908690  1
  I  I13  1  0.93422973  0.93422973  0.93422973  1
  I  I14  1  0.06757749  0.06757749  0.06757749  1
