# generated using pymatgen
data_Co7Te4(BrO2)6
_symmetry_space_group_name_H-M   'P 1'
_cell_length_a   8.64194972
_cell_length_b   11.30532366
_cell_length_c   13.10274503
_cell_angle_alpha   74.47413998
_cell_angle_beta   70.76297404
_cell_angle_gamma   67.50871228
_symmetry_Int_Tables_number   1
_chemical_formula_structural   Co7Te4(BrO2)6
_chemical_formula_sum   'Co14 Te8 Br12 O24'
_cell_volume   1101.90980985
_cell_formula_units_Z   2
loop_
 _symmetry_equiv_pos_site_id
 _symmetry_equiv_pos_as_xyz
  1  'x, y, z'
loop_
 _atom_site_type_symbol
 _atom_site_label
 _atom_site_symmetry_multiplicity
 _atom_site_fract_x
 _atom_site_fract_y
 _atom_site_fract_z
 _atom_site_occupancy
  Co  Co0  1  0.10647410  0.04006370  0.38007972  1
  Co  Co1  1  0.89769306  0.45690017  0.12306024  1
  Co  Co2  1  0.89458568  0.95998897  0.62000030  1
  Co  Co3  1  0.47908242  0.04206817  0.37643325  1
  Co  Co4  1  0.10284257  0.54274438  0.87735892  1
  Co  Co5  1  0.93798912  0.16862216  0.16062925  1
  Co  Co6  1  0.00117296  0.49978003  0.50123975  1
  Co  Co7  1  0.52663159  0.45887827  0.11888136  1
  Co  Co8  1  0.06277449  0.82982662  0.83831907  1
  Co  Co9  1  0.26833845  0.33037695  0.33876640  1
  Co  Co10  1  0.00365742  0.99947996  0.99928409  1
  Co  Co11  1  0.47501259  0.54025502  0.87908198  1
  Co  Co12  1  0.52285984  0.95775304  0.62281196  1
  Co  Co13  1  0.73144504  0.67032506  0.66137204  1
  Te  Te14  1  0.67410611  0.28771424  0.36149751  1
  Te  Te15  1  0.88995428  0.83489722  0.39985372  1
  Te  Te16  1  0.67616416  0.78877030  0.86236062  1
  Te  Te17  1  0.32396149  0.21140081  0.13763917  1
  Te  Te18  1  0.12441290  0.66480603  0.09993550  1
  Te  Te19  1  0.11206307  0.16418088  0.60019758  1
  Te  Te20  1  0.87704230  0.33542955  0.89909070  1
  Te  Te21  1  0.32754111  0.71170030  0.63720803  1
  Br  Br22  1  0.72567119  0.00216690  0.17450321  1
  Br  Br23  1  0.90328879  0.49691768  0.32384099  1
  Br  Br24  1  0.09979464  0.50289321  0.67555377  1
  Br  Br25  1  0.37188083  0.34250837  0.88853030  1
  Br  Br26  1  0.18993347  0.95207719  0.14956296  1
  Br  Br27  1  0.70956958  0.45300592  0.65042811  1
  Br  Br28  1  0.62597876  0.65641834  0.11229360  1
  Br  Br29  1  0.29001510  0.54666721  0.35197733  1
  Br  Br30  1  0.27918684  0.99780626  0.82559382  1
  Br  Br31  1  0.39860411  0.84228731  0.38666726  1
  Br  Br32  1  0.81338314  0.04617074  0.84829885  1
  Br  Br33  1  0.60351380  0.15795054  0.61152439  1
  O  O34  1  0.66258071  0.93893451  0.45683678  1
  O  O35  1  0.06480833  0.81575068  0.99200872  1
  O  O36  1  0.91536578  0.71967269  0.85750042  1
  O  O37  1  0.63788730  0.39700526  0.96903279  1
  O  O38  1  0.36286395  0.60212876  0.02898995  1
  O  O39  1  0.12773962  0.31564225  0.49286412  1
  O  O40  1  0.87288717  0.68410247  0.50787582  1
  O  O41  1  0.71869750  0.35279426  0.20041529  1
  O  O42  1  0.08527447  0.27951922  0.14099518  1
  O  O43  1  0.50762202  0.21935674  0.35746180  1
  O  O44  1  0.65364725  0.64302101  0.82648267  1
  O  O45  1  0.93641542  0.18406643  0.00665504  1
  O  O46  1  0.49329663  0.78057265  0.64156427  1
  O  O47  1  0.34606988  0.35758932  0.17317201  1
  O  O48  1  0.87811420  0.14167418  0.32606186  1
  O  O49  1  0.05619257  0.56170017  0.04315839  1
  O  O50  1  0.00514115  0.10275144  0.52960318  1
  O  O51  1  0.94145388  0.43957163  0.95713198  1
  O  O52  1  0.12382927  0.85777520  0.67297043  1
  O  O53  1  0.33929445  0.06064656  0.54245645  1
  O  O54  1  0.72671420  0.85415721  0.70136128  1
  O  O55  1  0.28260304  0.64621676  0.79805928  1
  O  O56  1  0.27324348  0.14638982  0.29870869  1
  O  O57  1  0.99636373  0.89689729  0.47037182  1
