# generated using pymatgen
data_RbMnH2OF4
_symmetry_space_group_name_H-M   'P 1'
_cell_length_a   6.68253767
_cell_length_b   7.74934185
_cell_length_c   10.87382712
_cell_angle_alpha   102.82346002
_cell_angle_beta   90.00000000
_cell_angle_gamma   115.54171215
_symmetry_Int_Tables_number   1
_chemical_formula_structural   RbMnH2OF4
_chemical_formula_sum   'Rb4 Mn4 H8 O4 F16'
_cell_volume   492.46123305
_cell_formula_units_Z   4
loop_
 _symmetry_equiv_pos_site_id
 _symmetry_equiv_pos_as_xyz
  1  'x, y, z'
loop_
 _atom_site_type_symbol
 _atom_site_label
 _atom_site_symmetry_multiplicity
 _atom_site_fract_x
 _atom_site_fract_y
 _atom_site_fract_z
 _atom_site_occupancy
  Rb  Rb0  1  0.33529790  0.15843479  0.44025354  1
  Rb  Rb1  1  0.17686311  0.84156521  0.05974646  1
  Rb  Rb2  1  0.66470210  0.84156521  0.55974646  1
  Rb  Rb3  1  0.82313689  0.15843479  0.94025354  1
  Mn  Mn4  1  0.00000000  0.50000000  0.50000000  1
  Mn  Mn5  1  0.50000000  0.50000000  0.00000000  1
  Mn  Mn6  1  0.75695054  0.00000000  0.25000000  1
  Mn  Mn7  1  0.24304946  0.00000000  0.75000000  1
  F  F8  1  0.85545839  0.21123367  0.43529228  1
  F  F9  1  0.64422472  0.78876633  0.06470772  1
  F  F10  1  0.14454161  0.78876633  0.56470772  1
  F  F11  1  0.35577528  0.21123367  0.93529228  1
  F  F12  1  0.27190978  0.50282160  0.46403719  1
  F  F13  1  0.76908817  0.49717840  0.03596281  1
  F  F14  1  0.72809022  0.49717840  0.53596281  1
  F  F15  1  0.23091183  0.50282160  0.96403719  1
  F  F16  1  0.02844802  0.13807125  0.18550878  1
  F  F17  1  0.89037676  0.86192875  0.31449122  1
  F  F18  1  0.97155198  0.86192875  0.81449122  1
  F  F19  1  0.10962324  0.13807125  0.68550878  1
  F  F20  1  0.62908914  0.14495520  0.19075887  1
  F  F21  1  0.48413393  0.85504480  0.30924113  1
  F  F22  1  0.37091086  0.85504480  0.80924113  1
  F  F23  1  0.51586607  0.14495520  0.69075887  1
  O  O24  1  0.93870924  0.52948255  0.30533414  1
  O  O25  1  0.40922669  0.47051745  0.19466586  1
  O  O26  1  0.06129076  0.47051745  0.69466586  1
  O  O27  1  0.59077331  0.52948255  0.80533414  1
  H  H28  1  0.90406770  0.64001081  0.30166253  1
  H  H29  1  0.26405689  0.35998919  0.19833747  1
  H  H30  1  0.09593230  0.35998919  0.69833747  1
  H  H31  1  0.73594311  0.64001081  0.80166253  1
  H  H32  1  0.81588007  0.40993225  0.25222887  1
  H  H33  1  0.40594781  0.59006775  0.24777113  1
  H  H34  1  0.18411993  0.59006775  0.74777113  1
  H  H35  1  0.59405219  0.40993225  0.75222887  1
