# generated using pymatgen
data_RbLiNd2(MoO4)4
_symmetry_space_group_name_H-M   'P 1'
_cell_length_a   5.37847584
_cell_length_b   7.13357126
_cell_length_c   19.98819772
_cell_angle_alpha   89.13445033
_cell_angle_beta   87.70347232
_cell_angle_gamma   67.85304359
_symmetry_Int_Tables_number   1
_chemical_formula_structural   RbLiNd2(MoO4)4
_chemical_formula_sum   'Rb2 Li2 Nd4 Mo8 O32'
_cell_volume   709.74943826
_cell_formula_units_Z   2
loop_
 _symmetry_equiv_pos_site_id
 _symmetry_equiv_pos_as_xyz
  1  'x, y, z'
loop_
 _atom_site_type_symbol
 _atom_site_label
 _atom_site_symmetry_multiplicity
 _atom_site_fract_x
 _atom_site_fract_y
 _atom_site_fract_z
 _atom_site_occupancy
  Rb  Rb0  1  0.02957505  0.94084989  0.75000000  1
  Rb  Rb1  1  0.97042495  0.05915011  0.25000000  1
  Li  Li2  1  0.31160664  0.37678672  0.75000000  1
  Li  Li3  1  0.68839336  0.62321328  0.25000000  1
  Nd  Nd4  1  0.85262883  0.29211198  0.46602669  1
  Nd  Nd5  1  0.85525919  0.29211198  0.03397331  1
  Nd  Nd6  1  0.14737117  0.70788802  0.53397331  1
  Nd  Nd7  1  0.14474081  0.70788802  0.96602669  1
  Mo  Mo8  1  0.74930884  0.51313855  0.85170766  1
  Mo  Mo9  1  0.73755262  0.51313855  0.64829234  1
  Mo  Mo10  1  0.42994890  0.12662463  0.59204565  1
  Mo  Mo11  1  0.26244738  0.48686145  0.35170766  1
  Mo  Mo12  1  0.44342647  0.12662463  0.90795435  1
  Mo  Mo13  1  0.25069116  0.48686145  0.14829234  1
  Mo  Mo14  1  0.57005110  0.87337537  0.40795435  1
  Mo  Mo15  1  0.55657353  0.87337537  0.09204565  1
  O  O16  1  0.41002118  0.69664142  0.86712102  1
  O  O17  1  0.18341765  0.33412896  0.54383069  1
  O  O18  1  0.52465423  0.41235358  0.28944325  1
  O  O19  1  0.24016596  0.08057114  0.10049571  1
  O  O20  1  0.75983404  0.91942886  0.89950429  1
  O  O21  1  0.71662106  0.28925833  0.82508864  1
  O  O22  1  0.81658235  0.66587104  0.45616931  1
  O  O23  1  0.70593778  0.81255544  0.17062522  1
  O  O24  1  0.06299220  0.41235358  0.21055675  1
  O  O25  1  0.00587939  0.71074167  0.32508864  1
  O  O26  1  0.99412061  0.28925833  0.67491136  1
  O  O27  1  0.48245339  0.33412896  0.95616931  1
  O  O28  1  0.40340615  0.52122488  0.43269095  1
  O  O29  1  0.59659385  0.47877512  0.56730905  1
  O  O30  1  0.25678915  0.95740600  0.46017156  1
  O  O31  1  0.89333740  0.69664142  0.63287898  1
  O  O32  1  0.48150678  0.81255544  0.32937478  1
  O  O33  1  0.51754661  0.66587104  0.04383069  1
  O  O34  1  0.29406222  0.18744456  0.82937478  1
  O  O35  1  0.93700780  0.58764642  0.78944325  1
  O  O36  1  0.07536896  0.52122488  0.06730905  1
  O  O37  1  0.32073710  0.91942886  0.60049571  1
  O  O38  1  0.47534577  0.58764642  0.71055675  1
  O  O39  1  0.58997882  0.30335858  0.13287898  1
  O  O40  1  0.28337894  0.71074167  0.17491136  1
  O  O41  1  0.51849322  0.18744456  0.67062522  1
  O  O42  1  0.67926290  0.08057114  0.39950429  1
  O  O43  1  0.10666260  0.30335858  0.36712102  1
  O  O44  1  0.92463104  0.47877512  0.93269095  1
  O  O45  1  0.21419515  0.04259400  0.96017156  1
  O  O46  1  0.74321085  0.04259400  0.53982844  1
  O  O47  1  0.78580485  0.95740600  0.03982844  1
