# generated using pymatgen
data_Sr(AlCl4)2
_symmetry_space_group_name_H-M   'P 1'
_cell_length_a   7.10794946
_cell_length_b   7.39531276
_cell_length_c   12.93945410
_cell_angle_alpha   94.55251912
_cell_angle_beta   90.00000000
_cell_angle_gamma   90.00000000
_symmetry_Int_Tables_number   1
_chemical_formula_structural   Sr(AlCl4)2
_chemical_formula_sum   'Sr2 Al4 Cl16'
_cell_volume   678.02305989
_cell_formula_units_Z   2
loop_
 _symmetry_equiv_pos_site_id
 _symmetry_equiv_pos_as_xyz
  1  'x, y, z'
loop_
 _atom_site_type_symbol
 _atom_site_label
 _atom_site_symmetry_multiplicity
 _atom_site_fract_x
 _atom_site_fract_y
 _atom_site_fract_z
 _atom_site_occupancy
  Sr  Sr0  1  0.15585711  0.50000000  0.25000000  1
  Sr  Sr1  1  0.84414289  0.50000000  0.75000000  1
  Al  Al2  1  0.26284572  0.31599308  0.57892741  1
  Al  Al3  1  0.73715428  0.31599308  0.07892741  1
  Al  Al4  1  0.73715428  0.68400692  0.42107259  1
  Al  Al5  1  0.26284572  0.68400692  0.92107259  1
  Cl  Cl6  1  0.52142713  0.25210525  0.65425027  1
  Cl  Cl7  1  0.30503127  0.25590497  0.41459171  1
  Cl  Cl8  1  0.81980302  0.59558155  0.11340594  1
  Cl  Cl9  1  0.18019698  0.40441845  0.88659406  1
  Cl  Cl10  1  0.47857287  0.74789475  0.34574973  1
  Cl  Cl11  1  0.30503127  0.74409503  0.08540829  1
  Cl  Cl12  1  0.69496873  0.74409503  0.58540829  1
  Cl  Cl13  1  0.47857287  0.25210525  0.15425027  1
  Cl  Cl14  1  0.18019698  0.59558155  0.61340594  1
  Cl  Cl15  1  0.52142713  0.74789475  0.84574973  1
  Cl  Cl16  1  0.81980302  0.40441845  0.38659406  1
  Cl  Cl17  1  0.96781096  0.16406011  0.13637096  1
  Cl  Cl18  1  0.69496873  0.25590497  0.91459171  1
  Cl  Cl19  1  0.03218904  0.83593989  0.86362904  1
  Cl  Cl20  1  0.96781096  0.83593989  0.36362904  1
  Cl  Cl21  1  0.03218904  0.16406011  0.63637096  1
