# generated using pymatgen
data_Sb4Pb5S11
_symmetry_space_group_name_H-M   'P 1'
_cell_length_a   8.16189803
_cell_length_b   22.10672601
_cell_length_c   23.85082396
_cell_angle_alpha   90.00000000
_cell_angle_beta   90.00000000
_cell_angle_gamma   100.84958182
_symmetry_Int_Tables_number   1
_chemical_formula_structural   Sb4Pb5S11
_chemical_formula_sum   'Sb32 Pb40 S88'
_cell_volume   4226.54626055
_cell_formula_units_Z   8
loop_
 _symmetry_equiv_pos_site_id
 _symmetry_equiv_pos_as_xyz
  1  'x, y, z'
loop_
 _atom_site_type_symbol
 _atom_site_label
 _atom_site_symmetry_multiplicity
 _atom_site_fract_x
 _atom_site_fract_y
 _atom_site_fract_z
 _atom_site_occupancy
  Sb  Sb0  1  0.09478891  0.43835019  0.73143901  1
  Sb  Sb1  1  0.90521109  0.06164981  0.23143901  1
  Sb  Sb2  1  0.63577117  0.01513829  0.62035642  1
  Sb  Sb3  1  0.33121439  0.96911401  0.06226885  1
  Sb  Sb4  1  0.17941483  0.61336398  0.71623092  1
  Sb  Sb5  1  0.27339772  0.79042833  0.04382111  1
  Sb  Sb6  1  0.32036055  0.37596051  0.60464122  1
  Sb  Sb7  1  0.67963945  0.12403949  0.10464122  1
  Sb  Sb8  1  0.36422883  0.48486171  0.12035642  1
  Sb  Sb9  1  0.63577117  0.51513829  0.87964358  1
  Sb  Sb10  1  0.76285632  0.28172273  0.46532092  1
  Sb  Sb11  1  0.66878561  0.03088599  0.93773115  1
  Sb  Sb12  1  0.23714368  0.21827727  0.96532092  1
  Sb  Sb13  1  0.23714368  0.71827727  0.53467908  1
  Sb  Sb14  1  0.66878561  0.53088599  0.56226885  1
  Sb  Sb15  1  0.33121439  0.46911401  0.43773115  1
  Sb  Sb16  1  0.27339772  0.29042833  0.45617889  1
  Sb  Sb17  1  0.30718317  0.36953842  0.30952677  1
  Sb  Sb18  1  0.72660228  0.20957167  0.95617889  1
  Sb  Sb19  1  0.69281683  0.13046158  0.80952677  1
  Sb  Sb20  1  0.30718317  0.86953842  0.19047323  1
  Sb  Sb21  1  0.69281683  0.63046158  0.69047323  1
  Sb  Sb22  1  0.09478891  0.93835019  0.76856099  1
  Sb  Sb23  1  0.72660228  0.70957167  0.54382111  1
  Sb  Sb24  1  0.90521109  0.56164981  0.26856099  1
  Sb  Sb25  1  0.67963945  0.62403949  0.39535878  1
  Sb  Sb26  1  0.76285632  0.78172273  0.03467908  1
  Sb  Sb27  1  0.82058517  0.38663602  0.28376908  1
  Sb  Sb28  1  0.17941483  0.11336398  0.78376908  1
  Sb  Sb29  1  0.36422883  0.98486171  0.37964358  1
  Sb  Sb30  1  0.32036055  0.87596051  0.89535878  1
  Sb  Sb31  1  0.82058517  0.88663602  0.21623092  1
  Pb  Pb32  1  0.97360591  0.69182657  0.83978194  1
  Pb  Pb33  1  0.85021942  0.95300970  0.06959510  1
  Pb  Pb34  1  0.52149407  0.79130750  0.67751935  1
  Pb  Pb35  1  0.14978058  0.04699030  0.93040490  1
  Pb  Pb36  1  0.46763887  0.69353040  0.83864572  1
  Pb  Pb37  1  0.46763887  0.19353040  0.66135428  1
  Pb  Pb38  1  0.14978058  0.54699030  0.56959510  1
  Pb  Pb39  1  0.05672031  0.87718115  0.50023106  1
  Pb  Pb40  1  0.20321748  0.13107299  0.09493510  1
  Pb  Pb41  1  0.39703795  0.04037930  0.23302001  1
  Pb  Pb42  1  0.53236113  0.30646960  0.16135428  1
  Pb  Pb43  1  0.39703795  0.54037930  0.26697999  1
  Pb  Pb44  1  0.47850593  0.20869250  0.32248065  1
  Pb  Pb45  1  0.57564857  0.38870174  0.99984031  1
  Pb  Pb46  1  0.94327969  0.12281885  0.49976894  1
  Pb  Pb47  1  0.02639409  0.30817343  0.16021806  1
  Pb  Pb48  1  0.05672031  0.37718115  0.99976894  1
  Pb  Pb49  1  0.85021942  0.45300970  0.43040490  1
  Pb  Pb50  1  0.60296205  0.95962070  0.76697999  1
  Pb  Pb51  1  0.94327969  0.62281885  0.00023106  1
  Pb  Pb52  1  0.02639409  0.80817343  0.33978194  1
  Pb  Pb53  1  0.02178611  0.79505769  0.67496479  1
  Pb  Pb54  1  0.53236113  0.80646960  0.33864572  1
  Pb  Pb55  1  0.57564857  0.88870174  0.50015969  1
  Pb  Pb56  1  0.86777601  0.98597535  0.36502422  1
  Pb  Pb57  1  0.79678252  0.36892701  0.59493510  1
  Pb  Pb58  1  0.52149407  0.29130750  0.82248065  1
  Pb  Pb59  1  0.47850593  0.70869250  0.17751935  1
  Pb  Pb60  1  0.13222399  0.51402465  0.86502422  1
  Pb  Pb61  1  0.13222399  0.01402465  0.63497578  1
  Pb  Pb62  1  0.97360591  0.19182657  0.66021806  1
  Pb  Pb63  1  0.97821389  0.70494231  0.17496479  1
  Pb  Pb64  1  0.02178611  0.29505769  0.82503521  1
  Pb  Pb65  1  0.97821389  0.20494231  0.32503521  1
  Pb  Pb66  1  0.79678252  0.86892701  0.90506490  1
  Pb  Pb67  1  0.42435143  0.61129826  0.00015969  1
  Pb  Pb68  1  0.42435143  0.11129826  0.49984031  1
  Pb  Pb69  1  0.60296205  0.45962070  0.73302001  1
  Pb  Pb70  1  0.20321748  0.63107299  0.40506490  1
  Pb  Pb71  1  0.86777601  0.48597535  0.13497578  1
  S  S72  1  0.18744743  0.63193982  0.91464291  1
  S  S73  1  0.15555169  0.01407252  0.44432112  1
  S  S74  1  0.85934386  0.48893789  0.63391663  1
  S  S75  1  0.28690696  0.31440550  0.91184091  1
  S  S76  1  0.69099850  0.62615047  0.90831406  1
  S  S77  1  0.76169196  0.27826364  0.25118137  1
  S  S78  1  0.51206006  0.75473683  0.97325108  1
  S  S79  1  0.60849322  0.91912927  0.28022436  1
  S  S80  1  0.28690696  0.81440550  0.58815909  1
  S  S81  1  0.94264600  0.65618729  0.32856351  1
  S  S82  1  0.06720026  0.33272777  0.37500201  1
  S  S83  1  0.01598359  0.74838292  0.47286208  1
  S  S84  1  0.61308438  0.01127834  0.43940677  1
  S  S85  1  0.30900150  0.87384953  0.40831406  1
  S  S86  1  0.26476760  0.27678963  0.24947107  1
  S  S87  1  0.98401641  0.25161708  0.52713792  1
  S  S88  1  0.23830804  0.22173636  0.75118137  1
  S  S89  1  0.84919957  0.40217943  0.79320941  1
  S  S90  1  0.51201016  0.32691760  0.37525512  1
  S  S91  1  0.73523240  0.72321037  0.75052893  1
  S  S92  1  0.48793994  0.74526317  0.47325108  1
  S  S93  1  0.39150678  0.58087073  0.78022436  1
  S  S94  1  0.98401641  0.75161708  0.97286208  1
  S  S95  1  0.10664848  0.93500678  0.98716361  1
  S  S96  1  0.15555169  0.51407252  0.05567888  1
  S  S97  1  0.94264600  0.15618729  0.17143649  1
  S  S98  1  0.46823217  0.65434644  0.32727405  1
  S  S99  1  0.48798984  0.17308240  0.87525512  1
  S  S100  1  0.39150678  0.08087073  0.71977564  1
  S  S101  1  0.42306290  0.57137202  0.48094524  1
  S  S102  1  0.30900150  0.37384953  0.09168594  1
  S  S103  1  0.05735400  0.34381271  0.67143649  1
  S  S104  1  0.05735400  0.84381271  0.82856351  1
  S  S105  1  0.70031800  0.09432574  0.29538303  1
  S  S106  1  0.53176783  0.34565356  0.67272595  1
  S  S107  1  0.78319953  0.81342662  0.58430021  1
  S  S108  1  0.81255257  0.36806018  0.08535709  1
  S  S109  1  0.71309304  0.18559450  0.41184091  1
  S  S110  1  0.57693710  0.92862798  0.98094524  1
  S  S111  1  0.06720026  0.83272777  0.12499799  1
  S  S112  1  0.73523240  0.22321037  0.74947107  1
  S  S113  1  0.15080043  0.59782057  0.20679059  1
  S  S114  1  0.21680047  0.68657338  0.08430021  1
  S  S115  1  0.07311414  0.91678307  0.27660229  1
  S  S116  1  0.85934386  0.98893789  0.86608337  1
  S  S117  1  0.81255257  0.86806018  0.41464291  1
  S  S118  1  0.38691562  0.48872166  0.93940677  1
  S  S119  1  0.07311414  0.41678307  0.22339771  1
  S  S120  1  0.92688586  0.08321693  0.72339771  1
  S  S121  1  0.76169196  0.77826364  0.24881863  1
  S  S122  1  0.14065614  0.01106211  0.13391663  1
  S  S123  1  0.15080043  0.09782057  0.29320941  1
  S  S124  1  0.78319953  0.31342662  0.91569979  1
  S  S125  1  0.37157030  0.98216308  0.86057664  1
  S  S126  1  0.89335152  0.06499322  0.01283639  1
  S  S127  1  0.48793994  0.24526317  0.02674892  1
  S  S128  1  0.60849322  0.41912927  0.21977564  1
  S  S129  1  0.21680047  0.18657338  0.41569979  1
  S  S130  1  0.57693710  0.42862798  0.51905476  1
  S  S131  1  0.14065614  0.51106211  0.36608337  1
  S  S132  1  0.89335152  0.56499322  0.48716361  1
  S  S133  1  0.62842970  0.51783692  0.36057664  1
  S  S134  1  0.93279974  0.66727223  0.62499799  1
  S  S135  1  0.10664848  0.43500678  0.51283639  1
  S  S136  1  0.26476760  0.77678963  0.25052893  1
  S  S137  1  0.92688586  0.58321693  0.77660229  1
  S  S138  1  0.93279974  0.16727223  0.87500201  1
  S  S139  1  0.84444831  0.98592748  0.55567888  1
  S  S140  1  0.53176783  0.84565356  0.82727405  1
  S  S141  1  0.38691562  0.98872166  0.56059323  1
  S  S142  1  0.42306290  0.07137202  0.01905476  1
  S  S143  1  0.46823217  0.15434644  0.17272595  1
  S  S144  1  0.37157030  0.48216308  0.63942336  1
  S  S145  1  0.84919957  0.90217943  0.70679059  1
  S  S146  1  0.70031800  0.59432574  0.20461697  1
  S  S147  1  0.51206006  0.25473683  0.52674892  1
  S  S148  1  0.48798984  0.67308240  0.62474488  1
  S  S149  1  0.84444831  0.48592748  0.94432112  1
  S  S150  1  0.01598359  0.24838292  0.02713792  1
  S  S151  1  0.29968200  0.90567426  0.70461697  1
  S  S152  1  0.29968200  0.40567426  0.79538303  1
  S  S153  1  0.18744743  0.13193982  0.58535709  1
  S  S154  1  0.71309304  0.68559450  0.08815909  1
  S  S155  1  0.51201016  0.82691760  0.12474488  1
  S  S156  1  0.61308438  0.51127834  0.06059323  1
  S  S157  1  0.23830804  0.72173636  0.74881863  1
  S  S158  1  0.69099850  0.12615047  0.59168594  1
  S  S159  1  0.62842970  0.01783692  0.13942336  1
