# generated using pymatgen
data_Ba3MoN4
_symmetry_space_group_name_H-M   'P 1'
_cell_length_a   18.66712185
_cell_length_b   18.66712186
_cell_length_c   10.54457629
_cell_angle_alpha   90.00000000
_cell_angle_beta   90.00000000
_cell_angle_gamma   119.99999999
_symmetry_Int_Tables_number   1
_chemical_formula_structural   Ba3MoN4
_chemical_formula_sum   'Ba54 Mo18 N72'
_cell_volume   3182.10488305
_cell_formula_units_Z   18
loop_
 _symmetry_equiv_pos_site_id
 _symmetry_equiv_pos_as_xyz
  1  'x, y, z'
loop_
 _atom_site_type_symbol
 _atom_site_label
 _atom_site_symmetry_multiplicity
 _atom_site_fract_x
 _atom_site_fract_y
 _atom_site_fract_z
 _atom_site_occupancy
  Ba  Ba0  1  0.15240694  0.22913018  0.53243429  1
  Ba  Ba1  1  0.34738170  0.32620998  0.72378361  1
  Ba  Ba2  1  0.89875110  0.47218453  0.95871335  1
  Ba  Ba3  1  0.66666700  0.33333300  0.11686370  1
  Ba  Ba4  1  0.12159002  0.52052218  0.80417987  1
  Ba  Ba5  1  0.22131504  0.08299713  0.37916737  1
  Ba  Ba6  1  0.87840998  0.39893216  0.30417987  1
  Ba  Ba7  1  0.45091271  0.26404260  0.45518459  1
  Ba  Ba8  1  0.33117587  0.02160905  0.10246731  1
  Ba  Ba9  1  0.91700287  0.13831791  0.37916737  1
  Ba  Ba10  1  0.77868496  0.86168209  0.87916737  1
  Ba  Ba11  1  0.00000000  0.00000000  0.19276804  1
  Ba  Ba12  1  0.39893216  0.87840998  0.80417987  1
  Ba  Ba13  1  0.33333300  0.66666700  0.14124634  1
  Ba  Ba14  1  0.13831791  0.91700287  0.87916737  1
  Ba  Ba15  1  0.67379002  0.02117172  0.72378361  1
  Ba  Ba16  1  0.57343342  0.10124890  0.95871335  1
  Ba  Ba17  1  0.02160905  0.33117587  0.60246731  1
  Ba  Ba18  1  0.26404260  0.45091271  0.95518459  1
  Ba  Ba19  1  0.52052218  0.12159002  0.30417987  1
  Ba  Ba20  1  0.33333300  0.66666700  0.61686370  1
  Ba  Ba21  1  0.07672324  0.84759306  0.53243429  1
  Ba  Ba22  1  0.54908729  0.81312989  0.95518459  1
  Ba  Ba23  1  0.43617686  0.18415958  0.79803702  1
  Ba  Ba24  1  0.22913018  0.15240694  0.03243429  1
  Ba  Ba25  1  0.10124890  0.57343342  0.45871335  1
  Ba  Ba26  1  0.52781547  0.42656658  0.95871335  1
  Ba  Ba27  1  0.86168209  0.77868496  0.37916737  1
  Ba  Ba28  1  0.84759306  0.07672324  0.03243429  1
  Ba  Ba29  1  0.97839095  0.30956683  0.10246731  1
  Ba  Ba30  1  0.65261830  0.97882828  0.22378361  1
  Ba  Ba31  1  0.00000000  0.00000000  0.69276804  1
  Ba  Ba32  1  0.60106784  0.47947782  0.30417987  1
  Ba  Ba33  1  0.47218453  0.89875110  0.45871335  1
  Ba  Ba34  1  0.47947782  0.60106784  0.80417987  1
  Ba  Ba35  1  0.32620998  0.34738170  0.22378361  1
  Ba  Ba36  1  0.77086982  0.92327676  0.53243429  1
  Ba  Ba37  1  0.18687011  0.73595740  0.95518459  1
  Ba  Ba38  1  0.02117172  0.67379002  0.22378361  1
  Ba  Ba39  1  0.30956683  0.97839095  0.60246731  1
  Ba  Ba40  1  0.92327676  0.77086982  0.03243429  1
  Ba  Ba41  1  0.81584042  0.25201728  0.79803702  1
  Ba  Ba42  1  0.69043317  0.66882413  0.10246731  1
  Ba  Ba43  1  0.08299713  0.22131504  0.87916737  1
  Ba  Ba44  1  0.81312989  0.54908729  0.45518459  1
  Ba  Ba45  1  0.97882828  0.65261830  0.72378361  1
  Ba  Ba46  1  0.66666700  0.33333300  0.64124634  1
  Ba  Ba47  1  0.74798272  0.56382314  0.79803702  1
  Ba  Ba48  1  0.56382314  0.74798272  0.29803702  1
  Ba  Ba49  1  0.18415958  0.43617686  0.29803702  1
  Ba  Ba50  1  0.42656658  0.52781547  0.45871335  1
  Ba  Ba51  1  0.73595740  0.18687011  0.45518459  1
  Ba  Ba52  1  0.66882413  0.69043317  0.60246731  1
  Ba  Ba53  1  0.25201728  0.81584042  0.29803702  1
  Mo  Mo54  1  0.76464681  0.20442786  0.12019868  1
  Mo  Mo55  1  0.77320237  0.87832619  0.21309894  1
  Mo  Mo56  1  0.56021896  0.79557214  0.62019868  1
  Mo  Mo57  1  0.10512382  0.22679763  0.21309894  1
  Mo  Mo58  1  0.87832619  0.77320237  0.71309894  1
  Mo  Mo59  1  0.22679763  0.10512382  0.71309894  1
  Mo  Mo60  1  0.12167381  0.89487618  0.21309894  1
  Mo  Mo61  1  0.44195280  0.88999019  0.12422423  1
  Mo  Mo62  1  0.55196261  0.11000981  0.62422423  1
  Mo  Mo63  1  0.20442786  0.76464681  0.62019868  1
  Mo  Mo64  1  0.55804720  0.44803739  0.62422423  1
  Mo  Mo65  1  0.88999019  0.44195280  0.62422423  1
  Mo  Mo66  1  0.23535319  0.43978104  0.62019868  1
  Mo  Mo67  1  0.11000981  0.55196261  0.12422423  1
  Mo  Mo68  1  0.79557214  0.56021896  0.12019868  1
  Mo  Mo69  1  0.89487618  0.12167381  0.71309894  1
  Mo  Mo70  1  0.43978104  0.23535319  0.12019868  1
  Mo  Mo71  1  0.44803739  0.55804720  0.12422423  1
  N  N72  1  0.80163186  0.47439136  0.20618644  1
  N  N73  1  0.31176671  0.18068416  0.60308040  1
  N  N74  1  0.30885814  0.82792749  0.54360263  1
  N  N75  1  0.73075944  0.12113951  0.99624621  1
  N  N76  1  0.53234147  0.18865091  0.54409907  1
  N  N77  1  0.14780321  0.01158347  0.62193695  1
  N  N78  1  0.83682661  0.19469427  0.23555925  1
  N  N79  1  0.16099195  0.17782286  0.28896415  1
  N  N80  1  0.64213234  0.80530573  0.73555925  1
  N  N81  1  0.80530573  0.64213234  0.23555925  1
  N  N82  1  0.46765853  0.65630944  0.04409907  1
  N  N83  1  0.67275949  0.19836814  0.20618644  1
  N  N84  1  0.17207251  0.48093065  0.54360263  1
  N  N85  1  0.83900805  0.01683091  0.78896415  1
  N  N86  1  0.69114186  0.51906935  0.04360263  1
  N  N87  1  0.52047031  0.94304138  0.99441066  1
  N  N88  1  0.79756281  0.72689449  0.84189046  1
  N  N89  1  0.42257107  0.47952969  0.99441066  1
  N  N90  1  0.47439136  0.80163186  0.70618644  1
  N  N91  1  0.94304138  0.52047031  0.49441066  1
  N  N92  1  0.27310551  0.07066832  0.84189046  1
  N  N93  1  0.60961993  0.87886049  0.49624621  1
  N  N94  1  0.98316909  0.82217714  0.78896415  1
  N  N95  1  0.07066832  0.27310551  0.34189046  1
  N  N96  1  0.05695862  0.57742893  0.99441066  1
  N  N97  1  0.20243719  0.92933168  0.34189046  1
  N  N98  1  0.42308417  0.96281000  0.22697603  1
  N  N99  1  0.13621974  0.98841653  0.12193695  1
  N  N100  1  0.86378026  0.85219679  0.62193695  1
  N  N101  1  0.48080635  0.83361857  0.22605247  1
  N  N102  1  0.48093065  0.17207251  0.04360263  1
  N  N103  1  0.81931584  0.13108256  0.60308040  1
  N  N104  1  0.12113951  0.73075944  0.49624621  1
  N  N105  1  0.13108256  0.81931584  0.10308040  1
  N  N106  1  0.16317339  0.35786766  0.73555925  1
  N  N107  1  0.51919365  0.35281222  0.72605247  1
  N  N108  1  0.19836814  0.67275949  0.70618644  1
  N  N109  1  0.87886049  0.60961993  0.99624621  1
  N  N110  1  0.96281000  0.42308417  0.72697603  1
  N  N111  1  0.03719000  0.46027418  0.22697603  1
  N  N112  1  0.53972582  0.57691583  0.22697603  1
  N  N113  1  0.35281222  0.51919365  0.22605247  1
  N  N114  1  0.17782286  0.16099195  0.78896415  1
  N  N115  1  0.18068416  0.31176671  0.10308040  1
  N  N116  1  0.68823329  0.86891744  0.10308040  1
  N  N117  1  0.18865091  0.53234147  0.04409907  1
  N  N118  1  0.34369056  0.81134909  0.04409907  1
  N  N119  1  0.01683091  0.83900805  0.28896415  1
  N  N120  1  0.51906935  0.69114186  0.54360263  1
  N  N121  1  0.72689449  0.79756281  0.34189046  1
  N  N122  1  0.32724051  0.52560864  0.70618644  1
  N  N123  1  0.01158347  0.14780321  0.12193695  1
  N  N124  1  0.82792749  0.30885814  0.04360263  1
  N  N125  1  0.19469427  0.83682661  0.73555925  1
  N  N126  1  0.57742893  0.05695862  0.49441066  1
  N  N127  1  0.65630944  0.46765853  0.54409907  1
  N  N128  1  0.92933168  0.20243719  0.84189046  1
  N  N129  1  0.82217714  0.98316909  0.28896415  1
  N  N130  1  0.16638143  0.64718778  0.22605247  1
  N  N131  1  0.39038007  0.26924056  0.99624621  1
  N  N132  1  0.64718778  0.16638143  0.72605247  1
  N  N133  1  0.83361857  0.48080635  0.72605247  1
  N  N134  1  0.35786766  0.16317339  0.23555925  1
  N  N135  1  0.85219679  0.86378026  0.12193695  1
  N  N136  1  0.46027418  0.03719000  0.72697603  1
  N  N137  1  0.86891744  0.68823329  0.60308040  1
  N  N138  1  0.47952969  0.42257107  0.49441066  1
  N  N139  1  0.57691583  0.53972582  0.72697603  1
  N  N140  1  0.26924056  0.39038007  0.49624621  1
  N  N141  1  0.52560864  0.32724051  0.20618644  1
  N  N142  1  0.81134909  0.34369056  0.54409907  1
  N  N143  1  0.98841653  0.13621974  0.62193695  1
