# generated using pymatgen
data_K2Be3Zn2F12
_symmetry_space_group_name_H-M   'P 1'
_cell_length_a   10.12767542
_cell_length_b   10.12767542
_cell_length_c   10.12767542
_cell_angle_alpha   90.00000000
_cell_angle_beta   90.00000000
_cell_angle_gamma   90.00000000
_symmetry_Int_Tables_number   1
_chemical_formula_structural   K2Be3Zn2F12
_chemical_formula_sum   'K8 Be12 Zn8 F48'
_cell_volume   1038.79373762
_cell_formula_units_Z   4
loop_
 _symmetry_equiv_pos_site_id
 _symmetry_equiv_pos_as_xyz
  1  'x, y, z'
loop_
 _atom_site_type_symbol
 _atom_site_label
 _atom_site_symmetry_multiplicity
 _atom_site_fract_x
 _atom_site_fract_y
 _atom_site_fract_z
 _atom_site_occupancy
  Be  Be0  1  0.62665642  0.46292544  0.27120484  1
  Be  Be1  1  0.87334358  0.53707456  0.77120484  1
  Be  Be2  1  0.37334358  0.96292544  0.22879516  1
  Be  Be3  1  0.12665642  0.03707456  0.72879516  1
  Be  Be4  1  0.96292544  0.22879516  0.37334358  1
  Be  Be5  1  0.72879516  0.12665642  0.03707456  1
  Be  Be6  1  0.22879516  0.37334358  0.96292544  1
  Be  Be7  1  0.53707456  0.77120484  0.87334358  1
  Be  Be8  1  0.77120484  0.87334358  0.53707456  1
  Be  Be9  1  0.03707456  0.72879516  0.12665642  1
  Be  Be10  1  0.46292544  0.27120484  0.62665642  1
  Be  Be11  1  0.27120484  0.62665642  0.46292544  1
  F  F12  1  0.41650733  0.65673094  0.50019676  1
  F  F13  1  0.42563192  0.81777062  0.23780474  1
  F  F14  1  0.07436808  0.18222938  0.73780474  1
  F  F15  1  0.81777062  0.23780474  0.42563192  1
  F  F16  1  0.97588679  0.44290126  0.70274511  1
  F  F17  1  0.52411321  0.55709874  0.20274511  1
  F  F18  1  0.20274511  0.52411321  0.55709874  1
  F  F19  1  0.55709874  0.20274511  0.52411321  1
  F  F20  1  0.94290126  0.79725489  0.02411321  1
  F  F21  1  0.70274511  0.97588679  0.44290126  1
  F  F22  1  0.44290126  0.70274511  0.97588679  1
  F  F23  1  0.29725489  0.47588679  0.05709874  1
  F  F24  1  0.79725489  0.02411321  0.94290126  1
  F  F25  1  0.05709874  0.29725489  0.47588679  1
  F  F26  1  0.02411321  0.94290126  0.79725489  1
  F  F27  1  0.47588679  0.05709874  0.29725489  1
  F  F28  1  0.65673094  0.50019676  0.41650733  1
  F  F29  1  0.92563192  0.68222938  0.76219526  1
  F  F30  1  0.50019676  0.41650733  0.65673094  1
  F  F31  1  0.99980324  0.58349267  0.15673094  1
  F  F32  1  0.91650733  0.84326906  0.49980324  1
  F  F33  1  0.49980324  0.91650733  0.84326906  1
  F  F34  1  0.08349267  0.34326906  0.00019676  1
  F  F35  1  0.58349267  0.15673094  0.99980324  1
  F  F36  1  0.00019676  0.08349267  0.34326906  1
  F  F37  1  0.15673094  0.99980324  0.58349267  1
  F  F38  1  0.34326906  0.00019676  0.08349267  1
  F  F39  1  0.84326906  0.49980324  0.91650733  1
  F  F40  1  0.75630076  0.48405461  0.19049447  1
  F  F41  1  0.19049447  0.75630076  0.48405461  1
  F  F42  1  0.48405461  0.19049447  0.75630076  1
  F  F43  1  0.01594539  0.80950553  0.25630076  1
  F  F44  1  0.69049447  0.74369924  0.51594539  1
  F  F45  1  0.51594539  0.69049447  0.74369924  1
  F  F46  1  0.30950553  0.24369924  0.98405461  1
  F  F47  1  0.80950553  0.25630076  0.01594539  1
  F  F48  1  0.98405461  0.30950553  0.24369924  1
  F  F49  1  0.25630076  0.01594539  0.80950553  1
  F  F50  1  0.24369924  0.98405461  0.30950553  1
  F  F51  1  0.74369924  0.51594539  0.69049447  1
  F  F52  1  0.57436808  0.31777062  0.26219526  1
  F  F53  1  0.26219526  0.57436808  0.31777062  1
  F  F54  1  0.31777062  0.26219526  0.57436808  1
  F  F55  1  0.18222938  0.73780474  0.07436808  1
  F  F56  1  0.76219526  0.92563192  0.68222938  1
  F  F57  1  0.73780474  0.07436808  0.18222938  1
  F  F58  1  0.23780474  0.42563192  0.81777062  1
  F  F59  1  0.68222938  0.76219526  0.92563192  1
  K  K60  1  0.06290739  0.06290739  0.06290739  1
  K  K61  1  0.43709261  0.93709261  0.56290739  1
  K  K62  1  0.56290739  0.43709261  0.93709261  1
  K  K63  1  0.93709261  0.56290739  0.43709261  1
  K  K64  1  0.29849893  0.29849893  0.29849893  1
  K  K65  1  0.20150107  0.70150107  0.79849893  1
  K  K66  1  0.79849893  0.20150107  0.70150107  1
  K  K67  1  0.70150107  0.79849893  0.20150107  1
  Zn  Zn68  1  0.58439945  0.58439945  0.58439945  1
  Zn  Zn69  1  0.91560055  0.41560055  0.08439945  1
  Zn  Zn70  1  0.08439945  0.91560055  0.41560055  1
  Zn  Zn71  1  0.41560055  0.08439945  0.91560055  1
  Zn  Zn72  1  0.84911019  0.84911019  0.84911019  1
  Zn  Zn73  1  0.65088981  0.15088981  0.34911019  1
  Zn  Zn74  1  0.34911019  0.65088981  0.15088981  1
  Zn  Zn75  1  0.15088981  0.34911019  0.65088981  1
