# generated using pymatgen
data_SrCrBi12(Mo2O17)2
_symmetry_space_group_name_H-M   'P 1'
_cell_length_a   5.87921856
_cell_length_b   11.87989975
_cell_length_c   25.24782367
_cell_angle_alpha   101.82945546
_cell_angle_beta   90.00000000
_cell_angle_gamma   90.00000000
_symmetry_Int_Tables_number   1
_chemical_formula_structural   SrCrBi12(Mo2O17)2
_chemical_formula_sum   'Sr2 Cr2 Bi24 Mo8 O68'
_cell_volume   1725.97096901
_cell_formula_units_Z   2
loop_
 _symmetry_equiv_pos_site_id
 _symmetry_equiv_pos_as_xyz
  1  'x, y, z'
loop_
 _atom_site_type_symbol
 _atom_site_label
 _atom_site_symmetry_multiplicity
 _atom_site_fract_x
 _atom_site_fract_y
 _atom_site_fract_z
 _atom_site_occupancy
  Sr  Sr0  1  0.50000000  0.00000000  0.50000000  1
  Sr  Sr1  1  0.50000000  0.00000000  0.00000000  1
  Cr  Cr2  1  0.01641277  0.00000000  0.75000000  1
  Cr  Cr3  1  0.98358723  0.00000000  0.25000000  1
  Bi  Bi4  1  0.50535615  0.23055940  0.84073988  1
  Bi  Bi5  1  0.98739791  0.58316685  0.09266531  1
  Bi  Bi6  1  0.91613005  0.34095720  0.75457167  1
  Bi  Bi7  1  0.49365145  0.86175414  0.32126222  1
  Bi  Bi8  1  0.41843161  0.54046899  0.82558922  1
  Bi  Bi9  1  0.01755708  0.25857337  0.60044128  1
  Bi  Bi10  1  0.98244292  0.25857337  0.10044128  1
  Bi  Bi11  1  0.98244292  0.74142663  0.39955872  1
  Bi  Bi12  1  0.08386995  0.65904280  0.24542833  1
  Bi  Bi13  1  0.41843161  0.45953101  0.67441078  1
  Bi  Bi14  1  0.49464385  0.23055940  0.34073988  1
  Bi  Bi15  1  0.98739791  0.41683315  0.40733469  1
  Bi  Bi16  1  0.58156839  0.54046899  0.32558922  1
  Bi  Bi17  1  0.49464385  0.76944060  0.15926012  1
  Bi  Bi18  1  0.08386995  0.34095720  0.25457167  1
  Bi  Bi19  1  0.01755708  0.74142663  0.89955872  1
  Bi  Bi20  1  0.58156839  0.45953101  0.17441078  1
  Bi  Bi21  1  0.91613005  0.65904280  0.74542833  1
  Bi  Bi22  1  0.50634855  0.13824586  0.67873778  1
  Bi  Bi23  1  0.49365145  0.13824586  0.17873778  1
  Bi  Bi24  1  0.01260209  0.58316685  0.59266531  1
  Bi  Bi25  1  0.50634855  0.86175414  0.82126222  1
  Bi  Bi26  1  0.50535615  0.76944060  0.65926012  1
  Bi  Bi27  1  0.01260209  0.41683315  0.90733469  1
  Mo  Mo28  1  0.99158369  0.07360627  0.42250963  1
  Mo  Mo29  1  0.00841631  0.07360627  0.92250963  1
  Mo  Mo30  1  0.50737673  0.33178775  0.51235341  1
  Mo  Mo31  1  0.50737673  0.66821225  0.98764659  1
  Mo  Mo32  1  0.49262327  0.33178775  0.01235341  1
  Mo  Mo33  1  0.99158369  0.92639373  0.07749037  1
  Mo  Mo34  1  0.49262327  0.66821225  0.48764659  1
  Mo  Mo35  1  0.00841631  0.92639373  0.57749037  1
  O  O36  1  0.40887019  0.75747852  0.24246595  1
  O  O37  1  0.81720671  0.88222536  0.24086103  1
  O  O38  1  0.85137005  0.99799032  0.69638276  1
  O  O39  1  0.78474549  0.03546301  0.10483355  1
  O  O40  1  0.41495900  0.20623196  0.53619263  1
  O  O41  1  0.26736298  0.99324379  0.07962702  1
  O  O42  1  0.72684381  0.72764728  0.33330782  1
  O  O43  1  0.76631095  0.50000000  0.25000000  1
  O  O44  1  0.92959570  0.43950282  0.13396102  1
  O  O45  1  0.89702446  0.12200917  0.49054684  1
  O  O46  1  0.10297554  0.87799083  0.50945316  1
  O  O47  1  0.24778195  0.36975540  0.34521906  1
  O  O48  1  0.25916276  0.63740763  0.65913890  1
  O  O49  1  0.44746202  0.30140301  0.93997408  1
  O  O50  1  0.24259769  0.38740811  0.05064970  1
  O  O51  1  0.07040430  0.56049718  0.86603898  1
  O  O52  1  0.81720671  0.11777464  0.25913897  1
  O  O53  1  0.89702446  0.87799083  0.00945316  1
  O  O54  1  0.58504100  0.79376804  0.46380737  1
  O  O55  1  0.78474549  0.96453699  0.39516645  1
  O  O56  1  0.75221805  0.36975540  0.84521906  1
  O  O57  1  0.26736298  0.00675621  0.42037298  1
  O  O58  1  0.10297554  0.12200917  0.99054684  1
  O  O59  1  0.85137005  0.00200968  0.80361724  1
  O  O60  1  0.59112981  0.75747852  0.74246595  1
  O  O61  1  0.72623754  0.50000000  0.75000000  1
  O  O62  1  0.28008182  0.43144187  0.52791161  1
  O  O63  1  0.27376246  0.50000000  0.25000000  1
  O  O64  1  0.40887019  0.24252148  0.25753405  1
  O  O65  1  0.23168099  0.26149294  0.16387361  1
  O  O66  1  0.18279329  0.88222536  0.74086103  1
  O  O67  1  0.14862995  0.99799032  0.19638276  1
  O  O68  1  0.74083724  0.36259237  0.34086110  1
  O  O69  1  0.21525451  0.03546301  0.60483355  1
  O  O70  1  0.75740231  0.38740811  0.55064970  1
  O  O71  1  0.23168099  0.73850706  0.33612639  1
  O  O72  1  0.21525451  0.96453699  0.89516645  1
  O  O73  1  0.41495900  0.79376804  0.96380737  1
  O  O74  1  0.23368905  0.50000000  0.75000000  1
  O  O75  1  0.99449073  0.19679332  0.89091042  1
  O  O76  1  0.73263702  0.99324379  0.57962702  1
  O  O77  1  0.25916276  0.36259237  0.84086110  1
  O  O78  1  0.59112981  0.24252148  0.75753405  1
  O  O79  1  0.99449073  0.80320668  0.60908958  1
  O  O80  1  0.75740231  0.61259189  0.94935030  1
  O  O81  1  0.75221805  0.63024460  0.65478094  1
  O  O82  1  0.24259769  0.61259189  0.44935030  1
  O  O83  1  0.55253798  0.69859699  0.06002592  1
  O  O84  1  0.24778195  0.63024460  0.15478094  1
  O  O85  1  0.76831901  0.26149294  0.66387361  1
  O  O86  1  0.76831901  0.73850706  0.83612639  1
  O  O87  1  0.00550927  0.19679332  0.39091042  1
  O  O88  1  0.07040430  0.43950282  0.63396102  1
  O  O89  1  0.73263702  0.00675621  0.92037298  1
  O  O90  1  0.14862995  0.00200968  0.30361724  1
  O  O91  1  0.28008182  0.56855813  0.97208839  1
  O  O92  1  0.27315619  0.27235272  0.66669218  1
  O  O93  1  0.72684381  0.27235272  0.16669218  1
  O  O94  1  0.00550927  0.80320668  0.10908958  1
  O  O95  1  0.74083724  0.63740763  0.15913890  1
  O  O96  1  0.58504100  0.20623196  0.03619263  1
  O  O97  1  0.18279329  0.11777464  0.75913897  1
  O  O98  1  0.27315619  0.72764728  0.83330782  1
  O  O99  1  0.92959570  0.56049718  0.36603898  1
  O  O100  1  0.55253798  0.30140301  0.43997408  1
  O  O101  1  0.71991818  0.43144187  0.02791161  1
  O  O102  1  0.44746202  0.69859699  0.56002592  1
  O  O103  1  0.71991818  0.56855813  0.47208839  1
