# generated using pymatgen
data_CaSiSnO5
_symmetry_space_group_name_H-M   'P 1'
_cell_length_a   7.25869862
_cell_length_b   5.63789924
_cell_length_c   5.62448073
_cell_angle_alpha   106.09956664
_cell_angle_beta   103.70907657
_cell_angle_gamma   103.90871501
_symmetry_Int_Tables_number   1
_chemical_formula_structural   CaSiSnO5
_chemical_formula_sum   'Ca2 Si2 Sn2 O10'
_cell_volume   202.96702733
_cell_formula_units_Z   2
loop_
 _symmetry_equiv_pos_site_id
 _symmetry_equiv_pos_as_xyz
  1  'x, y, z'
loop_
 _atom_site_type_symbol
 _atom_site_label
 _atom_site_symmetry_multiplicity
 _atom_site_fract_x
 _atom_site_fract_y
 _atom_site_fract_z
 _atom_site_occupancy
  Ca  Ca0  1  0.75420532  0.83799835  0.16009304  1
  Ca  Ca1  1  0.24579468  0.16200165  0.83990696  1
  Si  Si2  1  0.25072737  0.81792386  0.18324736  1
  Si  Si3  1  0.74927263  0.18207614  0.81675264  1
  Sn  Sn4  1  0.50000000  0.50000000  0.50000000  1
  Sn  Sn5  1  0.00000000  0.50000000  0.50000000  1
  O  O6  1  0.24948700  0.40942771  0.58898329  1
  O  O7  1  0.75051300  0.59057229  0.41101671  1
  O  O8  1  0.08680238  0.75824935  0.89523868  1
  O  O9  1  0.91319762  0.24175065  0.10476132  1
  O  O10  1  0.41226720  0.10649577  0.24034487  1
  O  O11  1  0.58773280  0.89350423  0.75965513  1
  O  O12  1  0.62986964  0.39897870  0.82323229  1
  O  O13  1  0.37013036  0.60102130  0.17676771  1
  O  O14  1  0.86932588  0.17558510  0.59926526  1
  O  O15  1  0.13067412  0.82441490  0.40073474  1
