# generated using pymatgen
data_Rb3Yb2(PO4)3
_symmetry_space_group_name_H-M   'P 1'
_cell_length_a   15.11992272
_cell_length_b   15.11992287
_cell_length_c   15.11992337
_cell_angle_alpha   109.47122277
_cell_angle_beta   109.47122296
_cell_angle_gamma   109.47122017
_symmetry_Int_Tables_number   1
_chemical_formula_structural   Rb3Yb2(PO4)3
_chemical_formula_sum   'Rb24 Yb16 P24 O96'
_cell_volume   2660.88941051
_cell_formula_units_Z   8
loop_
 _symmetry_equiv_pos_site_id
 _symmetry_equiv_pos_as_xyz
  1  'x, y, z'
loop_
 _atom_site_type_symbol
 _atom_site_label
 _atom_site_symmetry_multiplicity
 _atom_site_fract_x
 _atom_site_fract_y
 _atom_site_fract_z
 _atom_site_occupancy
  Yb  Yb0  1  0.46516603  0.25000000  0.71516603  1
  Yb  Yb1  1  0.25000000  0.21115023  0.96115023  1
  Yb  Yb2  1  0.50000000  1.00000000  0.00928164  1
  Yb  Yb3  1  0.03483397  0.75000000  0.78483397  1
  Yb  Yb4  1  0.25000000  0.71516603  0.46516603  1
  Yb  Yb5  1  0.75000000  0.28884977  0.53884977  1
  Yb  Yb6  1  0.28884977  0.53884977  0.75000000  1
  Yb  Yb7  1  0.49071836  0.49071836  0.49071836  1
  Yb  Yb8  1  0.71516603  0.46516603  0.25000000  1
  Yb  Yb9  1  1.00000000  0.00928164  0.50000000  1
  Yb  Yb10  1  0.96115023  0.25000000  0.21115023  1
  Yb  Yb11  1  0.21115023  0.96115023  0.25000000  1
  Yb  Yb12  1  0.00928164  0.50000000  1.00000000  1
  Yb  Yb13  1  0.75000000  0.78483397  0.03483397  1
  Yb  Yb14  1  0.53884977  0.75000000  0.28884977  1
  Yb  Yb15  1  0.78483397  0.03483397  0.75000000  1
  Rb  Rb16  1  0.75000000  0.99372346  0.24372346  1
  Rb  Rb17  1  0.25000000  0.50627654  0.25627654  1
  Rb  Rb18  1  0.73775634  0.75000000  0.48775634  1
  Rb  Rb19  1  0.74910317  0.50000000  1.00000000  1
  Rb  Rb20  1  0.50039186  0.50000000  0.00000000  1
  Rb  Rb21  1  0.50627654  0.25627654  0.25000000  1
  Rb  Rb22  1  0.48775634  0.73775634  0.75000000  1
  Rb  Rb23  1  0.25627654  0.25000000  0.50627654  1
  Rb  Rb24  1  0.50000000  0.00000000  0.50039186  1
  Rb  Rb25  1  0.50000000  1.00000000  0.74910317  1
  Rb  Rb26  1  0.50000000  1.00000000  0.26000237  1
  Rb  Rb27  1  0.99960814  0.99960814  0.99960814  1
  Rb  Rb28  1  0.75000000  0.48775634  0.73775634  1
  Rb  Rb29  1  0.01224366  0.76224366  0.25000000  1
  Rb  Rb30  1  1.00000000  0.74910317  0.50000000  1
  Rb  Rb31  1  0.25000000  0.01224366  0.76224366  1
  Rb  Rb32  1  1.00000000  0.26000237  0.50000000  1
  Rb  Rb33  1  0.99372346  0.24372346  0.75000000  1
  Rb  Rb34  1  0.23999763  0.23999763  0.23999763  1
  Rb  Rb35  1  0.75089683  0.75089683  0.75089683  1
  Rb  Rb36  1  0.26000237  0.50000000  1.00000000  1
  Rb  Rb37  1  0.00000000  0.50039186  0.50000000  1
  Rb  Rb38  1  0.76224366  0.25000000  0.01224366  1
  Rb  Rb39  1  0.24372346  0.75000000  0.99372346  1
  P  P40  1  0.03521386  0.49250495  0.76111007  1
  P  P41  1  0.49250495  0.76111007  0.03521386  1
  P  P42  1  0.23139488  0.27410379  0.73888993  1
  P  P43  1  0.26247312  0.77631767  0.73374763  1
  P  P44  1  0.04270891  0.26860512  0.00749505  1
  P  P45  1  0.54257004  0.52872548  0.76625237  1
  P  P46  1  0.97127452  0.51384455  0.23752688  1
  P  P47  1  0.73888993  0.23139488  0.27410379  1
  P  P48  1  0.77631767  0.73374763  0.26247312  1
  P  P49  1  0.52872548  0.76625237  0.54257004  1
  P  P50  1  0.73374763  0.26247312  0.77631767  1
  P  P51  1  0.46478614  0.22589621  0.45729109  1
  P  P52  1  0.27410379  0.73888993  0.23139488  1
  P  P53  1  0.76625237  0.54257004  0.52872548  1
  P  P54  1  0.00749505  0.04270891  0.26860512  1
  P  P55  1  0.72368233  0.98615545  0.95742996  1
  P  P56  1  0.23752688  0.97127452  0.51384455  1
  P  P57  1  0.51384455  0.23752688  0.97127452  1
  P  P58  1  0.22589621  0.45729109  0.46478614  1
  P  P59  1  0.98615545  0.95742996  0.72368233  1
  P  P60  1  0.95742996  0.72368233  0.98615545  1
  P  P61  1  0.76111007  0.03521386  0.49250495  1
  P  P62  1  0.45729109  0.46478614  0.22589621  1
  P  P63  1  0.26860512  0.00749505  0.04270891  1
  O  O64  1  0.60982120  0.95861593  0.94328026  1
  O  O65  1  0.04623600  0.60391822  0.78419593  1
  O  O66  1  0.63962780  0.11674605  0.18968865  1
  O  O67  1  0.85721722  0.49151627  0.22064058  1
  O  O68  1  0.38955435  0.76433490  0.25091141  1
  O  O69  1  0.06463552  0.81098597  0.09336147  1
  O  O70  1  0.65739158  0.92747822  0.39989387  1
  O  O71  1  0.54138407  0.15120527  0.98466433  1
  O  O72  1  0.75364955  0.28237550  0.68901402  1
  O  O73  1  0.47241564  0.57252178  0.22991335  1
  O  O74  1  0.27008665  0.84260842  0.24250229  1
  O  O75  1  0.45376400  0.23795992  0.55768222  1
  O  O76  1  0.13864294  0.24908859  0.01342350  1
  O  O77  1  0.95861593  0.94328026  0.60982120  1
  O  O78  1  0.43536448  0.52872595  0.74635045  1
  O  O79  1  0.54888477  0.44108257  0.79530676  1
  O  O80  1  0.24908859  0.01342350  0.13864294  1
  O  O81  1  0.22064058  0.85721722  0.49151627  1
  O  O82  1  0.02758436  0.25749771  0.10010613  1
  O  O83  1  0.02288175  0.07294260  0.38325395  1
  O  O84  1  0.63657664  0.27935942  0.77087569  1
  O  O85  1  0.94328026  0.60982120  0.95861593  1
  O  O86  1  0.89608178  0.94231778  0.18027771  1
  O  O87  1  0.11044565  0.36135706  0.37478056  1
  O  O88  1  0.60780219  0.35422419  0.05891743  1
  O  O89  1  0.52872595  0.74635045  0.43536448  1
  O  O90  1  0.79530676  0.54888477  0.44108257  1
  O  O91  1  0.31031135  0.42705740  0.44993916  1
  O  O92  1  0.10010613  0.02758436  0.25749771  1
  O  O93  1  0.42705740  0.44993916  0.31031135  1
  O  O94  1  0.74635045  0.43536448  0.52872595  1
  O  O95  1  0.97127405  0.40663853  0.21762450  1
  O  O96  1  0.86342336  0.63429905  0.64278278  1
  O  O97  1  0.74642200  0.89219781  0.95111523  1
  O  O98  1  0.48657650  0.73566510  0.12521944  1
  O  O99  1  0.78419593  0.04623600  0.60391822  1
  O  O100  1  0.75357800  0.70469324  0.14577581  1
  O  O101  1  0.25091141  0.38955435  0.76433490  1
  O  O102  1  0.70469324  0.14577581  0.75357800  1
  O  O103  1  0.21762450  0.97127405  0.40663853  1
  O  O104  1  0.92747822  0.39989387  0.65739158  1
  O  O105  1  0.57252178  0.22991335  0.47241564  1
  O  O106  1  0.68901402  0.75364955  0.28237550  1
  O  O107  1  0.05891743  0.60780219  0.35422419  1
  O  O108  1  0.81098597  0.09336147  0.06463552  1
  O  O109  1  0.84260842  0.24250229  0.27008665  1
  O  O110  1  0.22991335  0.47241564  0.57252178  1
  O  O111  1  0.28237550  0.68901402  0.75364955  1
  O  O112  1  0.64278278  0.86342336  0.63429905  1
  O  O113  1  0.35422419  0.05891743  0.60780219  1
  O  O114  1  0.51533567  0.66654095  0.55671974  1
  O  O115  1  0.44993916  0.31031135  0.42705740  1
  O  O116  1  0.05006084  0.47711825  0.86037220  1
  O  O117  1  0.31972229  0.26204008  0.71580407  1
  O  O118  1  0.83345905  0.34879473  0.89017880  1
  O  O119  1  0.60391822  0.78419593  0.04623600  1
  O  O120  1  0.26204008  0.71580407  0.31972229  1
  O  O121  1  0.00848373  0.86570095  0.72912431  1
  O  O122  1  0.72912431  0.00848373  0.86570095  1
  O  O123  1  0.40663853  0.21762450  0.97127405  1
  O  O124  1  0.44108257  0.79530676  0.54888477  1
  O  O125  1  0.49151627  0.22064058  0.85721722  1
  O  O126  1  0.73566510  0.12521944  0.48657650  1
  O  O127  1  0.86037220  0.05006084  0.47711825  1
  O  O128  1  0.95111523  0.74642200  0.89219781  1
  O  O129  1  0.24250229  0.27008665  0.84260842  1
  O  O130  1  0.36135706  0.37478056  0.11044565  1
  O  O131  1  0.76433490  0.25091141  0.38955435  1
  O  O132  1  0.55768222  0.45376400  0.23795992  1
  O  O133  1  0.09336147  0.06463552  0.81098597  1
  O  O134  1  0.89219781  0.95111523  0.74642200  1
  O  O135  1  0.25749771  0.10010613  0.02758436  1
  O  O136  1  0.89017880  0.83345905  0.34879473  1
  O  O137  1  0.11674605  0.18968865  0.63962780  1
  O  O138  1  0.55671974  0.51533567  0.66654095  1
  O  O139  1  0.63429905  0.64278278  0.86342336  1
  O  O140  1  0.14577581  0.75357800  0.70469324  1
  O  O141  1  0.71580407  0.31972229  0.26204008  1
  O  O142  1  0.01342350  0.13864294  0.24908859  1
  O  O143  1  0.34879473  0.89017880  0.83345905  1
  O  O144  1  0.15120527  0.98466433  0.54138407  1
  O  O145  1  0.39989387  0.65739158  0.92747822  1
  O  O146  1  0.94231778  0.18027771  0.89608178  1
  O  O147  1  0.47711825  0.86037220  0.05006084  1
  O  O148  1  0.86570095  0.72912431  0.00848373  1
  O  O149  1  0.18968865  0.63962780  0.11674605  1
  O  O150  1  0.07294260  0.38325395  0.02288175  1
  O  O151  1  0.38325395  0.02288175  0.07294260  1
  O  O152  1  0.37478056  0.11044565  0.36135706  1
  O  O153  1  0.12521944  0.48657650  0.73566510  1
  O  O154  1  0.27935942  0.77087569  0.63657664  1
  O  O155  1  0.77087569  0.63657664  0.27935942  1
  O  O156  1  0.66654095  0.55671974  0.51533567  1
  O  O157  1  0.23795992  0.55768222  0.45376400  1
  O  O158  1  0.98466433  0.54138407  0.15120527  1
  O  O159  1  0.18027771  0.89608178  0.94231778  1
