# generated using pymatgen
data_In2Si(AgSe3)2
_symmetry_space_group_name_H-M   'P 1'
_cell_length_a   7.50738318
_cell_length_b   7.50738308
_cell_length_c   12.83073045
_cell_angle_alpha   73.23334899
_cell_angle_beta   73.23334921
_cell_angle_gamma   60.79399216
_symmetry_Int_Tables_number   1
_chemical_formula_structural   In2Si(AgSe3)2
_chemical_formula_sum   'In4 Si2 Ag4 Se12'
_cell_volume   594.86777993
_cell_formula_units_Z   2
loop_
 _symmetry_equiv_pos_site_id
 _symmetry_equiv_pos_as_xyz
  1  'x, y, z'
loop_
 _atom_site_type_symbol
 _atom_site_label
 _atom_site_symmetry_multiplicity
 _atom_site_fract_x
 _atom_site_fract_y
 _atom_site_fract_z
 _atom_site_occupancy
  In  In0  1  0.50943985  0.32304392  0.93892293  1
  In  In1  1  0.32304392  0.50943985  0.43892293  1
  In  In2  1  0.29309578  0.17527943  0.74144456  1
  In  In3  1  0.17527943  0.29309578  0.24144456  1
  Si  Si4  1  0.40264871  0.93389517  0.49807535  1
  Si  Si5  1  0.93389517  0.40264871  0.99807535  1
  Ag  Ag6  1  0.80388035  0.39606266  0.58486775  1
  Ag  Ag7  1  0.80742476  0.98963764  0.24737877  1
  Ag  Ag8  1  0.39606266  0.80388035  0.08486775  1
  Ag  Ag9  1  0.98963764  0.80742476  0.74737877  1
  Se  Se10  1  0.10869652  0.60006540  0.95031069  1
  Se  Se11  1  0.10046263  0.08705968  0.94561447  1
  Se  Se12  1  0.64583873  0.17016924  0.75343156  1
  Se  Se13  1  0.08705968  0.10046263  0.44561447  1
  Se  Se14  1  0.52680052  0.05222248  0.12671729  1
  Se  Se15  1  0.82994269  0.36183940  0.18575749  1
  Se  Se16  1  0.60006540  0.10869652  0.45031069  1
  Se  Se17  1  0.17016924  0.64583873  0.25343156  1
  Se  Se18  1  0.05222248  0.52680052  0.62671729  1
  Se  Se19  1  0.64656384  0.60153062  0.91457914  1
  Se  Se20  1  0.60153062  0.64656384  0.41457914  1
  Se  Se21  1  0.36183940  0.82994269  0.68575749  1
