# generated using pymatgen
data_BaCa(CO3)2
_symmetry_space_group_name_H-M   'P 1'
_cell_length_a   5.29952936
_cell_length_b   6.64467915
_cell_length_c   8.29826859
_cell_angle_alpha   106.08291780
_cell_angle_beta   90.00000000
_cell_angle_gamma   90.00000000
_symmetry_Int_Tables_number   1
_chemical_formula_structural   BaCa(CO3)2
_chemical_formula_sum   'Ba2 Ca2 C4 O12'
_cell_volume   280.77583566
_cell_formula_units_Z   2
loop_
 _symmetry_equiv_pos_site_id
 _symmetry_equiv_pos_as_xyz
  1  'x, y, z'
loop_
 _atom_site_type_symbol
 _atom_site_label
 _atom_site_symmetry_multiplicity
 _atom_site_fract_x
 _atom_site_fract_y
 _atom_site_fract_z
 _atom_site_occupancy
  Ba  Ba0  1  0.73164067  0.71079003  0.85681938  1
  Ba  Ba1  1  0.23164067  0.28920997  0.14318062  1
  Ca  Ca2  1  0.22309828  0.20038227  0.62042583  1
  Ca  Ca3  1  0.72309828  0.79961773  0.37957417  1
  C  C4  1  0.72404329  0.24362778  0.89066715  1
  C  C5  1  0.22404329  0.75637222  0.10933285  1
  C  C6  1  0.22430085  0.74471780  0.61592855  1
  C  C7  1  0.72430085  0.25528220  0.38407145  1
  O  O8  1  0.71090880  0.13294774  0.99586276  1
  O  O9  1  0.21090880  0.86705226  0.00413724  1
  O  O10  1  0.94266030  0.29848162  0.84483119  1
  O  O11  1  0.44266030  0.70151838  0.15516881  1
  O  O12  1  0.51985969  0.31244164  0.83687866  1
  O  O13  1  0.01985969  0.68755836  0.16312134  1
  O  O14  1  0.19777476  0.56921646  0.64946238  1
  O  O15  1  0.69777476  0.43078354  0.35053762  1
  O  O16  1  0.44619630  0.82832405  0.60972543  1
  O  O17  1  0.94619630  0.17167595  0.39027457  1
  O  O18  1  0.02651705  0.85330283  0.59412642  1
  O  O19  1  0.52651705  0.14669717  0.40587358  1
