# generated using pymatgen
data_TlP(HO2)2
_symmetry_space_group_name_H-M   'P 1'
_cell_length_a   4.50963742
_cell_length_b   14.43627339
_cell_length_c   6.58999302
_cell_angle_alpha   90.00000000
_cell_angle_beta   90.00000000
_cell_angle_gamma   90.00000000
_symmetry_Int_Tables_number   1
_chemical_formula_structural   TlP(HO2)2
_chemical_formula_sum   'Tl4 P4 H8 O16'
_cell_volume   429.02408932
_cell_formula_units_Z   4
loop_
 _symmetry_equiv_pos_site_id
 _symmetry_equiv_pos_as_xyz
  1  'x, y, z'
loop_
 _atom_site_type_symbol
 _atom_site_label
 _atom_site_symmetry_multiplicity
 _atom_site_fract_x
 _atom_site_fract_y
 _atom_site_fract_z
 _atom_site_occupancy
  Tl  Tl0  1  0.00000000  0.87142095  0.75000000  1
  Tl  Tl1  1  0.50000000  0.62857905  0.25000000  1
  Tl  Tl2  1  0.00000000  0.12857905  0.25000000  1
  Tl  Tl3  1  0.50000000  0.37142095  0.75000000  1
  P  P4  1  0.00000000  0.62473214  0.75000000  1
  P  P5  1  0.50000000  0.87526786  0.25000000  1
  P  P6  1  0.00000000  0.37526786  0.25000000  1
  P  P7  1  0.50000000  0.12473214  0.75000000  1
  H  H8  1  0.00000000  0.50000000  0.50000000  1
  H  H9  1  0.50000000  0.00000000  0.00000000  1
  H  H10  1  0.50000000  0.00000000  0.50000000  1
  H  H11  1  0.00000000  0.50000000  0.00000000  1
  H  H12  1  0.00000000  0.18454381  0.75000000  1
  H  H13  1  0.50000000  0.31545619  0.25000000  1
  H  H14  1  0.00000000  0.81545619  0.25000000  1
  H  H15  1  0.50000000  0.68454381  0.75000000  1
  O  O16  1  0.12960770  0.56383538  0.57661019  1
  O  O17  1  0.37039230  0.93616462  0.07661019  1
  O  O18  1  0.62960770  0.93616462  0.42338981  1
  O  O19  1  0.87039230  0.56383538  0.92338981  1
  O  O20  1  0.87039230  0.43616462  0.42338981  1
  O  O21  1  0.62960770  0.06383538  0.92338981  1
  O  O22  1  0.37039230  0.06383538  0.57661019  1
  O  O23  1  0.12960770  0.43616462  0.07661019  1
  O  O24  1  0.74297409  0.68766233  0.67170367  1
  O  O25  1  0.75702591  0.81233767  0.17170367  1
  O  O26  1  0.24297409  0.81233767  0.32829633  1
  O  O27  1  0.25702591  0.68766233  0.82829633  1
  O  O28  1  0.25702591  0.31233767  0.32829633  1
  O  O29  1  0.24297409  0.18766233  0.82829633  1
  O  O30  1  0.75702591  0.18766233  0.67170367  1
  O  O31  1  0.74297409  0.31233767  0.17170367  1
