# generated using pymatgen
data_Cd2P3Cl
_symmetry_space_group_name_H-M   'P 1'
_cell_length_a   6.11736221
_cell_length_b   6.11736221
_cell_length_c   7.64860641
_cell_angle_alpha   83.00445681
_cell_angle_beta   96.99554319
_cell_angle_gamma   83.12744711
_symmetry_Int_Tables_number   1
_chemical_formula_structural   Cd2P3Cl
_chemical_formula_sum   'Cd4 P6 Cl2'
_cell_volume   279.34128309
_cell_formula_units_Z   2
loop_
 _symmetry_equiv_pos_site_id
 _symmetry_equiv_pos_as_xyz
  1  'x, y, z'
loop_
 _atom_site_type_symbol
 _atom_site_label
 _atom_site_symmetry_multiplicity
 _atom_site_fract_x
 _atom_site_fract_y
 _atom_site_fract_z
 _atom_site_occupancy
  Cd  Cd0  1  0.89519621  0.40986876  0.78671124  1
  Cd  Cd1  1  0.40986876  0.89519621  0.71328876  1
  Cd  Cd2  1  0.10480379  0.59013124  0.21328876  1
  Cd  Cd3  1  0.59013124  0.10480379  0.28671124  1
  P  P4  1  0.33932368  0.56900419  0.53459375  1
  P  P5  1  0.56900419  0.33932368  0.96540625  1
  P  P6  1  0.66067632  0.43099581  0.46540625  1
  P  P7  1  0.43099581  0.66067632  0.03459375  1
  P  P8  1  0.30478196  0.30478196  0.75000000  1
  P  P9  1  0.69521804  0.69521804  0.25000000  1
  Cl  Cl10  1  0.86132160  0.86132160  0.75000000  1
  Cl  Cl11  1  0.13867840  0.13867840  0.25000000  1
