# generated using pymatgen
data_InAs
_symmetry_space_group_name_H-M   'P 1'
_cell_length_a   7.56617267
_cell_length_b   7.56617267
_cell_length_c   7.56617267
_cell_angle_alpha   90.00000000
_cell_angle_beta   90.00000000
_cell_angle_gamma   90.00000000
_symmetry_Int_Tables_number   1
_chemical_formula_structural   InAs
_chemical_formula_sum   'In8 As8'
_cell_volume   433.14045132
_cell_formula_units_Z   8
loop_
 _symmetry_equiv_pos_site_id
 _symmetry_equiv_pos_as_xyz
  1  'x, y, z'
loop_
 _atom_site_type_symbol
 _atom_site_label
 _atom_site_symmetry_multiplicity
 _atom_site_fract_x
 _atom_site_fract_y
 _atom_site_fract_z
 _atom_site_occupancy
  As  As0  1  0.14086575  0.35913425  0.64086575  1
  As  As1  1  0.35913425  0.64086575  0.14086575  1
  As  As2  1  0.64086575  0.14086575  0.35913425  1
  As  As3  1  0.85913425  0.85913425  0.85913425  1
  As  As4  1  0.85913425  0.64086575  0.35913425  1
  As  As5  1  0.64086575  0.35913425  0.85913425  1
  As  As6  1  0.35913425  0.85913425  0.64086575  1
  As  As7  1  0.14086575  0.14086575  0.14086575  1
  In  In8  1  0.34331052  0.15668948  0.84331052  1
  In  In9  1  0.15668948  0.84331052  0.34331052  1
  In  In10  1  0.84331052  0.34331052  0.15668948  1
  In  In11  1  0.65668948  0.65668948  0.65668948  1
  In  In12  1  0.65668948  0.84331052  0.15668948  1
  In  In13  1  0.84331052  0.15668948  0.65668948  1
  In  In14  1  0.15668948  0.65668948  0.84331052  1
  In  In15  1  0.34331052  0.34331052  0.34331052  1
