# generated using pymatgen
data_U4Ga12Co
_symmetry_space_group_name_H-M   'P 1'
_cell_length_a   7.41172169
_cell_length_b   7.41172980
_cell_length_c   7.41170040
_cell_angle_alpha   109.47157930
_cell_angle_beta   109.47118384
_cell_angle_gamma   109.47129662
_symmetry_Int_Tables_number   1
_chemical_formula_structural   U4Ga12Co
_chemical_formula_sum   'U4 Ga12 Co1'
_cell_volume   313.42419117
_cell_formula_units_Z   1
loop_
 _symmetry_equiv_pos_site_id
 _symmetry_equiv_pos_as_xyz
  1  'x, y, z'
loop_
 _atom_site_type_symbol
 _atom_site_label
 _atom_site_symmetry_multiplicity
 _atom_site_fract_x
 _atom_site_fract_y
 _atom_site_fract_z
 _atom_site_occupancy
  U  U0  1  -0.00000071  0.99999908  0.49999707  1
  U  U1  1  0.00000265  0.50000383  0.00000113  1
  U  U2  1  0.49999877  0.49999931  0.50000228  1
  U  U3  1  0.50000144  0.00000110  0.00000109  1
  Ga  Ga4  1  0.74999692  0.24999730  0.49999439  1
  Ga  Ga5  1  0.28158702  -0.00000040  0.28157992  1
  Ga  Ga6  1  0.71841359  0.71841916  0.99999913  1
  Ga  Ga7  1  0.00000424  0.71841742  0.71841857  1
  Ga  Ga8  1  0.25000337  0.50000699  0.75000308  1
  Ga  Ga9  1  0.49999887  0.75000172  0.24999711  1
  Ga  Ga10  1  0.25000293  0.75000177  0.50000501  1
  Ga  Ga11  1  0.50000067  0.24999797  0.75000312  1
  Ga  Ga12  1  0.99999449  0.28158147  0.28158024  1
  Ga  Ga13  1  0.74999610  0.49999255  0.24999635  1
  Ga  Ga14  1  0.28158635  0.28158116  0.00000178  1
  Ga  Ga15  1  0.71841298  0.99999938  0.71841973  1
  Co  Co16  1  0.00000033  0.00000018  0.00000001  1
