# generated using pymatgen
data_Co2W4C
_symmetry_space_group_name_H-M   'P 1'
_cell_length_a   8.01279242
_cell_length_b   8.01329552
_cell_length_c   8.01294261
_cell_angle_alpha   59.99776027
_cell_angle_beta   59.99629028
_cell_angle_gamma   59.99739571
_symmetry_Int_Tables_number   1
_chemical_formula_structural   Co2W4C
_chemical_formula_sum   'Co8 W16 C4'
_cell_volume   363.78434765
_cell_formula_units_Z   4
loop_
 _symmetry_equiv_pos_site_id
 _symmetry_equiv_pos_as_xyz
  1  'x, y, z'
loop_
 _atom_site_type_symbol
 _atom_site_label
 _atom_site_symmetry_multiplicity
 _atom_site_fract_x
 _atom_site_fract_y
 _atom_site_fract_z
 _atom_site_occupancy
  Co  Co0  1  0.61940687  0.29353649  0.29351408  1
  Co  Co1  1  0.29350857  0.29352257  0.61943880  1
  Co  Co2  1  0.29348342  0.61952180  0.29347285  1
  Co  Co3  1  0.70648900  0.70645797  0.38059557  1
  Co  Co4  1  0.38059694  0.70645230  0.70649621  1
  Co  Co5  1  0.29350065  0.29353302  0.29349329  1
  Co  Co6  1  0.70649261  0.70646374  0.70650349  1
  Co  Co7  1  0.70649072  0.38053885  0.70650540  1
  W  W8  1  0.49998179  0.50001084  0.00002584  1
  W  W9  1  0.31331313  0.93666565  0.93670921  1
  W  W10  1  0.68669603  0.06331634  0.06329015  1
  W  W11  1  0.06331373  0.68668861  0.06330168  1
  W  W12  1  0.68670387  0.06327562  0.68671078  1
  W  W13  1  0.68669631  0.68669041  0.06327651  1
  W  W14  1  0.06329998  0.06331610  0.68669510  1
  W  W15  1  0.93672091  0.93666454  0.31330546  1
  W  W16  1  0.49998534  0.00000983  0.50000118  1
  W  W17  1  0.31330561  0.93670006  0.31330201  1
  W  W18  1  0.06328699  0.68668192  0.68669496  1
  W  W19  1  0.93668439  0.31332371  0.93667219  1
  W  W20  1  0.93672678  0.31330799  0.31330196  1
  W  W21  1  0.00003564  0.50000208  0.49998831  1
  W  W22  1  0.49996971  0.50001625  0.49998398  1
  W  W23  1  0.31330721  0.31331004  0.93671667  1
  C  C24  1  -0.00000170  0.00000659  0.99999649  1
  C  C25  1  0.00000516  0.99999395  0.50000580  1
  C  C26  1  0.50000283  -0.00000516  0.00000515  1
  C  C27  1  -0.00000249  0.49999790  0.99999686  1
