# generated using pymatgen
data_SeCl4
_symmetry_space_group_name_H-M   'P 1'
_cell_length_a   16.94188475
_cell_length_b   16.94188475
_cell_length_c   16.94188475
_cell_angle_alpha   90.00000000
_cell_angle_beta   90.00000000
_cell_angle_gamma   90.00000000
_symmetry_Int_Tables_number   1
_chemical_formula_structural   SeCl4
_chemical_formula_sum   'Se32 Cl128'
_cell_volume   4862.78612847
_cell_formula_units_Z   32
loop_
 _symmetry_equiv_pos_site_id
 _symmetry_equiv_pos_as_xyz
  1  'x, y, z'
loop_
 _atom_site_type_symbol
 _atom_site_label
 _atom_site_symmetry_multiplicity
 _atom_site_fract_x
 _atom_site_fract_y
 _atom_site_fract_z
 _atom_site_occupancy
  Se  Se0  1  0.09147358  0.59861129  0.66943587  1
  Se  Se1  1  0.83056413  0.90138871  0.59147358  1
  Se  Se2  1  0.08830315  0.91169685  0.91169685  1
  Se  Se3  1  0.40138871  0.66943587  0.90852642  1
  Se  Se4  1  0.59147358  0.83056413  0.90138871  1
  Se  Se5  1  0.90852642  0.40138871  0.66943587  1
  Se  Se6  1  0.40138871  0.33056413  0.09147358  1
  Se  Se7  1  0.59861129  0.66943587  0.09147358  1
  Se  Se8  1  0.58830315  0.41169685  0.41169685  1
  Se  Se9  1  0.16943587  0.90138871  0.40852642  1
  Se  Se10  1  0.91169685  0.91169685  0.08830315  1
  Se  Se11  1  0.41169685  0.58830315  0.41169685  1
  Se  Se12  1  0.09861129  0.59147358  0.16943587  1
  Se  Se13  1  0.83056413  0.09861129  0.40852642  1
  Se  Se14  1  0.33056413  0.09147358  0.40138871  1
  Se  Se15  1  0.33056413  0.90852642  0.59861129  1
  Se  Se16  1  0.40852642  0.16943587  0.90138871  1
  Se  Se17  1  0.66943587  0.90852642  0.40138871  1
  Se  Se18  1  0.90852642  0.59861129  0.33056413  1
  Se  Se19  1  0.90138871  0.40852642  0.16943587  1
  Se  Se20  1  0.66943587  0.09147358  0.59861129  1
  Se  Se21  1  0.08830315  0.08830315  0.08830315  1
  Se  Se22  1  0.41169685  0.41169685  0.58830315  1
  Se  Se23  1  0.58830315  0.58830315  0.58830315  1
  Se  Se24  1  0.40852642  0.83056413  0.09861129  1
  Se  Se25  1  0.90138871  0.59147358  0.83056413  1
  Se  Se26  1  0.09861129  0.40852642  0.83056413  1
  Se  Se27  1  0.91169685  0.08830315  0.91169685  1
  Se  Se28  1  0.16943587  0.09861129  0.59147358  1
  Se  Se29  1  0.59861129  0.33056413  0.90852642  1
  Se  Se30  1  0.09147358  0.40138871  0.33056413  1
  Se  Se31  1  0.59147358  0.16943587  0.09861129  1
  Cl  Cl32  1  0.03842299  0.09893514  0.59556081  1
  Cl  Cl33  1  0.27939102  0.18703053  0.90280657  1
  Cl  Cl34  1  0.27939102  0.81296947  0.09719343  1
  Cl  Cl35  1  0.28146210  0.58374397  0.42139223  1
  Cl  Cl36  1  0.17022256  0.07147666  0.42129593  1
  Cl  Cl37  1  0.78146210  0.07860777  0.91625603  1
  Cl  Cl38  1  0.57694613  0.42305387  0.57694613  1
  Cl  Cl39  1  0.31832795  0.07629848  0.27270663  1
  Cl  Cl40  1  0.59893514  0.53842299  0.09556081  1
  Cl  Cl41  1  0.09893514  0.40443919  0.96157701  1
  Cl  Cl42  1  0.82977744  0.07147666  0.57870407  1
  Cl  Cl43  1  0.18703053  0.09719343  0.72060898  1
  Cl  Cl44  1  0.53842299  0.09556081  0.59893514  1
  Cl  Cl45  1  0.59556081  0.03842299  0.09893514  1
  Cl  Cl46  1  0.22729337  0.57629848  0.18167205  1
  Cl  Cl47  1  0.92305387  0.07694613  0.07694613  1
  Cl  Cl48  1  0.40106486  0.53842299  0.90443919  1
  Cl  Cl49  1  0.90443919  0.59893514  0.46157701  1
  Cl  Cl50  1  0.42852334  0.32977744  0.92129593  1
  Cl  Cl51  1  0.31832795  0.92370152  0.72729337  1
  Cl  Cl52  1  0.21853790  0.92139223  0.91625603  1
  Cl  Cl53  1  0.78146210  0.92139223  0.08374397  1
  Cl  Cl54  1  0.57694613  0.57694613  0.42305387  1
  Cl  Cl55  1  0.71853790  0.41625603  0.42139223  1
  Cl  Cl56  1  0.32977744  0.07870407  0.57147666  1
  Cl  Cl57  1  0.09556081  0.40106486  0.46157701  1
  Cl  Cl58  1  0.40106486  0.46157701  0.09556081  1
  Cl  Cl59  1  0.68703053  0.22060898  0.59719343  1
  Cl  Cl60  1  0.67022256  0.92129593  0.57147666  1
  Cl  Cl61  1  0.72060898  0.18703053  0.09719343  1
  Cl  Cl62  1  0.57870407  0.17022256  0.92852334  1
  Cl  Cl63  1  0.90106486  0.40443919  0.03842299  1
  Cl  Cl64  1  0.40443919  0.03842299  0.90106486  1
  Cl  Cl65  1  0.57147666  0.32977744  0.07870407  1
  Cl  Cl66  1  0.32977744  0.92129593  0.42852334  1
  Cl  Cl67  1  0.28146210  0.41625603  0.57860777  1
  Cl  Cl68  1  0.71853790  0.58374397  0.57860777  1
  Cl  Cl69  1  0.57629848  0.81832795  0.77270663  1
  Cl  Cl70  1  0.53842299  0.90443919  0.40106486  1
  Cl  Cl71  1  0.92129593  0.42852334  0.32977744  1
  Cl  Cl72  1  0.67022256  0.07870407  0.42852334  1
  Cl  Cl73  1  0.42305387  0.42305387  0.42305387  1
  Cl  Cl74  1  0.07629848  0.72729337  0.68167205  1
  Cl  Cl75  1  0.92139223  0.08374397  0.78146210  1
  Cl  Cl76  1  0.58374397  0.42139223  0.28146210  1
  Cl  Cl77  1  0.81832795  0.77270663  0.57629848  1
  Cl  Cl78  1  0.31296947  0.22060898  0.40280657  1
  Cl  Cl79  1  0.59556081  0.96157701  0.90106486  1
  Cl  Cl80  1  0.96157701  0.09893514  0.40443919  1
  Cl  Cl81  1  0.18167205  0.22729337  0.57629848  1
  Cl  Cl82  1  0.08374397  0.21853790  0.07860777  1
  Cl  Cl83  1  0.09719343  0.72060898  0.18703053  1
  Cl  Cl84  1  0.77270663  0.57629848  0.81832795  1
  Cl  Cl85  1  0.92852334  0.42129593  0.82977744  1
  Cl  Cl86  1  0.22060898  0.40280657  0.31296947  1
  Cl  Cl87  1  0.18167205  0.77270663  0.42370152  1
  Cl  Cl88  1  0.27270663  0.68167205  0.92370152  1
  Cl  Cl89  1  0.17022256  0.92852334  0.57870407  1
  Cl  Cl90  1  0.68167205  0.92370152  0.27270663  1
  Cl  Cl91  1  0.57147666  0.67022256  0.92129593  1
  Cl  Cl92  1  0.82977744  0.92852334  0.42129593  1
  Cl  Cl93  1  0.09556081  0.59893514  0.53842299  1
  Cl  Cl94  1  0.42305387  0.57694613  0.57694613  1
  Cl  Cl95  1  0.41625603  0.57860777  0.28146210  1
  Cl  Cl96  1  0.90280657  0.27939102  0.18703053  1
  Cl  Cl97  1  0.03842299  0.90106486  0.40443919  1
  Cl  Cl98  1  0.42139223  0.28146210  0.58374397  1
  Cl  Cl99  1  0.59719343  0.68703053  0.22060898  1
  Cl  Cl100  1  0.91625603  0.78146210  0.07860777  1
  Cl  Cl101  1  0.72060898  0.81296947  0.90280657  1
  Cl  Cl102  1  0.90106486  0.59556081  0.96157701  1
  Cl  Cl103  1  0.07860777  0.91625603  0.78146210  1
  Cl  Cl104  1  0.22729337  0.42370152  0.81832795  1
  Cl  Cl105  1  0.77939102  0.40280657  0.68703053  1
  Cl  Cl106  1  0.46157701  0.09556081  0.40106486  1
  Cl  Cl107  1  0.77939102  0.59719343  0.31296947  1
  Cl  Cl108  1  0.42129593  0.17022256  0.07147666  1
  Cl  Cl109  1  0.92370152  0.72729337  0.31832795  1
  Cl  Cl110  1  0.07694613  0.07694613  0.92305387  1
  Cl  Cl111  1  0.92305387  0.92305387  0.92305387  1
  Cl  Cl112  1  0.92370152  0.27270663  0.68167205  1
  Cl  Cl113  1  0.42370152  0.81832795  0.22729337  1
  Cl  Cl114  1  0.96157701  0.90106486  0.59556081  1
  Cl  Cl115  1  0.92852334  0.57870407  0.17022256  1
  Cl  Cl116  1  0.90280657  0.72060898  0.81296947  1
  Cl  Cl117  1  0.81296947  0.90280657  0.72060898  1
  Cl  Cl118  1  0.27270663  0.31832795  0.07629848  1
  Cl  Cl119  1  0.42370152  0.18167205  0.77270663  1
  Cl  Cl120  1  0.07629848  0.27270663  0.31832795  1
  Cl  Cl121  1  0.07694613  0.92305387  0.07694613  1
  Cl  Cl122  1  0.46157701  0.90443919  0.59893514  1
  Cl  Cl123  1  0.92129593  0.57147666  0.67022256  1
  Cl  Cl124  1  0.58374397  0.57860777  0.71853790  1
  Cl  Cl125  1  0.42129593  0.82977744  0.92852334  1
  Cl  Cl126  1  0.57860777  0.71853790  0.58374397  1
  Cl  Cl127  1  0.22060898  0.59719343  0.68703053  1
  Cl  Cl128  1  0.09893514  0.59556081  0.03842299  1
  Cl  Cl129  1  0.42852334  0.67022256  0.07870407  1
  Cl  Cl130  1  0.09719343  0.27939102  0.81296947  1
  Cl  Cl131  1  0.91625603  0.21853790  0.92139223  1
  Cl  Cl132  1  0.42139223  0.71853790  0.41625603  1
  Cl  Cl133  1  0.07147666  0.42129593  0.17022256  1
  Cl  Cl134  1  0.57870407  0.82977744  0.07147666  1
  Cl  Cl135  1  0.40443919  0.96157701  0.09893514  1
  Cl  Cl136  1  0.68167205  0.07629848  0.72729337  1
  Cl  Cl137  1  0.07870407  0.57147666  0.32977744  1
  Cl  Cl138  1  0.59893514  0.46157701  0.90443919  1
  Cl  Cl139  1  0.68703053  0.77939102  0.40280657  1
  Cl  Cl140  1  0.90443919  0.40106486  0.53842299  1
  Cl  Cl141  1  0.40280657  0.31296947  0.22060898  1
  Cl  Cl142  1  0.31296947  0.77939102  0.59719343  1
  Cl  Cl143  1  0.07870407  0.42852334  0.67022256  1
  Cl  Cl144  1  0.57860777  0.28146210  0.41625603  1
  Cl  Cl145  1  0.07860777  0.08374397  0.21853790  1
  Cl  Cl146  1  0.81832795  0.22729337  0.42370152  1
  Cl  Cl147  1  0.92139223  0.91625603  0.21853790  1
  Cl  Cl148  1  0.18703053  0.90280657  0.27939102  1
  Cl  Cl149  1  0.21853790  0.07860777  0.08374397  1
  Cl  Cl150  1  0.72729337  0.31832795  0.92370152  1
  Cl  Cl151  1  0.72729337  0.68167205  0.07629848  1
  Cl  Cl152  1  0.07147666  0.57870407  0.82977744  1
  Cl  Cl153  1  0.77270663  0.42370152  0.18167205  1
  Cl  Cl154  1  0.57629848  0.18167205  0.22729337  1
  Cl  Cl155  1  0.81296947  0.09719343  0.27939102  1
  Cl  Cl156  1  0.59719343  0.31296947  0.77939102  1
  Cl  Cl157  1  0.40280657  0.68703053  0.77939102  1
  Cl  Cl158  1  0.08374397  0.78146210  0.92139223  1
  Cl  Cl159  1  0.41625603  0.42139223  0.71853790  1
