# generated using pymatgen
data_NaLaTiO4
_symmetry_space_group_name_H-M   'P 1'
_cell_length_a   3.78824360
_cell_length_b   3.78824360
_cell_length_c   13.21042070
_cell_angle_alpha   90.00000000
_cell_angle_beta   90.00000000
_cell_angle_gamma   90.00000000
_symmetry_Int_Tables_number   1
_chemical_formula_structural   NaLaTiO4
_chemical_formula_sum   'Na2 La2 Ti2 O8'
_cell_volume   189.57996764
_cell_formula_units_Z   2
loop_
 _symmetry_equiv_pos_site_id
 _symmetry_equiv_pos_as_xyz
  1  'x, y, z'
loop_
 _atom_site_type_symbol
 _atom_site_label
 _atom_site_symmetry_multiplicity
 _atom_site_fract_x
 _atom_site_fract_y
 _atom_site_fract_z
 _atom_site_occupancy
  O  O0  1  0.75000000  0.75000000  0.93069719  1
  O  O1  1  0.25000000  0.25000000  0.06930281  1
  O  O2  1  0.75000000  0.75000000  0.59187628  1
  O  O3  1  0.25000000  0.25000000  0.40812372  1
  O  O4  1  0.75000000  0.25000000  0.23866875  1
  O  O5  1  0.25000000  0.75000000  0.23866875  1
  O  O6  1  0.75000000  0.25000000  0.76133125  1
  O  O7  1  0.25000000  0.75000000  0.76133125  1
  Na  Na8  1  0.25000000  0.25000000  0.58330655  1
  Na  Na9  1  0.75000000  0.75000000  0.41669345  1
  Ti  Ti10  1  0.25000000  0.25000000  0.27496235  1
  Ti  Ti11  1  0.75000000  0.75000000  0.72503765  1
  La  La12  1  0.75000000  0.75000000  0.10919440  1
  La  La13  1  0.25000000  0.25000000  0.89080560  1
