# generated using pymatgen
data_Nb2Ni4O9
_symmetry_space_group_name_H-M   'P 1'
_cell_length_a   10.21240486
_cell_length_b   10.23681689
_cell_length_c   15.36080827
_cell_angle_alpha   80.45556686
_cell_angle_beta   70.58442156
_cell_angle_gamma   60.07885489
_symmetry_Int_Tables_number   1
_chemical_formula_structural   Nb2Ni4O9
_chemical_formula_sum   'Nb16 Ni32 O72'
_cell_volume   1312.66776790
_cell_formula_units_Z   8
loop_
 _symmetry_equiv_pos_site_id
 _symmetry_equiv_pos_as_xyz
  1  'x, y, z'
loop_
 _atom_site_type_symbol
 _atom_site_label
 _atom_site_symmetry_multiplicity
 _atom_site_fract_x
 _atom_site_fract_y
 _atom_site_fract_z
 _atom_site_occupancy
  Nb  Nb0  1  0.98482078  0.72529163  0.35523689  1
  Nb  Nb1  1  0.45482492  0.69484493  0.35441431  1
  Nb  Nb2  1  0.29086545  0.22414450  0.64485656  1
  Nb  Nb3  1  0.05674844  0.69601345  0.14577965  1
  Nb  Nb4  1  0.68572201  0.72414450  0.85514344  1
  Nb  Nb5  1  0.28988759  0.72529163  0.64476311  1
  Nb  Nb6  1  0.68465071  0.22529163  0.85523689  1
  Nb  Nb7  1  0.55923923  0.19484493  0.14558569  1
  Nb  Nb8  1  0.48499006  0.22414450  0.35514344  1
  Nb  Nb9  1  0.24723811  0.69601345  0.85422035  1
  Nb  Nb10  1  0.85033015  0.69484493  0.64558569  1
  Nb  Nb11  1  0.85145846  0.19601345  0.64577965  1
  Nb  Nb12  1  0.09005766  0.22529163  0.14476311  1
  Nb  Nb13  1  0.59013350  0.72414450  0.14485656  1
  Nb  Nb14  1  0.24591585  0.19484493  0.85441431  1
  Nb  Nb15  1  0.95252808  0.19601345  0.35422035  1
  Ni  Ni16  1  0.81830289  0.88072302  0.99774400  1
  Ni  Ni17  1  0.90036571  0.87882643  0.81375985  1
  Ni  Ni18  1  0.30097410  0.88072302  0.00225600  1
  Ni  Ni19  1  0.32216565  0.04242531  0.31242329  1
  Ni  Ni20  1  0.05323010  0.38072302  0.49774400  1
  Ni  Ni21  1  0.97392968  0.05214063  0.00000000  1
  Ni  Ni22  1  0.72392968  0.55214063  0.50000000  1
  Ni  Ni23  1  0.46412557  0.37882643  0.68624015  1
  Ni  Ni24  1  0.47856545  0.04286910  0.00000000  1
  Ni  Ni25  1  0.23758276  0.04533455  0.49666061  1
  Ni  Ni26  1  0.63540905  0.04242531  0.68757671  1
  Ni  Ni27  1  0.46505448  0.87799811  0.68554497  1
  Ni  Ni28  1  0.30647303  0.38705395  0.00000000  1
  Ni  Ni29  1  0.72140244  0.37799811  0.18554497  1
  Ni  Ni30  1  0.22856545  0.54286910  0.50000000  1
  Ni  Ni31  1  0.22080786  0.87882643  0.18624015  1
  Ni  Ni32  1  0.65694741  0.87799811  0.31445503  1
  Ni  Ni33  1  0.88467996  0.04281296  0.18580797  1
  Ni  Ni34  1  0.82048793  0.54281296  0.31419203  1
  Ni  Ni35  1  0.07298576  0.54242531  0.81242329  1
  Ni  Ni36  1  0.81352618  0.37294765  0.00000000  1
  Ni  Ni37  1  0.71708269  0.04533455  0.50333939  1
  Ni  Ni38  1  0.56352618  0.87294765  0.50000000  1
  Ni  Ni39  1  0.97042208  0.54533455  0.99666061  1
  Ni  Ni40  1  0.56604689  0.38072302  0.50225600  1
  Ni  Ni41  1  0.90059945  0.37799811  0.81445503  1
  Ni  Ni42  1  0.38458893  0.54242531  0.18757671  1
  Ni  Ni43  1  0.07250707  0.04281296  0.81419203  1
  Ni  Ni44  1  0.48424338  0.54533455  0.00333939  1
  Ni  Ni45  1  0.15704801  0.37882643  0.31375985  1
  Ni  Ni46  1  0.05647303  0.88705395  0.50000000  1
  Ni  Ni47  1  0.63669911  0.54281296  0.68580797  1
  O  O48  1  0.51123048  0.21145129  0.59705061  1
  O  O49  1  0.51205997  0.38452441  0.92716842  1
  O  O50  1  0.17627087  0.04993368  0.91779820  1
  O  O51  1  0.52277273  0.06069952  0.24815766  1
  O  O52  1  0.77379544  0.04993368  0.08220180  1
  O  O53  1  0.02872596  0.20972330  0.57155817  1
  O  O54  1  0.26847480  0.85696772  0.74956347  1
  O  O55  1  0.61683330  0.21273598  0.75184435  1
  O  O56  1  0.35028413  0.70972330  0.92844183  1
  O  O57  1  0.84235907  0.04838642  0.58857312  1
  O  O58  1  0.11947760  0.21069256  0.74911400  1
  O  O59  1  0.52093039  0.56069952  0.25184234  1
  O  O60  1  0.76155074  0.20972330  0.42844183  1
  O  O61  1  0.43026762  0.71145129  0.09705061  1
  O  O62  1  0.43399756  0.21229770  0.07680649  1
  O  O63  1  0.51214193  0.71415789  0.59367887  1
  O  O64  1  0.43749060  0.37888172  0.42656897  1
  O  O65  1  0.60599724  0.54993368  0.41779820  1
  O  O66  1  0.02739095  0.88006992  0.90425280  1
  O  O67  1  0.59987526  0.03999580  0.41624637  1
  O  O68  1  0.68164376  0.38006992  0.59574720  1
  O  O69  1  0.37650763  0.85617647  0.24904994  1
  O  O70  1  0.02400791  0.37808993  0.90421969  1
  O  O71  1  0.84406908  0.54993368  0.58220180  1
  O  O72  1  0.76612163  0.53999580  0.08375363  1
  O  O73  1  0.61859160  0.71069256  0.75088600  1
  O  O74  1  0.91837009  0.56069952  0.74815766  1
  O  O75  1  0.27731823  0.21145129  0.40294939  1
  O  O76  1  0.91669787  0.06402381  0.75076570  1
  O  O77  1  0.02689826  0.71229770  0.57680649  1
  O  O78  1  0.18362768  0.37888172  0.57343103  1
  O  O79  1  0.66982984  0.21069256  0.25088600  1
  O  O80  1  0.85582080  0.21415789  0.90632113  1
  O  O81  1  0.92624721  0.88452441  0.42716842  1
  O  O82  1  0.26543860  0.04097134  0.08515665  1
  O  O83  1  0.67071584  0.71069256  0.24911400  1
  O  O84  1  0.41652775  0.06069952  0.75184234  1
  O  O85  1  0.35843342  0.54097134  0.58515665  1
  O  O86  1  0.01851262  0.56402381  0.25076570  1
  O  O87  1  0.93002131  0.21415789  0.09367887  1
  O  O88  1  0.10925450  0.04838642  0.41142688  1
  O  O89  1  0.76731590  0.85617647  0.75095006  1
  O  O90  1  0.01927832  0.06402381  0.24923430  1
  O  O91  1  0.87455748  0.85696772  0.25043653  1
  O  O92  1  0.26080405  0.71229770  0.42319351  1
  O  O93  1  0.93828632  0.38006992  0.40425280  1
  O  O94  1  0.09253913  0.88006992  0.09574720  1
  O  O95  1  0.87499401  0.35696772  0.24956347  1
  O  O96  1  0.59790217  0.37808993  0.09578031  1
  O  O97  1  0.36012894  0.03999580  0.58375363  1
  O  O98  1  0.77370018  0.71415789  0.40632113  1
  O  O99  1  0.18922838  0.88452441  0.57283158  1
  O  O100  1  0.16858637  0.71273598  0.25184435  1
  O  O101  1  0.44368247  0.87808993  0.40421969  1
  O  O102  1  0.67822760  0.87808993  0.59578031  1
  O  O103  1  0.17043072  0.21273598  0.24815565  1
  O  O104  1  0.69388257  0.53999580  0.91624637  1
  O  O105  1  0.50705871  0.87888172  0.92656897  1
  O  O106  1  0.18093219  0.54838642  0.91142688  1
  O  O107  1  0.26826595  0.35617647  0.74904994  1
  O  O108  1  0.61405957  0.87888172  0.07343103  1
  O  O109  1  0.76803827  0.35696772  0.75043653  1
  O  O110  1  0.10059525  0.54097134  0.41484335  1
  O  O111  1  0.37555758  0.35617647  0.25095006  1
  O  O112  1  0.41746357  0.56402381  0.74923430  1
  O  O113  1  0.85828109  0.71145129  0.90294939  1
  O  O114  1  0.10341563  0.38452441  0.07283158  1
  O  O115  1  0.11867765  0.71273598  0.74815565  1
  O  O116  1  0.69359007  0.04097134  0.91484335  1
  O  O117  1  0.27068138  0.54838642  0.08857312  1
  O  O118  1  0.35370475  0.21229770  0.92319351  1
  O  O119  1  0.93999256  0.70972330  0.07155817  1
