# generated using pymatgen
data_KDy(PO3)4
_symmetry_space_group_name_H-M   'P 1'
_cell_length_a   7.46993925
_cell_length_b   7.46993924
_cell_length_c   10.57754036
_cell_angle_alpha   101.13606329
_cell_angle_beta   101.13606327
_cell_angle_gamma   115.45823618
_symmetry_Int_Tables_number   1
_chemical_formula_structural   KDy(PO3)4
_chemical_formula_sum   'K2 Dy2 P8 O24'
_cell_volume   496.82608811
_cell_formula_units_Z   2
loop_
 _symmetry_equiv_pos_site_id
 _symmetry_equiv_pos_as_xyz
  1  'x, y, z'
loop_
 _atom_site_type_symbol
 _atom_site_label
 _atom_site_symmetry_multiplicity
 _atom_site_fract_x
 _atom_site_fract_y
 _atom_site_fract_z
 _atom_site_occupancy
  O  O0  1  0.70341868  0.19935734  0.89242273  1
  O  O1  1  0.80064266  0.29658132  0.60757727  1
  O  O2  1  0.29658132  0.80064266  0.10757727  1
  O  O3  1  0.19935734  0.70341868  0.39242273  1
  O  O4  1  0.90665940  0.51505510  0.11326100  1
  O  O5  1  0.48494490  0.09334060  0.38673900  1
  O  O6  1  0.09334060  0.48494490  0.88673900  1
  O  O7  1  0.51505510  0.90665940  0.61326100  1
  O  O8  1  0.64277747  0.50753898  0.91111037  1
  O  O9  1  0.49246102  0.35722253  0.58888963  1
  O  O10  1  0.35722253  0.49246102  0.08888963  1
  O  O11  1  0.50753898  0.64277747  0.41111037  1
  O  O12  1  0.75405258  0.82809662  0.83526580  1
  O  O13  1  0.17190338  0.24594742  0.66473420  1
  O  O14  1  0.24594742  0.17190338  0.16473420  1
  O  O15  1  0.82809662  0.75405258  0.33526580  1
  O  O16  1  0.83901065  0.86420405  0.09240018  1
  O  O17  1  0.13579595  0.16098935  0.40759982  1
  O  O18  1  0.16098935  0.13579595  0.90759982  1
  O  O19  1  0.86420405  0.83901065  0.59240018  1
  O  O20  1  0.47069370  0.72951971  0.94120139  1
  O  O21  1  0.27048029  0.52930630  0.55879861  1
  O  O22  1  0.52930630  0.27048029  0.05879861  1
  O  O23  1  0.72951971  0.47069370  0.44120139  1
  P  P24  1  0.71391372  0.37765025  0.99368457  1
  P  P25  1  0.62234975  0.28608628  0.50631543  1
  P  P26  1  0.28608628  0.62234975  0.00631543  1
  P  P27  1  0.37765025  0.71391372  0.49368457  1
  P  P28  1  0.75024951  0.69671752  0.44863308  1
  P  P29  1  0.30328248  0.24975049  0.05136692  1
  P  P30  1  0.24975049  0.30328248  0.55136692  1
  P  P31  1  0.69671752  0.75024951  0.94863308  1
  K  K32  1  0.18932134  0.81067866  0.75000000  1
  K  K33  1  0.81067866  0.18932134  0.25000000  1
  Dy  Dy34  1  0.12034106  0.87965894  0.25000000  1
  Dy  Dy35  1  0.87965894  0.12034106  0.75000000  1
