# generated using pymatgen
data_Sr4GaCN5
_symmetry_space_group_name_H-M   'P 1'
_cell_length_a   7.47600994
_cell_length_b   7.50334753
_cell_length_c   13.59038561
_cell_angle_alpha   98.11543270
_cell_angle_beta   90.00000000
_cell_angle_gamma   90.00000000
_symmetry_Int_Tables_number   1
_chemical_formula_structural   Sr4GaCN5
_chemical_formula_sum   'Sr16 Ga4 C4 N20'
_cell_volume   754.71958418
_cell_formula_units_Z   4
loop_
 _symmetry_equiv_pos_site_id
 _symmetry_equiv_pos_as_xyz
  1  'x, y, z'
loop_
 _atom_site_type_symbol
 _atom_site_label
 _atom_site_symmetry_multiplicity
 _atom_site_fract_x
 _atom_site_fract_y
 _atom_site_fract_z
 _atom_site_occupancy
  Sr  Sr0  1  0.24791748  0.00649717  0.98722035  1
  Sr  Sr1  1  0.15515757  0.83290231  0.66819350  1
  Sr  Sr2  1  0.97936194  0.21524912  0.81919631  1
  Sr  Sr3  1  0.67859256  0.98492528  0.64660566  1
  Sr  Sr4  1  0.82140744  0.48492528  0.64660566  1
  Sr  Sr5  1  0.25208252  0.50649717  0.98722035  1
  Sr  Sr6  1  0.84484243  0.16709769  0.33180650  1
  Sr  Sr7  1  0.75208252  0.99350283  0.01277965  1
  Sr  Sr8  1  0.17859256  0.51507472  0.35339434  1
  Sr  Sr9  1  0.34484243  0.33290231  0.66819350  1
  Sr  Sr10  1  0.52063806  0.71524912  0.81919631  1
  Sr  Sr11  1  0.47936194  0.28475088  0.18080369  1
  Sr  Sr12  1  0.02063806  0.78475088  0.18080369  1
  Sr  Sr13  1  0.65515757  0.66709769  0.33180650  1
  Sr  Sr14  1  0.32140744  0.01507472  0.35339434  1
  Sr  Sr15  1  0.74791748  0.49350283  0.01277965  1
  Ga  Ga16  1  0.48636158  0.79081203  0.14539094  1
  Ga  Ga17  1  0.98636158  0.70918797  0.85460906  1
  Ga  Ga18  1  0.51363842  0.20918797  0.85460906  1
  Ga  Ga19  1  0.01363842  0.29081203  0.14539094  1
  C  C20  1  0.44775997  0.70517136  0.54595720  1
  C  C21  1  0.55224003  0.29482864  0.45404280  1
  C  C22  1  0.05224003  0.20517136  0.54595720  1
  C  C23  1  0.94775997  0.79482864  0.45404280  1
  N  N24  1  0.34460825  0.64092122  0.21830955  1
  N  N25  1  0.49655581  0.64208756  0.62142305  1
  N  N26  1  0.89414737  0.71984458  0.52368377  1
  N  N27  1  0.10585263  0.28015542  0.47631623  1
  N  N28  1  0.50344419  0.35791244  0.37857695  1
  N  N29  1  0.00387250  0.25657087  0.00365619  1
  N  N30  1  0.49612750  0.75657087  0.00365619  1
  N  N31  1  0.99612750  0.74342913  0.99634381  1
  N  N32  1  0.39414737  0.78015542  0.47631623  1
  N  N33  1  0.35734940  0.04238462  0.77483552  1
  N  N34  1  0.65539175  0.35907878  0.78169045  1
  N  N35  1  0.15539175  0.14092122  0.21830955  1
  N  N36  1  0.00344419  0.14208756  0.62142305  1
  N  N37  1  0.85734940  0.45761538  0.22516448  1
  N  N38  1  0.84460825  0.85907878  0.78169045  1
  N  N39  1  0.64265060  0.95761538  0.22516448  1
  N  N40  1  0.50387250  0.24342913  0.99634381  1
  N  N41  1  0.60585263  0.21984458  0.52368377  1
  N  N42  1  0.99655581  0.85791244  0.37857695  1
  N  N43  1  0.14265060  0.54238462  0.77483552  1
