# generated using pymatgen
data_SiO2
_symmetry_space_group_name_H-M   'P 1'
_cell_length_a   8.63855458
_cell_length_b   13.41332116
_cell_length_c   15.84519850
_cell_angle_alpha   70.46250784
_cell_angle_beta   74.17993341
_cell_angle_gamma   71.21257103
_symmetry_Int_Tables_number   1
_chemical_formula_structural   SiO2
_chemical_formula_sum   'Si28 O56'
_cell_volume   1609.88171715
_cell_formula_units_Z   28
loop_
 _symmetry_equiv_pos_site_id
 _symmetry_equiv_pos_as_xyz
  1  'x, y, z'
loop_
 _atom_site_type_symbol
 _atom_site_label
 _atom_site_symmetry_multiplicity
 _atom_site_fract_x
 _atom_site_fract_y
 _atom_site_fract_z
 _atom_site_occupancy
  Si  Si0  1  0.87188025  0.09997294  0.78599118  1
  Si  Si1  1  0.18884873  0.13805998  0.11314347  1
  Si  Si2  1  0.60955542  0.24668656  0.90422693  1
  Si  Si3  1  0.07911609  0.69703576  0.77829852  1
  Si  Si4  1  0.52918727  0.91268989  0.40151901  1
  Si  Si5  1  0.81115127  0.86194002  0.88685653  1
  Si  Si6  1  0.15656547  0.91270788  0.40150856  1
  Si  Si7  1  0.55441622  0.30296575  0.22169760  1
  Si  Si8  1  0.03462547  0.15791249  0.40241768  1
  Si  Si9  1  0.12811975  0.90002706  0.21400882  1
  Si  Si10  1  0.92088391  0.30296424  0.22170148  1
  Si  Si11  1  0.40505450  0.15790068  0.40242054  1
  Si  Si12  1  0.44007622  0.86194732  0.88685095  1
  Si  Si13  1  0.24220203  0.09998810  0.78597894  1
  Si  Si14  1  0.84343453  0.08729212  0.59849144  1
  Si  Si15  1  0.96537453  0.84208751  0.59758232  1
  Si  Si16  1  0.55992378  0.13805268  0.11314905  1
  Si  Si17  1  0.00804863  0.52023618  0.09387817  1
  Si  Si18  1  0.76044283  0.75330898  0.09578067  1
  Si  Si19  1  0.39044458  0.75331344  0.09577307  1
  Si  Si20  1  0.59494550  0.84209932  0.59757946  1
  Si  Si21  1  0.62219827  0.47975027  0.90613204  1
  Si  Si22  1  0.75779797  0.90001190  0.21402106  1
  Si  Si23  1  0.37780173  0.52024973  0.09386796  1
  Si  Si24  1  0.23955717  0.24669102  0.90421933  1
  Si  Si25  1  0.99195137  0.47976382  0.90612183  1
  Si  Si26  1  0.47081273  0.08731011  0.59848099  1
  Si  Si27  1  0.44558378  0.69703425  0.77830240  1
  O  O28  1  0.06584612  0.74381655  0.67093283  1
  O  O29  1  0.40348341  0.16016984  0.50456666  1
  O  O30  1  0.94737626  0.95883086  0.61558435  1
  O  O31  1  0.65470047  0.09968433  0.59092511  1
  O  O32  1  0.82767304  0.82316366  0.99356568  1
  O  O33  1  0.21719314  0.17534113  0.39028851  1
  O  O34  1  0.34361340  0.13155255  0.68202118  1
  O  O35  1  0.93415388  0.25618345  0.32906717  1
  O  O36  1  0.65638660  0.86844745  0.31797882  1
  O  O37  1  0.40189760  0.62554127  0.11247488  1
  O  O38  1  0.13997544  0.37447441  0.88750305  1
  O  O39  1  0.06699407  0.08092421  0.78516727  1
  O  O40  1  0.01558471  0.58583032  0.82098994  1
  O  O41  1  0.18653757  0.01060135  0.15390292  1
  O  O42  1  0.23834764  0.80007083  0.17011231  1
  O  O43  1  0.03413586  0.21170646  0.16836223  1
  O  O44  1  0.78280686  0.82465887  0.60971149  1
  O  O45  1  0.48059085  0.25616691  0.32906059  1
  O  O46  1  0.93181035  0.16014696  0.50457215  1
  O  O47  1  0.86002456  0.62552559  0.11249695  1
  O  O48  1  0.63817596  0.84683331  0.87680808  1
  O  O49  1  0.47819628  0.95885862  0.61555694  1
  O  O50  1  0.59810240  0.37445873  0.88752512  1
  O  O51  1  0.20854610  0.19995337  0.82987839  1
  O  O52  1  0.57762482  0.58584727  0.82099649  1
  O  O53  1  0.35113191  0.98941891  0.84607733  1
  O  O54  1  0.81346243  0.98939865  0.84609708  1
  O  O55  1  0.34529953  0.90031567  0.40907489  1
  O  O56  1  0.56311715  0.76534478  0.10843110  1
  O  O57  1  0.79145390  0.80004663  0.17012161  1
  O  O58  1  0.43688285  0.23465522  0.89156890  1
  O  O59  1  0.06818965  0.83985304  0.49542785  1
  O  O60  1  0.27117487  0.66899368  0.78871002  1
  O  O61  1  0.96586414  0.78829354  0.83163777  1
  O  O62  1  0.64441093  0.17680947  0.00646077  1
  O  O63  1  0.58582548  0.21167110  0.16837168  1
  O  O64  1  0.18647788  0.54219291  0.08478658  1
  O  O65  1  0.93300593  0.91907579  0.21483273  1
  O  O66  1  0.81352212  0.45780709  0.91521342  1
  O  O67  1  0.50000000  0.50000000  -0.00000000  1
  O  O68  1  0.51940915  0.74383309  0.67093941  1
  O  O69  1  0.15711583  0.86847398  0.31797165  1
  O  O70  1  0.98441529  0.41416968  0.17901006  1
  O  O71  1  0.42237518  0.41415273  0.17900351  1
  O  O72  1  0.36182404  0.15316669  0.12319192  1
  O  O73  1  0.72882513  0.33100632  0.21128998  1
  O  O74  1  0.05262374  0.04116914  0.38441565  1
  O  O75  1  0.17232696  0.17683634  0.00643432  1
  O  O76  1  -0.00000000  0.50000000  -0.00000000  1
  O  O77  1  0.35558907  0.82319053  0.99353923  1
  O  O78  1  0.59651659  0.83983016  0.49543334  1
  O  O79  1  0.64886809  0.01058109  0.15392267  1
  O  O80  1  0.76165236  0.19992917  0.82988769  1
  O  O81  1  0.84288417  0.13152602  0.68202835  1
  O  O82  1  0.41417452  0.78832890  0.83162832  1
  O  O83  1  0.52180372  0.04114138  0.38444306  1
