# generated using pymatgen
data_KRb2ScF6
_symmetry_space_group_name_H-M   'P 1'
_cell_length_a   6.51416643
_cell_length_b   6.44655359
_cell_length_c   9.14468930
_cell_angle_alpha   90.13973228
_cell_angle_beta   90.00000000
_cell_angle_gamma   90.00000000
_symmetry_Int_Tables_number   1
_chemical_formula_structural   KRb2ScF6
_chemical_formula_sum   'K2 Rb4 Sc2 F12'
_cell_volume   384.02023583
_cell_formula_units_Z   2
loop_
 _symmetry_equiv_pos_site_id
 _symmetry_equiv_pos_as_xyz
  1  'x, y, z'
loop_
 _atom_site_type_symbol
 _atom_site_label
 _atom_site_symmetry_multiplicity
 _atom_site_fract_x
 _atom_site_fract_y
 _atom_site_fract_z
 _atom_site_occupancy
  F  F0  1  0.24555187  0.32180473  0.46046067  1
  F  F1  1  0.74555187  0.17819527  0.03953933  1
  F  F2  1  0.75444813  0.67819527  0.53953933  1
  F  F3  1  0.25444813  0.82180473  0.96046067  1
  F  F4  1  0.31764895  0.75420979  0.53245054  1
  F  F5  1  0.81764895  0.74579021  0.96754946  1
  F  F6  1  0.68235105  0.24579021  0.46754946  1
  F  F7  1  0.18235105  0.25420979  0.03245054  1
  F  F8  1  0.02262822  0.93187583  0.21767038  1
  F  F9  1  0.52262822  0.56812417  0.28232962  1
  F  F10  1  0.97737178  0.06812417  0.78232962  1
  F  F11  1  0.47737178  0.43187583  0.71767038  1
  K  K12  1  0.00000000  0.00000000  0.50000000  1
  K  K13  1  0.50000000  0.50000000  0.00000000  1
  Sc  Sc14  1  0.00000000  0.00000000  0.00000000  1
  Sc  Sc15  1  0.50000000  0.50000000  0.50000000  1
  Rb  Rb16  1  0.53298492  0.99368368  0.74995875  1
  Rb  Rb17  1  0.03298492  0.50631632  0.75004125  1
  Rb  Rb18  1  0.46701508  0.00631632  0.25004125  1
  Rb  Rb19  1  0.96701508  0.49368368  0.24995875  1
