# generated using pymatgen
data_CsNi2F6
_symmetry_space_group_name_H-M   'P 1'
_cell_length_a   7.28367389
_cell_length_b   7.28414029
_cell_length_c   7.28414029
_cell_angle_alpha   60.00358585
_cell_angle_beta   60.00211804
_cell_angle_gamma   60.00211804
_symmetry_Int_Tables_number   1
_chemical_formula_structural   CsNi2F6
_chemical_formula_sum   'Cs2 Ni4 F12'
_cell_volume   273.28624285
_cell_formula_units_Z   2
loop_
 _symmetry_equiv_pos_site_id
 _symmetry_equiv_pos_as_xyz
  1  'x, y, z'
loop_
 _atom_site_type_symbol
 _atom_site_label
 _atom_site_symmetry_multiplicity
 _atom_site_fract_x
 _atom_site_fract_y
 _atom_site_fract_z
 _atom_site_occupancy
  F  F0  1  0.93115870  0.43101567  0.31897779  1
  F  F1  1  0.68115216  0.56898433  0.68102221  1
  F  F2  1  0.06884130  0.18102221  0.06898433  1
  F  F3  1  0.31884784  0.81897779  0.93101567  1
  F  F4  1  0.06884130  0.56898433  0.68102221  1
  F  F5  1  0.31884784  0.43101567  0.31897779  1
  F  F6  1  0.31897482  0.43102518  0.93102518  1
  F  F7  1  0.68102518  0.56897482  0.06897482  1
  F  F8  1  0.06881377  0.18118623  0.68118623  1
  F  F9  1  0.93118623  0.81881377  0.31881377  1
  F  F10  1  0.68115216  0.18102221  0.06898433  1
  F  F11  1  0.93115870  0.81897779  0.93101567  1
  Ni  Ni12  1  0.00000000  0.50000000  0.50000000  1
  Ni  Ni13  1  0.00000000  0.00000000  0.00000000  1
  Ni  Ni14  1  0.50000000  0.50000000  0.00000000  1
  Ni  Ni15  1  0.00000000  0.50000000  0.00000000  1
  Cs  Cs16  1  0.62509633  0.12490367  0.62490367  1
  Cs  Cs17  1  0.37490367  0.87509633  0.37509633  1
