# generated using pymatgen
data_K2ErTi(PO4)3
_symmetry_space_group_name_H-M   'P 1'
_cell_length_a   10.27807960
_cell_length_b   10.27807960
_cell_length_c   10.27807960
_cell_angle_alpha   90.00000000
_cell_angle_beta   90.00000000
_cell_angle_gamma   90.00000000
_symmetry_Int_Tables_number   1
_chemical_formula_structural   K2ErTi(PO4)3
_chemical_formula_sum   'K8 Er4 Ti4 P12 O48'
_cell_volume   1085.76523133
_cell_formula_units_Z   4
loop_
 _symmetry_equiv_pos_site_id
 _symmetry_equiv_pos_as_xyz
  1  'x, y, z'
loop_
 _atom_site_type_symbol
 _atom_site_label
 _atom_site_symmetry_multiplicity
 _atom_site_fract_x
 _atom_site_fract_y
 _atom_site_fract_z
 _atom_site_occupancy
  K  K0  1  0.04517438  0.54517438  0.95482562  1
  K  K1  1  0.18056678  0.81943322  0.31943322  1
  K  K2  1  0.31943322  0.18056678  0.81943322  1
  K  K3  1  0.45482562  0.45482562  0.45482562  1
  K  K4  1  0.54517438  0.95482562  0.04517438  1
  K  K5  1  0.68056678  0.68056678  0.68056678  1
  K  K6  1  0.81943322  0.31943322  0.18056678  1
  K  K7  1  0.95482562  0.04517438  0.54517438  1
  Er  Er8  1  0.16578369  0.16578369  0.16578369  1
  Er  Er9  1  0.33421631  0.83421631  0.66578369  1
  Er  Er10  1  0.66578369  0.33421631  0.83421631  1
  Er  Er11  1  0.83421631  0.66578369  0.33421631  1
  Ti  Ti12  1  0.10660712  0.39339288  0.60660712  1
  Ti  Ti13  1  0.39339288  0.60660712  0.10660712  1
  Ti  Ti14  1  0.60660712  0.10660712  0.39339288  1
  Ti  Ti15  1  0.89339288  0.89339288  0.89339288  1
  P  P16  1  0.01358641  0.70764103  0.63097605  1
  P  P17  1  0.13097605  0.48641359  0.29235897  1
  P  P18  1  0.20764103  0.86902395  0.98641359  1
  P  P19  1  0.29235897  0.13097605  0.48641359  1
  P  P20  1  0.36902395  0.51358641  0.79235897  1
  P  P21  1  0.48641359  0.29235897  0.13097605  1
  P  P22  1  0.51358641  0.79235897  0.36902395  1
  P  P23  1  0.63097605  0.01358641  0.70764103  1
  P  P24  1  0.70764103  0.63097605  0.01358641  1
  P  P25  1  0.79235897  0.36902395  0.51358641  1
  P  P26  1  0.86902395  0.98641359  0.20764103  1
  P  P27  1  0.98641359  0.20764103  0.86902395  1
  O  O28  1  0.01650291  0.57789600  0.26752905  1
  O  O29  1  0.01685569  0.55984542  0.66698214  1
  O  O30  1  0.04473260  0.28710597  0.75147477  1
  O  O31  1  0.07789600  0.23247095  0.98349709  1
  O  O32  1  0.05984542  0.83301786  0.98314431  1
  O  O33  1  0.09851860  0.35073750  0.24323266  1
  O  O34  1  0.14926250  0.75676734  0.59851860  1
  O  O35  1  0.16698214  0.48314431  0.44015458  1
  O  O36  1  0.21289403  0.24852523  0.54473260  1
  O  O37  1  0.23247095  0.98349709  0.07789600  1
  O  O38  1  0.24852523  0.54473260  0.21289403  1
  O  O39  1  0.24323266  0.09851860  0.35073750  1
  O  O40  1  0.25676734  0.90148140  0.85073750  1
  O  O41  1  0.25147477  0.45526740  0.71289403  1
  O  O42  1  0.26752905  0.01650291  0.57789600  1
  O  O43  1  0.28710597  0.75147477  0.04473260  1
  O  O44  1  0.33301786  0.51685569  0.94015458  1
  O  O45  1  0.35073750  0.24323266  0.09851860  1
  O  O46  1  0.40148140  0.64926250  0.74323266  1
  O  O47  1  0.44015458  0.16698214  0.48314431  1
  O  O48  1  0.42210400  0.76752905  0.48349709  1
  O  O49  1  0.45526740  0.71289403  0.25147477  1
  O  O50  1  0.48314431  0.44015458  0.16698214  1
  O  O51  1  0.48349709  0.42210400  0.76752905  1
  O  O52  1  0.51650291  0.92210400  0.73247095  1
  O  O53  1  0.51685569  0.94015458  0.33301786  1
  O  O54  1  0.54473260  0.21289403  0.24852523  1
  O  O55  1  0.57789600  0.26752905  0.01650291  1
  O  O56  1  0.55984542  0.66698214  0.01685569  1
  O  O57  1  0.59851860  0.14926250  0.75676734  1
  O  O58  1  0.64926250  0.74323266  0.40148140  1
  O  O59  1  0.66698214  0.01685569  0.55984542  1
  O  O60  1  0.71289403  0.25147477  0.45526740  1
  O  O61  1  0.73247095  0.51650291  0.92210400  1
  O  O62  1  0.74852523  0.95526740  0.78710597  1
  O  O63  1  0.74323266  0.40148140  0.64926250  1
  O  O64  1  0.75676734  0.59851860  0.14926250  1
  O  O65  1  0.75147477  0.04473260  0.28710597  1
  O  O66  1  0.76752905  0.48349709  0.42210400  1
  O  O67  1  0.78710597  0.74852523  0.95526740  1
  O  O68  1  0.83301786  0.98314431  0.05984542  1
  O  O69  1  0.85073750  0.25676734  0.90148140  1
  O  O70  1  0.90148140  0.85073750  0.25676734  1
  O  O71  1  0.94015458  0.33301786  0.51685569  1
  O  O72  1  0.92210400  0.73247095  0.51650291  1
  O  O73  1  0.95526740  0.78710597  0.74852523  1
  O  O74  1  0.98314431  0.05984542  0.83301786  1
  O  O75  1  0.98349709  0.07789600  0.23247095  1
