# generated using pymatgen
data_Ba4Ta2TiZnO12
_symmetry_space_group_name_H-M   'P 1'
_cell_length_a   8.20319043
_cell_length_b   8.20319111
_cell_length_c   10.10342293
_cell_angle_alpha   66.04864154
_cell_angle_beta   66.04863943
_cell_angle_gamma   89.99999692
_symmetry_Int_Tables_number   1
_chemical_formula_structural   Ba4Ta2TiZnO12
_chemical_formula_sum   'Ba8 Ta4 Ti2 Zn2 O24'
_cell_volume   556.67072324
_cell_formula_units_Z   2
loop_
 _symmetry_equiv_pos_site_id
 _symmetry_equiv_pos_as_xyz
  1  'x, y, z'
loop_
 _atom_site_type_symbol
 _atom_site_label
 _atom_site_symmetry_multiplicity
 _atom_site_fract_x
 _atom_site_fract_y
 _atom_site_fract_z
 _atom_site_occupancy
  Ba  Ba0  1  0.00576032  0.00000000  1.00000000  1
  Ba  Ba1  1  0.00576032  0.50000000  1.00000000  1
  Ba  Ba2  1  0.49423968  0.50000000  0.00000000  1
  Ba  Ba3  1  0.49423968  1.00000000  0.00000000  1
  Ba  Ba4  1  0.25000000  0.24423968  0.50000000  1
  Ba  Ba5  1  0.25000000  0.75576032  0.50000000  1
  Ba  Ba6  1  0.75000000  0.24423968  0.50000000  1
  Ba  Ba7  1  0.75000000  0.75576032  0.50000000  1
  Ta  Ta8  1  0.12394149  0.62394149  0.25211702  1
  Ta  Ta9  1  0.62605851  0.12605851  0.24788298  1
  Ta  Ta10  1  0.37605851  0.37605851  0.74788298  1
  Ta  Ta11  1  0.87394149  0.87394149  0.75211702  1
  Ti  Ti12  1  0.62500000  0.62500000  0.25000000  1
  Ti  Ti13  1  0.87500000  0.37500000  0.75000000  1
  Zn  Zn14  1  0.12500000  0.12500000  0.25000000  1
  Zn  Zn15  1  0.37500000  0.87500000  0.75000000  1
  O  O16  1  0.25905132  0.25905132  0.98189736  1
  O  O17  1  0.24094868  0.74094868  0.01810264  1
  O  O18  1  0.11973348  0.37967569  0.26053304  1
  O  O19  1  0.11973348  0.85979127  0.26053304  1
  O  O20  1  0.39020873  0.13026652  0.23946696  1
  O  O21  1  0.37302844  0.62162591  0.25674817  1
  O  O22  1  0.12697156  0.37837409  0.74325183  1
  O  O23  1  0.10979127  0.86973348  0.76053304  1
  O  O24  1  0.75536416  0.25536416  0.98927168  1
  O  O25  1  0.74463584  0.74463584  0.01072832  1
  O  O26  1  0.50536416  0.50536416  0.48927168  1
  O  O27  1  0.50905132  0.00905132  0.48189736  1
  O  O28  1  0.62837409  0.37977661  0.24325183  1
  O  O29  1  0.38026652  0.14020873  0.73946696  1
  O  O30  1  0.62837409  0.87697156  0.24325183  1
  O  O31  1  0.38026652  0.62032431  0.73946696  1
  O  O32  1  0.87032431  0.13026652  0.23946696  1
  O  O33  1  0.87022339  0.62162591  0.25674817  1
  O  O34  1  0.62977661  0.37837409  0.74325183  1
  O  O35  1  0.62967569  0.86973348  0.76053304  1
  O  O36  1  0.99463584  0.49463584  0.51072832  1
  O  O37  1  0.99094868  0.99094868  0.51810264  1
  O  O38  1  0.87162591  0.12302844  0.75674817  1
  O  O39  1  0.87162591  0.62022339  0.75674817  1
