# generated using pymatgen
data_Mo3N2Cl11
_symmetry_space_group_name_H-M   'P 1'
_cell_length_a   10.35873814
_cell_length_b   13.07743849
_cell_length_c   13.82504428
_cell_angle_alpha   90.00000000
_cell_angle_beta   90.00000000
_cell_angle_gamma   90.00000000
_symmetry_Int_Tables_number   1
_chemical_formula_structural   Mo3N2Cl11
_chemical_formula_sum   'Mo12 N8 Cl44'
_cell_volume   1872.82014231
_cell_formula_units_Z   4
loop_
 _symmetry_equiv_pos_site_id
 _symmetry_equiv_pos_as_xyz
  1  'x, y, z'
loop_
 _atom_site_type_symbol
 _atom_site_label
 _atom_site_symmetry_multiplicity
 _atom_site_fract_x
 _atom_site_fract_y
 _atom_site_fract_z
 _atom_site_occupancy
  Mo  Mo0  1  0.37956631  0.68113584  0.74787928  1
  Mo  Mo1  1  0.71109340  0.77050726  0.81784869  1
  Mo  Mo2  1  0.28890660  0.22949274  0.31784869  1
  Mo  Mo3  1  0.17408588  0.97429831  0.42053580  1
  Mo  Mo4  1  0.17408588  0.52570169  0.92053580  1
  Mo  Mo5  1  0.82591412  0.47429831  0.42053580  1
  Mo  Mo6  1  0.37956631  0.81886416  0.24787928  1
  Mo  Mo7  1  0.71109340  0.72949274  0.31784869  1
  Mo  Mo8  1  0.82591412  0.02570169  0.92053580  1
  Mo  Mo9  1  0.62043369  0.31886416  0.24787928  1
  Mo  Mo10  1  0.28890660  0.27050726  0.81784869  1
  Mo  Mo11  1  0.62043369  0.18113584  0.74787928  1
  N  N12  1  0.75914926  0.88466201  0.86552761  1
  N  N13  1  0.71496965  0.39409976  0.32027623  1
  N  N14  1  0.75914926  0.61533799  0.36552761  1
  N  N15  1  0.24085074  0.11533799  0.36552761  1
  N  N16  1  0.28503035  0.89409976  0.32027623  1
  N  N17  1  0.28503035  0.60590024  0.82027623  1
  N  N18  1  0.24085074  0.38466201  0.86552761  1
  N  N19  1  0.71496965  0.10590024  0.82027623  1
  Cl  Cl20  1  0.76788220  0.66100393  0.93926966  1
  Cl  Cl21  1  0.57233320  0.91676749  0.25448363  1
  Cl  Cl22  1  0.88943788  0.18280398  0.97880533  1
  Cl  Cl23  1  0.87806239  0.76255803  0.21633457  1
  Cl  Cl24  1  0.32862436  0.87803996  0.09855045  1
  Cl  Cl25  1  0.25577056  0.82568233  0.74156072  1
  Cl  Cl26  1  0.63999993  0.48285414  0.50977176  1
  Cl  Cl27  1  0.03140907  0.51204308  0.79399826  1
  Cl  Cl28  1  0.74422944  0.32568233  0.74156072  1
  Cl  Cl29  1  0.42766680  0.08323251  0.75448363  1
  Cl  Cl30  1  0.48885964  0.76845144  0.89287044  1
  Cl  Cl31  1  0.32862436  0.62196004  0.59855045  1
  Cl  Cl32  1  0.12193761  0.23744197  0.71633457  1
  Cl  Cl33  1  0.04132042  0.44328666  0.02878189  1
  Cl  Cl34  1  0.25577056  0.67431767  0.24156072  1
  Cl  Cl35  1  0.87806239  0.73744197  0.71633457  1
  Cl  Cl36  1  0.63999993  0.01714586  0.00977176  1
  Cl  Cl37  1  0.04132042  0.05671334  0.52878189  1
  Cl  Cl38  1  0.57233320  0.58323251  0.75448363  1
  Cl  Cl39  1  0.96859093  0.48795692  0.29399826  1
  Cl  Cl40  1  0.41756786  0.17534768  0.18273567  1
  Cl  Cl41  1  0.67137564  0.37803996  0.09855045  1
  Cl  Cl42  1  0.36000007  0.98285414  0.50977176  1
  Cl  Cl43  1  0.58243214  0.67534768  0.18273567  1
  Cl  Cl44  1  0.76788220  0.83899607  0.43926966  1
  Cl  Cl45  1  0.23211780  0.33899607  0.43926966  1
  Cl  Cl46  1  0.95867958  0.55671334  0.52878189  1
  Cl  Cl47  1  0.88943788  0.31719602  0.47880533  1
  Cl  Cl48  1  0.96859093  0.01204308  0.79399826  1
  Cl  Cl49  1  0.51114036  0.26845144  0.89287044  1
  Cl  Cl50  1  0.23211780  0.16100393  0.93926966  1
  Cl  Cl51  1  0.41756786  0.32465232  0.68273567  1
  Cl  Cl52  1  0.36000007  0.51714586  0.00977176  1
  Cl  Cl53  1  0.67137564  0.12196004  0.59855045  1
  Cl  Cl54  1  0.11056212  0.81719602  0.47880533  1
  Cl  Cl55  1  0.95867958  0.94328666  0.02878189  1
  Cl  Cl56  1  0.12193761  0.26255803  0.21633457  1
  Cl  Cl57  1  0.74422944  0.17431767  0.24156072  1
  Cl  Cl58  1  0.03140907  0.98795692  0.29399826  1
  Cl  Cl59  1  0.42766680  0.41676749  0.25448363  1
  Cl  Cl60  1  0.58243214  0.82465232  0.68273567  1
  Cl  Cl61  1  0.48885964  0.73154856  0.39287044  1
  Cl  Cl62  1  0.51114036  0.23154856  0.39287044  1
  Cl  Cl63  1  0.11056212  0.68280398  0.97880533  1
