# generated using pymatgen
data_Na3Ca2Ta3Ti2O15
_symmetry_space_group_name_H-M   'P 1'
_cell_length_a   5.47873553
_cell_length_b   5.56038617
_cell_length_c   39.10198692
_cell_angle_alpha   89.87511923
_cell_angle_beta   90.04323664
_cell_angle_gamma   90.10633225
_symmetry_Int_Tables_number   1
_chemical_formula_structural   Na3Ca2Ta3Ti2O15
_chemical_formula_sum   'Na12 Ca8 Ta12 Ti8 O60'
_cell_volume   1191.19322780
_cell_formula_units_Z   4
loop_
 _symmetry_equiv_pos_site_id
 _symmetry_equiv_pos_as_xyz
  1  'x, y, z'
loop_
 _atom_site_type_symbol
 _atom_site_label
 _atom_site_symmetry_multiplicity
 _atom_site_fract_x
 _atom_site_fract_y
 _atom_site_fract_z
 _atom_site_occupancy
  Na  Na0  1  0.00429204  0.98414771  0.15053655  1
  Na  Na1  1  0.00247425  0.98285321  0.35021993  1
  Na  Na2  1  0.99986031  0.98478108  0.55059492  1
  Na  Na3  1  0.00337347  0.98407430  0.75177546  1
  Na  Na4  1  0.00656073  0.97415126  0.95166062  1
  Na  Na5  1  0.49761553  0.48838647  0.35022033  1
  Na  Na6  1  0.50084740  0.48953150  0.15096230  1
  Na  Na7  1  0.48808286  0.48457604  0.55105083  1
  Na  Na8  1  0.49420783  0.48301923  0.75224258  1
  Na  Na9  1  0.50179090  0.47863319  0.95192163  1
  Na  Na10  1  0.50052248  0.52163815  0.64666353  1
  Na  Na11  1  0.50603167  0.52245256  0.84738677  1
  Ca  Ca12  1  0.51234268  0.53775429  0.05098028  1
  Ca  Ca13  1  0.50881478  0.53976584  0.25064906  1
  Ca  Ca14  1  0.50755320  0.53931432  0.44995030  1
  Ca  Ca15  1  0.99293070  0.05085413  0.05098107  1
  Ca  Ca16  1  0.98927479  0.05249677  0.25065608  1
  Ca  Ca17  1  0.98860998  0.05195673  0.44995479  1
  Ca  Ca18  1  0.98755107  0.04727683  0.64682430  1
  Ca  Ca19  1  0.99342016  0.04683029  0.84746842  1
  Ta  Ta20  1  0.49725444  0.00566352  0.10105450  1
  Ta  Ta21  1  0.49417834  0.00659499  0.30083647  1
  Ta  Ta22  1  0.49325686  0.00704205  0.50050012  1
  Ta  Ta23  1  0.49939698  0.99798974  0.90005234  1
  Ta  Ta24  1  0.49567501  0.00140978  0.70003350  1
  Ta  Ta25  1  0.49921360  0.00666498  0.99926386  1
  Ta  Ta26  1  0.49492873  0.01037988  0.19941621  1
  Ta  Ta27  1  0.49369456  0.01034718  0.39904651  1
  Ta  Ta28  1  0.49131825  0.00569160  0.59917250  1
  Ta  Ta29  1  0.49812478  0.00615777  0.79925643  1
  Ta  Ta30  1  0.99773987  0.50675367  0.70016271  1
  Ta  Ta31  1  0.00160759  0.50336255  0.90148915  1
  Ti  Ti32  1  0.01254521  0.51350874  0.00250482  1
  Ti  Ti33  1  0.00132964  0.51264179  0.10445067  1
  Ti  Ti34  1  0.00771941  0.51778045  0.40123162  1
  Ti  Ti35  1  0.99835486  0.51488730  0.50215061  1
  Ti  Ti36  1  0.00380193  0.51550734  0.80019464  1
  Ti  Ti37  1  0.00948309  0.51786924  0.20230027  1
  Ti  Ti38  1  0.99815180  0.51358990  0.30369504  1
  Ti  Ti39  1  0.99619643  0.51493442  0.59882011  1
  O  O40  1  0.08094821  0.47778609  0.04905511  1
  O  O41  1  0.07830907  0.47840593  0.24890585  1
  O  O42  1  0.07624170  0.47866881  0.44833181  1
  O  O43  1  0.06453865  0.48026810  0.64942713  1
  O  O44  1  0.06833772  0.47979987  0.84996552  1
  O  O45  1  0.20761514  0.20493088  0.39360268  1
  O  O46  1  0.21304929  0.21448296  0.59344085  1
  O  O47  1  0.21666166  0.21264442  0.79436712  1
  O  O48  1  0.20788766  0.20356761  0.19432497  1
  O  O49  1  0.21150496  0.20584377  0.10566885  1
  O  O50  1  0.20837351  0.20602965  0.30543089  1
  O  O51  1  0.20575594  0.20364984  0.50448788  1
  O  O52  1  0.20872186  0.20608235  0.70568628  1
  O  O53  1  0.21147051  0.20143397  0.99455173  1
  O  O54  1  0.21078669  0.20171551  0.90608153  1
  O  O55  1  0.29303827  0.70500971  0.10637004  1
  O  O56  1  0.29315618  0.70532853  0.19433334  1
  O  O57  1  0.28961498  0.70570493  0.30581770  1
  O  O58  1  0.29020772  0.70557612  0.39337562  1
  O  O59  1  0.27312234  0.71713787  0.59240040  1
  O  O60  1  0.28843735  0.70212228  0.50488887  1
  O  O61  1  0.29881438  0.70422281  0.90760385  1
  O  O62  1  0.29620331  0.70268529  0.99436484  1
  O  O63  1  0.29268196  0.70772189  0.70679040  1
  O  O64  1  0.27832932  0.71535213  0.79309773  1
  O  O65  1  0.42363527  0.97288396  0.05034390  1
  O  O66  1  0.41956940  0.97497629  0.25005778  1
  O  O67  1  0.41950530  0.98199651  0.64966204  1
  O  O68  1  0.41786269  0.97263053  0.44929500  1
  O  O69  1  0.42397104  0.97820257  0.85030904  1
  O  O70  1  0.57465665  0.01083088  0.34975045  1
  O  O71  1  0.57583291  0.01158917  0.15030640  1
  O  O72  1  0.56873697  0.00879584  0.54904909  1
  O  O73  1  0.57010108  0.01015649  0.74935499  1
  O  O74  1  0.57543580  0.01236484  0.95009159  1
  O  O75  1  0.71544448  0.27596935  0.01014413  1
  O  O76  1  0.71756680  0.27654608  0.09085627  1
  O  O77  1  0.71407956  0.27691498  0.29034937  1
  O  O78  1  0.71203553  0.27853617  0.20990008  1
  O  O79  1  0.72266768  0.26765247  0.60695829  1
  O  O80  1  0.71168634  0.27767209  0.40914523  1
  O  O81  1  0.71232810  0.27491807  0.48929066  1
  O  O82  1  0.71548195  0.27815619  0.69094767  1
  O  O83  1  0.72563204  0.26711561  0.80798602  1
  O  O84  1  0.71814172  0.27748050  0.89169751  1
  O  O85  1  0.78690203  0.77778089  0.09117561  1
  O  O86  1  0.78918931  0.77815840  0.00960812  1
  O  O87  1  0.78565622  0.77960549  0.20965485  1
  O  O88  1  0.78296498  0.77789173  0.29056332  1
  O  O89  1  0.78228674  0.77625670  0.48963614  1
  O  O90  1  0.79261155  0.79178452  0.69076967  1
  O  O91  1  0.78418098  0.77862109  0.40883064  1
  O  O92  1  0.77868405  0.77543617  0.60720220  1
  O  O93  1  0.79807565  0.79084031  0.89167532  1
  O  O94  1  0.78368054  0.77623089  0.80794658  1
  O  O95  1  0.93676910  0.51191787  0.14982397  1
  O  O96  1  0.93341661  0.51237114  0.34928983  1
  O  O97  1  0.93076181  0.51014400  0.54848838  1
  O  O98  1  0.93088485  0.50886150  0.74928362  1
  O  O99  1  0.93562461  0.50926860  0.94985341  1
