# generated using pymatgen
data_Zn7(SbO6)2
_symmetry_space_group_name_H-M   'P 1'
_cell_length_a   6.17657662
_cell_length_b   18.77048195
_cell_length_c   16.51981823
_cell_angle_alpha   18.79696471
_cell_angle_beta   54.80509953
_cell_angle_gamma   59.51751014
_symmetry_Int_Tables_number   1
_chemical_formula_structural   Zn7(SbO6)2
_chemical_formula_sum   'Zn14 Sb4 O24'
_cell_volume   498.93825970
_cell_formula_units_Z   2
loop_
 _symmetry_equiv_pos_site_id
 _symmetry_equiv_pos_as_xyz
  1  'x, y, z'
loop_
 _atom_site_type_symbol
 _atom_site_label
 _atom_site_symmetry_multiplicity
 _atom_site_fract_x
 _atom_site_fract_y
 _atom_site_fract_z
 _atom_site_occupancy
  Zn  Zn0  1  0.98705930  0.01739999  0.97521828  1
  Zn  Zn1  1  0.97762220  0.35498239  0.98535804  1
  Zn  Zn2  1  0.62745322  0.11837207  0.13845627  1
  Zn  Zn3  1  0.27441776  0.22917856  0.26380569  1
  Zn  Zn4  1  0.98579666  0.68212059  0.98445912  1
  Zn  Zn5  1  0.11215938  0.13419186  0.62239936  1
  Zn  Zn6  1  0.62184930  0.46550979  0.11165296  1
  Zn  Zn7  1  0.26530410  0.56761147  0.27265730  1
  Zn  Zn8  1  0.13966043  0.44915902  0.62816553  1
  Zn  Zn9  1  0.62602561  0.29406351  0.62206262  1
  Zn  Zn10  1  0.62479967  0.79326217  0.12385993  1
  Zn  Zn11  1  0.26599682  0.90285113  0.26364683  1
  Zn  Zn12  1  0.12576125  0.79163958  0.62534774  1
  Zn  Zn13  1  0.62688783  0.79175695  0.62458946  1
  Sb  Sb14  1  0.62472572  0.13219082  0.61965570  1
  Sb  Sb15  1  0.62827089  0.45227755  0.62886082  1
  Sb  Sb16  1  0.63090819  0.62664400  0.62510800  1
  Sb  Sb17  1  0.62072930  0.95781883  0.62349039  1
  O  O18  1  0.38785093  0.01137561  0.39957178  1
  O  O19  1  0.38829459  0.19348742  0.39624611  1
  O  O20  1  0.85852462  0.04035032  0.38844552  1
  O  O21  1  0.39697522  0.35598748  0.38777361  1
  O  O22  1  0.84456869  0.19099737  0.40167732  1
  O  O23  1  0.38980234  0.04847890  0.85590346  1
  O  O24  1  0.39915311  0.53754489  0.38541367  1
  O  O25  1  0.38684655  0.22460850  0.86271763  1
  O  O26  1  0.86632583  0.36001309  0.38552556  1
  O  O27  1  0.39684804  0.67907353  0.40181840  1
  O  O28  1  0.86260151  0.53737375  0.39111324  1
  O  O29  1  0.85117172  0.04915927  0.86144590  1
  O  O30  1  0.40740328  0.39293918  0.84751019  1
  O  O31  1  0.40256407  0.85785309  0.39476780  1
  O  O32  1  0.39303148  0.54351993  0.86089860  1
  O  O33  1  0.85590077  0.22841182  0.86095631  1
  O  O34  1  0.84914872  0.68776272  0.40479336  1
  O  O35  1  0.86264584  0.39036254  0.85337610  1
  O  O36  1  0.86453665  0.86160893  0.38399832  1
  O  O37  1  0.38677879  0.72265592  0.86499541  1
  O  O38  1  0.40269658  0.89703865  0.84359639  1
  O  O39  1  0.86369640  0.57177071  0.85114222  1
  O  O40  1  0.84811335  0.72625594  0.85470033  1
  O  O41  1  0.85526930  0.90487317  0.84773374  1
