# generated using pymatgen
data_Li5Ti7In(PO4)12
_symmetry_space_group_name_H-M   'P 1'
_cell_length_a   8.65012804
_cell_length_b   8.63524311
_cell_length_c   17.29185262
_cell_angle_alpha   60.22385569
_cell_angle_beta   60.15344114
_cell_angle_gamma   60.26721363
_symmetry_Int_Tables_number   1
_chemical_formula_structural   Li5Ti7In(PO4)12
_chemical_formula_sum   'Li5 Ti7 In1 P12 O48'
_cell_volume   917.76218850
_cell_formula_units_Z   1
loop_
 _symmetry_equiv_pos_site_id
 _symmetry_equiv_pos_as_xyz
  1  'x, y, z'
loop_
 _atom_site_type_symbol
 _atom_site_label
 _atom_site_symmetry_multiplicity
 _atom_site_fract_x
 _atom_site_fract_y
 _atom_site_fract_z
 _atom_site_occupancy
  Li  Li0  1  0.00922451  0.99554319  0.00035097  1
  Li  Li1  1  0.00107053  0.99842249  0.50068313  1
  Li  Li2  1  0.50109963  0.49963622  0.25011714  1
  Li  Li3  1  0.49831193  0.50702584  0.74534249  1
  Li  Li4  1  0.63965247  0.24897325  0.93056876  1
  Ti  Ti5  1  0.13729944  0.14209150  0.07211623  1
  Ti  Ti6  1  0.35534457  0.35494749  0.18373756  1
  Ti  Ti7  1  0.14076741  0.14233520  0.57043413  1
  Ti  Ti8  1  0.35957301  0.36061356  0.67552606  1
  Ti  Ti9  1  0.64193969  0.64103668  0.32118576  1
  Ti  Ti10  1  0.85847365  0.85851012  0.42862282  1
  Ti  Ti11  1  0.64498874  0.65108186  0.81826572  1
  In  In12  1  0.86277332  0.84939099  0.92922148  1
  P  P13  1  0.04000842  0.74894779  0.23077567  1
  P  P14  1  0.46042985  0.03925643  0.37586394  1
  P  P15  1  0.74910665  0.44599247  0.02318356  1
  P  P16  1  0.25034471  0.54079967  0.47827985  1
  P  P17  1  0.53333154  0.96252777  0.12846766  1
  P  P18  1  0.04774624  0.75288060  0.72335217  1
  P  P19  1  0.95686700  0.25090645  0.27071999  1
  P  P20  1  0.45086362  0.05121371  0.87584715  1
  P  P21  1  0.75143861  0.45990918  0.51961795  1
  P  P22  1  0.25505073  0.53547773  0.98228279  1
  P  P23  1  0.53957408  0.95932262  0.62451054  1
  P  P24  1  0.95970652  0.25621230  0.76822959  1
  O  O25  1  0.99941393  0.19525364  0.18799960  1
  O  O26  1  0.18903949  0.37721964  0.00252116  1
  O  O27  1  0.37211027  0.00330549  0.09803759  1
  O  O28  1  0.11768070  0.30915921  0.25130402  1
  O  O29  1  0.31835267  0.48153566  0.06390924  1
  O  O30  1  0.05857826  0.91377306  0.13638754  1
  O  O31  1  0.47968263  0.11849018  0.16518713  1
  O  O32  1  0.22866512  0.58365471  0.22307658  1
  O  O33  1  0.27131460  0.05675709  0.45843373  1
  O  O34  1  0.00047336  0.19151713  0.68916269  1
  O  O35  1  0.44302720  0.22987674  0.29453192  1
  O  O36  1  0.19420249  0.37443060  0.50085947  1
  O  O37  1  0.58269589  0.42477933  0.11783728  1
  O  O38  1  0.08405579  0.72902351  0.47092179  1
  O  O39  1  0.37421758  0.00004965  0.59757078  1
  O  O40  1  0.12192109  0.31905384  0.74230106  1
  O  O41  1  0.91314835  0.25440620  0.03197274  1
  O  O42  1  0.41610144  0.55694067  0.38377426  1
  O  O43  1  0.31003022  0.49872435  0.55890360  1
  O  O44  1  0.56004682  0.76811875  0.20675526  1
  O  O45  1  0.05761890  0.91566721  0.62731720  1
  O  O46  1  0.49940746  0.12338719  0.65201879  1
  O  O47  1  0.71555338  0.97587034  0.04218006  1
  O  O48  1  0.23547195  0.58672649  0.71134999  1
  O  O49  1  0.76715158  0.41576200  0.27922360  1
  O  O50  1  0.25989945  0.05910004  0.95744039  1
  O  O51  1  0.50260285  0.87414245  0.34788911  1
  O  O52  1  0.94106250  0.08380208  0.36487547  1
  O  O53  1  0.42652622  0.23496146  0.79073257  1
  O  O54  1  0.69528443  0.50117569  0.43747735  1
  O  O55  1  0.58729806  0.44200166  0.61461465  1
  O  O56  1  0.10236123  0.73068808  0.97414228  1
  O  O57  1  0.87464262  0.69396714  0.25167474  1
  O  O58  1  0.62569512  0.99588729  0.40351603  1
  O  O59  1  0.91740931  0.27098522  0.52794824  1
  O  O60  1  0.42876566  0.53405080  0.88924770  1
  O  O61  1  0.80743367  0.62434635  0.49855591  1
  O  O62  1  0.55388184  0.77066661  0.70939107  1
  O  O63  1  0.99675086  0.80596697  0.31294705  1
  O  O64  1  0.72940962  0.94044896  0.54247647  1
  O  O65  1  0.76551041  0.41881964  0.77827749  1
  O  O66  1  0.51137442  0.87414324  0.85012929  1
  O  O67  1  0.93585980  0.10539757  0.86756886  1
  O  O68  1  0.69668417  0.48642089  0.93907305  1
  O  O69  1  0.87652850  0.69578686  0.75057279  1
  O  O70  1  0.60112985  0.03970319  0.90266459  1
  O  O71  1  0.80127335  0.60232635  0.01017801  1
  O  O72  1  0.02466805  0.80867369  0.79926670  1
