# generated using pymatgen
data_CaSiSnO5
_symmetry_space_group_name_H-M   'P 1'
_cell_length_a   5.63706220
_cell_length_b   5.63706220
_cell_length_c   7.26657657
_cell_angle_alpha   103.97740197
_cell_angle_beta   103.97740203
_cell_angle_gamma   105.86789331
_symmetry_Int_Tables_number   1
_chemical_formula_structural   CaSiSnO5
_chemical_formula_sum   'Ca2 Si2 Sn2 O10'
_cell_volume   203.49314026
_cell_formula_units_Z   2
loop_
 _symmetry_equiv_pos_site_id
 _symmetry_equiv_pos_as_xyz
  1  'x, y, z'
loop_
 _atom_site_type_symbol
 _atom_site_label
 _atom_site_symmetry_multiplicity
 _atom_site_fract_x
 _atom_site_fract_y
 _atom_site_fract_z
 _atom_site_occupancy
  O  O0  1  0.39503186  0.82281828  0.12802583  1
  O  O1  1  0.17718172  0.60496814  0.37197417  1
  O  O2  1  0.60496814  0.17718172  0.87197417  1
  O  O3  1  0.82281828  0.39503186  0.62802583  1
  O  O4  1  0.75994908  0.89111375  0.58909785  1
  O  O5  1  0.10888625  0.24005092  0.91090215  1
  O  O6  1  0.58861294  0.41138706  0.25000000  1
  O  O7  1  0.41138706  0.58861294  0.75000000  1
  O  O8  1  0.89111375  0.75994908  0.08909785  1
  O  O9  1  0.24005092  0.10888625  0.41090215  1
  Si  Si10  1  0.81901813  0.18098187  0.75000000  1
  Si  Si11  1  0.18098187  0.81901813  0.25000000  1
  Ca  Ca12  1  0.83707595  0.16292405  0.25000000  1
  Ca  Ca13  1  0.16292405  0.83707595  0.75000000  1
  Sn  Sn14  1  0.50000000  0.50000000  0.00000000  1
  Sn  Sn15  1  0.50000000  0.50000000  0.50000000  1
