# generated using pymatgen
data_Ti3(P2O7)2
_symmetry_space_group_name_H-M   'P 1'
_cell_length_a   7.39046942
_cell_length_b   7.90549262
_cell_length_c   9.62787202
_cell_angle_alpha   90.00000000
_cell_angle_beta   110.61366033
_cell_angle_gamma   90.00000000
_symmetry_Int_Tables_number   1
_chemical_formula_structural   Ti3(P2O7)2
_chemical_formula_sum   'Ti6 P8 O28'
_cell_volume   526.49688883
_cell_formula_units_Z   2
loop_
 _symmetry_equiv_pos_site_id
 _symmetry_equiv_pos_as_xyz
  1  'x, y, z'
loop_
 _atom_site_type_symbol
 _atom_site_label
 _atom_site_symmetry_multiplicity
 _atom_site_fract_x
 _atom_site_fract_y
 _atom_site_fract_z
 _atom_site_occupancy
  Ti  Ti0  1  0.81415144  0.36678490  0.47214105  1
  Ti  Ti1  1  0.81415244  0.13321510  0.97214105  1
  Ti  Ti2  1  0.18584856  0.86678490  0.02785895  1
  Ti  Ti3  1  -0.00000000  0.50000000  -0.00000000  1
  Ti  Ti4  1  0.18584756  0.63321510  0.52785795  1
  Ti  Ti5  1  -0.00000000  -0.00000000  0.50000000  1
  P  P6  1  0.11939641  0.29112441  0.30535169  1
  P  P7  1  0.40033368  0.95104052  0.79487342  1
  P  P8  1  0.40033468  0.54895948  0.29487342  1
  P  P9  1  0.59966632  0.45104052  0.70512658  1
  P  P10  1  0.59966632  0.04895948  0.20512658  1
  P  P11  1  0.88060359  0.70887559  0.69464931  1
  P  P12  1  0.11939741  0.20887559  0.80535169  1
  P  P13  1  0.88060259  0.79112441  0.19464831  1
  O  O14  1  0.72866357  0.38831367  0.86294825  1
  O  O15  1  0.00314924  0.28852091  0.13658361  1
  O  O16  1  0.96364221  0.92194650  0.11181452  1
  O  O17  1  0.86262665  0.62081258  0.11991928  1
  O  O18  1  0.00314824  0.21147909  0.63658361  1
  O  O19  1  0.96364221  0.57805250  0.61181552  1
  O  O20  1  0.99685076  0.71147909  0.86341639  1
  O  O21  1  0.03635779  0.07805250  0.88818548  1
  O  O22  1  0.13737235  0.37918742  0.88007972  1
  O  O23  1  0.99684976  0.78852091  0.36341639  1
  O  O24  1  0.03635879  0.42194650  0.38818448  1
  O  O25  1  0.32486708  0.14221527  0.81273439  1
  O  O26  1  0.36265555  0.84118446  0.91165335  1
  O  O27  1  0.13737235  0.12081258  0.38007972  1
  O  O28  1  0.27133643  0.88831267  0.63705175  1
  O  O29  1  0.38857219  0.48094133  0.68201062  1
  O  O30  1  0.32486708  0.35778473  0.31273539  1
  O  O31  1  0.63734345  0.15881554  0.08834565  1
  O  O32  1  0.27133643  0.61168733  0.13705175  1
  O  O33  1  0.61142781  0.98094133  0.81798938  1
  O  O34  1  0.38857319  0.01905867  0.18201062  1
  O  O35  1  0.67513392  0.85778473  0.18726561  1
  O  O36  1  0.63734445  0.34118446  0.58834665  1
  O  O37  1  0.67513292  0.64221527  0.68726461  1
  O  O38  1  0.61142781  0.51905867  0.31798938  1
  O  O39  1  0.72866257  0.11168733  0.36294725  1
  O  O40  1  0.86262765  0.87918742  0.61992028  1
  O  O41  1  0.36265555  0.65881554  0.41165335  1
