# generated using pymatgen
data_La6Mn5O18
_symmetry_space_group_name_H-M   'P 1'
_cell_length_a   16.49699488
_cell_length_b   14.48364109
_cell_length_c   9.44279264
_cell_angle_alpha   29.94408519
_cell_angle_beta   56.12926693
_cell_angle_gamma   41.82395858
_symmetry_Int_Tables_number   1
_chemical_formula_structural   La6Mn5O18
_chemical_formula_sum   'La12 Mn10 O36'
_cell_volume   724.03402578
_cell_formula_units_Z   2
loop_
 _symmetry_equiv_pos_site_id
 _symmetry_equiv_pos_as_xyz
  1  'x, y, z'
loop_
 _atom_site_type_symbol
 _atom_site_label
 _atom_site_symmetry_multiplicity
 _atom_site_fract_x
 _atom_site_fract_y
 _atom_site_fract_z
 _atom_site_occupancy
  La  La0  1  0.08893133  0.47669273  0.78555986  1
  La  La1  1  0.24440167  0.52330727  0.21444014  1
  La  La2  1  0.09134606  0.99844107  0.27056093  1
  La  La3  1  0.41535040  0.49583316  0.75845328  1
  La  La4  1  0.58637782  0.48115500  0.28264568  1
  La  La5  1  0.24198694  0.00155893  0.72943907  1
  La  La6  1  0.41929510  0.99180250  0.25871174  1
  La  La7  1  0.74695518  0.51884500  0.71735432  1
  La  La8  1  0.91798360  0.50416684  0.24154672  1
  La  La9  1  0.58824236  0.00364060  0.76900785  1
  La  La10  1  0.74509064  0.99635940  0.23099215  1
  La  La11  1  0.91403890  0.00819750  0.74128826  1
  Mn  Mn12  1  0.99866603  0.99820934  0.01047655  1
  Mn  Mn13  1  0.33466697  0.00179066  0.98952345  1
  Mn  Mn14  1  0.00440761  0.49337013  0.50590104  1
  Mn  Mn15  1  0.16666700  0.50000000  0.00000000  1
  Mn  Mn16  1  0.32892539  0.50662987  0.49409896  1
  Mn  Mn17  1  0.50250006  0.49532822  0.00437271  1
  Mn  Mn18  1  0.66666700  0.50000000  0.50000000  1
  Mn  Mn19  1  0.83083294  0.50467178  0.99562729  1
  Mn  Mn20  1  0.49929170  0.99746711  0.50879921  1
  Mn  Mn21  1  0.83404130  0.00253289  0.49120079  1
  O  O22  1  0.23977776  0.05547206  0.17074748  1
  O  O23  1  0.13192457  0.30297387  0.22686230  1
  O  O24  1  0.03510690  0.21387607  0.75524198  1
  O  O25  1  0.06241732  0.56787755  0.18147934  1
  O  O26  1  0.32338856  0.21015376  0.32601732  1
  O  O27  1  0.18205733  0.28724127  0.66839273  1
  O  O28  1  0.55236879  0.06176444  0.21056410  1
  O  O29  1  0.15127567  0.71275873  0.33160727  1
  O  O30  1  0.46726589  0.27901994  0.25723947  1
  O  O31  1  0.00994444  0.78984624  0.67398268  1
  O  O32  1  0.36680947  0.21625737  0.75065763  1
  O  O33  1  0.27091668  0.43212245  0.81852066  1
  O  O34  1  0.38819692  0.56884352  0.18279958  1
  O  O35  1  0.29822610  0.78612393  0.24475802  1
  O  O36  1  0.65135771  0.22327806  0.32138108  1
  O  O37  1  0.20140943  0.69702613  0.77313770  1
  O  O38  1  0.49399010  0.30288988  0.67219229  1
  O  O39  1  0.09355524  0.94452794  0.82925252  1
  O  O40  1  0.88671747  0.08347308  0.16715571  1
  O  O41  1  0.48881994  0.71404838  0.31700219  1
  O  O42  1  0.80043132  0.28471319  0.24836596  1
  O  O43  1  0.35786759  0.75570953  0.70951203  1
  O  O44  1  0.69982782  0.23608397  0.72449980  1
  O  O45  1  0.60640809  0.42590568  0.82402680  1
  O  O46  1  0.72692491  0.57409432  0.17597320  1
  O  O47  1  0.63350618  0.76391603  0.27550020  1
  O  O48  1  0.97546641  0.24429047  0.29048797  1
  O  O49  1  0.53290168  0.71528681  0.75163404  1
  O  O50  1  0.84451406  0.28595162  0.68299781  1
  O  O51  1  0.44661553  0.91652692  0.83284429  1
  O  O52  1  0.83934290  0.69711012  0.32780771  1
  O  O53  1  0.68197529  0.77672194  0.67861892  1
  O  O54  1  0.94513608  0.43115648  0.81720042  1
  O  O55  1  0.96652353  0.78374263  0.24934237  1
  O  O56  1  0.86606711  0.72098006  0.74276053  1
  O  O57  1  0.78096521  0.93823556  0.78943590  1
