# generated using pymatgen
data_Mg5H8O9
_symmetry_space_group_name_H-M   'P 1'
_cell_length_a   3.14073004
_cell_length_b   3.14077533
_cell_length_c   22.16133618
_cell_angle_alpha   89.99999999
_cell_angle_beta   89.99710216
_cell_angle_gamma   120.00047422
_symmetry_Int_Tables_number   1
_chemical_formula_structural   Mg5H8O9
_chemical_formula_sum   'Mg5 H8 O9'
_cell_volume   189.31803015
_cell_formula_units_Z   1
loop_
 _symmetry_equiv_pos_site_id
 _symmetry_equiv_pos_as_xyz
  1  'x, y, z'
loop_
 _atom_site_type_symbol
 _atom_site_label
 _atom_site_symmetry_multiplicity
 _atom_site_fract_x
 _atom_site_fract_y
 _atom_site_fract_z
 _atom_site_occupancy
  Mg  Mg0  1  0.00000000  0.00000000  0.50000000  1
  Mg  Mg1  1  0.00002225  0.00001113  0.27907917  1
  Mg  Mg2  1  0.99997775  0.99998887  0.72092083  1
  Mg  Mg3  1  0.33333670  0.66666835  0.05526465  1
  Mg  Mg4  1  0.66666330  0.33333165  0.94473535  1
  H  H5  1  0.66660778  0.33330389  0.59145283  1
  H  H6  1  0.33339222  0.66669611  0.40854717  1
  H  H7  1  0.66660763  0.33330381  0.14625375  1
  H  H8  1  0.33339237  0.66669619  0.85374625  1
  H  H9  1  0.66660774  0.33330387  0.37058185  1
  H  H10  1  0.33339226  0.66669613  0.62941815  1
  H  H11  1  0.33339239  0.66669619  0.18777740  1
  H  H12  1  0.66660761  0.33330381  0.81222260  1
  O  O13  1  0.66661972  0.33330986  0.54765676  1
  O  O14  1  0.33338028  0.66669014  0.45234324  1
  O  O15  1  0.66661865  0.33330933  0.10245721  1
  O  O16  1  0.33338135  0.66669067  0.89754279  1
  O  O17  1  0.00000000  0.00000000  0.00000000  1
  O  O18  1  0.66662222  0.33331111  0.32676394  1
  O  O19  1  0.33337778  0.66668889  0.67323606  1
  O  O20  1  0.33339081  0.66669540  0.23153431  1
  O  O21  1  0.66660919  0.33330460  0.76846569  1
