# generated using pymatgen
data_Ca9LaTi8Mn2O30
_symmetry_space_group_name_H-M   'P 1'
_cell_length_a   5.43177380
_cell_length_b   5.50639045
_cell_length_c   38.57845846
_cell_angle_alpha   89.95365576
_cell_angle_beta   89.98801892
_cell_angle_gamma   89.92208741
_symmetry_Int_Tables_number   1
_chemical_formula_structural   Ca9LaTi8Mn2O30
_chemical_formula_sum   'Ca18 La2 Ti16 Mn4 O60'
_cell_volume   1153.85967546
_cell_formula_units_Z   2
loop_
 _symmetry_equiv_pos_site_id
 _symmetry_equiv_pos_as_xyz
  1  'x, y, z'
loop_
 _atom_site_type_symbol
 _atom_site_label
 _atom_site_symmetry_multiplicity
 _atom_site_fract_x
 _atom_site_fract_y
 _atom_site_fract_z
 _atom_site_occupancy
  Ca  Ca0  1  0.01077451  0.95984827  0.14998163  1
  Ca  Ca1  1  0.01354114  0.96027526  0.35055884  1
  Ca  Ca2  1  0.01051590  0.96260229  0.55082797  1
  Ca  Ca3  1  0.01209051  0.96241786  0.75031463  1
  Ca  Ca4  1  0.01242952  0.96207842  0.94977779  1
  Ca  Ca5  1  0.49028010  0.45808152  0.35053401  1
  Ca  Ca6  1  0.48778408  0.45865490  0.15000681  1
  Ca  Ca7  1  0.48965450  0.45736572  0.74962583  1
  Ca  Ca8  1  0.49061641  0.45804486  0.95056091  1
  Ca  Ca9  1  0.51260355  0.54135147  0.05003439  1
  Ca  Ca10  1  0.51303962  0.54099325  0.25022312  1
  Ca  Ca11  1  0.51041595  0.54364395  0.65074471  1
  Ca  Ca12  1  0.50993256  0.54029970  0.44718260  1
  Ca  Ca13  1  0.98929069  0.03994187  0.04994995  1
  Ca  Ca14  1  0.98959565  0.03971368  0.25021174  1
  Ca  Ca15  1  0.98780435  0.03737713  0.44785913  1
  Ca  Ca16  1  0.98887261  0.03714235  0.65001638  1
  Ca  Ca17  1  0.98675812  0.03613187  0.85008165  1
  La  La18  1  0.49447916  0.46786040  0.55090923  1
  La  La19  1  0.50453720  0.53342318  0.85006945  1
  Ti  Ti20  1  0.00022463  0.49946888  0.49812100  1
  Ti  Ti21  1  0.00726746  0.49883723  0.00078479  1
  Ti  Ti22  1  0.00026378  0.49950857  0.19997041  1
  Ti  Ti23  1  0.99933979  0.49885074  0.39862754  1
  Ti  Ti24  1  0.99779572  0.50098067  0.60179812  1
  Ti  Ti25  1  0.99920412  0.49885395  0.79866522  1
  Ti  Ti26  1  0.49681578  0.99968067  0.09949167  1
  Ti  Ti27  1  0.50775154  0.00003388  0.99933832  1
  Ti  Ti28  1  0.50581479  0.00101466  0.30005945  1
  Ti  Ti29  1  0.49826778  0.99892888  0.49820482  1
  Ti  Ti30  1  0.50453724  -0.00004451  0.70062970  1
  Ti  Ti31  1  0.50107543  0.99976000  0.19988029  1
  Ti  Ti32  1  0.99751219  0.50034928  0.10029206  1
  Ti  Ti33  1  0.00798632  0.49933153  0.29990839  1
  Ti  Ti34  1  0.00139977  0.49872627  0.70002064  1
  Ti  Ti35  1  0.99872826  0.49858929  0.90184182  1
  Mn  Mn36  1  0.50140597  0.99967292  0.39942213  1
  Mn  Mn37  1  0.49767052  0.99976108  0.60107701  1
  Mn  Mn38  1  0.49836706  0.99969740  0.90049490  1
  Mn  Mn39  1  0.49891086  0.99972912  0.79939220  1
  O  O40  1  0.08217625  0.48036527  0.04998465  1
  O  O41  1  0.08114932  0.48065404  0.25010633  1
  O  O42  1  0.07948658  0.47977931  0.45033586  1
  O  O43  1  0.08147320  0.47866043  0.65024455  1
  O  O44  1  0.06502473  0.48456006  0.84990486  1
  O  O45  1  0.21453277  0.21516479  0.10870666  1
  O  O46  1  0.21211176  0.21474542  0.30883158  1
  O  O47  1  0.21693490  0.21748560  0.50873225  1
  O  O48  1  0.21135820  0.21516049  0.70870374  1
  O  O49  1  0.21956969  0.22033705  0.90856401  1
  O  O50  1  0.21381252  0.21550444  0.19137125  1
  O  O51  1  0.21475751  0.21641189  0.39151433  1
  O  O52  1  0.21583213  0.21946239  0.59118302  1
  O  O53  1  0.22005840  0.21949668  0.79147997  1
  O  O54  1  0.21031028  0.21556071  0.99127407  1
  O  O55  1  0.28541605  0.71451380  0.10873942  1
  O  O56  1  0.28445943  0.71510102  0.19137485  1
  O  O57  1  0.28377076  0.71333627  0.30883429  1
  O  O58  1  0.28373157  0.71334439  0.39171662  1
  O  O59  1  0.27745107  0.71767360  0.59224423  1
  O  O60  1  0.28474269  0.71368329  0.70828208  1
  O  O61  1  0.28636681  0.71503917  0.79197138  1
  O  O62  1  0.28077809  0.71982757  0.50765711  1
  O  O63  1  0.28551911  0.71456758  0.90811875  1
  O  O64  1  0.28306793  0.71418148  0.99141846  1
  O  O65  1  0.41758834  0.98045696  0.05039788  1
  O  O66  1  0.41822618  0.98027308  0.25031343  1
  O  O67  1  0.41815107  0.98186005  0.64938600  1
  O  O68  1  0.41984725  0.98296740  0.44956261  1
  O  O69  1  0.42075369  0.99045428  0.85091704  1
  O  O70  1  0.58131908  0.01856107  0.35051709  1
  O  O71  1  0.58116763  0.01945325  0.15020589  1
  O  O72  1  0.57914145  0.01074785  0.55036679  1
  O  O73  1  0.58608057  0.01971048  0.74781474  1
  O  O74  1  0.58370324  0.01911110  0.95136571  1
  O  O75  1  0.71204515  0.28684874  0.00874165  1
  O  O76  1  0.71545874  0.28516841  0.09132000  1
  O  O77  1  0.71437539  0.28525724  0.20878916  1
  O  O78  1  0.71269525  0.28372668  0.29167460  1
  O  O79  1  0.71469831  0.28875527  0.60826210  1
  O  O80  1  0.71869893  0.28375257  0.40845898  1
  O  O81  1  0.71090795  0.28752653  0.49190818  1
  O  O82  1  0.71437593  0.28809184  0.69125740  1
  O  O83  1  0.71886828  0.28142000  0.80740221  1
  O  O84  1  0.71980705  0.28117862  0.89250574  1
  O  O85  1  0.78402780  0.78485693  0.00896797  1
  O  O86  1  0.78515506  0.78493162  0.20880005  1
  O  O87  1  0.78508989  0.78162239  0.40869395  1
  O  O88  1  0.78178464  0.77947450  0.60857446  1
  O  O89  1  0.78136502  0.78299406  0.80865048  1
  O  O90  1  0.78627783  0.78451173  0.09127057  1
  O  O91  1  0.78642851  0.78373763  0.69095874  1
  O  O92  1  0.78373277  0.78473095  0.29153738  1
  O  O93  1  0.78083056  0.78343265  0.49152315  1
  O  O94  1  0.78128470  0.78201793  0.89127159  1
  O  O95  1  0.91780826  0.51941004  0.14999038  1
  O  O96  1  0.91897446  0.51929117  0.34992673  1
  O  O97  1  0.93213295  0.51669435  0.54976891  1
  O  O98  1  0.91921157  0.52168291  0.75003916  1
  O  O99  1  0.91873963  0.52169453  0.95007371  1
