# generated using pymatgen
data_ErZr11Si11PO48
_symmetry_space_group_name_H-M   'P 1'
_cell_length_a   5.62992816
_cell_length_b   5.62992784
_cell_length_c   67.53500510
_cell_angle_alpha   106.66503870
_cell_angle_beta   106.66469698
_cell_angle_gamma   115.25570376
_symmetry_Int_Tables_number   1
_chemical_formula_structural   ErZr11Si11PO48
_chemical_formula_sum   'Er2 Zr22 Si22 P2 O96'
_cell_volume   1634.87241564
_cell_formula_units_Z   2
loop_
 _symmetry_equiv_pos_site_id
 _symmetry_equiv_pos_as_xyz
  1  'x, y, z'
loop_
 _atom_site_type_symbol
 _atom_site_label
 _atom_site_symmetry_multiplicity
 _atom_site_fract_x
 _atom_site_fract_y
 _atom_site_fract_z
 _atom_site_occupancy
  Er  Er0  1  0.12614895  0.87614460  0.93768742  1
  Er  Er1  1  0.12390417  0.87390454  0.85397951  1
  Zr  Zr2  1  0.12416403  0.87416637  0.77069486  1
  Zr  Zr3  1  0.12499634  0.87498889  0.68749766  1
  Zr  Zr4  1  0.87890652  0.12891560  0.97981791  1
  Zr  Zr5  1  0.12499036  0.87499773  0.60416476  1
  Zr  Zr6  1  0.87500398  0.12500367  0.89583315  1
  Zr  Zr7  1  0.12499253  0.87499237  0.52083261  1
  Zr  Zr8  1  0.87110229  0.12109271  0.81184880  1
  Zr  Zr9  1  0.12501027  0.87500453  0.43749999  1
  Zr  Zr10  1  0.87503870  0.12503767  0.72917175  1
  Zr  Zr11  1  0.12500310  0.87500926  0.35416679  1
  Zr  Zr12  1  0.87498662  0.12498739  0.64583086  1
  Zr  Zr13  1  0.12500126  0.87500079  0.27083416  1
  Zr  Zr14  1  0.87500050  0.12499808  0.56249840  1
  Zr  Zr15  1  0.12502392  0.87501614  0.18750238  1
  Zr  Zr16  1  0.87500616  0.12500929  0.47916665  1
  Zr  Zr17  1  0.12501625  0.87502300  0.10416915  1
  Zr  Zr18  1  0.87500025  0.12500043  0.39583309  1
  Zr  Zr19  1  0.12582721  0.87582693  0.02097202  1
  Zr  Zr20  1  0.87501038  0.12500824  0.31250003  1
  Zr  Zr21  1  0.87501629  0.12501819  0.22916820  1
  Zr  Zr22  1  0.87501423  0.12501414  0.14583563  1
  Zr  Zr23  1  0.87497762  0.12497736  0.06249471  1
  Si  Si24  1  0.37828075  0.62827241  0.97971176  1
  Si  Si25  1  0.37500465  0.62500517  0.89583332  1
  Si  Si26  1  0.37173163  0.62173989  0.81195492  1
  Si  Si27  1  0.37478651  0.62477931  0.72912962  1
  Si  Si28  1  0.62516745  0.37516275  0.77086232  1
  Si  Si29  1  0.37499079  0.62499158  0.64583157  1
  Si  Si30  1  0.62502441  0.37502669  0.68750388  1
  Si  Si31  1  0.37500023  0.62500938  0.56249977  1
  Si  Si32  1  0.62499295  0.37499002  0.60416487  1
  Si  Si33  1  0.37500542  0.62499683  0.47916587  1
  Si  Si34  1  0.62499068  0.37499070  0.52083315  1
  Si  Si35  1  0.37500293  0.62500326  0.39583339  1
  Si  Si36  1  0.62500232  0.37500478  0.43750010  1
  Si  Si37  1  0.37500687  0.62501539  0.31250077  1
  Si  Si38  1  0.62500330  0.37500085  0.35416654  1
  Si  Si39  1  0.37501205  0.62500227  0.22916685  1
  Si  Si40  1  0.62499402  0.37499364  0.27083361  1
  Si  Si41  1  0.37501322  0.62501368  0.14583518  1
  Si  Si42  1  0.62501230  0.37501537  0.18750184  1
  Si  Si43  1  0.37522450  0.62523033  0.06253704  1
  Si  Si44  1  0.62497900  0.37497773  0.10416265  1
  Si  Si45  1  0.62481486  0.37481921  0.02080433  1
  P  P46  1  0.62483750  0.37483745  0.93747220  1
  P  P47  1  0.62516858  0.37516895  0.85419412  1
  O  O48  1  0.19662144  0.63346635  0.99494277  1
  O  O49  1  0.38715763  0.81194795  0.96483501  1
  O  O50  1  0.19086771  0.26606479  0.96483607  1
  O  O51  1  0.18972648  0.61837775  0.91074235  1
  O  O52  1  0.74269834  0.80585151  0.99494361  1
  O  O53  1  0.38161907  0.81027587  0.88092370  1
  O  O54  1  0.28476778  0.21470460  0.92246547  1
  O  O55  1  0.18947089  0.26081510  0.88092412  1
  O  O56  1  0.18803158  0.61283291  0.82683014  1
  O  O57  1  0.78431437  0.71454490  0.95253883  1
  O  O58  1  0.73918680  0.81053253  0.91074297  1
  O  O59  1  0.64614785  0.21592094  0.95253721  1
  O  O60  1  0.36652995  0.80337771  0.79672335  1
  O  O61  1  0.28547429  0.21569923  0.83912903  1
  O  O62  1  0.19415453  0.25730763  0.79672432  1
  O  O63  1  0.19497436  0.62778952  0.74438789  1
  O  O64  1  0.78481072  0.35488113  0.92246393  1
  O  O65  1  0.78531356  0.71524200  0.86920248  1
  O  O66  1  0.73392771  0.80913707  0.82683139  1
  O  O67  1  0.64511730  0.21518182  0.86920094  1
  O  O68  1  0.37185674  0.80508229  0.71388811  1
  O  O69  1  0.26243116  0.19556166  0.75559032  1
  O  O70  1  0.19481483  0.26157086  0.71388981  1
  O  O71  1  0.19488974  0.62804142  0.66109115  1
  O  O72  1  0.78407295  0.35384460  0.83912742  1
  O  O73  1  0.80519883  0.73865076  0.78611823  1
  O  O74  1  0.73768839  0.80487450  0.74438873  1
  O  O75  1  0.62820715  0.19473957  0.78611745  1
  O  O76  1  0.37192456  0.80508935  0.63057087  1
  O  O77  1  0.26181878  0.19496675  0.67224325  1
  O  O78  1  0.19491593  0.26175754  0.63057112  1
  O  O79  1  0.19487736  0.62803979  0.57775828  1
  O  O80  1  0.80462493  0.37150823  0.75558867  1
  O  O81  1  0.80508905  0.73826501  0.70276842  1
  O  O82  1  0.73819639  0.80503934  0.66109145  1
  O  O83  1  0.62812496  0.19495523  0.70276789  1
  O  O84  1  0.37194413  0.80508650  0.54723831  1
  O  O85  1  0.26177771  0.19491352  0.58890450  1
  O  O86  1  0.19492608  0.26178599  0.54723941  1
  O  O87  1  0.19491505  0.62804878  0.49442673  1
  O  O88  1  0.80507868  0.37193224  0.67224109  1
  O  O89  1  0.80504757  0.73821649  0.61942530  1
  O  O90  1  0.73821756  0.80507241  0.57775981  1
  O  O91  1  0.62804101  0.19486891  0.61942351  1
  O  O92  1  0.37194870  0.80508932  0.46390538  1
  O  O93  1  0.26176924  0.19491771  0.50557308  1
  O  O94  1  0.19492904  0.26177144  0.46390709  1
  O  O95  1  0.19489187  0.62804043  0.41109243  1
  O  O96  1  0.80507616  0.37193294  0.58890374  1
  O  O97  1  0.80507844  0.73821335  0.53609447  1
  O  O98  1  0.73822004  0.80508608  0.49442773  1
  O  O99  1  0.62804032  0.19489310  0.53609340  1
  O  O100  1  0.37194246  0.80510038  0.38057385  1
  O  O101  1  0.26178457  0.19494116  0.42224184  1
  O  O102  1  0.19493327  0.26178164  0.38057424  1
  O  O103  1  0.19488430  0.62804342  0.32775939  1
  O  O104  1  0.80508049  0.37194769  0.50557178  1
  O  O105  1  0.80507108  0.73822240  0.45276032  1
  O  O106  1  0.73821006  0.80505445  0.41109278  1
  O  O107  1  0.62804710  0.19490206  0.45275970  1
  O  O108  1  0.37195222  0.80508867  0.29723921  1
  O  O109  1  0.26178651  0.19492791  0.33890662  1
  O  O110  1  0.19492695  0.26179244  0.29724010  1
  O  O111  1  0.19491696  0.62805560  0.24442764  1
  O  O112  1  0.80509857  0.37194369  0.42224003  1
  O  O113  1  0.80506340  0.73821887  0.36942669  1
  O  O114  1  0.73822636  0.80508455  0.32776108  1
  O  O115  1  0.62804312  0.19488511  0.36942493  1
  O  O116  1  0.37195114  0.80509621  0.21390651  1
  O  O117  1  0.26177727  0.19492370  0.25557347  1
  O  O118  1  0.19494010  0.26177714  0.21390815  1
  O  O119  1  0.19490776  0.62806298  0.16109567  1
  O  O120  1  0.80509169  0.37194466  0.33890612  1
  O  O121  1  0.80508418  0.73821728  0.28609500  1
  O  O122  1  0.73822711  0.80508604  0.24442862  1
  O  O123  1  0.62804113  0.19489343  0.28609372  1
  O  O124  1  0.37194493  0.80510311  0.13057532  1
  O  O125  1  0.26178775  0.19495965  0.17224332  1
  O  O126  1  0.19494817  0.26179496  0.13057560  1
  O  O127  1  0.19488908  0.62813503  0.07777664  1
  O  O128  1  0.80508196  0.37194816  0.25557238  1
  O  O129  1  0.80508675  0.73823430  0.20276278  1
  O  O130  1  0.73823469  0.80507361  0.16109598  1
  O  O131  1  0.62806029  0.19491939  0.20276206  1
  O  O132  1  0.37221023  0.80502870  0.04727816  1
  O  O133  1  0.26174260  0.19490819  0.08889841  1
  O  O134  1  0.19513651  0.26231691  0.04727914  1
  O  O135  1  0.80511377  0.37194538  0.17224175  1
  O  O136  1  0.80504159  0.73818921  0.11942573  1
  O  O137  1  0.73842424  0.80519699  0.07777825  1
  O  O138  1  0.62805051  0.19489989  0.11942371  1
  O  O139  1  0.26133419  0.19480211  0.00554936  1
  O  O140  1  0.80503621  0.37186667  0.08889783  1
  O  O141  1  0.80444273  0.73756140  0.03607807  1
  O  O142  1  0.62847707  0.19534694  0.03607643  1
  O  O143  1  0.80523441  0.37178493  0.00554871  1
