# generated using pymatgen
data_Na7Bi3P12(Pb5O24)2
_symmetry_space_group_name_H-M   'P 1'
_cell_length_a   9.88252324
_cell_length_b   9.78839907
_cell_length_c   14.39117927
_cell_angle_alpha   89.72108343
_cell_angle_beta   90.59178776
_cell_angle_gamma   120.13138308
_symmetry_Int_Tables_number   1
_chemical_formula_structural   Na7Bi3P12(Pb5O24)2
_chemical_formula_sum   'Na7 Bi3 P12 Pb10 O48'
_cell_volume   1203.94554415
_cell_formula_units_Z   1
loop_
 _symmetry_equiv_pos_site_id
 _symmetry_equiv_pos_as_xyz
  1  'x, y, z'
loop_
 _atom_site_type_symbol
 _atom_site_label
 _atom_site_symmetry_multiplicity
 _atom_site_fract_x
 _atom_site_fract_y
 _atom_site_fract_z
 _atom_site_occupancy
  Na  Na0  1  0.32765442  0.66208338  0.49713990  1
  Na  Na1  1  0.32599601  0.66057127  0.99831230  1
  Na  Na2  1  0.26148943  0.99481994  0.86628307  1
  Na  Na3  1  0.64940441  0.32336082  0.25821640  1
  Na  Na4  1  0.66315880  0.32474922  0.73763952  1
  Na  Na5  1  0.65097723  0.32639426  0.50428736  1
  Na  Na6  1  0.28005583  0.00813987  0.38824093  1
  Bi  Bi7  1  0.32603994  0.68095112  0.25618269  1
  Bi  Bi8  1  0.32440700  0.68145125  0.75582587  1
  Bi  Bi9  1  0.63242115  0.32504380  0.00365035  1
  P  P10  1  0.01289741  0.40433004  0.12110466  1
  P  P11  1  0.02103594  0.40120668  0.62371723  1
  P  P12  1  0.37156432  0.96890564  0.12112800  1
  P  P13  1  0.36781323  0.97057561  0.62688662  1
  P  P14  1  0.38726699  0.37549177  0.36991321  1
  P  P15  1  0.39818715  0.37719380  0.87507718  1
  P  P16  1  0.58097310  0.61561083  0.12297384  1
  P  P17  1  0.59319962  0.62460338  0.62478469  1
  P  P18  1  0.62093164  0.02614715  0.37077032  1
  P  P19  1  0.61324188  0.03085289  0.87552674  1
  P  P20  1  0.97403569  0.60193290  0.36979503  1
  P  P21  1  0.97367958  0.60302252  0.87374632  1
  Pb  Pb22  1  0.99197825  0.25704977  0.37760308  1
  Pb  Pb23  1  0.98380468  0.25890799  0.86764595  1
  Pb  Pb24  1  0.23911515  0.25872430  0.12934448  1
  Pb  Pb25  1  0.26251108  0.25976790  0.61669397  1
  Pb  Pb26  1  0.72688739  0.73338706  0.86756732  1
  Pb  Pb27  1  0.73313646  0.73336659  0.37634618  1
  Pb  Pb28  1  0.99943643  0.75097828  0.12088873  1
  Pb  Pb29  1  0.98645876  0.73260091  0.61608764  1
  Pb  Pb30  1  0.73718283  0.99479879  0.12372365  1
  Pb  Pb31  1  0.73270784  0.00529080  0.61662874  1
  O  O32  1  0.25095261  0.92180104  0.04117324  1
  O  O33  1  0.23819452  0.92466020  0.55174343  1
  O  O34  1  0.28289183  0.91117006  0.21547215  1
  O  O35  1  0.28443658  0.89544598  0.72243324  1
  O  O36  1  0.10673545  0.59089882  0.12857816  1
  O  O37  1  0.11552525  0.58886496  0.62114610  1
  O  O38  1  0.15513704  0.66903025  0.36738788  1
  O  O39  1  0.15192900  0.65623077  0.87432045  1
  O  O40  1  0.06998230  0.35499643  0.03425509  1
  O  O41  1  0.06938204  0.34734959  0.20754170  1
  O  O42  1  0.07590842  0.33820960  0.54125392  1
  O  O43  1  0.08466781  0.36044584  0.71358780  1
  O  O44  1  0.46619384  0.87877386  0.11307870  1
  O  O45  1  0.46188778  0.88145256  0.60806010  1
  O  O46  1  0.35155133  0.50684620  0.87647018  1
  O  O47  1  0.32862893  0.49829120  0.36582720  1
  O  O48  1  0.49643950  0.84865398  0.87015349  1
  O  O49  1  0.50158773  0.84210258  0.36695308  1
  O  O50  1  0.39701627  0.53012088  0.12388167  1
  O  O51  1  0.40971282  0.53320308  0.61491458  1
  O  O52  1  0.34313059  0.27464476  0.28038264  1
  O  O53  1  0.29933514  0.24428479  0.80689262  1
  O  O54  1  0.30912805  0.26013322  0.45211906  1
  O  O55  1  0.38807756  0.30482273  0.97550194  1
  O  O56  1  0.66641973  0.74576118  0.54329903  1
  O  O57  1  0.64514841  0.72580997  0.03740140  1
  O  O58  1  0.63674869  0.72459620  0.21059758  1
  O  O59  1  0.62734813  0.73123705  0.71407566  1
  O  O60  1  0.56959970  0.46552341  0.38323977  1
  O  O61  1  0.58108023  0.45854713  0.85570440  1
  O  O62  1  0.48907944  0.15081360  0.12097540  1
  O  O63  1  0.47577407  0.14922240  0.63088131  1
  O  O64  1  0.63752610  0.49365973  0.12456864  1
  O  O65  1  0.65835185  0.51304977  0.62912435  1
  O  O66  1  0.53978433  0.12111744  0.38562272  1
  O  O67  1  0.52374549  0.12232922  0.88734066  1
  O  O68  1  0.91223219  0.64803193  0.28283353  1
  O  O69  1  0.93426820  0.67609535  0.45364945  1
  O  O70  1  0.94047802  0.69881628  0.79981192  1
  O  O71  1  0.91600514  0.63106746  0.96846849  1
  O  O72  1  0.83482733  0.33811721  0.12061452  1
  O  O73  1  0.84530041  0.33740605  0.62098742  1
  O  O74  1  0.88630877  0.41945659  0.38109795  1
  O  O75  1  0.87570461  0.42165260  0.85441646  1
  O  O76  1  0.72318943  0.07961051  0.28155134  1
  O  O77  1  0.71809899  0.08771377  0.78799961  1
  O  O78  1  0.72628586  0.07366256  0.96089214  1
  O  O79  1  0.74061488  0.05596369  0.45198380  1
