# generated using pymatgen
data_Co5Te4(ClO6)2
_symmetry_space_group_name_H-M   'P 1'
_cell_length_a   5.32872717
_cell_length_b   10.43641358
_cell_length_c   13.84160804
_cell_angle_alpha   84.77290361
_cell_angle_beta   78.90189909
_cell_angle_gamma   75.20893930
_symmetry_Int_Tables_number   1
_chemical_formula_structural   Co5Te4(ClO6)2
_chemical_formula_sum   'Co10 Te8 Cl4 O24'
_cell_volume   729.62980785
_cell_formula_units_Z   2
loop_
 _symmetry_equiv_pos_site_id
 _symmetry_equiv_pos_as_xyz
  1  'x, y, z'
loop_
 _atom_site_type_symbol
 _atom_site_label
 _atom_site_symmetry_multiplicity
 _atom_site_fract_x
 _atom_site_fract_y
 _atom_site_fract_z
 _atom_site_occupancy
  Co  Co0  1  0.12545947  0.70650960  0.47554463  1
  Co  Co1  1  0.69248629  0.20650960  0.97554463  1
  Co  Co2  1  0.30751371  0.79349040  0.02445537  1
  Co  Co3  1  0.77309155  0.89838861  0.11828687  1
  Co  Co4  1  0.21023297  0.39838861  0.61828687  1
  Co  Co5  1  0.23384241  0.75000000  0.25000000  1
  Co  Co6  1  0.22690845  0.10161139  0.88171313  1
  Co  Co7  1  0.78976703  0.60161139  0.38171313  1
  Co  Co8  1  0.87454053  0.29349040  0.52445537  1
  Co  Co9  1  0.76615759  0.25000000  0.75000000  1
  Te  Te10  1  0.43835672  0.08591893  0.62217927  1
  Te  Te11  1  0.55755992  0.61226054  0.63966600  1
  Te  Te12  1  0.14645491  0.41408107  0.87782073  1
  Te  Te13  1  0.80948645  0.88773946  0.86033400  1
  Te  Te14  1  0.19051355  0.11226054  0.13966600  1
  Te  Te15  1  0.85354509  0.58591893  0.12217927  1
  Te  Te16  1  0.44244008  0.38773946  0.36033400  1
  Te  Te17  1  0.56164328  0.91408107  0.37782073  1
  Cl  Cl18  1  0.90127859  0.12331059  0.40680394  1
  Cl  Cl19  1  0.56860688  0.62331059  0.90680394  1
  Cl  Cl20  1  0.09872141  0.87668941  0.59319606  1
  Cl  Cl21  1  0.43139312  0.37668941  0.09319606  1
  O  O22  1  0.45557886  0.01916132  0.75105451  1
  O  O23  1  0.31486998  0.57181287  0.56929516  1
  O  O24  1  0.44521223  0.25974550  0.86723877  1
  O  O25  1  0.95329345  0.82631371  0.97788480  1
  O  O26  1  0.20269495  0.56057900  0.35758880  1
  O  O27  1  0.42780349  0.75974550  0.36723877  1
  O  O28  1  0.06673319  0.70002738  0.14377213  1
  O  O29  1  0.12086275  0.93942100  0.14241120  1
  O  O30  1  0.54402199  0.07181287  0.06929516  1
  O  O31  1  0.77420531  0.51916132  0.25105451  1
  O  O32  1  0.75749195  0.67368629  0.52211520  1
  O  O33  1  0.45597801  0.92818713  0.93070484  1
  O  O34  1  0.87913725  0.06057900  0.85758880  1
  O  O35  1  0.54442114  0.98083868  0.24894549  1
  O  O36  1  0.22579469  0.48083868  0.74894549  1
  O  O37  1  0.93326681  0.29997262  0.85622787  1
  O  O38  1  0.57219651  0.24025450  0.63276123  1
  O  O39  1  0.24250805  0.32631371  0.47788480  1
  O  O40  1  0.79730505  0.43942100  0.64241120  1
  O  O41  1  0.68513002  0.42818713  0.43070484  1
  O  O42  1  0.55478777  0.74025450  0.13276123  1
  O  O43  1  0.04670655  0.17368629  0.02211520  1
  O  O44  1  0.08946729  0.20002738  0.64377213  1
  O  O45  1  0.91053271  0.79997262  0.35622787  1
