# generated using pymatgen
data_Zr12Si2Bi2P16PbO72
_symmetry_space_group_name_H-M   'P 1'
_cell_length_a   9.31131256
_cell_length_b   9.31616354
_cell_length_c   27.80908299
_cell_angle_alpha   57.78590379
_cell_angle_beta   57.80450945
_cell_angle_gamma   57.72849050
_symmetry_Int_Tables_number   1
_chemical_formula_structural   Zr12Si2Bi2P16PbO72
_chemical_formula_sum   'Zr12 Si2 Bi2 P16 Pb1 O72'
_cell_volume   1618.51948207
_cell_formula_units_Z   1
loop_
 _symmetry_equiv_pos_site_id
 _symmetry_equiv_pos_as_xyz
  1  'x, y, z'
loop_
 _atom_site_type_symbol
 _atom_site_label
 _atom_site_symmetry_multiplicity
 _atom_site_fract_x
 _atom_site_fract_y
 _atom_site_fract_z
 _atom_site_occupancy
  Zr  Zr0  1  0.13769859  0.13908311  0.04649906  1
  Zr  Zr1  1  0.34762178  0.34549261  0.11666508  1
  Zr  Zr2  1  0.13813408  0.13575523  0.37990431  1
  Zr  Zr3  1  0.34715891  0.34749481  0.44926939  1
  Zr  Zr4  1  0.65072263  0.65376893  0.21539335  1
  Zr  Zr5  1  0.14016458  0.13791680  0.71374093  1
  Zr  Zr6  1  0.85752272  0.86816416  0.28632408  1
  Zr  Zr7  1  0.35034727  0.35271856  0.78189921  1
  Zr  Zr8  1  0.65051273  0.65494083  0.54778160  1
  Zr  Zr9  1  0.85656877  0.86612041  0.61933290  1
  Zr  Zr10  1  0.65054726  0.64791627  0.88386544  1
  Zr  Zr11  1  0.86231426  0.86103250  0.95258933  1
  Si  Si12  1  0.74300401  0.04708928  0.15686831  1
  Si  Si13  1  0.74237367  0.04711903  0.48969951  1
  Bi  Bi14  1  0.49577784  0.48651204  0.16637593  1
  Bi  Bi15  1  0.49680515  0.48631214  0.49969513  1
  P  P16  1  0.04410877  0.47578778  0.24766362  1
  P  P17  1  0.47331457  0.74357975  0.01546134  1
  P  P18  1  0.25732841  0.95222275  0.17733694  1
  P  P19  1  0.52962211  0.25712226  0.31744025  1
  P  P20  1  0.04319526  0.47276877  0.58172660  1
  P  P21  1  0.95291521  0.53027219  0.08546430  1
  P  P22  1  0.47487669  0.74130928  0.34860093  1
  P  P23  1  0.25683192  0.95196020  0.51047815  1
  P  P24  1  0.52889675  0.25590025  0.65083568  1
  P  P25  1  0.04540380  0.47143931  0.91387371  1
  P  P26  1  0.95260141  0.52851162  0.41899864  1
  P  P27  1  0.47030987  0.74436592  0.68073800  1
  P  P28  1  0.74419548  0.04310116  0.82312035  1
  P  P29  1  0.25609802  0.95702162  0.84374244  1
  P  P30  1  0.53288065  0.25435089  0.98522269  1
  P  P31  1  0.95563773  0.53041302  0.75188651  1
  Pb  Pb32  1  0.50092233  0.50097356  0.83196096  1
  O  O33  1  0.10592990  0.49704401  0.10217293  1
  O  O34  1  0.30322215  0.10840794  0.16621389  1
  O  O35  1  0.49915201  0.29455935  0.03893193  1
  O  O36  1  0.06967342  0.29880918  0.30143715  1
  O  O37  1  0.22937905  0.45025487  0.19160122  1
  O  O38  1  0.01082197  0.63729470  0.25803049  1
  O  O39  1  0.30247317  0.91116235  0.02089408  1
  O  O40  1  0.44076304  0.58020467  0.07760823  1
  O  O41  1  0.56695326  0.24281818  0.14739827  1
  O  O42  1  0.09114479  0.93622801  0.23490259  1
  O  O43  1  0.23277774  0.98697270  0.12128820  1
  O  O44  1  0.36782080  0.22600657  0.32864583  1
  O  O45  1  0.63915840  0.76813191  0.00480895  1
  O  O46  1  0.10261678  0.49435227  0.43750591  1
  O  O47  1  0.77075610  0.01418078  0.21515267  1
  O  O48  1  0.91745532  0.06908076  0.09574141  1
  O  O49  1  0.42089186  0.77056283  0.18733575  1
  O  O50  1  0.30651409  0.10738892  0.49798762  1
  O  O51  1  0.56185811  0.41704975  0.25544960  1
  O  O52  1  0.48904032  0.31512529  0.36800315  1
  O  O53  1  0.70194480  0.08899782  0.31584043  1
  O  O54  1  0.06545730  0.29826651  0.63679925  1
  O  O55  1  0.98993120  0.36590208  0.07532987  1
  O  O56  1  0.22907508  0.44455172  0.52636806  1
  O  O57  1  0.76970277  0.55620109  0.14029028  1
  O  O58  1  0.01121300  0.63558509  0.59124040  1
  O  O59  1  0.93599982  0.70276354  0.02959607  1
  O  O60  1  0.30323860  0.90942795  0.35295530  1
  O  O61  1  0.51085116  0.68507545  0.29881110  1
  O  O62  1  0.43741377  0.58017853  0.41108505  1
  O  O63  1  0.68480102  0.88851305  0.17002764  1
  O  O64  1  0.56694469  0.24268414  0.48018373  1
  O  O65  1  0.09065970  0.93644636  0.56825020  1
  O  O66  1  0.23062344  0.98546318  0.45492673  1
  O  O67  1  0.89696168  0.50711248  0.22926135  1
  O  O68  1  0.36505427  0.22381371  0.66314765  1
  O  O69  1  0.63829904  0.76503153  0.33971648  1
  O  O70  1  0.11441434  0.49798874  0.76512396  1
  O  O71  1  0.76982700  0.01302842  0.54816367  1
  O  O72  1  0.91675038  0.06935843  0.42854700  1
  O  O73  1  0.42028439  0.76949755  0.52032722  1
  O  O74  1  0.29462539  0.11716198  0.83191540  1
  O  O75  1  0.55804689  0.41561517  0.58846480  1
  O  O76  1  0.49287979  0.31234251  0.70056032  1
  O  O77  1  0.70038194  0.08729082  0.64836189  1
  O  O78  1  0.06980176  0.29909302  0.96921132  1
  O  O79  1  0.99217366  0.36420312  0.40811138  1
  O  O80  1  0.22108223  0.44194906  0.85784979  1
  O  O81  1  0.76835206  0.55115158  0.47422323  1
  O  O82  1  0.01475126  0.63743131  0.92214159  1
  O  O83  1  0.93580811  0.70217346  0.36418719  1
  O  O84  1  0.29841064  0.91249977  0.68732493  1
  O  O85  1  0.50452400  0.70126049  0.62809749  1
  O  O86  1  0.43624678  0.57913069  0.74027341  1
  O  O87  1  0.68765488  0.88779498  0.50155819  1
  O  O88  1  0.57857816  0.22012384  0.81198123  1
  O  O89  1  0.08775321  0.93689982  0.90088826  1
  O  O90  1  0.23220697  0.98372606  0.78853204  1
  O  O91  1  0.89434379  0.50437455  0.56404547  1
  O  O92  1  0.36687220  0.23322334  0.99493717  1
  O  O93  1  0.63488612  0.76571314  0.67252113  1
  O  O94  1  0.76721549  0.01540088  0.87866904  1
  O  O95  1  0.91275519  0.06327790  0.76615140  1
  O  O96  1  0.42127755  0.78016833  0.85503888  1
  O  O97  1  0.56590311  0.42048533  0.92679104  1
  O  O98  1  0.70417477  0.08617844  0.97913991  1
  O  O99  1  0.98587081  0.36270313  0.74448994  1
  O  O100  1  0.77936500  0.56031218  0.80807152  1
  O  O101  1  0.93407266  0.70158669  0.69646069  1
  O  O102  1  0.50448991  0.69108732  0.96582206  1
  O  O103  1  0.70520253  0.88342638  0.83495126  1
  O  O104  1  0.88603014  0.50215529  0.90167204  1
