# generated using pymatgen
data_TlOF
_symmetry_space_group_name_H-M   'P 1'
_cell_length_a   9.80786708
_cell_length_b   9.36754342
_cell_length_c   9.36754355
_cell_angle_alpha   106.94499908
_cell_angle_beta   109.39740048
_cell_angle_gamma   109.39740100
_symmetry_Int_Tables_number   1
_chemical_formula_structural   TlOF
_chemical_formula_sum   'Tl16 O16 F16'
_cell_volume   683.20206633
_cell_formula_units_Z   16
loop_
 _symmetry_equiv_pos_site_id
 _symmetry_equiv_pos_as_xyz
  1  'x, y, z'
loop_
 _atom_site_type_symbol
 _atom_site_label
 _atom_site_symmetry_multiplicity
 _atom_site_fract_x
 _atom_site_fract_y
 _atom_site_fract_z
 _atom_site_occupancy
  Tl  Tl0  1  0.21174983  0.96361043  0.70577218  1
  Tl  Tl1  1  0.02103690  0.24783552  0.74181752  1
  Tl  Tl2  1  0.47307943  0.73221196  0.73221196  1
  Tl  Tl3  1  0.21174983  0.70577218  0.96361043  1
  Tl  Tl4  1  0.99633288  0.96645463  0.96645463  1
  Tl  Tl5  1  0.26910760  0.25849332  0.52080164  1
  Tl  Tl6  1  0.26910760  0.52080164  0.25849332  1
  Tl  Tl7  1  0.77063289  0.02928643  0.26996202  1
  Tl  Tl8  1  0.51699236  0.28052519  0.28052519  1
  Tl  Tl9  1  0.47062121  0.99014913  0.47638875  1
  Tl  Tl10  1  0.47062121  0.47638875  0.99014913  1
  Tl  Tl11  1  0.73431644  0.49541025  0.76100426  1
  Tl  Tl12  1  0.73431644  0.76100426  0.49541025  1
  Tl  Tl13  1  0.77063289  0.26996202  0.02928643  1
  Tl  Tl14  1  0.03812440  0.50825781  0.50825781  1
  Tl  Tl15  1  0.02103690  0.74181752  0.24783552  1
  O  O16  1  0.99347751  0.47547383  0.72161512  1
  O  O17  1  0.26777613  0.76173567  0.76173567  1
  O  O18  1  0.00956944  0.22532986  0.48178980  1
  O  O19  1  0.00956944  0.48178980  0.22532986  1
  O  O20  1  0.96664691  0.71788964  0.97467467  1
  O  O21  1  0.25978492  0.22632017  0.76562357  1
  O  O22  1  0.25978492  0.76562357  0.22632017  1
  O  O23  1  0.26301984  0.48987386  0.48987386  1
  O  O24  1  0.23474652  0.99716746  0.47287084  1
  O  O25  1  0.23474652  0.47287084  0.99716746  1
  O  O26  1  0.50351011  0.50034202  0.76827936  1
  O  O27  1  0.50351011  0.76827936  0.50034202  1
  O  O28  1  0.52308674  0.25384384  0.51092425  1
  O  O29  1  0.52308674  0.51092425  0.25384384  1
  O  O30  1  0.99347751  0.72161512  0.47547383  1
  O  O31  1  0.96664691  0.97467467  0.71788964  1
  F  F32  1  0.97765364  0.99091159  0.20048817  1
  F  F33  1  0.97765364  0.20048817  0.99091159  1
  F  F34  1  0.25520588  0.23719000  0.23719000  1
  F  F35  1  0.73664421  0.03979872  0.50815667  1
  F  F36  1  0.72481821  0.77336564  0.77336564  1
  F  F37  1  0.23996076  0.99087040  0.99087040  1
  F  F38  1  0.51130418  0.02797479  0.75256869  1
  F  F39  1  0.51130418  0.75256869  0.02797479  1
  F  F40  1  0.52306945  0.02674499  0.22993168  1
  F  F41  1  0.52306945  0.22993168  0.02674499  1
  F  F42  1  0.75172860  0.54026164  0.54026164  1
  F  F43  1  0.77881784  0.28057925  0.79827264  1
  F  F44  1  0.77881784  0.79827264  0.28057925  1
  F  F45  1  0.73664421  0.50815667  0.03979872  1
  F  F46  1  0.77279909  0.29829598  0.29829598  1
  F  F47  1  0.70860973  0.01285814  0.01285814  1
