# generated using pymatgen
data_Zr3S4
_symmetry_space_group_name_H-M   'P 1'
_cell_length_a   32.56609318
_cell_length_b   31.77452886
_cell_length_c   31.06363530
_cell_angle_alpha   11.56410369
_cell_angle_beta   12.89843686
_cell_angle_gamma   6.20026156
_symmetry_Int_Tables_number   1
_chemical_formula_structural   Zr3S4
_chemical_formula_sum   'Zr15 S20'
_cell_volume   695.47056224
_cell_formula_units_Z   5
loop_
 _symmetry_equiv_pos_site_id
 _symmetry_equiv_pos_as_xyz
  1  'x, y, z'
loop_
 _atom_site_type_symbol
 _atom_site_label
 _atom_site_symmetry_multiplicity
 _atom_site_fract_x
 _atom_site_fract_y
 _atom_site_fract_z
 _atom_site_occupancy
  Zr  Zr0  1  0.99989363  0.01515847  0.98501880  1
  Zr  Zr1  1  0.20151463  0.03037924  0.96709639  1
  Zr  Zr2  1  0.40134469  0.00946705  0.98829180  1
  Zr  Zr3  1  0.10103826  0.00222501  0.49604456  1
  Zr  Zr4  1  0.59986192  0.99685734  0.00337280  1
  Zr  Zr5  1  0.30013808  0.00314266  0.49662720  1
  Zr  Zr6  1  0.79896174  0.99777499  0.00395544  1
  Zr  Zr7  1  0.15201718  0.50096029  0.24567775  1
  Zr  Zr8  1  0.49865531  0.99053295  0.51170820  1
  Zr  Zr9  1  0.69848537  0.96962076  0.53290361  1
  Zr  Zr10  1  0.04991940  0.49169802  0.75843631  1
  Zr  Zr11  1  0.90010637  0.98484153  0.51498120  1
  Zr  Zr12  1  0.74798282  0.49903971  0.25432225  1
  Zr  Zr13  1  0.45000000  0.50000000  0.75000000  1
  Zr  Zr14  1  0.85008060  0.50830198  0.74156369  1
  S  S15  1  0.17950456  0.26577051  0.10172190  1
  S  S16  1  0.37655745  0.24689360  0.12551064  1
  S  S17  1  0.07786303  0.24955811  0.62067017  1
  S  S18  1  0.57767283  0.26145274  0.10909254  1
  S  S19  1  0.28376445  0.27526831  0.58512427  1
  S  S20  1  0.77064377  0.26386951  0.11839087  1
  S  S21  1  0.12935623  0.73613049  0.38160913  1
  S  S22  1  0.48187139  0.26261273  0.60093495  1
  S  S23  1  0.97395663  0.24496414  0.13177481  1
  S  S24  1  0.32232717  0.73854726  0.39090746  1
  S  S25  1  0.67621475  0.24287116  0.63010426  1
  S  S26  1  0.02148721  0.73805325  0.89280139  1
  S  S27  1  0.52344255  0.75310640  0.37448936  1
  S  S28  1  0.87851279  0.26194675  0.60719861  1
  S  S29  1  0.22378525  0.75712884  0.86989574  1
  S  S30  1  0.72049544  0.73422949  0.39827810  1
  S  S31  1  0.41812861  0.73738727  0.89906505  1
  S  S32  1  0.92604337  0.75503586  0.36822519  1
  S  S33  1  0.61623555  0.72473169  0.91487573  1
  S  S34  1  0.82213697  0.75044189  0.87932983  1
