# generated using pymatgen
data_La10Mn9O30
_symmetry_space_group_name_H-M   'P 1'
_cell_length_a   11.03456134
_cell_length_b   27.64512257
_cell_length_c   18.17810594
_cell_angle_alpha   25.64742476
_cell_angle_beta   41.99460901
_cell_angle_gamma   61.17334271
_symmetry_Int_Tables_number   1
_chemical_formula_structural   La10Mn9O30
_chemical_formula_sum   'La20 Mn18 O60'
_cell_volume   1222.29932515
_cell_formula_units_Z   2
loop_
 _symmetry_equiv_pos_site_id
 _symmetry_equiv_pos_as_xyz
  1  'x, y, z'
loop_
 _atom_site_type_symbol
 _atom_site_label
 _atom_site_symmetry_multiplicity
 _atom_site_fract_x
 _atom_site_fract_y
 _atom_site_fract_z
 _atom_site_occupancy
  La  La0  1  0.00838218  0.14736170  0.24521577  1
  La  La1  1  0.01563028  0.34976393  0.24576997  1
  La  La2  1  0.00037659  0.55423934  0.24389697  1
  La  La3  1  0.49830801  0.15587259  0.24784805  1
  La  La4  1  0.98036421  0.73896263  0.27662060  1
  La  La5  1  0.50168310  0.35444882  0.23025866  1
  La  La6  1  0.99694943  0.94522733  0.27182825  1
  La  La7  1  0.98436974  0.45023607  0.75422997  1
  La  La8  1  0.51995199  0.56362248  0.21946823  1
  La  La9  1  0.50053163  0.05450250  0.74358584  1
  La  La10  1  0.99161792  0.65263836  0.75478407  1
  La  La11  1  0.49946844  0.74549753  0.25641408  1
  La  La12  1  0.48004797  0.23637750  0.78053179  1
  La  La13  1  0.47995408  0.94575754  0.26165746  1
  La  La14  1  0.49831697  0.44555121  0.76974130  1
  La  La15  1  0.01963581  0.06103734  0.72337944  1
  La  La16  1  0.50169196  0.64412741  0.75215196  1
  La  La17  1  0.99962334  0.24576059  0.75610318  1
  La  La18  1  0.52004587  0.85424242  0.73834258  1
  La  La19  1  0.00305049  0.85477265  0.72817181  1
  Mn  Mn20  1  0.99858031  0.99977833  0.00121376  1
  Mn  Mn21  1  0.00375505  0.20497657  0.99046727  1
  Mn  Mn22  1  0.00000015  0.40000009  -0.00000017  1
  Mn  Mn23  1  0.50431618  0.00039433  0.99580954  1
  Mn  Mn24  1  0.99624473  0.59502350  0.00953288  1
  Mn  Mn25  1  0.99624553  0.09740588  0.50440690  1
  Mn  Mn26  1  0.50696812  0.20323818  0.99331867  1
  Mn  Mn27  1  0.00141961  0.80022151  0.99878650  1
  Mn  Mn28  1  0.99643891  0.29964021  0.50267346  1
  Mn  Mn29  1  0.00356109  0.50035978  0.49732658  1
  Mn  Mn30  1  0.49303184  0.59676163  0.00668161  1
  Mn  Mn31  1  0.49769689  0.09567645  0.50749089  1
  Mn  Mn32  1  0.00375454  0.70259417  0.49559304  1
  Mn  Mn33  1  0.49568360  0.79960555  0.00419063  1
  Mn  Mn34  1  0.50281004  0.30021952  0.49697698  1
  Mn  Mn35  1  0.49719003  0.49978048  0.50302294  1
  Mn  Mn36  1  0.50230319  0.70432359  0.49250902  1
  Mn  Mn37  1  0.50000007  0.90000019  0.49999975  1
  O  O38  1  0.24380972  0.07696399  0.22186224  1
  O  O39  1  0.29012051  0.18961019  0.18328393  1
  O  O40  1  0.19662317  0.24686536  0.27851709  1
  O  O41  1  0.43132128  0.01746114  0.32173518  1
  O  O42  1  0.25832664  0.38475940  0.20488766  1
  O  O43  1  0.21348514  0.46649372  0.24919672  1
  O  O44  1  0.44016541  0.21308314  0.32910539  1
  O  O45  1  0.72395420  0.07319412  0.23129839  1
  O  O46  1  0.07128838  0.17722584  0.67921319  1
  O  O47  1  0.28078043  0.59364643  0.18067631  1
  O  O48  1  0.21556529  0.00579465  0.82304891  1
  O  O49  1  0.78383231  0.19296709  0.17696086  1
  O  O50  1  0.21313208  0.66267989  0.25603946  1
  O  O51  1  0.42922979  0.42210987  0.31967720  1
  O  O52  1  0.71381198  0.26307636  0.25174109  1
  O  O53  1  0.94181285  0.04000588  0.28831043  1
  O  O54  1  0.08561548  0.38098598  0.66719900  1
  O  O55  1  0.28459901  0.13858983  0.74631889  1
  O  O56  1  0.29839801  0.79834742  0.16710627  1
  O  O57  1  0.21914917  0.20829193  0.81915203  1
  O  O58  1  0.78715235  0.39367508  0.17603276  1
  O  O59  1  0.20653838  0.86067798  0.25917043  1
  O  O60  1  0.42644712  0.62395491  0.32236658  1
  O  O61  1  0.71902363  0.46551524  0.24381426  1
  O  O62  1  0.93203076  0.22403701  0.31672015  1
  O  O63  1  0.06796924  0.57596298  0.68327985  1
  O  O64  1  0.28097636  0.33448475  0.75618575  1
  O  O65  1  0.57355288  0.17604508  0.67763344  1
  O  O66  1  0.30469830  0.99036820  0.16914796  1
  O  O67  1  0.21284764  0.40632491  0.82396724  1
  O  O68  1  0.78085084  0.59170807  0.18084795  1
  O  O69  1  0.70160200  0.00165259  0.83289372  1
  O  O70  1  0.42419009  0.81792611  0.32816605  1
  O  O71  1  0.71540100  0.66141017  0.25368109  1
  O  O72  1  0.91438455  0.41901403  0.33280097  1
  O  O73  1  0.05818714  0.75999411  0.71168958  1
  O  O74  1  0.28618803  0.53692363  0.74825892  1
  O  O75  1  0.57077021  0.37789013  0.68032280  1
  O  O76  1  0.78686793  0.13732011  0.74396054  1
  O  O77  1  0.21616769  0.60703292  0.82303912  1
  O  O78  1  0.78443469  0.79420534  0.17695111  1
  O  O79  1  0.71921958  0.20635360  0.81932364  1
  O  O80  1  0.71134773  0.86579347  0.24866809  1
  O  O81  1  0.92871162  0.62277417  0.32078680  1
  O  O82  1  0.06596675  0.97700725  0.68668854  1
  O  O83  1  0.27604579  0.72680588  0.76870161  1
  O  O84  1  0.55983461  0.58691688  0.67089457  1
  O  O85  1  0.78651486  0.33350629  0.75080326  1
  O  O86  1  0.21888288  0.81130957  0.81350233  1
  O  O87  1  0.78111714  0.98869043  0.18649765  1
  O  O88  1  0.74167339  0.41524060  0.79511233  1
  O  O89  1  0.93403326  0.82299275  0.31331146  1
  O  O90  1  0.28865227  0.93420652  0.75133191  1
  O  O91  1  0.56867873  0.78253886  0.67826482  1
  O  O92  1  0.80337684  0.55313465  0.72148289  1
  O  O93  1  0.70987950  0.61038982  0.81671606  1
  O  O94  1  0.57580989  0.98207388  0.67183397  1
  O  O95  1  0.75619027  0.72303603  0.77813773  1
  O  O96  1  0.69530167  0.80963180  0.83085206  1
  O  O97  1  0.79346164  0.93932205  0.74082953  1
