# generated using pymatgen
data_Na3Zr3Fe(PO4)6
_symmetry_space_group_name_H-M   'P 1'
_cell_length_a   9.26446466
_cell_length_b   9.25113646
_cell_length_c   18.55955492
_cell_angle_alpha   57.40647619
_cell_angle_beta   57.43125717
_cell_angle_gamma   57.30888348
_symmetry_Int_Tables_number   1
_chemical_formula_structural   Na3Zr3Fe(PO4)6
_chemical_formula_sum   'Na6 Zr6 Fe2 P12 O48'
_cell_volume   1057.01637925
_cell_formula_units_Z   2
loop_
 _symmetry_equiv_pos_site_id
 _symmetry_equiv_pos_as_xyz
  1  'x, y, z'
loop_
 _atom_site_type_symbol
 _atom_site_label
 _atom_site_symmetry_multiplicity
 _atom_site_fract_x
 _atom_site_fract_y
 _atom_site_fract_z
 _atom_site_occupancy
  Na  Na0  1  0.97688480  0.00584291  0.01162024  1
  Na  Na1  1  0.00241478  0.02655411  0.48983988  1
  Na  Na2  1  0.50023956  0.50011130  0.24987182  1
  Na  Na3  1  0.49760637  0.49449752  0.75071499  1
  Na  Na4  1  0.26846351  0.91670040  0.81956993  1
  Na  Na5  1  0.91393860  0.64396079  0.63430911  1
  Zr  Zr6  1  0.14950176  0.14913086  0.06921082  1
  Zr  Zr7  1  0.35398627  0.35505825  0.17591506  1
  Zr  Zr8  1  0.14452611  0.14220215  0.57574840  1
  Zr  Zr9  1  0.64654232  0.64449655  0.32417452  1
  Zr  Zr10  1  0.85192903  0.85365050  0.42683382  1
  Zr  Zr11  1  0.84852203  0.85541171  0.92561658  1
  Fe  Fe12  1  0.35747253  0.35339821  0.67637877  1
  Fe  Fe13  1  0.65183865  0.64263368  0.82890162  1
  P  P14  1  0.04065728  0.75146176  0.22909127  1
  P  P15  1  0.45747318  0.04214321  0.37505062  1
  P  P16  1  0.74917540  0.46036144  0.01794286  1
  P  P17  1  0.25210012  0.53485349  0.48363913  1
  P  P18  1  0.54107940  0.95778195  0.12508553  1
  P  P19  1  0.04233537  0.74058904  0.73058586  1
  P  P20  1  0.96025366  0.24910628  0.26933110  1
  P  P21  1  0.45872270  0.04204891  0.87053554  1
  P  P22  1  0.74316228  0.45773665  0.52378356  1
  P  P23  1  0.25654622  0.54465764  0.97617195  1
  P  P24  1  0.54044304  0.96341709  0.62816145  1
  P  P25  1  0.96129258  0.25795883  0.76966319  1
  O  O26  1  0.12330615  0.28095126  0.25390465  1
  O  O27  1  0.28126924  0.51004215  0.06059602  1
  O  O28  1  0.06447535  0.91957227  0.14088265  1
  O  O29  1  0.50914190  0.12199231  0.14069818  1
  O  O30  1  0.21799401  0.58314620  0.21756876  1
  O  O31  1  0.00646130  0.78342385  0.31140095  1
  O  O32  1  0.28102381  0.06575007  0.45904173  1
  O  O33  1  0.43486262  0.21880329  0.29100259  1
  O  O34  1  0.58215313  0.43600031  0.10665835  1
  O  O35  1  0.22019004  0.37297610  0.49715374  1
  O  O36  1  0.07886067  0.71170860  0.47168416  1
  O  O37  1  0.37775070  0.99264593  0.10806458  1
  O  O38  1  0.62101332  0.00853869  0.39191147  1
  O  O39  1  0.13415439  0.27132033  0.75476806  1
  O  O40  1  0.91737282  0.28307990  0.03096473  1
  O  O41  1  0.78174146  0.62328717  0.00294937  1
  O  O42  1  0.41758364  0.56288128  0.39459752  1
  O  O43  1  0.26931379  0.50848020  0.56787617  1
  O  O44  1  0.56412650  0.78139277  0.20911987  1
  O  O45  1  0.06521172  0.91290822  0.64294941  1
  O  O46  1  0.71817694  0.93374629  0.04101566  1
  O  O47  1  0.50536637  0.13176446  0.64037770  1
  O  O48  1  0.21730069  0.57299415  0.71842148  1
  O  O49  1  0.99491805  0.21678430  0.18735786  1
  O  O50  1  0.00936152  0.77791153  0.81160625  1
  O  O51  1  0.78285912  0.41722086  0.28163925  1
  O  O52  1  0.49182311  0.87834782  0.35868196  1
  O  O53  1  0.28365848  0.06545716  0.95652250  1
  O  O54  1  0.93572502  0.08144652  0.35831330  1
  O  O55  1  0.43507020  0.21795653  0.78746163  1
  O  O56  1  0.71828227  0.49301783  0.43894001  1
  O  O57  1  0.57450521  0.43659552  0.61033845  1
  O  O58  1  0.22091212  0.38179299  0.99330656  1
  O  O59  1  0.08891354  0.72561500  0.96181889  1
  O  O60  1  0.87752486  0.71872689  0.24557369  1
  O  O61  1  0.37756301  0.99208722  0.61161280  1
  O  O62  1  0.62258510  0.00695090  0.88849432  1
  O  O63  1  0.91492302  0.28204781  0.53420389  1
  O  O64  1  0.77957014  0.62172422  0.50617652  1
  O  O65  1  0.42290643  0.57332779  0.88781061  1
  O  O66  1  0.56213009  0.78687347  0.71350578  1
  O  O67  1  0.72230454  0.92731399  0.54591665  1
  O  O68  1  0.99046075  0.22531204  0.68797729  1
  O  O69  1  0.78894830  0.43216607  0.77727448  1
  O  O70  1  0.48871696  0.87338168  0.85881478  1
  O  O71  1  0.93596187  0.08544092  0.85704383  1
  O  O72  1  0.71849945  0.49182233  0.93648809  1
  O  O73  1  0.87340874  0.71662754  0.74617022  1
