# generated using pymatgen
data_K2P3H7O9
_symmetry_space_group_name_H-M   'P 1'
_cell_length_a   8.75701208
_cell_length_b   9.16738622
_cell_length_c   7.65277116
_cell_angle_alpha   112.99755618
_cell_angle_beta   88.48765929
_cell_angle_gamma   100.87655922
_symmetry_Int_Tables_number   1
_chemical_formula_structural   K2P3H7O9
_chemical_formula_sum   'K4 P6 H14 O18'
_cell_volume   554.60720859
_cell_formula_units_Z   2
loop_
 _symmetry_equiv_pos_site_id
 _symmetry_equiv_pos_as_xyz
  1  'x, y, z'
loop_
 _atom_site_type_symbol
 _atom_site_label
 _atom_site_symmetry_multiplicity
 _atom_site_fract_x
 _atom_site_fract_y
 _atom_site_fract_z
 _atom_site_occupancy
  K  K0  1  0.59617466  0.90259053  0.68399095  1
  K  K1  1  0.40382534  0.09740947  0.31600905  1
  K  K2  1  0.07619753  0.84971370  0.59123129  1
  K  K3  1  0.92380247  0.15028630  0.40876871  1
  P  P4  1  0.10254952  0.77631764  0.06044224  1
  P  P5  1  0.89745048  0.22368236  0.93955776  1
  P  P6  1  0.72043934  0.48227124  0.53112584  1
  P  P7  1  0.27956066  0.51772876  0.46887416  1
  P  P8  1  0.63544297  0.75836653  0.14510149  1
  P  P9  1  0.36455703  0.24163347  0.85489851  1
  H  H10  1  0.08843192  0.62484784  0.07250242  1
  H  H11  1  0.91156808  0.37515216  0.92749758  1
  H  H12  1  0.29239607  0.74772471  0.85333656  1
  H  H13  1  0.70760393  0.25227529  0.14666344  1
  H  H14  1  0.59872401  0.49736423  0.65825244  1
  H  H15  1  0.40127599  0.50263577  0.34174756  1
  H  H16  1  0.91635492  0.57273161  0.74702849  1
  H  H17  1  0.08364508  0.42726839  0.25297151  1
  H  H18  1  0.48594185  0.66918505  0.07065508  1
  H  H19  1  0.51405815  0.33081495  0.92934492  1
  H  H20  1  0.82310579  0.78909320  0.95255013  1
  H  H21  1  0.17689421  0.21090680  0.04744987  1
  H  H22  1  0.74091354  0.63486542  0.30190325  1
  H  H23  1  0.25908646  0.36513458  0.69809675  1
  O  O24  1  0.09260760  0.90604421  0.25441902  1
  O  O25  1  0.90739240  0.09395579  0.74558098  1
  O  O26  1  0.98479103  0.75524070  0.90189711  1
  O  O27  1  0.01520897  0.24475930  0.09810289  1
  O  O28  1  0.27531006  0.81074172  0.99352878  1
  O  O29  1  0.72468994  0.18925828  0.00647122  1
  O  O30  1  0.67491765  0.32228197  0.36306109  1
  O  O31  1  0.32508235  0.67771803  0.63693891  1
  O  O32  1  0.75731679  0.63705109  0.49429517  1
  O  O33  1  0.24268321  0.36294891  0.50570483  1
  O  O34  1  0.86279356  0.46656216  0.64465744  1
  O  O35  1  0.13720644  0.53343784  0.35534256  1
  O  O36  1  0.62496379  0.90399549  0.32269097  1
  O  O37  1  0.37503621  0.09600451  0.67730903  1
  O  O38  1  0.70699084  0.79936308  0.97436667  1
  O  O39  1  0.29300916  0.20063692  0.02563333  1
  O  O40  1  0.73131455  0.63717570  0.16686160  1
  O  O41  1  0.26868545  0.36282430  0.83313840  1
