# generated using pymatgen
data_Bi14WO24
_symmetry_space_group_name_H-M   'P 1'
_cell_length_a   8.92070197
_cell_length_b   8.91916255
_cell_length_c   10.63629114
_cell_angle_alpha   114.54143119
_cell_angle_beta   114.72462829
_cell_angle_gamma   89.97603503
_symmetry_Int_Tables_number   1
_chemical_formula_structural   Bi14WO24
_chemical_formula_sum   'Bi14 W1 O24'
_cell_volume   683.70151244
_cell_formula_units_Z   1
loop_
 _symmetry_equiv_pos_site_id
 _symmetry_equiv_pos_as_xyz
  1  'x, y, z'
loop_
 _atom_site_type_symbol
 _atom_site_label
 _atom_site_symmetry_multiplicity
 _atom_site_fract_x
 _atom_site_fract_y
 _atom_site_fract_z
 _atom_site_occupancy
  Bi  Bi0  1  0.13240617  0.93962803  0.65974935  1
  Bi  Bi1  1  0.05383064  0.46922913  0.33303538  1
  Bi  Bi2  1  0.34471201  0.34156861  0.68291881  1
  Bi  Bi3  1  0.27236070  0.86711012  0.33167420  1
  Bi  Bi4  1  0.21706890  0.44341561  0.99818632  1
  Bi  Bi5  1  0.52298245  0.71642644  0.65435931  1
  Bi  Bi6  1  0.46658732  0.27419274  0.33175151  1
  Bi  Bi7  1  0.44172240  0.78501776  0.99890642  1
  Bi  Bi8  1  0.71711160  0.13257828  0.66113220  1
  Bi  Bi9  1  0.65848530  0.65875087  0.32037591  1
  Bi  Bi10  1  0.56021585  0.22037525  0.00128035  1
  Bi  Bi11  1  0.93571340  0.52260564  0.65428661  1
  Bi  Bi12  1  0.86594291  0.05605148  0.33522456  1
  Bi  Bi13  1  0.78561650  0.56319663  0.00311764  1
  W  W14  1  0.97489058  0.97683584  0.95820382  1
  O  O15  1  0.20071178  0.02539066  0.02500453  1
  O  O16  1  0.99699983  0.32730992  0.49316663  1
  O  O17  1  0.23743797  0.54285433  0.84196465  1
  O  O18  1  0.29923476  0.24078527  0.84093423  1
  O  O19  1  0.17007385  0.00132199  0.49850993  1
  O  O20  1  0.11043819  0.61970738  0.22994002  1
  O  O21  1  0.38238710  0.88076000  0.76451708  1
  O  O22  1  0.32584133  0.49684563  0.49710275  1
  O  O23  1  0.53954985  0.60262044  0.84047894  1
  O  O24  1  0.59546272  0.30183639  0.83959762  1
  O  O25  1  0.48820295  0.82532296  0.49065444  1
  O  O26  1  0.49665472  0.17628949  0.50358101  1
  O  O27  1  0.39525754  0.69942235  0.15698405  1
  O  O28  1  0.45924777  0.40067411  0.15942838  1
  O  O29  1  0.89234015  0.16723957  0.01260680  1
  O  O30  1  0.66629802  0.49342019  0.49054328  1
  O  O31  1  0.61653980  0.11545188  0.23181871  1
  O  O32  1  0.88188814  0.38002868  0.76478171  1
  O  O33  1  0.87363606  0.86758937  0.74698440  1
  O  O34  1  0.82662469  0.00348693  0.49754819  1
  O  O35  1  0.69754712  0.76015664  0.16059722  1
  O  O36  1  0.75848915  0.46409785  0.16465735  1
  O  O37  1  0.99894779  0.66929427  0.49549544  1
  O  O38  1  0.92504196  0.84261126  0.03190023  1
