# generated using pymatgen
data_Zr(MoO4)2
_symmetry_space_group_name_H-M   'P 1'
_cell_length_a   10.35935238
_cell_length_b   10.35935243
_cell_length_c   12.07560607
_cell_angle_alpha   90.00000000
_cell_angle_beta   90.00000000
_cell_angle_gamma   119.99999983
_symmetry_Int_Tables_number   1
_chemical_formula_structural   Zr(MoO4)2
_chemical_formula_sum   'Zr6 Mo12 O48'
_cell_volume   1122.28920092
_cell_formula_units_Z   6
loop_
 _symmetry_equiv_pos_site_id
 _symmetry_equiv_pos_as_xyz
  1  'x, y, z'
loop_
 _atom_site_type_symbol
 _atom_site_label
 _atom_site_symmetry_multiplicity
 _atom_site_fract_x
 _atom_site_fract_y
 _atom_site_fract_z
 _atom_site_occupancy
  Zr  Zr0  1  0.33333300  0.66666700  0.98532378  1
  Zr  Zr1  1  0.33333300  0.66666700  0.51467622  1
  Zr  Zr2  1  0.66666700  0.33333300  0.01467622  1
  Zr  Zr3  1  0.00000000  0.00000000  0.00000000  1
  Zr  Zr4  1  0.00000000  0.00000000  0.50000000  1
  Zr  Zr5  1  0.66666700  0.33333300  0.48532378  1
  Mo  Mo6  1  0.33755691  0.00821711  0.85352343  1
  Mo  Mo7  1  0.66244309  0.67066020  0.35352343  1
  Mo  Mo8  1  0.00821711  0.67066020  0.14647657  1
  Mo  Mo9  1  0.67066020  0.66244309  0.85352343  1
  Mo  Mo10  1  0.32933980  0.99178289  0.35352343  1
  Mo  Mo11  1  0.99178289  0.66244309  0.64647657  1
  Mo  Mo12  1  0.67066020  0.00821711  0.64647657  1
  Mo  Mo13  1  0.33755691  0.32933980  0.64647657  1
  Mo  Mo14  1  0.99178289  0.32933980  0.85352343  1
  Mo  Mo15  1  0.66244309  0.99178289  0.14647657  1
  Mo  Mo16  1  0.00821711  0.33755691  0.35352343  1
  Mo  Mo17  1  0.32933980  0.33755691  0.14647657  1
  O  O18  1  0.65410419  0.97370336  0.28940530  1
  O  O19  1  0.16164643  0.98615844  0.90281591  1
  O  O20  1  0.82451201  0.83835357  0.90281591  1
  O  O21  1  0.15919958  0.65573053  0.61169131  1
  O  O22  1  0.65410419  0.68040082  0.21059470  1
  O  O23  1  0.34426947  0.50346905  0.61169131  1
  O  O24  1  0.31959918  0.34589581  0.28940530  1
  O  O25  1  0.97370336  0.31959918  0.71059470  1
  O  O26  1  0.84080042  0.49653095  0.11169131  1
  O  O27  1  0.32467657  0.49526720  0.08489506  1
  O  O28  1  0.49526720  0.32467657  0.58489506  1
  O  O29  1  0.49526720  0.17059063  0.91510494  1
  O  O30  1  0.02629664  0.34589581  0.21059470  1
  O  O31  1  0.65573053  0.49653095  0.38830869  1
  O  O32  1  0.02629664  0.68040082  0.28940530  1
  O  O33  1  0.17548799  0.16164643  0.09718409  1
  O  O34  1  0.17059063  0.67532343  0.08489506  1
  O  O35  1  0.15919958  0.50346905  0.88830869  1
  O  O36  1  0.34589581  0.31959918  0.78940530  1
  O  O37  1  0.67532343  0.17059063  0.58489506  1
  O  O38  1  0.17059063  0.49526720  0.41510494  1
  O  O39  1  0.16164643  0.17548799  0.59718409  1
  O  O40  1  0.65573053  0.15919958  0.11169131  1
  O  O41  1  0.31959918  0.97370336  0.21059470  1
  O  O42  1  0.82451201  0.98615844  0.59718409  1
  O  O43  1  0.49653095  0.84080042  0.61169131  1
  O  O44  1  0.98615844  0.82451201  0.09718409  1
  O  O45  1  0.50473280  0.82940937  0.08489506  1
  O  O46  1  0.83835357  0.01384156  0.09718409  1
  O  O47  1  0.01384156  0.17548799  0.90281591  1
  O  O48  1  0.84080042  0.34426947  0.38830869  1
  O  O49  1  0.67532343  0.50473280  0.91510494  1
  O  O50  1  0.50473280  0.67532343  0.41510494  1
  O  O51  1  0.01384156  0.83835357  0.59718409  1
  O  O52  1  0.49653095  0.65573053  0.88830869  1
  O  O53  1  0.32467657  0.82940937  0.41510494  1
  O  O54  1  0.50346905  0.34426947  0.11169131  1
  O  O55  1  0.83835357  0.82451201  0.40281591  1
  O  O56  1  0.50346905  0.15919958  0.38830869  1
  O  O57  1  0.82940937  0.50473280  0.58489506  1
  O  O58  1  0.82940937  0.32467657  0.91510494  1
  O  O59  1  0.98615844  0.16164643  0.40281591  1
  O  O60  1  0.17548799  0.01384156  0.40281591  1
  O  O61  1  0.68040082  0.02629664  0.78940530  1
  O  O62  1  0.34426947  0.84080042  0.88830869  1
  O  O63  1  0.97370336  0.65410419  0.78940530  1
  O  O64  1  0.34589581  0.02629664  0.71059470  1
  O  O65  1  0.68040082  0.65410419  0.71059470  1
