# generated using pymatgen
data_Na3SiH5O6
_symmetry_space_group_name_H-M   'P 1'
_cell_length_a   10.56104151
_cell_length_b   18.91468172
_cell_length_c   6.13876682
_cell_angle_alpha   90.00000000
_cell_angle_beta   90.00000000
_cell_angle_gamma   90.00000000
_symmetry_Int_Tables_number   1
_chemical_formula_structural   Na3SiH5O6
_chemical_formula_sum   'Na24 Si8 H40 O48'
_cell_volume   1226.27231771
_cell_formula_units_Z   8
loop_
 _symmetry_equiv_pos_site_id
 _symmetry_equiv_pos_as_xyz
  1  'x, y, z'
loop_
 _atom_site_type_symbol
 _atom_site_label
 _atom_site_symmetry_multiplicity
 _atom_site_fract_x
 _atom_site_fract_y
 _atom_site_fract_z
 _atom_site_occupancy
  Na  Na0  1  0.50658085  0.18256459  0.78238543  1
  Na  Na1  1  0.00658085  0.31743541  0.21761457  1
  Na  Na2  1  0.49341915  0.68256459  0.71761457  1
  Na  Na3  1  0.99341915  0.81743541  0.28238543  1
  Na  Na4  1  0.49341915  0.81743541  0.21761457  1
  Na  Na5  1  0.99341915  0.68256459  0.78238543  1
  Na  Na6  1  0.50658085  0.31743541  0.28238543  1
  Na  Na7  1  0.00658085  0.18256459  0.71761457  1
  Na  Na8  1  0.78439529  0.10882420  0.97094482  1
  Na  Na9  1  0.28439529  0.39117580  0.02905518  1
  Na  Na10  1  0.21560471  0.60882420  0.52905518  1
  Na  Na11  1  0.71560471  0.89117580  0.47094482  1
  Na  Na12  1  0.21560471  0.89117580  0.02905518  1
  Na  Na13  1  0.71560471  0.60882420  0.97094482  1
  Na  Na14  1  0.78439529  0.39117580  0.47094482  1
  Na  Na15  1  0.28439529  0.10882420  0.52905518  1
  Na  Na16  1  0.45123623  0.98536016  0.26265259  1
  Na  Na17  1  0.95123623  0.51463984  0.73734741  1
  Na  Na18  1  0.54876377  0.48536016  0.23734741  1
  Na  Na19  1  0.04876377  0.01463984  0.76265259  1
  Na  Na20  1  0.54876377  0.01463984  0.73734741  1
  Na  Na21  1  0.04876377  0.48536016  0.26265259  1
  Na  Na22  1  0.45123623  0.51463984  0.76265259  1
  Na  Na23  1  0.95123623  0.98536016  0.23734741  1
  Si  Si24  1  0.56981065  0.12905085  0.27079490  1
  Si  Si25  1  0.06981065  0.37094915  0.72920510  1
  Si  Si26  1  0.43018935  0.62905085  0.22920510  1
  Si  Si27  1  0.93018935  0.87094915  0.77079490  1
  Si  Si28  1  0.43018935  0.87094915  0.72920510  1
  Si  Si29  1  0.93018935  0.62905085  0.27079490  1
  Si  Si30  1  0.56981065  0.37094915  0.77079490  1
  Si  Si31  1  0.06981065  0.12905085  0.22920510  1
  H  H32  1  0.39018627  0.18821061  0.18394025  1
  H  H33  1  0.89018627  0.31178939  0.81605975  1
  H  H34  1  0.60981373  0.68821061  0.31605975  1
  H  H35  1  0.10981373  0.81178939  0.68394025  1
  H  H36  1  0.60981373  0.81178939  0.81605975  1
  H  H37  1  0.10981373  0.68821061  0.18394025  1
  H  H38  1  0.39018627  0.31178939  0.68394025  1
  H  H39  1  0.89018627  0.18821061  0.31605975  1
  H  H40  1  0.66707933  0.00820727  0.10907750  1
  H  H41  1  0.16707933  0.49179273  0.89092250  1
  H  H42  1  0.33292067  0.50820727  0.39092250  1
  H  H43  1  0.83292067  0.99179273  0.60907750  1
  H  H44  1  0.33292067  0.99179273  0.89092250  1
  H  H45  1  0.83292067  0.50820727  0.10907750  1
  H  H46  1  0.66707933  0.49179273  0.60907750  1
  H  H47  1  0.16707933  0.00820727  0.39092250  1
  H  H48  1  0.76611728  0.06763889  0.53354782  1
  H  H49  1  0.26611728  0.43236111  0.46645218  1
  H  H50  1  0.23388272  0.56763889  0.96645218  1
  H  H51  1  0.73388272  0.93236111  0.03354782  1
  H  H52  1  0.23388272  0.93236111  0.46645218  1
  H  H53  1  0.73388272  0.56763889  0.53354782  1
  H  H54  1  0.76611728  0.43236111  0.03354782  1
  H  H55  1  0.26611728  0.06763889  0.96645218  1
  H  H56  1  0.73064238  0.18909022  0.56888272  1
  H  H57  1  0.23064238  0.31090978  0.43111728  1
  H  H58  1  0.26935762  0.68909022  0.93111728  1
  H  H59  1  0.76935762  0.81090978  0.06888272  1
  H  H60  1  0.26935762  0.81090978  0.43111728  1
  H  H61  1  0.76935762  0.68909022  0.56888272  1
  H  H62  1  0.73064238  0.31090978  0.06888272  1
  H  H63  1  0.23064238  0.18909022  0.93111728  1
  H  H64  1  0.73436442  0.24552773  0.24450910  1
  H  H65  1  0.23436442  0.25447227  0.75549090  1
  H  H66  1  0.26563558  0.74552773  0.25549090  1
  H  H67  1  0.76563558  0.75447227  0.74450910  1
  H  H68  1  0.26563558  0.75447227  0.75549090  1
  H  H69  1  0.76563558  0.74552773  0.24450910  1
  H  H70  1  0.73436442  0.25447227  0.74450910  1
  H  H71  1  0.23436442  0.24552773  0.25549090  1
  O  O72  1  0.49672104  0.09803014  0.48306374  1
  O  O73  1  0.99672104  0.40196986  0.51693626  1
  O  O74  1  0.50327896  0.59803014  0.01693626  1
  O  O75  1  0.00327896  0.90196986  0.98306374  1
  O  O76  1  0.50327896  0.90196986  0.51693626  1
  O  O77  1  0.00327896  0.59803014  0.48306374  1
  O  O78  1  0.49672104  0.40196986  0.98306374  1
  O  O79  1  0.99672104  0.09803014  0.01693626  1
  O  O80  1  0.71296002  0.16005297  0.31908037  1
  O  O81  1  0.21296002  0.33994703  0.68091963  1
  O  O82  1  0.28703998  0.66005297  0.18091963  1
  O  O83  1  0.78703998  0.83994703  0.81908037  1
  O  O84  1  0.28703998  0.83994703  0.68091963  1
  O  O85  1  0.78703998  0.66005297  0.31908037  1
  O  O86  1  0.71296002  0.33994703  0.81908037  1
  O  O87  1  0.21296002  0.16005297  0.18091963  1
  O  O88  1  0.57702190  0.07209841  0.06836789  1
  O  O89  1  0.07702190  0.42790159  0.93163211  1
  O  O90  1  0.42297810  0.57209841  0.43163211  1
  O  O91  1  0.92297810  0.92790159  0.56836789  1
  O  O92  1  0.42297810  0.92790159  0.93163211  1
  O  O93  1  0.92297810  0.57209841  0.06836789  1
  O  O94  1  0.57702190  0.42790159  0.56836789  1
  O  O95  1  0.07702190  0.07209841  0.43163211  1
  O  O96  1  0.48182186  0.19868843  0.17236381  1
  O  O97  1  0.98182186  0.30131157  0.82763619  1
  O  O98  1  0.51817814  0.69868843  0.32763619  1
  O  O99  1  0.01817814  0.80131157  0.67236381  1
  O  O100  1  0.51817814  0.80131157  0.82763619  1
  O  O101  1  0.01817814  0.69868843  0.17236381  1
  O  O102  1  0.48182186  0.30131157  0.67236381  1
  O  O103  1  0.98182186  0.19868843  0.32763619  1
  O  O104  1  0.77038817  0.03186789  0.65041256  1
  O  O105  1  0.27038817  0.46813211  0.34958744  1
  O  O106  1  0.22961183  0.53186789  0.84958744  1
  O  O107  1  0.72961183  0.96813211  0.15041256  1
  O  O108  1  0.22961183  0.96813211  0.34958744  1
  O  O109  1  0.72961183  0.53186789  0.65041256  1
  O  O110  1  0.77038817  0.46813211  0.15041256  1
  O  O111  1  0.27038817  0.03186789  0.84958744  1
  O  O112  1  0.74522519  0.20170794  0.72792127  1
  O  O113  1  0.24522519  0.29829206  0.27207873  1
  O  O114  1  0.25477481  0.70170794  0.77207873  1
  O  O115  1  0.75477481  0.79829206  0.22792127  1
  O  O116  1  0.25477481  0.79829206  0.27207873  1
  O  O117  1  0.75477481  0.70170794  0.72792127  1
  O  O118  1  0.74522519  0.29829206  0.22792127  1
  O  O119  1  0.24522519  0.20170794  0.77207873  1
