# generated using pymatgen
data_Ca2P2H4O9
_symmetry_space_group_name_H-M   'P 1'
_cell_length_a   7.40705042
_cell_length_b   8.34123321
_cell_length_c   6.74747320
_cell_angle_alpha   102.71638588
_cell_angle_beta   73.00554642
_cell_angle_gamma   94.85764013
_symmetry_Int_Tables_number   1
_chemical_formula_structural   Ca2P2H4O9
_chemical_formula_sum   'Ca4 P4 H8 O18'
_cell_volume   388.80985547
_cell_formula_units_Z   2
loop_
 _symmetry_equiv_pos_site_id
 _symmetry_equiv_pos_as_xyz
  1  'x, y, z'
loop_
 _atom_site_type_symbol
 _atom_site_label
 _atom_site_symmetry_multiplicity
 _atom_site_fract_x
 _atom_site_fract_y
 _atom_site_fract_z
 _atom_site_occupancy
  Ca  Ca0  1  0.75204203  0.49508056  0.68949284  1
  Ca  Ca1  1  0.24795797  0.50491944  0.31050716  1
  Ca  Ca2  1  0.13341637  0.24461525  0.74278351  1
  Ca  Ca3  1  0.86658363  0.75538475  0.25721649  1
  P  P4  1  0.00974699  0.81271628  0.73872602  1
  P  P5  1  0.99025301  0.18728372  0.26127398  1
  P  P6  1  0.28768566  0.64401575  0.83338747  1
  P  P7  1  0.71231434  0.35598425  0.16661253  1
  H  H8  1  0.47751736  0.26215919  0.90161393  1
  H  H9  1  0.52248264  0.73784081  0.09838607  1
  H  H10  1  0.53752990  0.15075372  0.67233907  1
  H  H11  1  0.46247010  0.84924628  0.32766093  1
  H  H12  1  0.76478718  0.97647103  0.65778585  1
  H  H13  1  0.23521282  0.02352897  0.34221415  1
  H  H14  1  0.57918186  0.86640645  0.68259185  1
  H  H15  1  0.42081814  0.13359355  0.31740815  1
  O  O16  1  0.98115409  0.99178163  0.74622696  1
  O  O17  1  0.01884591  0.00821837  0.25377304  1
  O  O18  1  0.01524212  0.70140600  0.51993980  1
  O  O19  1  0.98475788  0.29859400  0.48006020  1
  O  O20  1  0.86445305  0.73604126  0.90719255  1
  O  O21  1  0.13554695  0.26395874  0.09280745  1
  O  O22  1  0.21710482  0.80545670  0.77702793  1
  O  O23  1  0.78289518  0.19454330  0.22297207  1
  O  O24  1  0.49655390  0.68131759  0.82135623  1
  O  O25  1  0.50344610  0.31868241  0.17864377  1
  O  O26  1  0.25696449  0.49931879  0.66063498  1
  O  O27  1  0.74303551  0.50068121  0.33936502  1
  O  O28  1  0.17113367  0.62822685  0.05713758  1
  O  O29  1  0.82886633  0.37177315  0.94286242  1
  O  O30  1  0.49233305  0.26208396  0.75045404  1
  O  O31  1  0.50766695  0.73791604  0.24954596  1
  O  O32  1  0.66093462  0.93734905  0.59167720  1
  O  O33  1  0.33906538  0.06265095  0.40832280  1
