# generated using pymatgen
data_KH8O4F
_symmetry_space_group_name_H-M   'P 1'
_cell_length_a   6.82746874
_cell_length_b   13.31792373
_cell_length_c   6.65505426
_cell_angle_alpha   90.00000000
_cell_angle_beta   90.80097938
_cell_angle_gamma   90.00000000
_symmetry_Int_Tables_number   1
_chemical_formula_structural   KH8O4F
_chemical_formula_sum   'K4 H32 O16 F4'
_cell_volume   605.06970043
_cell_formula_units_Z   4
loop_
 _symmetry_equiv_pos_site_id
 _symmetry_equiv_pos_as_xyz
  1  'x, y, z'
loop_
 _atom_site_type_symbol
 _atom_site_label
 _atom_site_symmetry_multiplicity
 _atom_site_fract_x
 _atom_site_fract_y
 _atom_site_fract_z
 _atom_site_occupancy
  K  K0  1  0.66114128  0.37030079  0.99790972  1
  K  K1  1  0.33885872  0.87030079  0.50209028  1
  K  K2  1  0.33885872  0.62969921  0.00209028  1
  K  K3  1  0.66114128  0.12969921  0.49790972  1
  H  H4  1  0.62633589  0.13012723  0.01929485  1
  H  H5  1  0.37366411  0.63012723  0.48070515  1
  H  H6  1  0.37366411  0.86987277  0.98070515  1
  H  H7  1  0.62633589  0.36987277  0.51929485  1
  H  H8  1  0.40793135  0.33721863  0.55652075  1
  H  H9  1  0.59206865  0.83721863  0.94347925  1
  H  H10  1  0.59206865  0.66278137  0.44347925  1
  H  H11  1  0.40793135  0.16278137  0.05652075  1
  H  H12  1  0.06686914  0.33132824  0.73608819  1
  H  H13  1  0.93313086  0.83132824  0.76391181  1
  H  H14  1  0.93313086  0.66867176  0.26391181  1
  H  H15  1  0.06686914  0.16867176  0.23608819  1
  H  H16  1  0.08383202  0.24649271  0.90198219  1
  H  H17  1  0.91616798  0.74649271  0.59801781  1
  H  H18  1  0.91616798  0.75350729  0.09801781  1
  H  H19  1  0.08383202  0.25350729  0.40198219  1
  H  H20  1  0.19765020  0.39164695  0.02212017  1
  H  H21  1  0.80234980  0.89164695  0.47787983  1
  H  H22  1  0.80234980  0.60835305  0.97787983  1
  H  H23  1  0.19765020  0.10835305  0.52212017  1
  H  H24  1  0.25509788  0.08704486  0.74568933  1
  H  H25  1  0.74490212  0.58704486  0.75431067  1
  H  H26  1  0.74490212  0.91295514  0.25431067  1
  H  H27  1  0.25509788  0.41295514  0.24568933  1
  H  H28  1  0.18792952  0.49053275  0.58459125  1
  H  H29  1  0.81207048  0.99053275  0.91540875  1
  H  H30  1  0.81207048  0.50946725  0.41540875  1
  H  H31  1  0.18792952  0.00946725  0.08459125  1
  H  H32  1  0.93127132  0.09071025  0.90212978  1
  H  H33  1  0.06872868  0.59071025  0.59787022  1
  H  H34  1  0.06872868  0.90928975  0.09787022  1
  H  H35  1  0.93127132  0.40928975  0.40212978  1
  O  O36  1  0.54491083  0.32447121  0.60076779  1
  O  O37  1  0.45508917  0.82447121  0.89923221  1
  O  O38  1  0.45508917  0.67552879  0.39923221  1
  O  O39  1  0.54491083  0.17552879  0.10076779  1
  O  O40  1  0.03254815  0.31507116  0.87623170  1
  O  O41  1  0.96745185  0.81507116  0.62376830  1
  O  O42  1  0.96745185  0.68492884  0.12376830  1
  O  O43  1  0.03254815  0.18492884  0.37623170  1
  O  O44  1  0.29124486  0.06953524  0.60753191  1
  O  O45  1  0.70875514  0.56953524  0.89246809  1
  O  O46  1  0.70875514  0.93046476  0.39246809  1
  O  O47  1  0.29124486  0.43046476  0.10753191  1
  O  O48  1  0.80043487  0.06149089  0.87193783  1
  O  O49  1  0.19956513  0.56149089  0.62806217  1
  O  O50  1  0.19956513  0.93850911  0.12806217  1
  O  O51  1  0.80043487  0.43850911  0.37193783  1
  F  F52  1  0.15567163  0.36751472  0.48927369  1
  F  F53  1  0.84432837  0.86751472  0.01072631  1
  F  F54  1  0.84432837  0.63248528  0.51072631  1
  F  F55  1  0.15567163  0.13248528  0.98927369  1
