# generated using pymatgen
data_Al2NiO4
_symmetry_space_group_name_H-M   'P 1'
_cell_length_a   5.75876801
_cell_length_b   5.76787463
_cell_length_c   34.40087285
_cell_angle_alpha   59.80135368
_cell_angle_beta   59.62874600
_cell_angle_gamma   59.94767565
_symmetry_Int_Tables_number   1
_chemical_formula_structural   Al2NiO4
_chemical_formula_sum   'Al24 Ni12 O48'
_cell_volume   804.16162413
_cell_formula_units_Z   12
loop_
 _symmetry_equiv_pos_site_id
 _symmetry_equiv_pos_as_xyz
  1  'x, y, z'
loop_
 _atom_site_type_symbol
 _atom_site_label
 _atom_site_symmetry_multiplicity
 _atom_site_fract_x
 _atom_site_fract_y
 _atom_site_fract_z
 _atom_site_occupancy
  Al  Al0  1  0.26661834  0.24395098  0.04091361  1
  Al  Al1  1  0.63048369  0.62772830  0.01900962  1
  Al  Al2  1  0.62945509  0.11879138  0.10387728  1
  Al  Al3  1  0.26256283  0.24634050  0.20745903  1
  Al  Al4  1  0.98338248  0.00736375  0.33364800  1
  Al  Al5  1  0.62945509  0.62849183  0.10387728  1
  Al  Al6  1  0.61856536  0.12288997  0.27193208  1
  Al  Al7  1  0.62724328  0.62899254  0.18579527  1
  Al  Al8  1  0.25497121  0.24233944  0.37672499  1
  Al  Al9  1  0.61856536  0.62695016  0.27193208  1
  Al  Al10  1  0.62272279  0.12453491  0.43804163  1
  Al  Al11  1  0.25659583  0.24162393  0.54335972  1
  Al  Al12  1  0.99230309  0.00777277  0.66535890  1
  Al  Al13  1  0.62272279  0.62449253  0.43804163  1
  Al  Al14  1  0.62443260  0.12469904  0.60436081  1
  Al  Al15  1  0.25754101  0.24197204  0.70975215  1
  Al  Al16  1  0.99092140  0.00740954  0.49904325  1
  Al  Al17  1  0.62443260  0.62470552  0.60436081  1
  Al  Al18  1  0.62551504  0.12452523  0.77083139  1
  Al  Al19  1  0.26051671  0.24026268  0.87649299  1
  Al  Al20  1  0.62551504  0.62496937  0.77083139  1
  Al  Al21  1  0.63164393  0.12072125  0.93703682  1
  Al  Al22  1  0.99578203  0.00866052  0.83114915  1
  Al  Al23  1  0.63164393  0.62541389  0.93703682  1
  Ni  Ni24  1  0.00395674  0.00403173  0.99799663  1
  Ni  Ni25  1  0.99312514  0.00005313  0.16779510  1
  Ni  Ni26  1  0.12188250  0.62696363  0.10403204  1
  Ni  Ni27  1  0.11734945  0.62637336  0.27165031  1
  Ni  Ni28  1  0.12368441  0.62451517  0.43788087  1
  Ni  Ni29  1  0.62152662  0.62606093  0.35439225  1
  Ni  Ni30  1  0.12498383  0.62488382  0.60420842  1
  Ni  Ni31  1  0.62465457  0.62462789  0.52101461  1
  Ni  Ni32  1  0.12575333  0.62502209  0.77070008  1
  Ni  Ni33  1  0.62539720  0.62482796  0.68749115  1
  Ni  Ni34  1  0.12759876  0.62518356  0.93700569  1
  Ni  Ni35  1  0.62677896  0.62338796  0.85440785  1
  O  O36  1  0.40083036  0.37206873  0.06213777  1
  O  O37  1  0.39883546  0.37291708  0.14255473  1
  O  O38  1  0.40083036  0.85427629  0.06213777  1
  O  O39  1  0.86238322  0.37913191  0.06322583  1
  O  O40  1  0.41192559  0.86329239  0.14358194  1
  O  O41  1  0.39570137  0.37532930  0.22893285  1
  O  O42  1  0.83976526  0.41143111  0.14561840  1
  O  O43  1  0.39250876  0.37238853  0.31045236  1
  O  O44  1  0.39570137  0.85537022  0.22893285  1
  O  O45  1  0.84372918  0.87489575  0.06774655  1
  O  O46  1  0.83976526  0.87509521  0.14561840  1
  O  O47  1  0.85648184  0.38335687  0.22946707  1
  O  O48  1  0.37075193  0.88338654  0.31041217  1
  O  O49  1  0.38965832  0.35743338  0.39861051  1
  O  O50  1  0.85484789  0.38614442  0.31051860  1
  O  O51  1  0.82823005  0.87180168  0.23802810  1
  O  O52  1  0.39430408  0.37063212  0.47740561  1
  O  O53  1  0.38965832  0.86124525  0.39861051  1
  O  O54  1  0.85484789  0.89589409  0.31051860  1
  O  O55  1  0.86280947  0.37174962  0.39894855  1
  O  O56  1  0.38369731  0.87928410  0.47628908  1
  O  O57  1  0.39119428  0.35732346  0.56512239  1
  O  O58  1  0.85856930  0.38867584  0.47660373  1
  O  O59  1  0.85075668  0.87806253  0.39885271  1
  O  O60  1  0.39523064  0.37078344  0.64386675  1
  O  O61  1  0.39119428  0.86074994  0.56512239  1
  O  O62  1  0.86436119  0.37111893  0.56556716  1
  O  O63  1  0.85856930  0.89313250  0.47660373  1
  O  O64  1  0.38571558  0.87950619  0.64254567  1
  O  O65  1  0.39183734  0.35740852  0.73162985  1
  O  O66  1  0.85964906  0.38927114  0.64298984  1
  O  O67  1  0.85465761  0.87918895  0.56449408  1
  O  O68  1  0.39583739  0.37046546  0.81053862  1
  O  O69  1  0.39183734  0.86097303  0.73162985  1
  O  O70  1  0.86505795  0.37115738  0.73210422  1
  O  O71  1  0.85964906  0.89314274  0.64298984  1
  O  O72  1  0.38902847  0.87887374  0.80887034  1
  O  O73  1  0.39367584  0.35376367  0.89877290  1
  O  O74  1  0.86026962  0.39040042  0.80944079  1
  O  O75  1  0.40000412  0.37103574  0.97632106  1
  O  O76  1  0.39367584  0.85992310  0.89877290  1
  O  O77  1  0.85625937  0.87963587  0.73074515  1
  O  O78  1  0.86886775  0.36649538  0.89969025  1
  O  O79  1  0.86026962  0.89268321  0.80944079  1
  O  O80  1  0.42463061  0.85936612  0.97610619  1
  O  O81  1  0.84358107  0.41492763  0.97817972  1
  O  O82  1  0.86449335  0.88086415  0.89562939  1
  O  O83  1  0.84358107  0.87241298  0.97817972  1
