# generated using pymatgen
data_NaBH8O7
_symmetry_space_group_name_H-M   'P 1'
_cell_length_a   6.87920391
_cell_length_b   7.39242760
_cell_length_c   7.41734755
_cell_angle_alpha   98.32112084
_cell_angle_beta   102.14465181
_cell_angle_gamma   120.79307537
_symmetry_Int_Tables_number   1
_chemical_formula_structural   NaBH8O7
_chemical_formula_sum   'Na2 B2 H16 O14'
_cell_volume   302.12456640
_cell_formula_units_Z   2
loop_
 _symmetry_equiv_pos_site_id
 _symmetry_equiv_pos_as_xyz
  1  'x, y, z'
loop_
 _atom_site_type_symbol
 _atom_site_label
 _atom_site_symmetry_multiplicity
 _atom_site_fract_x
 _atom_site_fract_y
 _atom_site_fract_z
 _atom_site_occupancy
  Na  Na0  1  0.00000000  0.00000000  0.00000000  1
  Na  Na1  1  0.50000000  0.00000000  0.00000000  1
  B  B2  1  0.67547235  0.48967756  0.63274396  1
  B  B3  1  0.32452765  0.51032244  0.36725604  1
  H  H4  1  0.27551381  0.10214865  0.68442387  1
  H  H5  1  0.72448619  0.89785135  0.31557613  1
  H  H6  1  0.04003441  0.86938939  0.65254803  1
  H  H7  1  0.95996559  0.13061061  0.34745197  1
  H  H8  1  0.76415567  0.17337666  0.74793302  1
  H  H9  1  0.23584433  0.82662334  0.25206698  1
  H  H10  1  0.66868461  0.92129612  0.67624851  1
  H  H11  1  0.33131539  0.07870388  0.32375149  1
  H  H12  1  0.38673024  0.57404186  0.82607408  1
  H  H13  1  0.61326976  0.42595814  0.17392592  1
  H  H14  1  0.13623925  0.53774137  0.81038223  1
  H  H15  1  0.86376075  0.46225863  0.18961777  1
  H  H16  1  0.71258204  0.53577879  0.91900968  1
  H  H17  1  0.28741796  0.46422121  0.08099032  1
  H  H18  1  0.80633003  0.32639157  0.50973362  1
  H  H19  1  0.19366997  0.67360843  0.49026638  1
  O  O20  1  0.19860141  0.99002306  0.74926897  1
  O  O21  1  0.80139859  0.00997694  0.25073103  1
  O  O22  1  0.72887324  0.04432487  0.79327813  1
  O  O23  1  0.27112676  0.95567513  0.20672187  1
  O  O24  1  0.29890754  0.60219464  0.90241459  1
  O  O25  1  0.70109246  0.39780536  0.09758541  1
  O  O26  1  0.71718767  0.61491546  0.82060939  1
  O  O27  1  0.28281233  0.38508454  0.17939061  1
  O  O28  1  0.82515033  0.40013231  0.63839317  1
  O  O29  1  0.17484967  0.59986769  0.36160683  1
  O  O30  1  0.41878734  0.28941025  0.53697851  1
  O  O31  1  0.58121266  0.71058975  0.46302149  1
  O  O32  1  0.74150141  0.63079869  0.50093728  1
  O  O33  1  0.25849859  0.36920131  0.49906272  1
