# generated using pymatgen
data_K2TeH10(NO7)2
_symmetry_space_group_name_H-M   'P 1'
_cell_length_a   13.34935792
_cell_length_b   7.19622968
_cell_length_c   7.05519092
_cell_angle_alpha   90.00000000
_cell_angle_beta   99.96650926
_cell_angle_gamma   90.00000000
_symmetry_Int_Tables_number   1
_chemical_formula_structural   K2TeH10(NO7)2
_chemical_formula_sum   'K4 Te2 H20 N4 O28'
_cell_volume   667.52926200
_cell_formula_units_Z   2
loop_
 _symmetry_equiv_pos_site_id
 _symmetry_equiv_pos_as_xyz
  1  'x, y, z'
loop_
 _atom_site_type_symbol
 _atom_site_label
 _atom_site_symmetry_multiplicity
 _atom_site_fract_x
 _atom_site_fract_y
 _atom_site_fract_z
 _atom_site_occupancy
  K  K0  1  0.65981408  0.51876689  0.48948950  1
  K  K1  1  0.84018592  0.01876689  0.51051050  1
  K  K2  1  0.34018592  0.48123311  0.51051050  1
  K  K3  1  0.15981408  0.98123311  0.48948950  1
  Te  Te4  1  0.50000000  0.50000000  0.00000000  1
  Te  Te5  1  0.00000000  0.00000000  0.00000000  1
  H  H6  1  0.49145850  0.19615808  0.81909250  1
  H  H7  1  0.00854150  0.69615808  0.18090750  1
  H  H8  1  0.50854150  0.80384192  0.18090750  1
  H  H9  1  0.99145850  0.30384192  0.81909250  1
  H  H10  1  0.96867039  0.23770547  0.24460219  1
  H  H11  1  0.53132961  0.73770547  0.75539781  1
  H  H12  1  0.03132961  0.76229453  0.75539781  1
  H  H13  1  0.46867039  0.26229453  0.24460219  1
  H  H14  1  0.68199899  0.43353672  0.98118894  1
  H  H15  1  0.81800101  0.93353672  0.01881106  1
  H  H16  1  0.31800101  0.56646328  0.01881106  1
  H  H17  1  0.18199899  0.06646328  0.98118894  1
  H  H18  1  0.68518235  0.11800927  0.11914869  1
  H  H19  1  0.81481765  0.61800927  0.88085131  1
  H  H20  1  0.31481765  0.88199073  0.88085131  1
  H  H21  1  0.18518235  0.38199073  0.11914869  1
  H  H22  1  0.83468078  0.40256160  0.87026516  1
  H  H23  1  0.66531922  0.90256160  0.12973484  1
  H  H24  1  0.16531922  0.59743840  0.12973484  1
  H  H25  1  0.33468078  0.09743840  0.87026516  1
  N  N26  1  0.88071185  0.51277736  0.34197927  1
  N  N27  1  0.61928815  0.01277736  0.65802073  1
  N  N28  1  0.11928815  0.48722264  0.65802073  1
  N  N29  1  0.38071185  0.98722264  0.34197927  1
  O  O30  1  0.93939346  0.21966624  0.86002791  1
  O  O31  1  0.56060654  0.71966624  0.13997209  1
  O  O32  1  0.06060654  0.78033376  0.13997209  1
  O  O33  1  0.43939346  0.28033376  0.86002791  1
  O  O34  1  0.97420041  0.09823924  0.24542130  1
  O  O35  1  0.52579959  0.59823924  0.75457870  1
  O  O36  1  0.02579959  0.90176076  0.75457870  1
  O  O37  1  0.47420041  0.40176076  0.24542130  1
  O  O38  1  0.63341306  0.38067092  0.06082537  1
  O  O39  1  0.86658694  0.88067092  0.93917463  1
  O  O40  1  0.36658694  0.61932908  0.93917463  1
  O  O41  1  0.13341306  0.11932908  0.06082537  1
  O  O42  1  0.83751785  0.37614744  0.40308576  1
  O  O43  1  0.66248215  0.87614744  0.59691424  1
  O  O44  1  0.16248215  0.62385256  0.59691424  1
  O  O45  1  0.33751785  0.12385256  0.40308576  1
  O  O46  1  0.65033934  0.17545958  0.64075215  1
  O  O47  1  0.84966066  0.67545958  0.35924785  1
  O  O48  1  0.34966066  0.82454042  0.35924785  1
  O  O49  1  0.15033934  0.32454042  0.64075215  1
  O  O50  1  0.54194509  0.98475143  0.74208654  1
  O  O51  1  0.95805491  0.48475143  0.25791346  1
  O  O52  1  0.45805491  0.01524857  0.25791346  1
  O  O53  1  0.04194509  0.51524857  0.74208654  1
  O  O54  1  0.78005097  0.49708546  0.85841725  1
  O  O55  1  0.71994903  0.99708546  0.14158275  1
  O  O56  1  0.21994903  0.50291454  0.14158275  1
  O  O57  1  0.28005097  0.00291454  0.85841725  1
