# generated using pymatgen
data_CuH20S2(NO7)2
_symmetry_space_group_name_H-M   'P 1'
_cell_length_a   9.45567335
_cell_length_b   12.74891088
_cell_length_c   6.10171314
_cell_angle_alpha   90.00000000
_cell_angle_beta   107.21362447
_cell_angle_gamma   90.00000000
_symmetry_Int_Tables_number   1
_chemical_formula_structural   CuH20S2(NO7)2
_chemical_formula_sum   'Cu2 H40 S4 N4 O28'
_cell_volume   702.61156173
_cell_formula_units_Z   2
loop_
 _symmetry_equiv_pos_site_id
 _symmetry_equiv_pos_as_xyz
  1  'x, y, z'
loop_
 _atom_site_type_symbol
 _atom_site_label
 _atom_site_symmetry_multiplicity
 _atom_site_fract_x
 _atom_site_fract_y
 _atom_site_fract_z
 _atom_site_occupancy
  Cu  Cu0  1  0.50000000  0.50000000  0.00000000  1
  Cu  Cu1  1  0.00000000  0.00000000  0.00000000  1
  H  H2  1  0.54142634  0.15339519  0.22922571  1
  H  H3  1  0.95857366  0.65339519  0.77077429  1
  H  H4  1  0.45857366  0.84660481  0.77077429  1
  H  H5  1  0.04142634  0.34660481  0.22922571  1
  H  H6  1  0.70430425  0.19573193  0.42082429  1
  H  H7  1  0.79569575  0.69573193  0.57917571  1
  H  H8  1  0.29569575  0.80426807  0.57917571  1
  H  H9  1  0.20430425  0.30426807  0.42082429  1
  H  H10  1  0.58353665  0.12300377  0.51384560  1
  H  H11  1  0.91646335  0.62300377  0.48615440  1
  H  H12  1  0.41646335  0.87699623  0.48615440  1
  H  H13  1  0.08353665  0.37699623  0.51384560  1
  H  H14  1  0.67882966  0.06733935  0.35090895  1
  H  H15  1  0.82117034  0.56733935  0.64909105  1
  H  H16  1  0.32117034  0.93266065  0.64909105  1
  H  H17  1  0.17882966  0.43266065  0.35090895  1
  H  H18  1  0.69543937  0.40759121  0.32919721  1
  H  H19  1  0.80456063  0.90759121  0.67080279  1
  H  H20  1  0.30456063  0.59240879  0.67080279  1
  H  H21  1  0.19543937  0.09240879  0.32919721  1
  H  H22  1  0.73318099  0.37508003  0.09710851  1
  H  H23  1  0.76681901  0.87508003  0.90289149  1
  H  H24  1  0.26681901  0.62491997  0.90289149  1
  H  H25  1  0.23318099  0.12491997  0.09710851  1
  H  H26  1  0.21592386  0.39793112  0.95234084  1
  H  H27  1  0.28407614  0.89793112  0.04765916  1
  H  H28  1  0.78407614  0.60206888  0.04765916  1
  H  H29  1  0.71592386  0.10206888  0.95234084  1
  H  H30  1  0.34266549  0.31391061  0.02650478  1
  H  H31  1  0.15733451  0.81391061  0.97349522  1
  H  H32  1  0.65733451  0.68608939  0.97349522  1
  H  H33  1  0.84266549  0.18608939  0.02650478  1
  H  H34  1  0.41456674  0.56154705  0.33271555  1
  H  H35  1  0.08543326  0.06154705  0.66728445  1
  H  H36  1  0.58543326  0.43845295  0.66728445  1
  H  H37  1  0.91456674  0.93845295  0.33271555  1
  H  H38  1  0.54357205  0.64036352  0.31591419  1
  H  H39  1  0.95642795  0.14036352  0.68408581  1
  H  H40  1  0.45642795  0.35963648  0.68408581  1
  H  H41  1  0.04357205  0.85963648  0.31591419  1
  S  S42  1  0.88659027  0.35623938  0.74867891  1
  S  S43  1  0.61340973  0.85623938  0.25132109  1
  S  S44  1  0.11340973  0.64376062  0.25132109  1
  S  S45  1  0.38659027  0.14376062  0.74867891  1
  N  N46  1  0.62663688  0.13598053  0.37747666  1
  N  N47  1  0.87336312  0.63598053  0.62252334  1
  N  N48  1  0.37336312  0.86401947  0.62252334  1
  N  N49  1  0.12663688  0.36401947  0.37747666  1
  O  O50  1  0.87938617  0.26047053  0.60562461  1
  O  O51  1  0.62061383  0.76047053  0.39437539  1
  O  O52  1  0.12061383  0.73952947  0.39437539  1
  O  O53  1  0.37938617  0.23952947  0.60562461  1
  O  O54  1  0.02811178  0.41282415  0.77397003  1
  O  O55  1  0.47188822  0.91282415  0.22602997  1
  O  O56  1  0.97188822  0.58717585  0.22602997  1
  O  O57  1  0.52811178  0.08717585  0.77397003  1
  O  O58  1  0.75987940  0.42676745  0.62784612  1
  O  O59  1  0.74012060  0.92676745  0.37215388  1
  O  O60  1  0.24012060  0.57323255  0.37215388  1
  O  O61  1  0.25987940  0.07323255  0.62784612  1
  O  O62  1  0.87317802  0.32735766  0.98019694  1
  O  O63  1  0.62682198  0.82735766  0.01980306  1
  O  O64  1  0.12682198  0.67264234  0.01980306  1
  O  O65  1  0.37317802  0.17264234  0.98019694  1
  O  O66  1  0.65140486  0.39056036  0.16374841  1
  O  O67  1  0.84859514  0.89056036  0.83625159  1
  O  O68  1  0.34859514  0.60943964  0.83625159  1
  O  O69  1  0.15140486  0.10943964  0.16374841  1
  O  O70  1  0.31827296  0.38747285  0.05080593  1
  O  O71  1  0.18172704  0.88747285  0.94919407  1
  O  O72  1  0.68172704  0.61252715  0.94919407  1
  O  O73  1  0.81827296  0.11252715  0.05080593  1
  O  O74  1  0.51100957  0.56541784  0.29863372  1
  O  O75  1  0.98899043  0.06541784  0.70136628  1
  O  O76  1  0.48899043  0.43458216  0.70136628  1
  O  O77  1  0.01100957  0.93458216  0.29863372  1
