# generated using pymatgen
data_ZnGaP2H4NO8
_symmetry_space_group_name_H-M   'P 1'
_cell_length_a   9.16259799
_cell_length_b   9.47762092
_cell_length_c   9.48560583
_cell_angle_alpha   89.09767743
_cell_angle_beta   82.26276797
_cell_angle_gamma   83.07308714
_symmetry_Int_Tables_number   1
_chemical_formula_structural   ZnGaP2H4NO8
_chemical_formula_sum   'Zn4 Ga4 P8 H16 N4 O32'
_cell_volume   810.26933133
_cell_formula_units_Z   4
loop_
 _symmetry_equiv_pos_site_id
 _symmetry_equiv_pos_as_xyz
  1  'x, y, z'
loop_
 _atom_site_type_symbol
 _atom_site_label
 _atom_site_symmetry_multiplicity
 _atom_site_fract_x
 _atom_site_fract_y
 _atom_site_fract_z
 _atom_site_occupancy
  Zn  Zn0  1  0.07200534  0.03958402  0.79527461  1
  Zn  Zn1  1  0.43590787  0.19998834  0.95721816  1
  Zn  Zn2  1  0.56280915  0.79649030  0.04132120  1
  Zn  Zn3  1  0.88105898  0.42781977  0.31524459  1
  Ga  Ga4  1  0.11401312  0.57432446  0.68634981  1
  Ga  Ga5  1  0.38481117  0.31372832  0.42747506  1
  Ga  Ga6  1  0.61598921  0.68601989  0.56650472  1
  Ga  Ga7  1  0.93354029  0.95816621  0.20412097  1
  P  P8  1  0.08021758  0.21427425  0.08377366  1
  P  P9  1  0.04522423  0.28755671  0.55858216  1
  P  P10  1  0.45341419  0.44381933  0.71076046  1
  P  P11  1  0.58524582  0.08679755  0.21172346  1
  P  P12  1  0.41902759  0.91098776  0.78387624  1
  P  P13  1  0.54053846  0.55506201  0.28809932  1
  P  P14  1  0.95516276  0.71432881  0.43842269  1
  P  P15  1  0.91489107  0.78794304  0.91316554  1
  H  H16  1  0.13050790  0.63575668  0.10795699  1
  H  H17  1  0.20543326  0.46889326  0.06288506  1
  H  H18  1  0.23003712  0.02745838  0.39103244  1
  H  H19  1  0.19569444  0.86124089  0.42515064  1
  H  H20  1  0.30751841  0.57587761  0.13738917  1
  H  H21  1  0.27064350  0.61094341  0.97307786  1
  H  H22  1  0.29313606  0.93842818  0.53221493  1
  H  H23  1  0.37109593  0.89617017  0.36085199  1
  H  H24  1  0.63021223  0.10406073  0.64197140  1
  H  H25  1  0.70495729  0.06235109  0.47249692  1
  H  H26  1  0.72991439  0.38909816  0.02931424  1
  H  H27  1  0.69374488  0.42239785  0.86379837  1
  H  H28  1  0.80604850  0.14095017  0.57558758  1
  H  H29  1  0.77070649  0.97396925  0.61207964  1
  H  H30  1  0.79356332  0.53017402  0.93929562  1
  H  H31  1  0.86979423  0.36042919  0.89636035  1
  N  N32  1  0.22769512  0.57315664  0.07060317  1
  N  N33  1  0.27387111  0.93021980  0.42650947  1
  N  N34  1  0.72753841  0.07121506  0.57569441  1
  N  N35  1  0.77271562  0.42520939  0.93104788  1
  O  O36  1  0.07137325  0.08549586  0.19293343  1
  O  O37  1  0.03707123  0.13865683  0.61939648  1
  O  O38  1  0.02002797  0.17335384  0.94786886  1
  O  O39  1  0.05030415  0.39707429  0.68074050  1
  O  O40  1  0.02512961  0.65442209  0.85674795  1
  O  O41  1  0.09065108  0.68262658  0.52393553  1
  O  O42  1  0.18656421  0.28972373  0.44597006  1
  O  O43  1  0.24124904  0.24913900  0.06138224  1
  O  O44  1  0.26536651  0.93866488  0.73255530  1
  O  O45  1  0.31370486  0.55468050  0.70771889  1
  O  O46  1  0.39474345  0.48272842  0.33201377  1
  O  O47  1  0.49098864  0.14896593  0.35255367  1
  O  O48  1  0.45373872  0.32200329  0.60243402  1
  O  O49  1  0.48218288  0.04861316  0.81833273  1
  O  O50  1  0.58667213  0.19344014  0.08911765  1
  O  O51  1  0.52166342  0.61992053  0.14247509  1
  O  O52  1  0.46849657  0.38228923  0.85773607  1
  O  O53  1  0.41680793  0.80476585  0.90844916  1
  O  O54  1  0.52165918  0.94930794  0.18121584  1
  O  O55  1  0.54280949  0.67908682  0.39542120  1
  O  O56  1  0.52426912  0.85084716  0.64768185  1
  O  O57  1  0.59334560  0.52305899  0.67012040  1
  O  O58  1  0.67351124  0.44204190  0.29004794  1
  O  O59  1  0.74495505  0.05106041  0.25652433  1
  O  O60  1  0.76248648  0.73489916  0.94590339  1
  O  O61  1  0.81394241  0.71538082  0.54949161  1
  O  O62  1  0.90418713  0.32574036  0.48872592  1
  O  O63  1  0.98327614  0.34960671  0.14065630  1
  O  O64  1  0.96072344  0.61144826  0.31597872  1
  O  O65  1  0.97294711  0.82901920  0.05514420  1
  O  O66  1  0.96913286  0.86672667  0.37673833  1
  O  O67  1  0.91733405  0.91032073  0.80675775  1
