# generated using pymatgen
data_Mg2P2H12O13
_symmetry_space_group_name_H-M   'P 1'
_cell_length_a   7.27879999
_cell_length_b   18.44245813
_cell_length_c   7.69115148
_cell_angle_alpha   90.00000000
_cell_angle_beta   92.66256725
_cell_angle_gamma   90.00000000
_symmetry_Int_Tables_number   1
_chemical_formula_structural   Mg2P2H12O13
_chemical_formula_sum   'Mg8 P8 H48 O52'
_cell_volume   1031.33761138
_cell_formula_units_Z   4
loop_
 _symmetry_equiv_pos_site_id
 _symmetry_equiv_pos_as_xyz
  1  'x, y, z'
loop_
 _atom_site_type_symbol
 _atom_site_label
 _atom_site_symmetry_multiplicity
 _atom_site_fract_x
 _atom_site_fract_y
 _atom_site_fract_z
 _atom_site_occupancy
  Mg  Mg0  1  0.50000000  0.50000000  0.50000000  1
  Mg  Mg1  1  0.00000000  0.00000000  0.00000000  1
  Mg  Mg2  1  0.00000000  0.50000000  0.00000000  1
  Mg  Mg3  1  0.50000000  0.00000000  0.50000000  1
  Mg  Mg4  1  0.30308075  0.75645800  0.97566107  1
  Mg  Mg5  1  0.80308075  0.74354200  0.47566107  1
  Mg  Mg6  1  0.69691925  0.24354200  0.02433893  1
  Mg  Mg7  1  0.19691925  0.25645800  0.52433893  1
  P  P8  1  0.29758747  0.59678499  0.79888298  1
  P  P9  1  0.79758747  0.90321501  0.29888298  1
  P  P10  1  0.70241253  0.40321501  0.20111702  1
  P  P11  1  0.20241253  0.09678499  0.70111702  1
  P  P12  1  0.33220475  0.60492079  0.17865033  1
  P  P13  1  0.83220475  0.89507921  0.67865033  1
  P  P14  1  0.66779525  0.39507921  0.82134967  1
  P  P15  1  0.16779525  0.10492079  0.32134967  1
  H  H16  1  0.16276492  0.49581850  0.58635727  1
  H  H17  1  0.66276492  0.00418150  0.08635727  1
  H  H18  1  0.83723508  0.50418150  0.41364273  1
  H  H19  1  0.33723508  0.99581850  0.91364273  1
  H  H20  1  0.16412880  0.51085551  0.37961031  1
  H  H21  1  0.66412880  0.98914449  0.87961031  1
  H  H22  1  0.83587120  0.48914449  0.62038969  1
  H  H23  1  0.33587120  0.01085551  0.12038969  1
  H  H24  1  0.36717517  0.88872661  0.09970443  1
  H  H25  1  0.86717517  0.61127339  0.59970443  1
  H  H26  1  0.63282483  0.11127339  0.90029557  1
  H  H27  1  0.13282483  0.38872661  0.40029557  1
  H  H28  1  0.50647943  0.83542731  0.20747132  1
  H  H29  1  0.00647943  0.66457269  0.70747132  1
  H  H30  1  0.49352057  0.16457269  0.79252868  1
  H  H31  1  0.99352057  0.33542731  0.29252868  1
  H  H32  1  0.39685338  0.85671440  0.71776692  1
  H  H33  1  0.89685338  0.64328560  0.21776692  1
  H  H34  1  0.60314662  0.14328560  0.28223308  1
  H  H35  1  0.10314662  0.35671440  0.78223308  1
  H  H36  1  0.19395428  0.87037537  0.77538631  1
  H  H37  1  0.69395428  0.62962463  0.27538631  1
  H  H38  1  0.80604572  0.12962463  0.22461369  1
  H  H39  1  0.30604572  0.37037537  0.72461369  1
  H  H40  1  0.95529012  0.78903230  0.89553496  1
  H  H41  1  0.45529012  0.71096770  0.39553496  1
  H  H42  1  0.04470988  0.21096770  0.10446504  1
  H  H43  1  0.54470988  0.28903230  0.60446504  1
  H  H44  1  0.00403453  0.82953916  0.07142133  1
  H  H45  1  0.50403453  0.67046084  0.57142133  1
  H  H46  1  0.99596547  0.17046084  0.92857867  1
  H  H47  1  0.49596547  0.32953916  0.42857867  1
  H  H48  1  0.18851425  0.38509420  0.14139000  1
  H  H49  1  0.68851425  0.11490580  0.64139000  1
  H  H50  1  0.81148575  0.61490580  0.85861000  1
  H  H51  1  0.31148575  0.88509420  0.35861000  1
  H  H52  1  0.33358644  0.42663795  0.03360055  1
  H  H53  1  0.83358644  0.07336205  0.53360055  1
  H  H54  1  0.66641356  0.57336205  0.96639945  1
  H  H55  1  0.16641356  0.92663795  0.46639945  1
  H  H56  1  0.67661765  0.74229649  0.03597118  1
  H  H57  1  0.17661765  0.75770351  0.53597118  1
  H  H58  1  0.32338235  0.25770351  0.96402882  1
  H  H59  1  0.82338235  0.24229649  0.46402882  1
  H  H60  1  0.65328108  0.76463364  0.83818196  1
  H  H61  1  0.15328108  0.73536636  0.33818196  1
  H  H62  1  0.34671892  0.23536636  0.16181804  1
  H  H63  1  0.84671892  0.26463364  0.66181804  1
  O  O64  1  0.48284016  0.57405268  0.30075227  1
  O  O65  1  0.98284016  0.92594732  0.80075227  1
  O  O66  1  0.51715984  0.42594732  0.69924773  1
  O  O67  1  0.01715984  0.07405268  0.19924773  1
  O  O68  1  0.32060776  0.68835633  0.19129295  1
  O  O69  1  0.82060776  0.81164367  0.69129295  1
  O  O70  1  0.67939224  0.31164367  0.80870705  1
  O  O71  1  0.17939224  0.18835633  0.30870705  1
  O  O72  1  0.21613268  0.67361060  0.80518439  1
  O  O73  1  0.71613268  0.82638940  0.30518439  1
  O  O74  1  0.78386732  0.32638940  0.19481561  1
  O  O75  1  0.28386732  0.17361060  0.69481561  1
  O  O76  1  0.41109252  0.58561267  0.98667790  1
  O  O77  1  0.91109252  0.91438733  0.48667790  1
  O  O78  1  0.58890748  0.41438733  0.01332210  1
  O  O79  1  0.08890748  0.08561267  0.51332210  1
  O  O80  1  0.14250843  0.56918358  0.18923075  1
  O  O81  1  0.64250843  0.93081642  0.68923075  1
  O  O82  1  0.85749157  0.43081642  0.81076925  1
  O  O83  1  0.35749157  0.06918358  0.31076925  1
  O  O84  1  0.44036079  0.58778884  0.66237701  1
  O  O85  1  0.94036079  0.91221116  0.16237701  1
  O  O86  1  0.55963921  0.41221116  0.33762299  1
  O  O87  1  0.05963921  0.08778884  0.83762299  1
  O  O88  1  0.14754574  0.53802148  0.78908396  1
  O  O89  1  0.64754574  0.96197852  0.28908396  1
  O  O90  1  0.85245426  0.46197852  0.21091604  1
  O  O91  1  0.35245426  0.03802148  0.71091604  1
  O  O92  1  0.20906305  0.47728253  0.47406854  1
  O  O93  1  0.70906305  0.02271747  0.97406854  1
  O  O94  1  0.79093695  0.52271747  0.52593146  1
  O  O95  1  0.29093695  0.97728253  0.02593146  1
  O  O96  1  0.37718640  0.84037343  0.15663120  1
  O  O97  1  0.87718640  0.65962657  0.65663120  1
  O  O98  1  0.62281360  0.15962657  0.84336880  1
  O  O99  1  0.12281360  0.34037343  0.34336880  1
  O  O100  1  0.29330725  0.83349406  0.77262150  1
  O  O101  1  0.79330725  0.66650594  0.27262150  1
  O  O102  1  0.70669275  0.16650594  0.22737850  1
  O  O103  1  0.20669275  0.33349406  0.72737850  1
  O  O104  1  0.02824716  0.78379406  0.00670835  1
  O  O105  1  0.52824716  0.71620594  0.50670835  1
  O  O106  1  0.97175284  0.21620594  0.99329165  1
  O  O107  1  0.47175284  0.28379406  0.49329165  1
  O  O108  1  0.20051636  0.42032774  0.04579756  1
  O  O109  1  0.70051636  0.07967226  0.54579756  1
  O  O110  1  0.79948364  0.57967226  0.95420244  1
  O  O111  1  0.29948364  0.92032774  0.45420244  1
  O  O112  1  0.58847197  0.74311864  0.93583149  1
  O  O113  1  0.08847197  0.75688136  0.43583149  1
  O  O114  1  0.41152803  0.25688136  0.06416851  1
  O  O115  1  0.91152803  0.24311864  0.56416851  1
