# generated using pymatgen
data_W3O8
_symmetry_space_group_name_H-M   'P 1'
_cell_length_a   6.26319864
_cell_length_b   7.36147395
_cell_length_c   7.36147395
_cell_angle_alpha   63.42932063
_cell_angle_beta   113.15894903
_cell_angle_gamma   113.15894903
_symmetry_Int_Tables_number   1
_chemical_formula_structural   W3O8
_chemical_formula_sum   'W6 O16'
_cell_volume   269.17394608
_cell_formula_units_Z   2
loop_
 _symmetry_equiv_pos_site_id
 _symmetry_equiv_pos_as_xyz
  1  'x, y, z'
loop_
 _atom_site_type_symbol
 _atom_site_label
 _atom_site_symmetry_multiplicity
 _atom_site_fract_x
 _atom_site_fract_y
 _atom_site_fract_z
 _atom_site_occupancy
  W  W0  1  0.68106566  0.15953434  0.15953434  1
  W  W1  1  0.68196980  0.65890290  0.65890290  1
  W  W2  1  0.31311056  0.34292290  0.34292290  1
  W  W3  1  0.31540459  0.84292097  0.84292097  1
  W  W4  1  0.99955978  0.99985921  0.99985921  1
  W  W5  1  0.00071752  0.50009709  0.50009709  1
  O  O6  1  0.96517791  0.83177569  0.83177569  1
  O  O7  1  0.96928254  0.33436292  0.33436292  1
  O  O8  1  0.03608823  0.66935417  0.66935417  1
  O  O9  1  0.03831680  0.17028482  0.17028482  1
  O  O10  1  0.65968744  0.48078494  0.48078494  1
  O  O11  1  0.66085087  0.98184474  0.98184474  1
  O  O12  1  0.33113883  0.01414501  0.01414501  1
  O  O13  1  0.33671872  0.51863857  0.51863857  1
  O  O14  1  0.50511900  0.24711330  0.24711330  1
  O  O15  1  0.50197825  0.74944054  0.74944054  1
  O  O16  1  0.99869686  0.75089424  0.25048974  1
  O  O17  1  0.99869686  0.25048974  0.75089424  1
  O  O18  1  0.31133472  0.08732076  0.60108573  1
  O  O19  1  0.31133472  0.60108573  0.08732076  1
  O  O20  1  0.69187667  0.89628281  0.41194561  1
  O  O21  1  0.69187667  0.41194561  0.89628281  1
