# generated using pymatgen
data_Mg3B2P2(H9O10)2
_symmetry_space_group_name_H-M   'P 1'
_cell_length_a   6.36772749
_cell_length_b   9.90827803
_cell_length_c   6.36484259
_cell_angle_alpha   85.19211703
_cell_angle_beta   106.72369601
_cell_angle_gamma   95.93634717
_symmetry_Int_Tables_number   1
_chemical_formula_structural   Mg3B2P2(H9O10)2
_chemical_formula_sum   'Mg3 B2 P2 H18 O20'
_cell_volume   381.91424478
_cell_formula_units_Z   1
loop_
 _symmetry_equiv_pos_site_id
 _symmetry_equiv_pos_as_xyz
  1  'x, y, z'
loop_
 _atom_site_type_symbol
 _atom_site_label
 _atom_site_symmetry_multiplicity
 _atom_site_fract_x
 _atom_site_fract_y
 _atom_site_fract_z
 _atom_site_occupancy
  Mg  Mg0  1  0.00000000  0.00000000  0.00000000  1
  Mg  Mg1  1  0.65781375  0.33207412  0.31690566  1
  Mg  Mg2  1  0.34218625  0.66792588  0.68309434  1
  B  B3  1  0.12116352  0.28791427  0.22719325  1
  B  B4  1  0.87883648  0.71208573  0.77280675  1
  P  P5  1  0.75663135  0.27847914  0.85700109  1
  P  P6  1  0.24336865  0.72152086  0.14299891  1
  H  H7  1  0.69440913  0.87676706  0.70261767  1
  H  H8  1  0.30559087  0.12323294  0.29738233  1
  H  H9  1  0.91026496  0.63407422  0.49559832  1
  H  H10  1  0.08973504  0.36592578  0.50440168  1
  H  H11  1  0.68204962  0.53791607  0.68976599  1
  H  H12  1  0.31795038  0.46208393  0.31023401  1
  H  H13  1  0.34955729  0.14769908  0.86925301  1
  H  H14  1  0.65044271  0.85230092  0.13074699  1
  H  H15  1  0.13818295  0.13759156  0.66818284  1
  H  H16  1  0.86181705  0.86240844  0.33181716  1
  H  H17  1  0.34416580  0.94518144  0.68139204  1
  H  H18  1  0.65583420  0.05481856  0.31860796  1
  H  H19  1  0.66159106  0.10727882  0.55488656  1
  H  H20  1  0.33840894  0.89272118  0.44511344  1
  H  H21  1  0.15949366  0.43330768  0.84304095  1
  H  H22  1  0.84050634  0.56669232  0.15695905  1
  H  H23  1  0.38984675  0.39985998  0.83107566  1
  H  H24  1  0.61015325  0.60014002  0.16892434  1
  O  O25  1  0.77263104  0.12861431  0.81558195  1
  O  O26  1  0.22736896  0.87138569  0.18441805  1
  O  O27  1  0.58205579  0.28759367  0.98185233  1
  O  O28  1  0.41794421  0.71240633  0.01814767  1
  O  O29  1  0.70850361  0.36856017  0.64396235  1
  O  O30  1  0.29149639  0.63143983  0.35603765  1
  O  O31  1  0.98884361  0.33720856  0.00248665  1
  O  O32  1  0.01115639  0.66279144  0.99751335  1
  O  O33  1  0.15102967  0.14233441  0.22400883  1
  O  O34  1  0.84897033  0.85766559  0.77599117  1
  O  O35  1  0.99756784  0.30858951  0.38695225  1
  O  O36  1  0.00243216  0.69141049  0.61304775  1
  O  O37  1  0.33317071  0.36763989  0.27677026  1
  O  O38  1  0.66682929  0.63236011  0.72322974  1
  O  O39  1  0.22393214  0.08384122  0.79425020  1
  O  O40  1  0.77606786  0.91615878  0.20574980  1
  O  O41  1  0.59709001  0.12118316  0.38995055  1
  O  O42  1  0.40290999  0.87881684  0.61004945  1
  O  O43  1  0.73498808  0.54415160  0.24585085  1
  O  O44  1  0.26501192  0.45584840  0.75414915  1
