# generated using pymatgen
data_CaZn2H12(BrO)6
_symmetry_space_group_name_H-M   'P 1'
_cell_length_a   8.64975521
_cell_length_b   8.64975521
_cell_length_c   14.11669231
_cell_angle_alpha   73.63237750
_cell_angle_beta   106.36762250
_cell_angle_gamma   100.98915946
_symmetry_Int_Tables_number   1
_chemical_formula_structural   CaZn2H12(BrO)6
_chemical_formula_sum   'Ca2 Zn4 H24 Br12 O12'
_cell_volume   965.19270783
_cell_formula_units_Z   2
loop_
 _symmetry_equiv_pos_site_id
 _symmetry_equiv_pos_as_xyz
  1  'x, y, z'
loop_
 _atom_site_type_symbol
 _atom_site_label
 _atom_site_symmetry_multiplicity
 _atom_site_fract_x
 _atom_site_fract_y
 _atom_site_fract_z
 _atom_site_occupancy
  Ca  Ca0  1  0.57070773  0.42929227  0.72316090  1
  Ca  Ca1  1  0.42929227  0.57070773  0.27683910  1
  Zn  Zn2  1  0.95780010  0.04219990  0.68714354  1
  Zn  Zn3  1  0.04219990  0.95780010  0.31285646  1
  Zn  Zn4  1  0.22247310  0.77752690  0.83955497  1
  Zn  Zn5  1  0.77752690  0.22247310  0.16044503  1
  H  H6  1  0.87445116  0.26872869  0.84788655  1
  H  H7  1  0.73127131  0.12554884  0.84788655  1
  H  H8  1  0.12554884  0.73127131  0.15211345  1
  H  H9  1  0.26872869  0.87445116  0.15211345  1
  H  H10  1  0.64456403  0.67876328  0.84927371  1
  H  H11  1  0.32123672  0.35543597  0.84927371  1
  H  H12  1  0.35543597  0.32123672  0.15072629  1
  H  H13  1  0.67876328  0.64456403  0.15072629  1
  H  H14  1  0.77233601  0.55837547  0.90397740  1
  H  H15  1  0.44162453  0.22766399  0.90397740  1
  H  H16  1  0.22766399  0.44162453  0.09602260  1
  H  H17  1  0.55837547  0.77233601  0.09602260  1
  H  H18  1  0.40842526  0.73401148  0.60100997  1
  H  H19  1  0.26598852  0.59157474  0.60100997  1
  H  H20  1  0.59157474  0.26598852  0.39899003  1
  H  H21  1  0.73401148  0.40842526  0.39899003  1
  H  H22  1  0.79549762  0.67387335  0.61358785  1
  H  H23  1  0.32612665  0.20450238  0.61358785  1
  H  H24  1  0.20450238  0.32612665  0.38641215  1
  H  H25  1  0.67387335  0.79549762  0.38641215  1
  H  H26  1  0.85391451  0.50801112  0.62074727  1
  H  H27  1  0.49198888  0.14608549  0.62074727  1
  H  H28  1  0.14608549  0.49198888  0.37925273  1
  H  H29  1  0.50801112  0.85391451  0.37925273  1
  Br  Br30  1  0.05350877  0.94649123  0.87575889  1
  Br  Br31  1  0.94649123  0.05350877  0.12424111  1
  Br  Br32  1  0.12903369  0.87096631  0.64973560  1
  Br  Br33  1  0.87096631  0.12903369  0.35026440  1
  Br  Br34  1  0.04034705  0.32182235  0.61870188  1
  Br  Br35  1  0.67817765  0.95965295  0.61870188  1
  Br  Br36  1  0.95965295  0.67817765  0.38129812  1
  Br  Br37  1  0.32182235  0.04034705  0.38129812  1
  Br  Br38  1  0.50748234  0.85657099  0.89797351  1
  Br  Br39  1  0.14342901  0.49251766  0.89797351  1
  Br  Br40  1  0.49251766  0.14342901  0.10202649  1
  Br  Br41  1  0.85657099  0.50748234  0.10202649  1
  O  O42  1  0.75706269  0.24293731  0.82523628  1
  O  O43  1  0.24293731  0.75706269  0.17476372  1
  O  O44  1  0.69575778  0.59458552  0.83871420  1
  O  O45  1  0.40541448  0.30424222  0.83871420  1
  O  O46  1  0.30424222  0.40541448  0.16128580  1
  O  O47  1  0.59458552  0.69575778  0.16128580  1
  O  O48  1  0.38395970  0.61604030  0.61969878  1
  O  O49  1  0.61604030  0.38395970  0.38030122  1
  O  O50  1  0.76228044  0.55722672  0.62373009  1
  O  O51  1  0.44277328  0.23771956  0.62373009  1
  O  O52  1  0.23771956  0.44277328  0.37626991  1
  O  O53  1  0.55722672  0.76228044  0.37626991  1
