# generated using pymatgen
data_K2NaNb2Fe7Si8H4O31
_symmetry_space_group_name_H-M   'P 1'
_cell_length_a   5.50288896
_cell_length_b   11.86375218
_cell_length_c   12.11309364
_cell_angle_alpha   113.06322127
_cell_angle_beta   102.79462779
_cell_angle_gamma   94.60316061
_symmetry_Int_Tables_number   1
_chemical_formula_structural   K2NaNb2Fe7Si8H4O31
_chemical_formula_sum   'K2 Na1 Nb2 Fe7 Si8 H4 O31'
_cell_volume   697.12965948
_cell_formula_units_Z   1
loop_
 _symmetry_equiv_pos_site_id
 _symmetry_equiv_pos_as_xyz
  1  'x, y, z'
loop_
 _atom_site_type_symbol
 _atom_site_label
 _atom_site_symmetry_multiplicity
 _atom_site_fract_x
 _atom_site_fract_y
 _atom_site_fract_z
 _atom_site_occupancy
  K  K0  1  0.63168944  0.49203617  0.75796497  1
  K  K1  1  0.36831056  0.50796383  0.24203503  1
  Na  Na2  1  -0.00000000  0.50000000  0.50000000  1
  Nb  Nb3  1  0.56924187  0.68298668  0.58281363  1
  Nb  Nb4  1  0.43075813  0.31701332  0.41718637  1
  Fe  Fe5  1  0.50000000  0.00000000  0.00000000  1
  Fe  Fe6  1  0.91515008  0.98072954  0.84786042  1
  Fe  Fe7  1  0.08484992  0.01927046  0.15213958  1
  Fe  Fe8  1  0.35380441  0.97606824  0.70545602  1
  Fe  Fe9  1  0.64619559  0.02393176  0.29454398  1
  Fe  Fe10  1  0.77570820  0.98655642  0.56887481  1
  Fe  Fe11  1  0.22429180  0.01344358  0.43112519  1
  Si  Si12  1  0.68032763  0.24220108  0.94801631  1
  Si  Si13  1  0.31967237  0.75779892  0.05198369  1
  Si  Si14  1  0.12084875  0.23717426  0.82184835  1
  Si  Si15  1  0.87915125  0.76282574  0.17815165  1
  Si  Si16  1  0.99675261  0.25745758  0.56700491  1
  Si  Si17  1  0.00324739  0.74254242  0.43299509  1
  Si  Si18  1  0.82387810  0.26797825  0.22032849  1
  Si  Si19  1  0.17612190  0.73202175  0.77967151  1
  H  H20  1  0.24023116  0.18506231  0.07703109  1
  H  H21  1  0.75976884  0.81493769  0.92296891  1
  H  H22  1  0.53574546  0.17653647  0.65431782  1
  H  H23  1  0.46425454  0.82346353  0.34568218  1
  O  O24  1  0.35481084  0.12203728  0.33310627  1
  O  O25  1  0.64518916  0.87796272  0.66689373  1
  O  O26  1  0.77332563  0.11719085  0.17869342  1
  O  O27  1  0.22667437  0.88280915  0.82130658  1
  O  O28  1  0.19492635  0.09469872  0.03335115  1
  O  O29  1  0.80507365  0.90530128  0.96664885  1
  O  O30  1  0.62181349  0.09118782  0.89076719  1
  O  O31  1  0.37818651  0.90881218  0.10923281  1
  O  O32  1  0.06830670  0.08515663  0.75650599  1
  O  O33  1  0.93169330  0.91484337  0.24349401  1
  O  O34  1  0.48482266  0.08634448  0.61397250  1
  O  O35  1  0.51517734  0.91365552  0.38602750  1
  O  O36  1  0.92881062  0.10656694  0.48316982  1
  O  O37  1  0.07118938  0.89343306  0.51683018  1
  O  O38  1  0.63298554  0.33319271  0.30174330  1
  O  O39  1  0.36701446  0.66680729  0.69825670  1
  O  O40  1  0.11479427  0.33420185  0.29942287  1
  O  O41  1  0.88520573  0.66579815  0.70057713  1
  O  O42  1  0.76597649  0.30708027  0.10046788  1
  O  O43  1  0.23402351  0.69291973  0.89953212  1
  O  O44  1  0.91834063  0.29212074  0.90454719  1
  O  O45  1  0.08165937  0.70787926  0.09545281  1
  O  O46  1  0.42046432  0.29564066  0.90699874  1
  O  O47  1  0.57953568  0.70435934  0.09300126  1
  O  O48  1  0.07929594  0.29534676  0.71897349  1
  O  O49  1  0.92070406  0.70465324  0.28102651  1
  O  O50  1  0.23856645  0.32366477  0.54278567  1
  O  O51  1  0.76143355  0.67633523  0.45721433  1
  O  O52  1  0.75830974  0.32462735  0.54294017  1
  O  O53  1  0.24169026  0.67537265  0.45705983  1
  O  O54  1  0.50000000  0.50000000  0.50000000  1
