# generated using pymatgen
data_Na3LiMo2(H6O7)2
_symmetry_space_group_name_H-M   'P 1'
_cell_length_a   8.85448826
_cell_length_b   8.85448826
_cell_length_c   11.67865212
_cell_angle_alpha   67.72275825
_cell_angle_beta   67.72275825
_cell_angle_gamma   60.00000151
_symmetry_Int_Tables_number   1
_chemical_formula_structural   Na3LiMo2(H6O7)2
_chemical_formula_sum   'Na6 Li2 Mo4 H24 O28'
_cell_volume   712.95236092
_cell_formula_units_Z   2
loop_
 _symmetry_equiv_pos_site_id
 _symmetry_equiv_pos_as_xyz
  1  'x, y, z'
loop_
 _atom_site_type_symbol
 _atom_site_label
 _atom_site_symmetry_multiplicity
 _atom_site_fract_x
 _atom_site_fract_y
 _atom_site_fract_z
 _atom_site_occupancy
  Na  Na0  1  0.46414921  0.95585633  0.81464181  1
  Na  Na1  1  0.95585633  0.76535264  0.81464181  1
  Na  Na2  1  0.76535264  0.46414921  0.81464181  1
  Na  Na3  1  0.96414921  0.26535264  0.31464181  1
  Na  Na4  1  0.26535264  0.45585633  0.31464181  1
  Na  Na5  1  0.45585633  0.96414921  0.31464181  1
  Li  Li6  1  0.49110998  0.49110998  0.52667007  1
  Li  Li7  1  0.99110998  0.99110998  0.02667007  1
  Mo  Mo8  1  0.37358467  0.37358467  0.87924599  1
  Mo  Mo9  1  0.87358467  0.87358467  0.37924599  1
  Mo  Mo10  1  0.12883697  0.12883697  0.61348908  1
  Mo  Mo11  1  0.62883697  0.62883697  0.11348908  1
  H  H12  1  0.79561903  0.39688292  0.54089854  1
  H  H13  1  0.39688292  0.26659951  0.54089854  1
  H  H14  1  0.26659951  0.79561903  0.54089854  1
  H  H15  1  0.29561903  0.76659951  0.04089854  1
  H  H16  1  0.76659951  0.89688292  0.04089854  1
  H  H17  1  0.89688292  0.29561903  0.04089854  1
  H  H18  1  0.73147355  0.58696235  0.44511795  1
  H  H19  1  0.58696235  0.23644614  0.44511795  1
  H  H20  1  0.23644614  0.73147355  0.44511795  1
  H  H21  1  0.23147355  0.73644614  0.94511795  1
  H  H22  1  0.73644614  0.08696235  0.94511795  1
  H  H23  1  0.08696235  0.23147355  0.94511795  1
  H  H24  1  0.76538736  0.02234491  0.60577671  1
  H  H25  1  0.02234491  0.60649103  0.60577671  1
  H  H26  1  0.60649103  0.76538736  0.60577671  1
  H  H27  1  0.26538736  0.10649103  0.10577671  1
  H  H28  1  0.10649103  0.52234491  0.10577671  1
  H  H29  1  0.52234491  0.26538736  0.10577671  1
  H  H30  1  0.75226693  0.10992289  0.70357682  1
  H  H31  1  0.10992289  0.43423336  0.70357682  1
  H  H32  1  0.43423336  0.75226693  0.70357682  1
  H  H33  1  0.25226693  0.93423336  0.20357682  1
  H  H34  1  0.93423336  0.60992289  0.20357682  1
  H  H35  1  0.60992289  0.25226693  0.20357682  1
  O  O36  1  0.42967871  0.42967871  0.71096388  1
  O  O37  1  0.92967871  0.92967871  0.21096388  1
  O  O38  1  0.31198733  0.18633209  0.93847302  1
  O  O39  1  0.18633209  0.56320756  0.93847302  1
  O  O40  1  0.56320756  0.31198733  0.93847302  1
  O  O41  1  0.81198733  0.06320756  0.43847302  1
  O  O42  1  0.06320756  0.68633209  0.43847302  1
  O  O43  1  0.68633209  0.81198733  0.43847302  1
  O  O44  1  0.18550234  0.18550234  0.44349298  1
  O  O45  1  0.68550234  0.68550234  0.94349298  1
  O  O46  1  0.17906841  0.89225764  0.66850512  1
  O  O47  1  0.89225764  0.26016883  0.66850512  1
  O  O48  1  0.26016883  0.17906841  0.66850512  1
  O  O49  1  0.67906841  0.76016883  0.16850512  1
  O  O50  1  0.76016883  0.39225764  0.16850512  1
  O  O51  1  0.39225764  0.67906841  0.16850512  1
  O  O52  1  0.74224658  0.46299344  0.46509706  1
  O  O53  1  0.46299344  0.32966292  0.46509706  1
  O  O54  1  0.32966292  0.74224658  0.46509706  1
  O  O55  1  0.24224658  0.82966292  0.96509706  1
  O  O56  1  0.82966292  0.96299344  0.96509706  1
  O  O57  1  0.96299344  0.24224658  0.96509706  1
  O  O58  1  0.73523631  0.01101896  0.69897763  1
  O  O59  1  0.01101896  0.55476711  0.69897763  1
  O  O60  1  0.55476711  0.73523631  0.69897763  1
  O  O61  1  0.23523631  0.05476711  0.19897763  1
  O  O62  1  0.05476711  0.51101896  0.19897763  1
  O  O63  1  0.51101896  0.23523631  0.19897763  1
