# generated using pymatgen
data_NiPH6NO5
_symmetry_space_group_name_H-M   'P 1'
_cell_length_a   4.76776652
_cell_length_b   5.62929919
_cell_length_c   8.89786533
_cell_angle_alpha   90.00000000
_cell_angle_beta   90.00000000
_cell_angle_gamma   90.00000000
_symmetry_Int_Tables_number   1
_chemical_formula_structural   NiPH6NO5
_chemical_formula_sum   'Ni2 P2 H12 N2 O10'
_cell_volume   238.81144666
_cell_formula_units_Z   2
loop_
 _symmetry_equiv_pos_site_id
 _symmetry_equiv_pos_as_xyz
  1  'x, y, z'
loop_
 _atom_site_type_symbol
 _atom_site_label
 _atom_site_symmetry_multiplicity
 _atom_site_fract_x
 _atom_site_fract_y
 _atom_site_fract_z
 _atom_site_occupancy
  Ni  Ni0  1  0.06992801  -0.00000000  0.98113081  1
  Ni  Ni1  1  0.56992801  0.50000000  0.01886919  1
  P  P2  1  0.49789892  -0.00000000  0.18940140  1
  P  P3  1  0.99789892  0.50000000  0.81059860  1
  H  H4  1  0.48565825  0.13928971  0.81817092  1
  H  H5  1  0.48565825  0.86071029  0.81817092  1
  H  H6  1  0.98565825  0.36071029  0.18182908  1
  H  H7  1  0.98565825  0.63928971  0.18182908  1
  H  H8  1  0.75328125  -0.00000000  0.46198633  1
  H  H9  1  0.25328125  0.50000000  0.53801367  1
  H  H10  1  0.11359405  -0.00000000  0.45611408  1
  H  H11  1  0.61359405  0.50000000  0.54388592  1
  H  H12  1  0.94296532  0.15134360  0.59366452  1
  H  H13  1  0.94296532  0.84865640  0.59366452  1
  H  H14  1  0.44296532  0.34865640  0.40633548  1
  H  H15  1  0.44296532  0.65134360  0.40633548  1
  N  N16  1  0.93790744  -0.00000000  0.52725741  1
  N  N17  1  0.43790744  0.50000000  0.47274259  1
  O  O18  1  0.36331231  -0.00000000  0.80325664  1
  O  O19  1  0.86331231  0.50000000  0.19674336  1
  O  O20  1  0.81595776  -0.00000000  0.16443886  1
  O  O21  1  0.31595776  0.50000000  0.83556114  1
  O  O22  1  0.35115503  0.21991028  0.11326689  1
  O  O23  1  0.35115503  0.78008972  0.11326689  1
  O  O24  1  0.85115503  0.28008972  0.88673311  1
  O  O25  1  0.85115503  0.71991028  0.88673311  1
  O  O26  1  0.43956304  -0.00000000  0.36133484  1
  O  O27  1  0.93956304  0.50000000  0.63866516  1
