# generated using pymatgen
data_SrLa4TiCr4O15
_symmetry_space_group_name_H-M   'P 1'
_cell_length_a   5.55539321
_cell_length_b   5.60044495
_cell_length_c   39.25345005
_cell_angle_alpha   89.96022226
_cell_angle_beta   89.90920291
_cell_angle_gamma   90.06846864
_symmetry_Int_Tables_number   1
_chemical_formula_structural   SrLa4TiCr4O15
_chemical_formula_sum   'Sr4 La16 Ti4 Cr16 O60'
_cell_volume   1221.27708725
_cell_formula_units_Z   4
loop_
 _symmetry_equiv_pos_site_id
 _symmetry_equiv_pos_as_xyz
  1  'x, y, z'
loop_
 _atom_site_type_symbol
 _atom_site_label
 _atom_site_symmetry_multiplicity
 _atom_site_fract_x
 _atom_site_fract_y
 _atom_site_fract_z
 _atom_site_occupancy
  Sr  Sr0  1  0.01117010  0.99437771  0.04909609  1
  Sr  Sr1  1  0.01092181  0.99181711  0.24893391  1
  Sr  Sr2  1  0.01206509  0.99344880  0.44918556  1
  Sr  Sr3  1  0.01228455  0.99364431  0.64904306  1
  La  La4  1  0.01763686  0.99305185  0.85107830  1
  La  La5  1  0.48517766  0.49926191  0.35059217  1
  La  La6  1  0.48711953  0.49898422  0.15062617  1
  La  La7  1  0.48727772  0.49940397  0.55071453  1
  La  La8  1  0.48598139  0.49533888  0.75083066  1
  La  La9  1  0.48482331  0.49553400  0.95086791  1
  La  La10  1  0.51164835  0.50674837  0.04808576  1
  La  La11  1  0.51987110  0.50734809  0.24836286  1
  La  La12  1  0.51324399  0.50677625  0.64841384  1
  La  La13  1  0.51299654  0.50587783  0.44828148  1
  La  La14  1  0.51775083  0.50786648  0.85101344  1
  La  La15  1  0.98383864  0.00741375  0.15084041  1
  La  La16  1  0.98371082  0.00697868  0.55090140  1
  La  La17  1  0.98310603  0.00653332  0.75086951  1
  La  La18  1  0.98608771  0.00750563  0.35100215  1
  La  La19  1  0.98368786  0.00692268  0.95120923  1
  Ti  Ti20  1  0.99990724  0.50226558  0.09898872  1
  Ti  Ti21  1  0.00026165  0.50174771  0.49907403  1
  Ti  Ti22  1  0.00003036  0.50241973  0.69911957  1
  Ti  Ti23  1  0.49935080  0.99815002  0.29938719  1
  Cr  Cr24  1  0.99940951  0.50076843  0.99969391  1
  Cr  Cr25  1  0.99978079  0.50063853  0.39981256  1
  Cr  Cr26  1  0.00014431  0.50008460  0.59994727  1
  Cr  Cr27  1  0.00060251  0.50002900  0.80028216  1
  Cr  Cr28  1  0.00047184  0.49933643  0.90007863  1
  Cr  Cr29  1  0.49911155  0.00045297  0.09975700  1
  Cr  Cr30  1  0.49898702  0.99920714  0.00003992  1
  Cr  Cr31  1  0.49860129  0.00003408  0.19984332  1
  Cr  Cr32  1  0.49938444  0.00032590  0.49997803  1
  Cr  Cr33  1  0.49892257  0.00006378  0.60024133  1
  Cr  Cr34  1  0.50023970  0.00090782  0.90010481  1
  Cr  Cr35  1  0.49929663  0.99959606  0.40030395  1
  Cr  Cr36  1  0.49942796  0.99972479  0.69997060  1
  Cr  Cr37  1  0.50000761  0.00079921  0.80021649  1
  Cr  Cr38  1  0.00090821  0.50069714  0.20030960  1
  Cr  Cr39  1  0.00026068  0.49983164  0.29986135  1
  O  O40  1  0.99307081  0.44075482  0.05080560  1
  O  O41  1  0.99290263  0.43983352  0.45082206  1
  O  O42  1  0.99302123  0.43883363  0.65112203  1
  O  O43  1  0.00953002  0.58059792  0.94980473  1
  O  O44  1  0.99027235  0.41797969  0.85010683  1
  O  O45  1  0.23454852  0.23459882  0.19090269  1
  O  O46  1  0.23361972  0.23460250  0.59095109  1
  O  O47  1  0.23449986  0.23569618  0.39097703  1
  O  O48  1  0.23396994  0.24042781  0.10838385  1
  O  O49  1  0.24105081  0.23523079  0.30858540  1
  O  O50  1  0.23119627  0.23162527  0.79091002  1
  O  O51  1  0.23433692  0.24103535  0.50842067  1
  O  O52  1  0.23632128  0.23751806  0.99105000  1
  O  O53  1  0.23485193  0.24103009  0.70888822  1
  O  O54  1  0.22986080  0.23031539  0.90872361  1
  O  O55  1  0.27027098  0.72840179  0.00715072  1
  O  O56  1  0.26588170  0.72785702  0.09320715  1
  O  O57  1  0.27491661  0.72513831  0.20737092  1
  O  O58  1  0.27110131  0.73580381  0.29321972  1
  O  O59  1  0.27373274  0.72549880  0.40710399  1
  O  O60  1  0.26511273  0.72823982  0.69337260  1
  O  O61  1  0.26568208  0.72803638  0.49334965  1
  O  O62  1  0.27334645  0.72500180  0.60726369  1
  O  O63  1  0.27000316  0.73059930  0.80885575  1
  O  O64  1  0.26838766  0.73229446  0.89089510  1
  O  O65  1  0.49616507  0.08244202  0.05005506  1
  O  O66  1  0.49674105  0.07175466  0.25086397  1
  O  O67  1  0.49552653  0.08325920  0.65033511  1
  O  O68  1  0.49088083  0.08280179  0.85010558  1
  O  O69  1  0.50634139  0.92477286  0.14984113  1
  O  O70  1  0.50411973  0.93180431  0.34944465  1
  O  O71  1  0.49624557  0.08183034  0.45008580  1
  O  O72  1  0.50681576  0.92492325  0.54993204  1
  O  O73  1  0.50927250  0.92013996  0.75024942  1
  O  O74  1  0.50893884  0.92104257  0.94981782  1
  O  O75  1  0.73214580  0.26661689  0.19111898  1
  O  O76  1  0.74088101  0.26373684  0.10847467  1
  O  O77  1  0.73363302  0.26609562  0.59117840  1
  O  O78  1  0.73279844  0.26706356  0.39105793  1
  O  O79  1  0.74033531  0.26432190  0.70885597  1
  O  O80  1  0.73275699  0.26767458  0.79086356  1
  O  O81  1  0.73427644  0.25904021  0.30863760  1
  O  O82  1  0.74067487  0.26441869  0.50848484  1
  O  O83  1  0.73437773  0.26517842  0.99120908  1
  O  O84  1  0.73132530  0.26860703  0.90881278  1
  O  O85  1  0.75788288  0.75729659  0.00702194  1
  O  O86  1  0.76006307  0.75281976  0.09379577  1
  O  O87  1  0.75963196  0.75988505  0.20681849  1
  O  O88  1  0.76074200  0.75287016  0.69372362  1
  O  O89  1  0.75439232  0.76118515  0.29372485  1
  O  O90  1  0.75957554  0.75907908  0.40689805  1
  O  O91  1  0.76051659  0.75293563  0.49387701  1
  O  O92  1  0.76016346  0.75870296  0.60701618  1
  O  O93  1  0.76793732  0.76727107  0.89099981  1
  O  O94  1  0.77030367  0.76944323  0.80871756  1
  O  O95  1  0.98399730  0.43037935  0.25015276  1
  O  O96  1  0.00797254  0.57335738  0.14943899  1
  O  O97  1  0.01042030  0.58091782  0.34983325  1
  O  O98  1  0.00760529  0.57309446  0.54956777  1
  O  O99  1  0.00754851  0.57437187  0.74978760  1
