# generated using pymatgen
data_TbH12S2NO12
_symmetry_space_group_name_H-M   'P 1'
_cell_length_a   6.58484457
_cell_length_b   19.18964033
_cell_length_c   8.63336075
_cell_angle_alpha   90.00000000
_cell_angle_beta   96.12467517
_cell_angle_gamma   90.00000000
_symmetry_Int_Tables_number   1
_chemical_formula_structural   TbH12S2NO12
_chemical_formula_sum   'Tb4 H48 S8 N4 O48'
_cell_volume   1084.69149454
_cell_formula_units_Z   4
loop_
 _symmetry_equiv_pos_site_id
 _symmetry_equiv_pos_as_xyz
  1  'x, y, z'
loop_
 _atom_site_type_symbol
 _atom_site_label
 _atom_site_symmetry_multiplicity
 _atom_site_fract_x
 _atom_site_fract_y
 _atom_site_fract_z
 _atom_site_occupancy
  Tb  Tb0  1  0.15375079  0.37720241  0.29063355  1
  Tb  Tb1  1  0.84624921  0.87720241  0.20936645  1
  Tb  Tb2  1  0.84624921  0.62279759  0.70936645  1
  Tb  Tb3  1  0.15375079  0.12279759  0.79063355  1
  H  H4  1  0.27680531  0.47360433  0.01188785  1
  H  H5  1  0.72319469  0.97360433  0.48811215  1
  H  H6  1  0.72319469  0.52639567  0.98811215  1
  H  H7  1  0.27680531  0.02639567  0.51188785  1
  H  H8  1  0.13627205  0.41061646  0.95607259  1
  H  H9  1  0.86372795  0.91061646  0.54392741  1
  H  H10  1  0.86372795  0.58938354  0.04392741  1
  H  H11  1  0.13627205  0.08938354  0.45607259  1
  H  H12  1  0.18587291  0.36214973  0.65172502  1
  H  H13  1  0.81412709  0.86214973  0.84827498  1
  H  H14  1  0.81412709  0.63785027  0.34827498  1
  H  H15  1  0.18587291  0.13785027  0.15172502  1
  H  H16  1  0.29132207  0.43256213  0.61638652  1
  H  H17  1  0.70867793  0.93256213  0.88361348  1
  H  H18  1  0.70867793  0.56743787  0.38361348  1
  H  H19  1  0.29132207  0.06743787  0.11638652  1
  H  H20  1  0.52852605  0.41033373  0.84219484  1
  H  H21  1  0.47147395  0.91033373  0.65780516  1
  H  H22  1  0.47147395  0.58966627  0.15780516  1
  H  H23  1  0.52852605  0.08966627  0.34219484  1
  H  H24  1  0.73503262  0.39039622  0.93973336  1
  H  H25  1  0.26496738  0.89039622  0.56026664  1
  H  H26  1  0.26496738  0.60960378  0.06026664  1
  H  H27  1  0.73503262  0.10960378  0.43973336  1
  H  H28  1  0.24525079  0.53190046  0.26781169  1
  H  H29  1  0.75474921  0.03190046  0.23218831  1
  H  H30  1  0.75474921  0.46809954  0.73218831  1
  H  H31  1  0.24525079  0.96809954  0.76781169  1
  H  H32  1  0.17698276  0.52197651  0.43599411  1
  H  H33  1  0.82301724  0.02197651  0.06400589  1
  H  H34  1  0.82301724  0.47802349  0.56400589  1
  H  H35  1  0.17698276  0.97802349  0.93599411  1
  H  H36  1  0.66314092  0.32376303  0.68902933  1
  H  H37  1  0.33685908  0.82376303  0.81097067  1
  H  H38  1  0.33685908  0.67623697  0.31097067  1
  H  H39  1  0.66314092  0.17623697  0.18902933  1
  H  H40  1  0.61604754  0.23862317  0.70414891  1
  H  H41  1  0.38395246  0.73862317  0.79585109  1
  H  H42  1  0.38395246  0.76137683  0.29585109  1
  H  H43  1  0.61604754  0.26137683  0.20414891  1
  H  H44  1  0.78804611  0.26517874  0.58637595  1
  H  H45  1  0.21195389  0.76517874  0.91362405  1
  H  H46  1  0.21195389  0.73482126  0.41362405  1
  H  H47  1  0.78804611  0.23482126  0.08637595  1
  H  H48  1  0.53543027  0.27792658  0.53500743  1
  H  H49  1  0.46456973  0.77792658  0.96499257  1
  H  H50  1  0.46456973  0.72207342  0.46499257  1
  H  H51  1  0.53543027  0.22207342  0.03500743  1
  S  S52  1  0.13441660  0.22461828  0.41961263  1
  S  S53  1  0.86558340  0.72461828  0.08038737  1
  S  S54  1  0.86558340  0.77538172  0.58038737  1
  S  S55  1  0.13441660  0.27538172  0.91961263  1
  S  S56  1  0.69533775  0.42399697  0.26404278  1
  S  S57  1  0.30466225  0.92399697  0.23595722  1
  S  S58  1  0.30466225  0.57600303  0.73595722  1
  S  S59  1  0.69533775  0.07600303  0.76404278  1
  N  N60  1  0.65135895  0.27679935  0.62776487  1
  N  N61  1  0.34864105  0.77679935  0.87223513  1
  N  N62  1  0.34864105  0.72320065  0.37223513  1
  N  N63  1  0.65135895  0.22320065  0.12776487  1
  O  O64  1  0.09564542  0.16124347  0.32239958  1
  O  O65  1  0.90435458  0.66124347  0.17760042  1
  O  O66  1  0.90435458  0.83875653  0.67760042  1
  O  O67  1  0.09564542  0.33875653  0.82239958  1
  O  O68  1  0.14209706  0.20555589  0.58645575  1
  O  O69  1  0.85790294  0.70555589  0.91354425  1
  O  O70  1  0.85790294  0.79444411  0.41354425  1
  O  O71  1  0.14209706  0.29444411  0.08645575  1
  O  O72  1  0.96742016  0.27741121  0.38317128  1
  O  O73  1  0.03257984  0.77741121  0.11682872  1
  O  O74  1  0.03257984  0.72258879  0.61682872  1
  O  O75  1  0.96742016  0.22258879  0.88317128  1
  O  O76  1  0.32771234  0.26033307  0.38719176  1
  O  O77  1  0.67228766  0.76033307  0.11280824  1
  O  O78  1  0.67228766  0.73966693  0.61280824  1
  O  O79  1  0.32771234  0.23966693  0.88719176  1
  O  O80  1  0.51023668  0.38132734  0.28084923  1
  O  O81  1  0.48976332  0.88132734  0.21915077  1
  O  O82  1  0.48976332  0.61867266  0.71915077  1
  O  O83  1  0.51023668  0.11867266  0.78084923  1
  O  O84  1  0.64155108  0.49659056  0.22164183  1
  O  O85  1  0.35844892  0.99659056  0.27835817  1
  O  O86  1  0.35844892  0.50340944  0.77835817  1
  O  O87  1  0.64155108  0.00340944  0.72164183  1
  O  O88  1  0.81289274  0.39030530  0.14308843  1
  O  O89  1  0.18710726  0.89030530  0.35691157  1
  O  O90  1  0.18710726  0.60969470  0.85691157  1
  O  O91  1  0.81289274  0.10969470  0.64308843  1
  O  O92  1  0.83982963  0.42088846  0.41059681  1
  O  O93  1  0.16017037  0.92088846  0.08940319  1
  O  O94  1  0.16017037  0.57911154  0.58940319  1
  O  O95  1  0.83982963  0.07911154  0.91059681  1
  O  O96  1  0.18637510  0.43843764  0.04877322  1
  O  O97  1  0.81362490  0.93843764  0.45122678  1
  O  O98  1  0.81362490  0.56156236  0.95122678  1
  O  O99  1  0.18637510  0.06156236  0.54877322  1
  O  O100  1  0.25325193  0.38692129  0.56941380  1
  O  O101  1  0.74674807  0.88692129  0.93058620  1
  O  O102  1  0.74674807  0.61307871  0.43058620  1
  O  O103  1  0.25325193  0.11307871  0.06941380  1
  O  O104  1  0.66973746  0.39715703  0.83140926  1
  O  O105  1  0.33026254  0.89715703  0.66859074  1
  O  O106  1  0.33026254  0.60284297  0.16859074  1
  O  O107  1  0.66973746  0.10284297  0.33140926  1
  O  O108  1  0.20314940  0.49597379  0.34102100  1
  O  O109  1  0.79685060  0.99597379  0.15897900  1
  O  O110  1  0.79685060  0.50402621  0.65897900  1
  O  O111  1  0.20314940  0.00402621  0.84102100  1
