# generated using pymatgen
data_Na2CoH8(CO5)2
_symmetry_space_group_name_H-M   'P 1'
_cell_length_a   5.63782335
_cell_length_b   5.63782335
_cell_length_c   14.41607782
_cell_angle_alpha   84.30782077
_cell_angle_beta   95.69217923
_cell_angle_gamma   100.22550769
_symmetry_Int_Tables_number   1
_chemical_formula_structural   Na2CoH8(CO5)2
_chemical_formula_sum   'Na4 Co2 H16 C4 O20'
_cell_volume   447.15462764
_cell_formula_units_Z   2
loop_
 _symmetry_equiv_pos_site_id
 _symmetry_equiv_pos_as_xyz
  1  'x, y, z'
loop_
 _atom_site_type_symbol
 _atom_site_label
 _atom_site_symmetry_multiplicity
 _atom_site_fract_x
 _atom_site_fract_y
 _atom_site_fract_z
 _atom_site_occupancy
  Na  Na0  1  0.59648909  0.75576997  0.56357821  1
  Na  Na1  1  0.75576997  0.59648909  0.93642179  1
  Na  Na2  1  0.40351091  0.24423003  0.43642179  1
  Na  Na3  1  0.24423003  0.40351091  0.06357821  1
  Co  Co4  1  0.95819509  0.95819509  0.75000000  1
  Co  Co5  1  0.04180491  0.04180491  0.25000000  1
  H  H6  1  0.46602011  0.21431386  0.62804059  1
  H  H7  1  0.21431386  0.46602011  0.87195941  1
  H  H8  1  0.53397989  0.78568614  0.37195941  1
  H  H9  1  0.78568614  0.53397989  0.12804059  1
  H  H10  1  0.25765204  0.36227964  0.62431321  1
  H  H11  1  0.36227964  0.25765204  0.87568679  1
  H  H12  1  0.74234796  0.63772036  0.37568679  1
  H  H13  1  0.63772036  0.74234796  0.12431321  1
  H  H14  1  0.14893517  0.76389734  0.44075391  1
  H  H15  1  0.76389734  0.14893517  0.05924609  1
  H  H16  1  0.85106483  0.23610266  0.55924609  1
  H  H17  1  0.23610266  0.85106483  0.94075391  1
  H  H18  1  0.11122674  0.80091328  0.54595018  1
  H  H19  1  0.80091328  0.11122674  0.95404982  1
  H  H20  1  0.88877326  0.19908672  0.45404982  1
  H  H21  1  0.19908672  0.88877326  0.04595018  1
  C  C22  1  0.51588589  0.96434442  0.78598648  1
  C  C23  1  0.96434442  0.51588589  0.71401352  1
  C  C24  1  0.48411411  0.03565558  0.21401352  1
  C  C25  1  0.03565558  0.48411411  0.28598648  1
  O  O26  1  0.70870114  0.95869850  0.84537370  1
  O  O27  1  0.95869850  0.70870114  0.65462630  1
  O  O28  1  0.29129886  0.04130150  0.15462630  1
  O  O29  1  0.04130150  0.29129886  0.34537370  1
  O  O30  1  0.94854581  0.54235035  0.80066184  1
  O  O31  1  0.54235035  0.94854581  0.69933816  1
  O  O32  1  0.05145419  0.45764965  0.19933816  1
  O  O33  1  0.45764965  0.05145419  0.30066184  1
  O  O34  1  0.31352866  0.98919415  0.81673617  1
  O  O35  1  0.98919415  0.31352866  0.68326383  1
  O  O36  1  0.68647134  0.01080585  0.18326383  1
  O  O37  1  0.01080585  0.68647134  0.31673617  1
  O  O38  1  0.40621119  0.35594396  0.59400191  1
  O  O39  1  0.35594396  0.40621119  0.90599809  1
  O  O40  1  0.59378881  0.64405604  0.40599809  1
  O  O41  1  0.64405604  0.59378881  0.09400191  1
  O  O42  1  0.77848945  0.15052813  0.50409553  1
  O  O43  1  0.15052813  0.77848945  0.99590447  1
  O  O44  1  0.22151055  0.84947187  0.49590447  1
  O  O45  1  0.84947187  0.22151055  0.00409553  1
