# generated using pymatgen
data_Sr8Nd2Fe5(MoO6)5
_symmetry_space_group_name_H-M   'P 1'
_cell_length_a   5.66071945
_cell_length_b   5.69713151
_cell_length_c   39.96370788
_cell_angle_alpha   90.14025009
_cell_angle_beta   90.00000000
_cell_angle_gamma   90.00000000
_symmetry_Int_Tables_number   1
_chemical_formula_structural   Sr8Nd2Fe5(MoO6)5
_chemical_formula_sum   'Sr16 Nd4 Fe10 Mo10 O60'
_cell_volume   1288.82024902
_cell_formula_units_Z   2
loop_
 _symmetry_equiv_pos_site_id
 _symmetry_equiv_pos_as_xyz
  1  'x, y, z'
loop_
 _atom_site_type_symbol
 _atom_site_label
 _atom_site_symmetry_multiplicity
 _atom_site_fract_x
 _atom_site_fract_y
 _atom_site_fract_z
 _atom_site_occupancy
  Sr  Sr0  1  0.01758566  0.00928795  0.04895504  1
  Sr  Sr1  1  0.01248087  0.01225601  0.25099709  1
  Sr  Sr2  1  0.01535755  0.00113574  0.44929647  1
  Sr  Sr3  1  0.00749454  0.00139463  0.84887795  1
  Sr  Sr4  1  0.49250546  0.50139463  0.34887795  1
  Sr  Sr5  1  0.48241434  0.50928795  0.54895504  1
  Sr  Sr6  1  0.48751913  0.51225601  0.75099709  1
  Sr  Sr7  1  0.48464245  0.50113574  0.94929647  1
  Sr  Sr8  1  0.50749454  0.49860537  0.25112205  1
  Sr  Sr9  1  0.51758566  0.49071205  0.05104496  1
  Sr  Sr10  1  0.51535755  0.49886426  0.65070353  1
  Sr  Sr11  1  0.51248087  0.48774399  0.84900291  1
  Sr  Sr12  1  0.98464245  0.99886426  0.15070353  1
  Sr  Sr13  1  0.99250546  -0.00139463  0.75112205  1
  Sr  Sr14  1  0.98241434  0.99071205  0.55104496  1
  Sr  Sr15  1  0.98751913  0.98774399  0.34900291  1
  Nd  Nd16  1  0.02099561  0.01193429  0.65136253  1
  Nd  Nd17  1  0.47900439  0.51193429  0.15136253  1
  Nd  Nd18  1  0.52099561  0.48806571  0.44863747  1
  Nd  Nd19  1  0.97900439  0.98806571  0.94863747  1
  Fe  Fe20  1  0.99934300  0.49489111  0.89963376  1
  Fe  Fe21  1  0.50003435  -0.00046433  0.00008893  1
  Fe  Fe22  1  0.49934300  0.00510889  0.20036624  1
  Fe  Fe23  1  0.49996565  0.00046433  0.59991107  1
  Fe  Fe24  1  0.50065700  0.99489111  0.39963376  1
  Fe  Fe25  1  0.50000000  0.00000000  0.80000000  1
  Fe  Fe26  1  0.00003435  0.50046433  0.09991107  1
  Fe  Fe27  1  0.00065700  0.50510889  0.70036624  1
  Fe  Fe28  1  0.99996565  0.49953567  0.50008893  1
  Fe  Fe29  1  0.00000000  0.50000000  0.30000000  1
  Mo  Mo30  1  0.00156956  0.49908573  0.99955459  1
  Mo  Mo31  1  0.99800891  0.50177762  0.19997284  1
  Mo  Mo32  1  0.00199109  0.49822238  0.40002716  1
  Mo  Mo33  1  0.99843044  0.50091427  0.60044541  1
  Mo  Mo34  1  0.00000000  0.50000000  0.80000000  1
  Mo  Mo35  1  0.50156956  0.00091427  0.10044541  1
  Mo  Mo36  1  0.50000000  0.00000000  0.30000000  1
  Mo  Mo37  1  0.49843044  0.99908573  0.49955459  1
  Mo  Mo38  1  0.49800891  0.99822238  0.90002716  1
  Mo  Mo39  1  0.50199109  0.00177762  0.69997284  1
  O  O40  1  0.99443089  0.56838054  0.04990691  1
  O  O41  1  0.99802367  0.57038786  0.24627969  1
  O  O42  1  0.98931222  0.55805455  0.44872618  1
  O  O43  1  0.99291420  0.59166896  0.64995212  1
  O  O44  1  0.99345604  0.56057666  0.85070583  1
  O  O45  1  0.26562530  0.26952124  0.20546741  1
  O  O46  1  0.25282108  0.26243326  0.60954309  1
  O  O47  1  0.27284391  0.26810615  0.40936016  1
  O  O48  1  0.26744997  0.27556122  0.00631527  1
  O  O49  1  0.24971012  0.27462662  0.80599566  1
  O  O50  1  0.26492733  0.27242502  0.09418275  1
  O  O51  1  0.25383508  0.25870913  0.69037018  1
  O  O52  1  0.26094777  0.26189377  0.29387253  1
  O  O53  1  0.27199682  0.28379200  0.49013683  1
  O  O54  1  0.26352689  0.25999905  0.89369364  1
  O  O55  1  0.22800318  0.78379200  0.99013683  1
  O  O56  1  0.24616492  0.75870913  0.19037018  1
  O  O57  1  0.23647311  0.75999905  0.39369364  1
  O  O58  1  0.23507267  0.77242502  0.59418275  1
  O  O59  1  0.23905223  0.76189377  0.79387253  1
  O  O60  1  0.25028988  0.77462662  0.30599566  1
  O  O61  1  0.24717892  0.76243326  0.10954309  1
  O  O62  1  0.23437470  0.76952124  0.70546741  1
  O  O63  1  0.23255003  0.77556122  0.50631527  1
  O  O64  1  0.22715609  0.76810615  0.90936016  1
  O  O65  1  0.51068778  0.05805455  0.94872618  1
  O  O66  1  0.50556911  0.06838054  0.54990691  1
  O  O67  1  0.50708580  0.09166896  0.14995212  1
  O  O68  1  0.50654396  0.06057666  0.35070583  1
  O  O69  1  0.50197633  0.07038786  0.74627969  1
  O  O70  1  0.49291420  0.90833104  0.45004788  1
  O  O71  1  0.49345604  0.93942334  0.24929417  1
  O  O72  1  0.48931222  0.94194545  0.65127382  1
  O  O73  1  0.49802367  0.92961214  0.85372031  1
  O  O74  1  0.49443089  0.93161946  0.05009309  1
  O  O75  1  0.76744997  0.22443878  0.09368473  1
  O  O76  1  0.77284391  0.23189385  0.69063984  1
  O  O77  1  0.75282108  0.23756674  0.49045691  1
  O  O78  1  0.74971012  0.22537338  0.29400434  1
  O  O79  1  0.76562530  0.23047876  0.89453259  1
  O  O80  1  0.76352689  0.24000095  0.20630636  1
  O  O81  1  0.77199682  0.21620800  0.60986317  1
  O  O82  1  0.75383508  0.24129087  0.40962982  1
  O  O83  1  0.76492733  0.22757498  0.00581725  1
  O  O84  1  0.76094777  0.23810623  0.80612747  1
  O  O85  1  0.72800318  0.71620800  0.10986317  1
  O  O86  1  0.73647311  0.74000095  0.70630636  1
  O  O87  1  0.73507267  0.72757498  0.50581725  1
  O  O88  1  0.73905223  0.73810623  0.30612747  1
  O  O89  1  0.74616492  0.74129087  0.90962982  1
  O  O90  1  0.72715609  0.73189385  0.19063984  1
  O  O91  1  0.74717892  0.73756674  0.99045691  1
  O  O92  1  0.73255003  0.72443878  0.59368473  1
  O  O93  1  0.73437470  0.73047876  0.39453259  1
  O  O94  1  0.75028988  0.72537338  0.79400434  1
  O  O95  1  0.00197633  0.42961214  0.35372031  1
  O  O96  1  0.01068778  0.44194545  0.15127382  1
  O  O97  1  0.00654396  0.43942334  0.74929417  1
  O  O98  1  0.00556911  0.43161946  0.55009309  1
  O  O99  1  0.00708580  0.40833104  0.95004788  1
