# generated using pymatgen
data_FeP2HO7
_symmetry_space_group_name_H-M   'P 1'
_cell_length_a   7.44655119
_cell_length_b   8.41822315
_cell_length_c   8.42360329
_cell_angle_alpha   90.00000000
_cell_angle_beta   90.00000000
_cell_angle_gamma   102.42338397
_symmetry_Int_Tables_number   1
_chemical_formula_structural   FeP2HO7
_chemical_formula_sum   'Fe4 P8 H4 O28'
_cell_volume   515.68366143
_cell_formula_units_Z   4
loop_
 _symmetry_equiv_pos_site_id
 _symmetry_equiv_pos_as_xyz
  1  'x, y, z'
loop_
 _atom_site_type_symbol
 _atom_site_label
 _atom_site_symmetry_multiplicity
 _atom_site_fract_x
 _atom_site_fract_y
 _atom_site_fract_z
 _atom_site_occupancy
  Fe  Fe0  1  0.52088747  0.97863027  0.30210944  1
  Fe  Fe1  1  0.97911253  0.52136973  0.80210944  1
  Fe  Fe2  1  0.47911253  0.02136973  0.69789056  1
  Fe  Fe3  1  0.02088747  0.47863027  0.19789056  1
  P  P4  1  0.87748012  0.80398926  0.28397175  1
  P  P5  1  0.62251988  0.69601074  0.78397175  1
  P  P6  1  0.12251988  0.19601074  0.71602825  1
  P  P7  1  0.37748012  0.30398926  0.21602825  1
  P  P8  1  0.17652167  0.73582694  0.49048494  1
  P  P9  1  0.32347833  0.76417306  0.99048494  1
  P  P10  1  0.82347833  0.26417306  0.50951506  1
  P  P11  1  0.67652167  0.23582694  0.00951506  1
  H  H12  1  0.39550016  0.51185969  0.37247318  1
  H  H13  1  0.10449984  0.98814031  0.87247318  1
  H  H14  1  0.60449984  0.48814031  0.62752682  1
  H  H15  1  0.89550016  0.01185969  0.12752682  1
  O  O16  1  0.85848732  0.63116788  0.22544521  1
  O  O17  1  0.64151268  0.86883212  0.72544521  1
  O  O18  1  0.14151268  0.36883212  0.77455479  1
  O  O19  1  0.35848732  0.13116788  0.27455479  1
  O  O20  1  0.70335109  0.84623559  0.34755659  1
  O  O21  1  0.79664891  0.65376441  0.84755659  1
  O  O22  1  0.29664891  0.15376441  0.65244341  1
  O  O23  1  0.20335109  0.34623559  0.15244341  1
  O  O24  1  0.96789961  0.92873418  0.15336699  1
  O  O25  1  0.53210039  0.57126582  0.65336699  1
  O  O26  1  0.03210039  0.07126582  0.84663301  1
  O  O27  1  0.46789961  0.42873418  0.34663301  1
  O  O28  1  0.02403499  0.83022914  0.42660727  1
  O  O29  1  0.47596501  0.66977086  0.92660727  1
  O  O30  1  0.97596501  0.16977086  0.57339273  1
  O  O31  1  0.52403499  0.33022914  0.07339273  1
  O  O32  1  0.18545909  0.59558441  0.37657997  1
  O  O33  1  0.31454091  0.90441559  0.87657997  1
  O  O34  1  0.81454091  0.40441559  0.62342003  1
  O  O35  1  0.68545909  0.09558441  0.12342003  1
  O  O36  1  0.11972876  0.68175821  0.65790113  1
  O  O37  1  0.38027124  0.81824179  0.15790113  1
  O  O38  1  0.88027124  0.31824179  0.34209887  1
  O  O39  1  0.61972876  0.18175821  0.84209887  1
  O  O40  1  0.35891488  0.86680850  0.49637144  1
  O  O41  1  0.14108512  0.63319150  0.99637144  1
  O  O42  1  0.64108512  0.13319150  0.50362856  1
  O  O43  1  0.85891488  0.36680850  0.00362856  1
