# generated using pymatgen
data_CoPH6NO5
_symmetry_space_group_name_H-M   'P 1'
_cell_length_a   5.65569924
_cell_length_b   8.88018485
_cell_length_c   4.82163619
_cell_angle_alpha   90.00000000
_cell_angle_beta   90.00000000
_cell_angle_gamma   90.00000000
_symmetry_Int_Tables_number   1
_chemical_formula_structural   CoPH6NO5
_chemical_formula_sum   'Co2 P2 H12 N2 O10'
_cell_volume   242.16019113
_cell_formula_units_Z   2
loop_
 _symmetry_equiv_pos_site_id
 _symmetry_equiv_pos_as_xyz
  1  'x, y, z'
loop_
 _atom_site_type_symbol
 _atom_site_label
 _atom_site_symmetry_multiplicity
 _atom_site_fract_x
 _atom_site_fract_y
 _atom_site_fract_z
 _atom_site_occupancy
  Co  Co0  1  0.50000000  0.02294167  0.51812638  1
  Co  Co1  1  0.00000000  0.97705833  0.01812638  1
  P  P2  1  0.50000000  0.80786219  0.08686313  1
  P  P3  1  0.00000000  0.19213781  0.58686313  1
  H  H4  1  0.50000000  0.53843310  0.83432757  1
  H  H5  1  0.00000000  0.46156690  0.33432757  1
  H  H6  1  0.50000000  0.54527778  0.47682791  1
  H  H7  1  0.00000000  0.45472222  0.97682791  1
  H  H8  1  0.65082844  0.40814095  0.64516303  1
  H  H9  1  0.34917156  0.40814095  0.64516303  1
  H  H10  1  0.84917156  0.59185905  0.14516303  1
  H  H11  1  0.15082844  0.59185905  0.14516303  1
  H  H12  1  0.63939208  0.19196454  0.10250963  1
  H  H13  1  0.36060792  0.19196454  0.10250963  1
  H  H14  1  0.86060792  0.80803546  0.60250963  1
  H  H15  1  0.13939208  0.80803546  0.60250963  1
  N  N16  1  0.50000000  0.47419604  0.65091296  1
  N  N17  1  0.00000000  0.52580396  0.15091296  1
  O  O18  1  0.50000000  0.83143273  0.77376318  1
  O  O19  1  0.00000000  0.16856727  0.27376318  1
  O  O20  1  0.50000000  0.63567823  0.14968967  1
  O  O21  1  0.00000000  0.36432177  0.64968967  1
  O  O22  1  0.71843284  0.88462261  0.23327696  1
  O  O23  1  0.28156716  0.88462261  0.23327696  1
  O  O24  1  0.78156716  0.11537739  0.73327696  1
  O  O25  1  0.21843284  0.11537739  0.73327696  1
  O  O26  1  0.50000000  0.20672173  0.22239997  1
  O  O27  1  0.00000000  0.79327827  0.72239997  1
