# generated using pymatgen
data_SrH2(SeO3)2
_symmetry_space_group_name_H-M   'P 1'
_cell_length_a   5.99367443
_cell_length_b   7.36203951
_cell_length_c   7.94990494
_cell_angle_alpha   97.21161768
_cell_angle_beta   104.05051292
_cell_angle_gamma   106.30467067
_symmetry_Int_Tables_number   1
_chemical_formula_structural   SrH2(SeO3)2
_chemical_formula_sum   'Sr2 H4 Se4 O12'
_cell_volume   319.46804562
_cell_formula_units_Z   2
loop_
 _symmetry_equiv_pos_site_id
 _symmetry_equiv_pos_as_xyz
  1  'x, y, z'
loop_
 _atom_site_type_symbol
 _atom_site_label
 _atom_site_symmetry_multiplicity
 _atom_site_fract_x
 _atom_site_fract_y
 _atom_site_fract_z
 _atom_site_occupancy
  Sr  Sr0  1  0.33314595  0.72071024  0.55352815  1
  Sr  Sr1  1  0.66685405  0.27928976  0.44647185  1
  H  H2  1  0.05531689  0.94677500  0.30027606  1
  H  H3  1  0.25218153  0.95943212  0.04676163  1
  H  H4  1  0.74781847  0.04056788  0.95323837  1
  H  H5  1  0.94468311  0.05322500  0.69972394  1
  Se  Se6  1  0.07572170  0.29662030  0.14727286  1
  Se  Se7  1  0.35463774  0.24752921  0.76945877  1
  Se  Se8  1  0.64536226  0.75247079  0.23054123  1
  Se  Se9  1  0.92427830  0.70337970  0.85272714  1
  O  O10  1  0.24036303  0.86377150  0.94072176  1
  O  O11  1  0.02383676  0.17588560  0.66287330  1
  O  O12  1  0.02876682  0.41133643  0.32619526  1
  O  O13  1  0.44981166  0.44585658  0.68439807  1
  O  O14  1  0.21547579  0.13343856  0.21798356  1
  O  O15  1  0.56001850  0.91346067  0.35064841  1
  O  O16  1  0.43998150  0.08653933  0.64935159  1
  O  O17  1  0.78452421  0.86656144  0.78201644  1
  O  O18  1  0.55018834  0.55414342  0.31560193  1
  O  O19  1  0.97123318  0.58866357  0.67380474  1
  O  O20  1  0.97616324  0.82411440  0.33712670  1
  O  O21  1  0.75963697  0.13622850  0.05927824  1
