# generated using pymatgen
data_CrH20S2(NO7)2
_symmetry_space_group_name_H-M   'P 1'
_cell_length_a   9.54288723
_cell_length_b   12.89838705
_cell_length_c   6.13612198
_cell_angle_alpha   90.00000000
_cell_angle_beta   107.13146759
_cell_angle_gamma   90.00000000
_symmetry_Int_Tables_number   1
_chemical_formula_structural   CrH20S2(NO7)2
_chemical_formula_sum   'Cr2 H40 S4 N4 O28'
_cell_volume   721.77125626
_cell_formula_units_Z   2
loop_
 _symmetry_equiv_pos_site_id
 _symmetry_equiv_pos_as_xyz
  1  'x, y, z'
loop_
 _atom_site_type_symbol
 _atom_site_label
 _atom_site_symmetry_multiplicity
 _atom_site_fract_x
 _atom_site_fract_y
 _atom_site_fract_z
 _atom_site_occupancy
  Cr  Cr0  1  0.50000000  0.50000000  0.00000000  1
  Cr  Cr1  1  0.00000000  0.00000000  0.00000000  1
  H  H2  1  0.54332443  0.15377596  0.23052787  1
  H  H3  1  0.95667557  0.65377596  0.76947213  1
  H  H4  1  0.45667557  0.84622404  0.76947213  1
  H  H5  1  0.04332443  0.34622404  0.23052787  1
  H  H6  1  0.70519375  0.19369929  0.42132272  1
  H  H7  1  0.79480625  0.69369929  0.57867728  1
  H  H8  1  0.29480625  0.80630071  0.57867728  1
  H  H9  1  0.20519375  0.30630071  0.42132272  1
  H  H10  1  0.58362079  0.12330748  0.51276270  1
  H  H11  1  0.91637921  0.62330748  0.48723730  1
  H  H12  1  0.41637921  0.87669252  0.48723730  1
  H  H13  1  0.08362079  0.37669252  0.51276270  1
  H  H14  1  0.67708990  0.06685645  0.35086824  1
  H  H15  1  0.82291010  0.56685645  0.64913176  1
  H  H16  1  0.32291010  0.93314355  0.64913176  1
  H  H17  1  0.17708990  0.43314355  0.35086824  1
  H  H18  1  0.70694788  0.40677558  0.33730020  1
  H  H19  1  0.79305212  0.90677558  0.66269980  1
  H  H20  1  0.29305212  0.59322442  0.66269980  1
  H  H21  1  0.20694788  0.09322442  0.33730020  1
  H  H22  1  0.74042406  0.37480382  0.10282722  1
  H  H23  1  0.75957594  0.87480382  0.89717278  1
  H  H24  1  0.25957594  0.62519618  0.89717278  1
  H  H25  1  0.24042406  0.12519618  0.10282722  1
  H  H26  1  0.21435927  0.39299986  0.95347871  1
  H  H27  1  0.28564073  0.89299986  0.04652129  1
  H  H28  1  0.78564073  0.60700014  0.04652129  1
  H  H29  1  0.71435927  0.10700014  0.95347871  1
  H  H30  1  0.33932582  0.30932645  0.02675178  1
  H  H31  1  0.16067418  0.80932645  0.97324822  1
  H  H32  1  0.66067418  0.69067355  0.97324822  1
  H  H33  1  0.83932582  0.19067355  0.02675178  1
  H  H34  1  0.41312321  0.56887580  0.34180542  1
  H  H35  1  0.08687679  0.06887580  0.65819458  1
  H  H36  1  0.58687679  0.43112420  0.65819458  1
  H  H37  1  0.91312321  0.93112420  0.34180542  1
  H  H38  1  0.54239487  0.64499070  0.32464948  1
  H  H39  1  0.95760513  0.14499070  0.67535052  1
  H  H40  1  0.45760513  0.35500930  0.67535052  1
  H  H41  1  0.04239487  0.85500930  0.32464948  1
  S  S42  1  0.88892914  0.35695084  0.74840742  1
  S  S43  1  0.61107086  0.85695084  0.25159258  1
  S  S44  1  0.11107086  0.64304916  0.25159258  1
  S  S45  1  0.38892914  0.14304916  0.74840742  1
  N  N46  1  0.62704939  0.13548649  0.37746244  1
  N  N47  1  0.87295061  0.63548649  0.62253756  1
  N  N48  1  0.37295061  0.86451351  0.62253756  1
  N  N49  1  0.12704939  0.36451351  0.37746244  1
  O  O50  1  0.87797473  0.26286010  0.60253852  1
  O  O51  1  0.62202527  0.76286010  0.39746148  1
  O  O52  1  0.12202527  0.73713990  0.39746148  1
  O  O53  1  0.37797473  0.23713990  0.60253852  1
  O  O54  1  0.02964698  0.41134929  0.77142041  1
  O  O55  1  0.47035302  0.91134929  0.22857959  1
  O  O56  1  0.97035302  0.58865071  0.22857959  1
  O  O57  1  0.52964698  0.08865071  0.77142041  1
  O  O58  1  0.76446177  0.42856395  0.63274801  1
  O  O59  1  0.73553823  0.92856395  0.36725199  1
  O  O60  1  0.23553823  0.57143605  0.36725199  1
  O  O61  1  0.26446177  0.07143605  0.63274801  1
  O  O62  1  0.87701716  0.32741816  0.97907384  1
  O  O63  1  0.62298284  0.82741816  0.02092616  1
  O  O64  1  0.12298284  0.67258184  0.02092616  1
  O  O65  1  0.37701716  0.17258184  0.97907384  1
  O  O66  1  0.66229817  0.39423898  0.17165934  1
  O  O67  1  0.83770183  0.89423898  0.82834066  1
  O  O68  1  0.33770183  0.60576102  0.82834066  1
  O  O69  1  0.16229817  0.10576102  0.17165934  1
  O  O70  1  0.31611727  0.38222595  0.05051139  1
  O  O71  1  0.18388273  0.88222595  0.94948861  1
  O  O72  1  0.68388273  0.61777405  0.94948861  1
  O  O73  1  0.81611727  0.11777405  0.05051139  1
  O  O74  1  0.50768141  0.57191627  0.30518066  1
  O  O75  1  0.99231859  0.07191627  0.69481934  1
  O  O76  1  0.49231859  0.42808373  0.69481934  1
  O  O77  1  0.00768141  0.92808373  0.30518066  1
