# generated using pymatgen
data_Cs3TmO3
_symmetry_space_group_name_H-M   'P 1'
_cell_length_a   7.57910782
_cell_length_b   7.57910782
_cell_length_c   7.63070211
_cell_angle_alpha   84.00180602
_cell_angle_beta   95.99819398
_cell_angle_gamma   63.39091261
_symmetry_Int_Tables_number   1
_chemical_formula_structural   Cs3TmO3
_chemical_formula_sum   'Cs6 Tm2 O6'
_cell_volume   384.07358878
_cell_formula_units_Z   2
loop_
 _symmetry_equiv_pos_site_id
 _symmetry_equiv_pos_as_xyz
  1  'x, y, z'
loop_
 _atom_site_type_symbol
 _atom_site_label
 _atom_site_symmetry_multiplicity
 _atom_site_fract_x
 _atom_site_fract_y
 _atom_site_fract_z
 _atom_site_occupancy
  Cs  Cs0  1  0.35924274  0.64075726  0.65079974  1
  Cs  Cs1  1  0.21046870  0.21046870  0.50000000  1
  Cs  Cs2  1  0.78953130  0.78953130  0.50000000  1
  Cs  Cs3  1  0.26224484  0.26224484  0.00000000  1
  Cs  Cs4  1  0.73775516  0.73775516  0.00000000  1
  Cs  Cs5  1  0.64075726  0.35924274  0.34920026  1
  Tm  Tm6  1  0.17022105  0.82977895  0.14898386  1
  Tm  Tm7  1  0.82977895  0.17022105  0.85101614  1
  O  O8  1  0.10014991  0.89985009  0.85908349  1
  O  O9  1  0.43116762  0.83573439  0.26376954  1
  O  O10  1  0.16426561  0.56883238  0.26376954  1
  O  O11  1  0.83573439  0.43116762  0.73623046  1
  O  O12  1  0.56883238  0.16426561  0.73623046  1
  O  O13  1  0.89985009  0.10014991  0.14091651  1
