# generated using pymatgen
data_La2S2O
_symmetry_space_group_name_H-M   'P 1'
_cell_length_a   16.18558300
_cell_length_b   4.06835785
_cell_length_c   7.14076278
_cell_angle_alpha   90.00000000
_cell_angle_beta   90.00000000
_cell_angle_gamma   90.00000000
_symmetry_Int_Tables_number   1
_chemical_formula_structural   La2S2O
_chemical_formula_sum   'La8 S8 O4'
_cell_volume   470.21025780
_cell_formula_units_Z   4
loop_
 _symmetry_equiv_pos_site_id
 _symmetry_equiv_pos_as_xyz
  1  'x, y, z'
loop_
 _atom_site_type_symbol
 _atom_site_label
 _atom_site_symmetry_multiplicity
 _atom_site_fract_x
 _atom_site_fract_y
 _atom_site_fract_z
 _atom_site_occupancy
  La  La0  1  0.04098477  0.75000000  0.20750052  1
  La  La1  1  0.16870146  0.75000000  0.75610182  1
  La  La2  1  0.33129854  0.25000000  0.25610182  1
  La  La3  1  0.45901523  0.25000000  0.70750052  1
  La  La4  1  0.54098477  0.75000000  0.29249948  1
  La  La5  1  0.66870146  0.75000000  0.74389818  1
  La  La6  1  0.83129854  0.25000000  0.24389818  1
  La  La7  1  0.95901523  0.25000000  0.79249948  1
  S  S8  1  0.10249880  0.25000000  0.51423744  1
  S  S9  1  0.17691559  0.25000000  0.04261741  1
  S  S10  1  0.32308441  0.75000000  0.54261741  1
  S  S11  1  0.39750120  0.75000000  0.01423744  1
  S  S12  1  0.60249880  0.25000000  0.98576256  1
  S  S13  1  0.67691559  0.25000000  0.45738259  1
  S  S14  1  0.82308441  0.75000000  0.95738259  1
  S  S15  1  0.89750120  0.75000000  0.48576256  1
  O  O16  1  0.03180074  0.75000000  0.86727647  1
  O  O17  1  0.46819926  0.25000000  0.36727647  1
  O  O18  1  0.53180074  0.75000000  0.63272353  1
  O  O19  1  0.96819926  0.25000000  0.13272353  1
