# generated using pymatgen
data_LiGdO2
_symmetry_space_group_name_H-M   'P 1'
_cell_length_a   6.36666947
_cell_length_b   6.21573906
_cell_length_c   6.48603049
_cell_angle_alpha   90.00000000
_cell_angle_beta   120.08110927
_cell_angle_gamma   90.00000000
_symmetry_Int_Tables_number   1
_chemical_formula_structural   LiGdO2
_chemical_formula_sum   'Li4 Gd4 O8'
_cell_volume   222.10542250
_cell_formula_units_Z   4
loop_
 _symmetry_equiv_pos_site_id
 _symmetry_equiv_pos_as_xyz
  1  'x, y, z'
loop_
 _atom_site_type_symbol
 _atom_site_label
 _atom_site_symmetry_multiplicity
 _atom_site_fract_x
 _atom_site_fract_y
 _atom_site_fract_z
 _atom_site_occupancy
  Li  Li0  1  0.29684643  0.84164537  0.57060958  1
  Li  Li1  1  0.70315357  0.34164537  0.92939042  1
  Li  Li2  1  0.29684643  0.65835463  0.07060958  1
  Li  Li3  1  0.70315357  0.15835463  0.42939042  1
  Gd  Gd4  1  0.23115182  0.13246417  0.97460959  1
  Gd  Gd5  1  0.23115182  0.36753583  0.47460959  1
  Gd  Gd6  1  0.76884818  0.63246417  0.52539041  1
  Gd  Gd7  1  0.76884818  0.86753583  0.02539041  1
  O  O8  1  0.01613950  0.82193221  0.85621201  1
  O  O9  1  0.01613950  0.67806779  0.35621201  1
  O  O10  1  0.45051691  0.10565630  0.76298691  1
  O  O11  1  0.54948309  0.60565630  0.73701309  1
  O  O12  1  0.45051691  0.39434370  0.26298691  1
  O  O13  1  0.54948309  0.89434370  0.23701309  1
  O  O14  1  0.98386050  0.32193221  0.64378799  1
  O  O15  1  0.98386050  0.17806779  0.14378799  1
