# generated using pymatgen
data_Sr3Rh2O7
_symmetry_space_group_name_H-M   'P 1'
_cell_length_a   5.54045681
_cell_length_b   5.54082142
_cell_length_c   10.98731841
_cell_angle_alpha   90.00000000
_cell_angle_beta   104.60356790
_cell_angle_gamma   90.00000000
_symmetry_Int_Tables_number   1
_chemical_formula_structural   Sr3Rh2O7
_chemical_formula_sum   'Sr6 Rh4 O14'
_cell_volume   326.39932251
_cell_formula_units_Z   2
loop_
 _symmetry_equiv_pos_site_id
 _symmetry_equiv_pos_as_xyz
  1  'x, y, z'
loop_
 _atom_site_type_symbol
 _atom_site_label
 _atom_site_symmetry_multiplicity
 _atom_site_fract_x
 _atom_site_fract_y
 _atom_site_fract_z
 _atom_site_occupancy
  Sr  Sr0  1  0.06279537  0.25000000  0.62559074  1
  Sr  Sr1  1  0.43720463  0.25000000  0.37440926  1
  Sr  Sr2  1  0.25000000  0.25000000  0.00000000  1
  Sr  Sr3  1  0.56279537  0.75000000  0.62559074  1
  Sr  Sr4  1  0.93720463  0.75000000  0.37440926  1
  Sr  Sr5  1  0.75000000  0.75000000  0.00000000  1
  Rh  Rh6  1  0.15254326  0.75000000  0.80508553  1
  Rh  Rh7  1  0.65254326  0.25000000  0.80508553  1
  Rh  Rh8  1  0.34745674  0.75000000  0.19491447  1
  Rh  Rh9  1  0.84745674  0.25000000  0.19491447  1
  O  O10  1  0.05551217  0.75000000  0.61102335  1
  O  O11  1  0.03787155  0.55880305  0.19343119  1
  O  O12  1  0.34444136  0.05880305  0.80656881  1
  O  O13  1  0.15555864  0.05880305  0.19343119  1
  O  O14  1  0.46212845  0.55880305  0.80656881  1
  O  O15  1  0.25000000  0.75000000  0.00000000  1
  O  O16  1  0.55551217  0.25000000  0.61102335  1
  O  O17  1  0.44448783  0.75000000  0.38897665  1
  O  O18  1  0.53787155  0.44119695  0.19343119  1
  O  O19  1  0.84444136  0.94119695  0.80656881  1
  O  O20  1  0.65555864  0.94119695  0.19343119  1
  O  O21  1  0.96212845  0.44119695  0.80656881  1
  O  O22  1  0.94448783  0.25000000  0.38897665  1
  O  O23  1  0.75000000  0.25000000  0.00000000  1
