# generated using pymatgen
data_CaYb2O4
_symmetry_space_group_name_H-M   'P 1'
_cell_length_a   3.43504610
_cell_length_b   9.16650202
_cell_length_c   11.88381417
_cell_angle_alpha   90.00000000
_cell_angle_beta   90.00000000
_cell_angle_gamma   90.00000000
_symmetry_Int_Tables_number   1
_chemical_formula_structural   CaYb2O4
_chemical_formula_sum   'Ca4 Yb8 O16'
_cell_volume   374.18989946
_cell_formula_units_Z   4
loop_
 _symmetry_equiv_pos_site_id
 _symmetry_equiv_pos_as_xyz
  1  'x, y, z'
loop_
 _atom_site_type_symbol
 _atom_site_label
 _atom_site_symmetry_multiplicity
 _atom_site_fract_x
 _atom_site_fract_y
 _atom_site_fract_z
 _atom_site_occupancy
  O  O0  1  0.25000000  0.58170544  0.58943842  1
  O  O1  1  0.75000000  0.41829456  0.41056158  1
  O  O2  1  0.25000000  0.08170544  0.91056158  1
  O  O3  1  0.75000000  0.91829456  0.08943842  1
  O  O4  1  0.25000000  1.00260695  0.28113483  1
  O  O5  1  0.75000000  -0.00260695  0.71886517  1
  O  O6  1  0.25000000  0.50260695  0.21886517  1
  O  O7  1  0.75000000  0.49739305  0.78113483  1
  O  O8  1  0.25000000  0.84274797  0.51189200  1
  O  O9  1  0.75000000  0.15725203  0.48810800  1
  O  O10  1  0.25000000  0.34274797  0.98810800  1
  O  O11  1  0.75000000  0.65725203  0.01189200  1
  O  O12  1  0.75000000  0.71610810  0.30212892  1
  O  O13  1  0.25000000  0.28389190  0.69787108  1
  O  O14  1  0.75000000  0.21610810  0.19787108  1
  O  O15  1  0.25000000  0.78389190  0.80212892  1
  Ca  Ca16  1  0.75000000  0.74107332  0.65976742  1
  Ca  Ca17  1  0.25000000  0.25892668  0.34023258  1
  Ca  Ca18  1  0.75000000  0.24107332  0.84023258  1
  Ca  Ca19  1  0.25000000  0.75892668  0.15976742  1
  Yb  Yb20  1  0.25000000  0.59962871  0.39684310  1
  Yb  Yb21  1  0.75000000  0.40037129  0.60315690  1
  Yb  Yb22  1  0.25000000  0.09962871  0.10315690  1
  Yb  Yb23  1  0.75000000  0.90037129  0.89684310  1
  Yb  Yb24  1  0.75000000  0.93213005  0.38891699  1
  Yb  Yb25  1  0.25000000  0.06786995  0.61108301  1
  Yb  Yb26  1  0.75000000  0.43213005  0.11108301  1
  Yb  Yb27  1  0.25000000  0.56786995  0.88891699  1
