# generated using pymatgen
data_Na2Cr(HO)8
_symmetry_space_group_name_H-M   'P 1'
_cell_length_a   6.23941526
_cell_length_b   11.21704259
_cell_length_c   12.27485741
_cell_angle_alpha   90.00000000
_cell_angle_beta   104.94214659
_cell_angle_gamma   90.00000000
_symmetry_Int_Tables_number   1
_chemical_formula_structural   Na2Cr(HO)8
_chemical_formula_sum   'Na8 Cr4 H32 O32'
_cell_volume   830.04140601
_cell_formula_units_Z   4
loop_
 _symmetry_equiv_pos_site_id
 _symmetry_equiv_pos_as_xyz
  1  'x, y, z'
loop_
 _atom_site_type_symbol
 _atom_site_label
 _atom_site_symmetry_multiplicity
 _atom_site_fract_x
 _atom_site_fract_y
 _atom_site_fract_z
 _atom_site_occupancy
  Na  Na0  1  0.24962786  0.92663697  0.99699940  1
  Na  Na1  1  0.75037214  0.42663697  0.50300060  1
  Na  Na2  1  0.75037214  0.07336303  0.00300060  1
  Na  Na3  1  0.24962786  0.57336303  0.49699940  1
  Na  Na4  1  0.47589482  0.82052816  0.61238430  1
  Na  Na5  1  0.52410518  0.32052816  0.88761570  1
  Na  Na6  1  0.52410518  0.17947184  0.38761570  1
  Na  Na7  1  0.47589482  0.67947184  0.11238430  1
  Cr  Cr8  1  0.26341118  0.10032034  0.73969723  1
  Cr  Cr9  1  0.73658882  0.60032034  0.76030277  1
  Cr  Cr10  1  0.73658882  0.89967966  0.26030277  1
  Cr  Cr11  1  0.26341118  0.39967966  0.23969723  1
  H  H12  1  0.13968529  0.02845788  0.38407025  1
  H  H13  1  0.86031471  0.52845788  0.11592975  1
  H  H14  1  0.86031471  0.97154212  0.61592975  1
  H  H15  1  0.13968529  0.47154212  0.88407025  1
  H  H16  1  0.25234299  0.06427376  0.51053445  1
  H  H17  1  0.74765701  0.56427376  0.98946555  1
  H  H18  1  0.74765701  0.93572624  0.48946555  1
  H  H19  1  0.25234299  0.43572624  0.01053445  1
  H  H20  1  0.22668265  0.80849417  0.37587248  1
  H  H21  1  0.77331735  0.30849417  0.12412752  1
  H  H22  1  0.77331735  0.19150583  0.62412752  1
  H  H23  1  0.22668265  0.69150583  0.87587248  1
  H  H24  1  0.46097810  0.75761501  0.37538745  1
  H  H25  1  0.53902190  0.25761501  0.12461255  1
  H  H26  1  0.53902190  0.24238499  0.62461255  1
  H  H27  1  0.46097810  0.74238499  0.87538745  1
  H  H28  1  0.01551017  0.70986048  0.09351475  1
  H  H29  1  0.98448983  0.20986048  0.40648525  1
  H  H30  1  0.98448983  0.29013952  0.90648525  1
  H  H31  1  0.01551017  0.79013952  0.59351475  1
  H  H32  1  0.09452955  0.81904923  0.17318172  1
  H  H33  1  0.90547045  0.31904923  0.32681828  1
  H  H34  1  0.90547045  0.18095077  0.82681828  1
  H  H35  1  0.09452955  0.68095077  0.67318172  1
  H  H36  1  0.19356528  0.12912307  0.15267030  1
  H  H37  1  0.80643472  0.62912307  0.34732970  1
  H  H38  1  0.80643472  0.87087693  0.84732970  1
  H  H39  1  0.19356528  0.37087693  0.65267030  1
  H  H40  1  0.08818119  0.00891876  0.18104366  1
  H  H41  1  0.91181881  0.50891876  0.31895634  1
  H  H42  1  0.91181881  0.99108124  0.81895634  1
  H  H43  1  0.08818119  0.49108124  0.68104366  1
  O  O44  1  0.37658146  0.07097274  0.87424988  1
  O  O45  1  0.62341854  0.57097274  0.62575012  1
  O  O46  1  0.62341854  0.92902726  0.12575012  1
  O  O47  1  0.37658146  0.42902726  0.37424988  1
  O  O48  1  0.33746802  0.23776748  0.71083769  1
  O  O49  1  0.66253198  0.73776748  0.78916231  1
  O  O50  1  0.66253198  0.76223252  0.28916231  1
  O  O51  1  0.33746802  0.26223252  0.21083769  1
  O  O52  1  0.34734173  0.00530951  0.65651905  1
  O  O53  1  0.65265827  0.50530951  0.84348095  1
  O  O54  1  0.65265827  0.99469049  0.34348095  1
  O  O55  1  0.34734173  0.49469049  0.15651905  1
  O  O56  1  0.98256175  0.09099952  0.71450661  1
  O  O57  1  0.01743825  0.59099952  0.78549339  1
  O  O58  1  0.01743825  0.90900048  0.28549339  1
  O  O59  1  0.98256175  0.40900048  0.21450661  1
  O  O60  1  0.20572147  0.09646521  0.43299691  1
  O  O61  1  0.79427853  0.59646521  0.06700309  1
  O  O62  1  0.79427853  0.90353479  0.56700309  1
  O  O63  1  0.20572147  0.40353479  0.93299691  1
  O  O64  1  0.34913925  0.75842103  0.41965809  1
  O  O65  1  0.65086075  0.25842103  0.08034191  1
  O  O66  1  0.65086075  0.24157897  0.58034191  1
  O  O67  1  0.34913925  0.74157897  0.91965809  1
  O  O68  1  0.13169918  0.77188885  0.11258184  1
  O  O69  1  0.86830082  0.27188885  0.38741816  1
  O  O70  1  0.86830082  0.22811115  0.88741816  1
  O  O71  1  0.13169918  0.72811115  0.61258184  1
  O  O72  1  0.11578553  0.05631181  0.11822944  1
  O  O73  1  0.88421447  0.55631181  0.38177056  1
  O  O74  1  0.88421447  0.94368819  0.88177056  1
  O  O75  1  0.11578553  0.44368819  0.61822944  1
