# generated using pymatgen
data_LiCuF3
_symmetry_space_group_name_H-M   'P 1'
_cell_length_a   5.13127136
_cell_length_b   5.53269357
_cell_length_c   5.13127136
_cell_angle_alpha   89.99999913
_cell_angle_beta   119.99999460
_cell_angle_gamma   62.37240650
_symmetry_Int_Tables_number   1
_chemical_formula_structural   LiCuF3
_chemical_formula_sum   'Li2 Cu2 F6'
_cell_volume   106.54860060
_cell_formula_units_Z   2
loop_
 _symmetry_equiv_pos_site_id
 _symmetry_equiv_pos_as_xyz
  1  'x, y, z'
loop_
 _atom_site_type_symbol
 _atom_site_label
 _atom_site_symmetry_multiplicity
 _atom_site_fract_x
 _atom_site_fract_y
 _atom_site_fract_z
 _atom_site_occupancy
  Li  Li0  1  0.38862221  0.41706719  0.19431060  1
  Li  Li1  1  0.38862221  0.91706719  0.69431060  1
  Cu  Cu2  1  0.97889057  0.53166414  0.48944529  1
  Cu  Cu3  1  0.97889057  0.03166414  0.98944529  1
  F  F4  1  0.15344147  0.25322589  0.26773456  1
  F  F5  1  0.15344147  0.75322589  0.38570691  1
  F  F6  1  0.47903856  0.75322589  0.09333164  1
  F  F7  1  0.47903856  0.25322589  0.88570691  1
  F  F8  1  0.86106720  0.25322589  0.59333164  1
  F  F9  1  0.86106720  0.75322589  0.76773456  1
