# generated using pymatgen
data_CuH4(IO4)2
_symmetry_space_group_name_H-M   'P 1'
_cell_length_a   6.71982116
_cell_length_b   4.88546676
_cell_length_c   11.33671150
_cell_angle_alpha   90.00000000
_cell_angle_beta   104.36272247
_cell_angle_gamma   90.00000000
_symmetry_Int_Tables_number   1
_chemical_formula_structural   CuH4(IO4)2
_chemical_formula_sum   'Cu2 H8 I4 O16'
_cell_volume   360.54563132
_cell_formula_units_Z   2
loop_
 _symmetry_equiv_pos_site_id
 _symmetry_equiv_pos_as_xyz
  1  'x, y, z'
loop_
 _atom_site_type_symbol
 _atom_site_label
 _atom_site_symmetry_multiplicity
 _atom_site_fract_x
 _atom_site_fract_y
 _atom_site_fract_z
 _atom_site_occupancy
  Cu  Cu0  1  0.00000000  0.50000000  0.50000000  1
  Cu  Cu1  1  0.00000000  0.00000000  0.00000000  1
  H  H2  1  0.17842166  0.59128625  0.92637987  1
  H  H3  1  0.17842166  0.90871375  0.42637987  1
  H  H4  1  0.34050219  0.76600224  0.54037031  1
  H  H5  1  0.65949881  0.26600224  0.95962969  1
  H  H6  1  0.34050219  0.73399776  0.04037031  1
  H  H7  1  0.65949881  0.23399776  0.45962969  1
  H  H8  1  0.82157834  0.09128625  0.57362013  1
  H  H9  1  0.82157834  0.40871375  0.07362013  1
  I  I10  1  0.26036747  0.13889128  0.76806608  1
  I  I11  1  0.26036747  0.36110872  0.26806608  1
  I  I12  1  0.73963253  0.63889128  0.73193392  1
  I  I13  1  0.73963253  0.86110872  0.23193392  1
  O  O14  1  0.07092023  0.31225408  0.83631302  1
  O  O15  1  0.22447157  0.77218980  0.96675281  1
  O  O16  1  0.07092023  0.18774592  0.33631302  1
  O  O17  1  0.20918379  0.29005456  0.61493808  1
  O  O18  1  0.22447157  0.72781020  0.46675281  1
  O  O19  1  0.48334459  0.34889433  0.84113892  1
  O  O20  1  0.20918379  0.20994544  0.11493808  1
  O  O21  1  0.51665541  0.84889433  0.65886108  1
  O  O22  1  0.48334459  0.15110567  0.34113892  1
  O  O23  1  0.79081621  0.79005456  0.88506192  1
  O  O24  1  0.51665541  0.65110567  0.15886108  1
  O  O25  1  0.77552843  0.27218980  0.53324719  1
  O  O26  1  0.79081621  0.70994544  0.38506192  1
  O  O27  1  0.92907977  0.81225408  0.66368698  1
  O  O28  1  0.77552843  0.22781020  0.03324719  1
  O  O29  1  0.92907977  0.68774592  0.16368698  1
