# generated using pymatgen
data_P2Pb3O8
_symmetry_space_group_name_H-M   'P 1'
_cell_length_a   9.97489187
_cell_length_b   9.97490120
_cell_length_c   14.65975452
_cell_angle_alpha   89.99661951
_cell_angle_beta   90.00048427
_cell_angle_gamma   119.99937822
_symmetry_Int_Tables_number   1
_chemical_formula_structural   P2Pb3O8
_chemical_formula_sum   'P12 Pb18 O48'
_cell_volume   1263.21376334
_cell_formula_units_Z   6
loop_
 _symmetry_equiv_pos_site_id
 _symmetry_equiv_pos_as_xyz
  1  'x, y, z'
loop_
 _atom_site_type_symbol
 _atom_site_label
 _atom_site_symmetry_multiplicity
 _atom_site_fract_x
 _atom_site_fract_y
 _atom_site_fract_z
 _atom_site_occupancy
  P  P0  1  0.01882946  0.62603162  0.87508920  1
  P  P1  1  0.02055232  0.62750388  0.37626730  1
  P  P2  1  0.60723658  0.98124642  0.87508297  1
  P  P3  1  0.60695154  0.97939598  0.37626944  1
  P  P4  1  0.37240286  0.39302159  0.37628415  1
  P  P5  1  0.37400096  0.39277716  0.87508640  1
  P  P6  1  0.62603617  0.60719544  0.12490827  1
  P  P7  1  0.62749023  0.60697365  0.62371519  1
  P  P8  1  0.39276998  0.01874496  0.12491589  1
  P  P9  1  0.39305576  0.02066237  0.62375602  1
  P  P10  1  0.98121261  0.37398943  0.12491842  1
  P  P11  1  0.97939926  0.37242936  0.62372134  1
  Pb  Pb12  1  0.99517390  0.73903773  0.12860090  1
  Pb  Pb13  1  0.00970897  0.74538566  0.62714287  1
  Pb  Pb14  1  0.33308166  0.66693181  0.51748766  1
  Pb  Pb15  1  0.33323910  0.66674116  0.98790132  1
  Pb  Pb16  1  0.33379421  0.66627418  0.24842277  1
  Pb  Pb17  1  0.26091957  0.25602094  0.12849571  1
  Pb  Pb18  1  0.25464571  0.26445737  0.62717486  1
  Pb  Pb19  1  0.73552295  0.99018335  0.62714882  1
  Pb  Pb20  1  0.74396160  0.00493723  0.12855458  1
  Pb  Pb21  1  0.25614928  0.99520839  0.87141014  1
  Pb  Pb22  1  0.26431590  0.00959758  0.37275708  1
  Pb  Pb23  1  0.73900027  0.74397197  0.87145940  1
  Pb  Pb24  1  0.74541398  0.73555271  0.37289435  1
  Pb  Pb25  1  0.66654262  0.33323909  0.01208133  1
  Pb  Pb26  1  0.66621206  0.33308038  0.48250773  1
  Pb  Pb27  1  0.66738433  0.33400554  0.75152948  1
  Pb  Pb28  1  0.99014146  0.25464541  0.37287498  1
  Pb  Pb29  1  0.00489161  0.26091512  0.87147842  1
  O  O30  1  0.08165212  0.73425343  0.28993332  1
  O  O31  1  0.07125321  0.73684429  0.79141649  1
  O  O32  1  0.08704259  0.73662433  0.46086575  1
  O  O33  1  0.08146828  0.73433172  0.96063782  1
  O  O34  1  0.09563204  0.52213647  0.87671743  1
  O  O35  1  0.09356247  0.51918239  0.37449387  1
  O  O36  1  0.31757597  0.83886329  0.12416727  1
  O  O37  1  0.31019562  0.84232620  0.62263071  1
  O  O38  1  0.16113952  0.47866125  0.12415482  1
  O  O39  1  0.15769173  0.46794709  0.62258383  1
  O  O40  1  0.42651926  0.90435960  0.87672617  1
  O  O41  1  0.42560851  0.90640705  0.37450718  1
  O  O42  1  0.26580159  0.34758640  0.28989176  1
  O  O43  1  0.26330571  0.35029843  0.46085355  1
  O  O44  1  0.26312738  0.33441138  0.79144694  1
  O  O45  1  0.26565121  0.34709005  0.96063552  1
  O  O46  1  0.52132806  0.68241235  0.12414654  1
  O  O47  1  0.53206290  0.68980441  0.62258345  1
  O  O48  1  0.47783285  0.57349793  0.87672747  1
  O  O49  1  0.48082696  0.57436549  0.37448908  1
  O  O50  1  0.64965866  0.91298166  0.46085323  1
  O  O51  1  0.65288630  0.91853524  0.96063442  1
  O  O52  1  0.65246873  0.91824333  0.28990218  1
  O  O53  1  0.66559511  0.92872235  0.79144093  1
  O  O54  1  0.33440387  0.07126911  0.20855879  1
  O  O55  1  0.35039041  0.08704143  0.53913525  1
  O  O56  1  0.34740228  0.08169337  0.71009358  1
  O  O57  1  0.34713087  0.08147619  0.03937145  1
  O  O58  1  0.52213531  0.42648935  0.12328473  1
  O  O59  1  0.51918184  0.42563704  0.62549970  1
  O  O60  1  0.46788004  0.31019439  0.37736664  1
  O  O61  1  0.47871814  0.31758709  0.87583093  1
  O  O62  1  0.73434532  0.65288643  0.03935612  1
  O  O63  1  0.73684929  0.66557950  0.20857704  1
  O  O64  1  0.73666896  0.64966471  0.53915016  1
  O  O65  1  0.73420434  0.65243789  0.71008899  1
  O  O66  1  0.57437792  0.09356952  0.62550790  1
  O  O67  1  0.57348776  0.09565088  0.12327808  1
  O  O68  1  0.84226937  0.53204821  0.37744605  1
  O  O69  1  0.83889792  0.52133542  0.87585376  1
  O  O70  1  0.68976015  0.15768899  0.37739905  1
  O  O71  1  0.68246034  0.16113475  0.87584370  1
  O  O72  1  0.90436104  0.47784464  0.12327491  1
  O  O73  1  0.90642733  0.48081957  0.62551445  1
  O  O74  1  0.91856076  0.26565454  0.03937251  1
  O  O75  1  0.92872254  0.26312977  0.20856900  1
  O  O76  1  0.91298939  0.26331332  0.53915093  1
  O  O77  1  0.91825412  0.26580830  0.71010259  1
