# generated using pymatgen
data_Li4(CuO2)3
_symmetry_space_group_name_H-M   'P 1'
_cell_length_a   6.53804429
_cell_length_b   6.53804508
_cell_length_c   7.36004817
_cell_angle_alpha   110.07449692
_cell_angle_beta   110.07449365
_cell_angle_gamma   78.81179910
_symmetry_Int_Tables_number   1
_chemical_formula_structural   Li4(CuO2)3
_chemical_formula_sum   'Li8 Cu6 O12'
_cell_volume   276.50898563
_cell_formula_units_Z   2
loop_
 _symmetry_equiv_pos_site_id
 _symmetry_equiv_pos_as_xyz
  1  'x, y, z'
loop_
 _atom_site_type_symbol
 _atom_site_label
 _atom_site_symmetry_multiplicity
 _atom_site_fract_x
 _atom_site_fract_y
 _atom_site_fract_z
 _atom_site_occupancy
  Li  Li0  1  0.97468539  0.98037053  0.47456811  1
  Li  Li1  1  0.97382000  0.30715400  0.86444053  1
  Li  Li2  1  0.64703653  0.30801839  0.47456811  1
  Li  Li3  1  0.37361700  0.35272741  0.12685840  1
  Li  Li4  1  0.64215912  0.65150172  0.88375152  1
  Li  Li5  1  0.35747206  0.69080506  0.52066112  1
  Li  Li6  1  0.01939341  0.70695100  0.12685840  1
  Li  Li7  1  0.31816872  0.97549212  0.88375152  1
  Cu  Cu8  1  0.50909534  0.17291193  0.72789694  1
  Cu  Cu9  1  0.15143478  0.15814605  0.27036829  1
  Cu  Cu10  1  0.18314636  0.51647936  0.73843997  1
  Cu  Cu11  1  0.82481305  0.48476878  0.27036829  1
  Cu  Cu12  1  0.83957893  0.84242834  0.72789694  1
  Cu  Cu13  1  0.48651012  0.81984312  0.26306183  1
  O  O14  1  0.26805518  0.26577066  0.83169909  1
  O  O15  1  0.77007041  0.10340441  0.65501527  1
  O  O16  1  0.39791713  0.07612218  0.18132708  1
  O  O17  1  0.44844016  0.44276908  0.66967151  1
  O  O18  1  0.06999845  0.40333245  0.17331417  1
  O  O19  1  0.10943508  0.78177316  0.66967151  1
  O  O20  1  0.91654128  0.24987428  0.37564598  1
  O  O21  1  0.93243766  0.60138818  0.83169909  1
  O  O22  1  0.56353281  0.55626127  0.33932103  1
  O  O23  1  0.56245159  0.89578559  0.76848220  1
  O  O24  1  0.22292827  0.89686581  0.33932103  1
  O  O25  1  0.74278918  0.73125013  0.18132708  1
