# generated using pymatgen
data_P2H12BrN7
_symmetry_space_group_name_H-M   'P 1'
_cell_length_a   6.09279233
_cell_length_b   7.53118102
_cell_length_c   11.32095944
_cell_angle_alpha   108.63590912
_cell_angle_beta   104.46292009
_cell_angle_gamma   90.68150005
_symmetry_Int_Tables_number   1
_chemical_formula_structural   P2H12BrN7
_chemical_formula_sum   'P4 H24 Br2 N14'
_cell_volume   474.25007977
_cell_formula_units_Z   2
loop_
 _symmetry_equiv_pos_site_id
 _symmetry_equiv_pos_as_xyz
  1  'x, y, z'
loop_
 _atom_site_type_symbol
 _atom_site_label
 _atom_site_symmetry_multiplicity
 _atom_site_fract_x
 _atom_site_fract_y
 _atom_site_fract_z
 _atom_site_occupancy
  P  P0  1  0.22512181  0.31089697  0.06593582  1
  P  P1  1  0.40379200  0.64098814  0.29921049  1
  P  P2  1  0.59620800  0.35901186  0.70078951  1
  P  P3  1  0.77487819  0.68910303  0.93406418  1
  H  H4  1  0.09892775  0.74278239  0.87831537  1
  H  H5  1  0.19215043  0.15544411  0.84776836  1
  H  H6  1  0.37766715  0.35616279  0.90914077  1
  H  H7  1  0.24809876  0.47743554  0.65664333  1
  H  H8  1  0.24607118  0.26197211  0.54743889  1
  H  H9  1  0.22464587  0.64373819  0.45805091  1
  H  H10  1  0.18001732  0.42787166  0.34008608  1
  H  H11  1  0.21449573  0.91095340  0.32262872  1
  H  H12  1  0.50407394  0.83149784  0.81897051  1
  H  H13  1  0.15501341  0.66651246  0.00876469  1
  H  H14  1  0.50012780  0.04513121  0.66674275  1
  H  H15  1  0.24570752  0.02486298  0.09645701  1
  H  H16  1  0.75429248  0.97513702  0.90354299  1
  H  H17  1  0.49987220  0.95486879  0.33325725  1
  H  H18  1  0.84498659  0.33348754  0.99123531  1
  H  H19  1  0.49592606  0.16850216  0.18102949  1
  H  H20  1  0.78550427  0.08904660  0.67737128  1
  H  H21  1  0.81998268  0.57212834  0.65991392  1
  H  H22  1  0.77535413  0.35626181  0.54194909  1
  H  H23  1  0.75392882  0.73802789  0.45256111  1
  H  H24  1  0.75190124  0.52256446  0.34335667  1
  H  H25  1  0.62233285  0.64383721  0.09085923  1
  H  H26  1  0.80784957  0.84455589  0.15223164  1
  H  H27  1  0.90107225  0.25721761  0.12168463  1
  Br  Br28  1  0.12712537  0.83761668  0.67316227  1
  Br  Br29  1  0.87287463  0.16238332  0.32683773  1
  N  N30  1  0.05280626  0.74076171  0.95926117  1
  N  N31  1  0.24537899  0.28305849  0.91956113  1
  N  N32  1  0.32007051  0.35329691  0.63834154  1
  N  N33  1  0.22280043  0.56885147  0.36443264  1
  N  N34  1  0.37257821  0.86501649  0.33261222  1
  N  N35  1  0.64726625  0.48424193  0.85108127  1
  N  N36  1  0.67533342  0.84090036  0.86207684  1
  N  N37  1  0.32466658  0.15909964  0.13792316  1
  N  N38  1  0.35273375  0.51575807  0.14891873  1
  N  N39  1  0.62742179  0.13498351  0.66738778  1
  N  N40  1  0.77719957  0.43114853  0.63556736  1
  N  N41  1  0.67992949  0.64670309  0.36165846  1
  N  N42  1  0.75462101  0.71694151  0.08043887  1
  N  N43  1  0.94719374  0.25923829  0.04073883  1
