# generated using pymatgen
data_Ho2SO2
_symmetry_space_group_name_H-M   'P 1'
_cell_length_a   3.77726060
_cell_length_b   3.77727681
_cell_length_c   13.31796426
_cell_angle_alpha   89.99994598
_cell_angle_beta   89.99967832
_cell_angle_gamma   120.00011136
_symmetry_Int_Tables_number   1
_chemical_formula_structural   Ho2SO2
_chemical_formula_sum   'Ho4 S2 O4'
_cell_volume   164.55979964
_cell_formula_units_Z   2
loop_
 _symmetry_equiv_pos_site_id
 _symmetry_equiv_pos_as_xyz
  1  'x, y, z'
loop_
 _atom_site_type_symbol
 _atom_site_label
 _atom_site_symmetry_multiplicity
 _atom_site_fract_x
 _atom_site_fract_y
 _atom_site_fract_z
 _atom_site_occupancy
  Ho  Ho0  1  0.33332953  0.66670960  0.89238053  1
  Ho  Ho1  1  0.33333048  0.66666862  0.60762036  1
  Ho  Ho2  1  0.66667005  0.33333902  0.39238073  1
  Ho  Ho3  1  0.66666858  0.33337250  0.10761893  1
  S  S4  1  0.00000034  0.00000773  0.25000137  1
  S  S5  1  -0.00000338  0.00001120  0.75000128  1
  O  O6  1  0.33333130  0.66670526  0.06472515  1
  O  O7  1  0.33332940  0.66667031  0.43527239  1
  O  O8  1  0.66667298  0.33337622  0.93526865  1
  O  O9  1  0.66667073  0.33334053  0.56473060  1
