# generated using pymatgen
data_Tl2Ge2O7
_symmetry_space_group_name_H-M   'P 1'
_cell_length_a   7.11813321
_cell_length_b   7.11812870
_cell_length_c   7.11812969
_cell_angle_alpha   60.00012983
_cell_angle_beta   60.00002586
_cell_angle_gamma   60.00006881
_symmetry_Int_Tables_number   1
_chemical_formula_structural   Tl2Ge2O7
_chemical_formula_sum   'Tl4 Ge4 O14'
_cell_volume   255.02548515
_cell_formula_units_Z   2
loop_
 _symmetry_equiv_pos_site_id
 _symmetry_equiv_pos_as_xyz
  1  'x, y, z'
loop_
 _atom_site_type_symbol
 _atom_site_label
 _atom_site_symmetry_multiplicity
 _atom_site_fract_x
 _atom_site_fract_y
 _atom_site_fract_z
 _atom_site_occupancy
  Tl  Tl0  1  0.00000005  0.99999984  -0.00000038  1
  Tl  Tl1  1  0.50000001  0.99999981  0.00000013  1
  Tl  Tl2  1  0.99999977  0.50000028  -0.00000010  1
  Tl  Tl3  1  0.99999981  0.00000002  0.49999994  1
  Ge  Ge4  1  0.49999967  0.00000036  0.50000007  1
  Ge  Ge5  1  0.49999977  0.49999989  0.00000013  1
  Ge  Ge6  1  0.00000023  0.50000030  0.49999965  1
  Ge  Ge7  1  0.49999974  0.50000008  0.50000018  1
  O  O8  1  0.12500011  0.12499991  0.12500068  1
  O  O9  1  0.57448109  0.17551889  0.17551895  1
  O  O10  1  0.57448157  0.17551866  0.57448182  1
  O  O11  1  0.17551847  0.17551926  0.57448081  1
  O  O12  1  0.17551975  0.57448008  0.17551858  1
  O  O13  1  0.57448014  0.57448171  0.17551924  1
  O  O14  1  0.82448244  0.42551816  0.42551936  1
  O  O15  1  0.17551876  0.57448134  0.57448013  1
  O  O16  1  0.42551932  0.82448125  0.42551825  1
  O  O17  1  0.42551852  0.42551816  0.82448160  1
  O  O18  1  0.82448114  0.82448102  0.42551951  1
  O  O19  1  0.82448069  0.42551949  0.82448050  1
  O  O20  1  0.42551910  0.82448078  0.82448203  1
  O  O21  1  0.87499986  0.87500071  0.87499892  1
