# generated using pymatgen
data_SbOF3
_symmetry_space_group_name_H-M   'P 1'
_cell_length_a   8.42964714
_cell_length_b   6.73879677
_cell_length_c   7.73907227
_cell_angle_alpha   109.89600170
_cell_angle_beta   98.50379196
_cell_angle_gamma   111.44393774
_symmetry_Int_Tables_number   1
_chemical_formula_structural   SbOF3
_chemical_formula_sum   'Sb4 O4 F12'
_cell_volume   365.67222739
_cell_formula_units_Z   4
loop_
 _symmetry_equiv_pos_site_id
 _symmetry_equiv_pos_as_xyz
  1  'x, y, z'
loop_
 _atom_site_type_symbol
 _atom_site_label
 _atom_site_symmetry_multiplicity
 _atom_site_fract_x
 _atom_site_fract_y
 _atom_site_fract_z
 _atom_site_occupancy
  Sb  Sb0  1  0.20820539  0.51385103  0.51913677  1
  Sb  Sb1  1  0.39430222  0.33696068  0.11198459  1
  Sb  Sb2  1  0.60569778  0.66303932  0.88801541  1
  Sb  Sb3  1  0.79179461  0.48614897  0.48086323  1
  O  O4  1  0.36469903  0.59990395  0.76782442  1
  O  O5  1  0.34918094  0.47258601  0.34873266  1
  O  O6  1  0.65081906  0.52741399  0.65126734  1
  O  O7  1  0.63530097  0.40009605  0.23217558  1
  F  F8  1  0.02618005  0.55512430  0.67396010  1
  F  F9  1  0.18353666  0.28975134  0.94326740  1
  F  F10  1  0.08608047  0.19007637  0.45875358  1
  F  F11  1  0.27264369  0.82771258  0.55351456  1
  F  F12  1  0.69765189  0.98948409  0.95545920  1
  F  F13  1  0.50822902  0.67947438  0.12249650  1
  F  F14  1  0.49177098  0.32052562  0.87750350  1
  F  F15  1  0.30234811  0.01051591  0.04454080  1
  F  F16  1  0.72735631  0.17228742  0.44648544  1
  F  F17  1  0.91391953  0.80992363  0.54124642  1
  F  F18  1  0.81646334  0.71024866  0.05673260  1
  F  F19  1  0.97381995  0.44487570  0.32603990  1
