# generated using pymatgen
data_Li4Fe3Co(PO4)4
_symmetry_space_group_name_H-M   'P 1'
_cell_length_a   4.74079445
_cell_length_b   10.40131953
_cell_length_c   6.05977473
_cell_angle_alpha   90.00000000
_cell_angle_beta   90.00000000
_cell_angle_gamma   90.09964959
_symmetry_Int_Tables_number   1
_chemical_formula_structural   Li4Fe3Co(PO4)4
_chemical_formula_sum   'Li4 Fe3 Co1 P4 O16'
_cell_volume   298.81017861
_cell_formula_units_Z   1
loop_
 _symmetry_equiv_pos_site_id
 _symmetry_equiv_pos_as_xyz
  1  'x, y, z'
loop_
 _atom_site_type_symbol
 _atom_site_label
 _atom_site_symmetry_multiplicity
 _atom_site_fract_x
 _atom_site_fract_y
 _atom_site_fract_z
 _atom_site_occupancy
  Li  Li0  1  0.00028931  0.99951054  0.99965288  1
  Li  Li1  1  0.00028931  0.99951054  0.50034712  1
  Li  Li2  1  0.50004784  0.50041266  0.50015267  1
  Li  Li3  1  0.50004784  0.50041266  0.99984733  1
  Fe  Fe4  1  0.47448502  0.21850548  0.75000000  1
  Fe  Fe5  1  0.52519454  0.78054580  0.25000000  1
  Fe  Fe6  1  0.97408243  0.28197741  0.25000000  1
  Co  Co7  1  0.02444818  0.71967184  0.75000000  1
  P  P8  1  0.08289983  0.59534585  0.25000000  1
  P  P9  1  0.41756331  0.09449209  0.25000000  1
  P  P10  1  0.58235063  0.90472803  0.75000000  1
  P  P11  1  0.91773570  0.40589746  0.75000000  1
  O  O12  1  0.20620301  0.45639544  0.25000000  1
  O  O13  1  0.21700251  0.66585086  0.04577356  1
  O  O14  1  0.21700251  0.66585086  0.45422644  1
  O  O15  1  0.24199404  0.40250845  0.75000000  1
  O  O16  1  0.25797654  0.90227529  0.75000000  1
  O  O17  1  0.28298436  0.16548373  0.04619899  1
  O  O18  1  0.28298436  0.16548373  0.45380101  1
  O  O19  1  0.29364497  0.95620139  0.25000000  1
  O  O20  1  0.70645162  0.04350175  0.75000000  1
  O  O21  1  0.71719394  0.83396511  0.54617654  1
  O  O22  1  0.71719394  0.83396511  0.95382346  1
  O  O23  1  0.74195434  0.09738296  0.25000000  1
  O  O24  1  0.75827139  0.59725263  0.25000000  1
  O  O25  1  0.78292778  0.33444384  0.54619205  1
  O  O26  1  0.78292778  0.33444384  0.95380795  1
  O  O27  1  0.79385395  0.54398466  0.75000000  1
