# generated using pymatgen
data_Cu2O3
_symmetry_space_group_name_H-M   'P 1'
_cell_length_a   5.19134892
_cell_length_b   3.60871216
_cell_length_c   6.22725699
_cell_angle_alpha   73.15478083
_cell_angle_beta   84.21352598
_cell_angle_gamma   69.54039767
_symmetry_Int_Tables_number   1
_chemical_formula_structural   Cu2O3
_chemical_formula_sum   'Cu4 O6'
_cell_volume   104.61270992
_cell_formula_units_Z   2
loop_
 _symmetry_equiv_pos_site_id
 _symmetry_equiv_pos_as_xyz
  1  'x, y, z'
loop_
 _atom_site_type_symbol
 _atom_site_label
 _atom_site_symmetry_multiplicity
 _atom_site_fract_x
 _atom_site_fract_y
 _atom_site_fract_z
 _atom_site_occupancy
  Cu  Cu0  1  0.26952102  0.31301565  0.09473836  1
  Cu  Cu1  1  0.76868840  0.15966122  0.40506838  1
  Cu  Cu2  1  0.23037827  0.33274282  0.59469064  1
  Cu  Cu3  1  0.73117976  0.67690391  0.90497142  1
  O  O4  1  0.00032954  0.17693566  0.00138843  1
  O  O5  1  0.53197061  0.52416704  0.16335625  1
  O  O6  1  0.03221389  0.43782253  0.33577512  1
  O  O7  1  0.50060591  0.92849366  0.50045230  1
  O  O8  1  0.96757323  0.80632517  0.66391957  1
  O  O9  1  0.46753937  0.22016433  0.83564052  1
