# generated using pymatgen
data_Na(CuO)2
_symmetry_space_group_name_H-M   'P 1'
_cell_length_a   6.08409287
_cell_length_b   6.08409287
_cell_length_c   13.10415806
_cell_angle_alpha   90.00000000
_cell_angle_beta   90.00000000
_cell_angle_gamma   90.00000000
_symmetry_Int_Tables_number   1
_chemical_formula_structural   Na(CuO)2
_chemical_formula_sum   'Na8 Cu16 O16'
_cell_volume   485.06595279
_cell_formula_units_Z   8
loop_
 _symmetry_equiv_pos_site_id
 _symmetry_equiv_pos_as_xyz
  1  'x, y, z'
loop_
 _atom_site_type_symbol
 _atom_site_label
 _atom_site_symmetry_multiplicity
 _atom_site_fract_x
 _atom_site_fract_y
 _atom_site_fract_z
 _atom_site_occupancy
  Na  Na0  1  0.01021199  0.25000000  0.32884254  1
  Na  Na1  1  0.25000000  0.01021199  0.82884254  1
  Na  Na2  1  0.25000000  0.48978801  0.82884254  1
  Na  Na3  1  0.48978801  0.25000000  0.32884254  1
  Na  Na4  1  0.51021199  0.75000000  0.67115746  1
  Na  Na5  1  0.75000000  0.98978801  0.17115746  1
  Na  Na6  1  0.75000000  0.51021199  0.17115746  1
  Na  Na7  1  0.98978801  0.75000000  0.67115746  1
  Cu  Cu8  1  0.00204409  0.75000000  0.35873531  1
  Cu  Cu9  1  0.00191984  0.75000000  0.99495473  1
  Cu  Cu10  1  0.25000000  0.50204409  0.14126469  1
  Cu  Cu11  1  0.25000000  0.50191984  0.50504527  1
  Cu  Cu12  1  0.25000000  0.99808016  0.50504527  1
  Cu  Cu13  1  0.25000000  0.99795591  0.14126469  1
  Cu  Cu14  1  0.49808016  0.75000000  0.99495473  1
  Cu  Cu15  1  0.49795591  0.75000000  0.35873531  1
  Cu  Cu16  1  0.50204409  0.25000000  0.64126469  1
  Cu  Cu17  1  0.50191984  0.25000000  0.00504527  1
  Cu  Cu18  1  0.75000000  0.00191984  0.49495473  1
  Cu  Cu19  1  0.75000000  0.49808016  0.49495473  1
  Cu  Cu20  1  0.75000000  0.00204409  0.85873531  1
  Cu  Cu21  1  0.75000000  0.49795591  0.85873531  1
  Cu  Cu22  1  0.99808016  0.25000000  0.00504527  1
  Cu  Cu23  1  0.99795591  0.25000000  0.64126469  1
  O  O24  1  0.03165901  0.25000000  0.14616443  1
  O  O25  1  0.03400434  0.75000000  0.13539350  1
  O  O26  1  0.25000000  0.53400434  0.36460650  1
  O  O27  1  0.25000000  0.03165901  0.64616443  1
  O  O28  1  0.25000000  0.46834099  0.64616443  1
  O  O29  1  0.25000000  0.96599566  0.36460650  1
  O  O30  1  0.46599566  0.75000000  0.13539350  1
  O  O31  1  0.46834099  0.25000000  0.14616443  1
  O  O32  1  0.53165901  0.75000000  0.85383557  1
  O  O33  1  0.53400434  0.25000000  0.86460650  1
  O  O34  1  0.75000000  0.96834099  0.35383557  1
  O  O35  1  0.75000000  0.53165901  0.35383557  1
  O  O36  1  0.75000000  0.03400434  0.63539350  1
  O  O37  1  0.75000000  0.46599566  0.63539350  1
  O  O38  1  0.96599566  0.25000000  0.86460650  1
  O  O39  1  0.96834099  0.75000000  0.85383557  1
