# generated using pymatgen
data_Li2MnF6
_symmetry_space_group_name_H-M   'P 1'
_cell_length_a   4.98838926
_cell_length_b   4.63390096
_cell_length_c   16.88517497
_cell_angle_alpha   90.00000000
_cell_angle_beta   89.97871718
_cell_angle_gamma   90.00000000
_symmetry_Int_Tables_number   1
_chemical_formula_structural   Li2MnF6
_chemical_formula_sum   'Li8 Mn4 F24'
_cell_volume   390.31264247
_cell_formula_units_Z   4
loop_
 _symmetry_equiv_pos_site_id
 _symmetry_equiv_pos_as_xyz
  1  'x, y, z'
loop_
 _atom_site_type_symbol
 _atom_site_label
 _atom_site_symmetry_multiplicity
 _atom_site_fract_x
 _atom_site_fract_y
 _atom_site_fract_z
 _atom_site_occupancy
  Li  Li0  1  0.25224264  0.51419946  0.77150809  1
  Li  Li1  1  0.25377625  0.00989238  0.94706522  1
  Li  Li2  1  0.25224264  0.98580054  0.27150809  1
  Li  Li3  1  0.25377625  0.49010762  0.44706522  1
  Li  Li4  1  0.74622375  0.50989238  0.55293478  1
  Li  Li5  1  0.74775736  0.01419946  0.72849191  1
  Li  Li6  1  0.74622375  0.99010762  0.05293478  1
  Li  Li7  1  0.74775736  0.48580054  0.22849191  1
  Mn  Mn8  1  0.24726493  0.00933576  0.61989563  1
  Mn  Mn9  1  0.24726493  0.49066424  0.11989563  1
  Mn  Mn10  1  0.75273507  0.50933576  0.88010437  1
  Mn  Mn11  1  0.75273507  0.99066424  0.38010437  1
  F  F12  1  0.05235914  0.74098354  0.87502090  1
  F  F13  1  0.91637186  0.29713957  0.79964425  1
  F  F14  1  0.09502943  0.73097391  0.04619803  1
  F  F15  1  0.05235914  0.75901646  0.37502090  1
  F  F16  1  0.91637186  0.20286043  0.29964425  1
  F  F17  1  0.09502943  0.76902609  0.54619803  1
  F  F18  1  0.40171723  0.24428324  0.54473913  1
  F  F19  1  0.54673728  0.77865116  0.62612537  1
  F  F20  1  0.41146628  0.22759943  0.69927300  1
  F  F21  1  0.58853372  0.72759943  0.80072700  1
  F  F22  1  0.40171723  0.25571676  0.04473913  1
  F  F23  1  0.45326272  0.27865116  0.87387463  1
  F  F24  1  0.54673728  0.72134884  0.12612537  1
  F  F25  1  0.59828277  0.74428324  0.95526087  1
  F  F26  1  0.41146628  0.27240057  0.19927300  1
  F  F27  1  0.58853372  0.77240057  0.30072700  1
  F  F28  1  0.45326272  0.22134884  0.37387463  1
  F  F29  1  0.59828277  0.75571676  0.45526087  1
  F  F30  1  0.90497057  0.23097391  0.45380197  1
  F  F31  1  0.08362814  0.79713957  0.70035575  1
  F  F32  1  0.94764086  0.24098354  0.62497910  1
  F  F33  1  0.90497057  0.26902609  0.95380197  1
  F  F34  1  0.08362814  0.70286043  0.20035575  1
  F  F35  1  0.94764086  0.25901646  0.12497910  1
