# generated using pymatgen
data_Li2FeSiO4
_symmetry_space_group_name_H-M   'P 1'
_cell_length_a   11.00589850
_cell_length_b   5.15956091
_cell_length_c   6.28792312
_cell_angle_alpha   89.93443612
_cell_angle_beta   89.99984369
_cell_angle_gamma   90.02757895
_symmetry_Int_Tables_number   1
_chemical_formula_structural   Li2FeSiO4
_chemical_formula_sum   'Li8 Fe4 Si4 O16'
_cell_volume   357.06323486
_cell_formula_units_Z   4
loop_
 _symmetry_equiv_pos_site_id
 _symmetry_equiv_pos_as_xyz
  1  'x, y, z'
loop_
 _atom_site_type_symbol
 _atom_site_label
 _atom_site_symmetry_multiplicity
 _atom_site_fract_x
 _atom_site_fract_y
 _atom_site_fract_z
 _atom_site_occupancy
  Li  Li0  1  0.07384029  0.78721014  0.86798252  1
  Li  Li1  1  0.16119886  0.18860616  0.11967766  1
  Li  Li2  1  0.33870503  0.68851461  0.61964493  1
  Li  Li3  1  0.42637006  0.28742871  0.36836830  1
  Li  Li4  1  0.57385503  0.71228244  0.86789836  1
  Li  Li5  1  0.66124522  0.31150276  0.11970283  1
  Li  Li6  1  0.83857382  0.81155105  0.61954245  1
  Li  Li7  1  0.92610710  0.21279159  0.36835660  1
  Fe  Fe8  1  0.16662369  0.18965039  0.61831055  1
  Fe  Fe9  1  0.33334921  0.68971338  0.11842270  1
  Fe  Fe10  1  0.66663442  0.31012652  0.61837164  1
  Fe  Fe11  1  0.83343822  0.81013326  0.11813817  1
  Si  Si12  1  0.08831762  0.69075554  0.36796256  1
  Si  Si13  1  0.41164706  0.19079532  0.86801156  1
  Si  Si14  1  0.58836614  0.80921557  0.36797479  1
  Si  Si15  1  0.91166770  0.30926571  0.86794421  1
  O  O16  1  0.05164292  0.19676064  0.86821880  1
  O  O17  1  0.08850179  0.37036641  0.36607313  1
  O  O18  1  0.16229647  0.78850198  0.58409285  1
  O  O19  1  0.15854972  0.79398708  0.14949692  1
  O  O20  1  0.34145164  0.29383298  0.64946592  1
  O  O21  1  0.33774439  0.28857505  0.08405982  1
  O  O22  1  0.41151372  0.87037129  0.86606874  1
  O  O23  1  0.44832682  0.69657174  0.36844890  1
  O  O24  1  0.55172173  0.30382004  0.86832138  1
  O  O25  1  0.58875999  0.12968150  0.36609183  1
  O  O26  1  0.66233732  0.71125578  0.58422951  1
  O  O27  1  0.65853490  0.70620545  0.14965570  1
  O  O28  1  0.84143938  0.20618694  0.64945491  1
  O  O29  1  0.83766418  0.21119509  0.08408492  1
  O  O30  1  0.91131514  0.62971403  0.86595124  1
  O  O31  1  0.94826041  0.80343086  0.36837561  1
