# generated using pymatgen
data_Ba3V2P6(HO4)6
_symmetry_space_group_name_H-M   'P 1'
_cell_length_a   9.54150329
_cell_length_b   13.57491042
_cell_length_c   9.52511745
_cell_angle_alpha   110.53784943
_cell_angle_beta   60.05796911
_cell_angle_gamma   110.41758824
_symmetry_Int_Tables_number   1
_chemical_formula_structural   Ba3V2P6(HO4)6
_chemical_formula_sum   'Ba6 V4 P12 H12 O48'
_cell_volume   977.90496747
_cell_formula_units_Z   2
loop_
 _symmetry_equiv_pos_site_id
 _symmetry_equiv_pos_as_xyz
  1  'x, y, z'
loop_
 _atom_site_type_symbol
 _atom_site_label
 _atom_site_symmetry_multiplicity
 _atom_site_fract_x
 _atom_site_fract_y
 _atom_site_fract_z
 _atom_site_occupancy
  Ba  Ba0  1  0.16099729  0.24994543  0.33941001  1
  Ba  Ba1  1  0.24999684  0.75000791  0.83952384  1
  Ba  Ba2  1  0.66108376  0.74995433  0.24953058  1
  Ba  Ba3  1  0.33899938  0.25005363  0.75045315  1
  Ba  Ba4  1  0.75001273  0.24999887  0.16040845  1
  Ba  Ba5  1  0.83895033  0.75006285  0.66066593  1
  V  V6  1  0.24996163  0.74994877  0.24999430  1
  V  V7  1  0.99999418  0.00000811  0.99999766  1
  V  V8  1  0.49999523  0.50000461  0.50000000  1
  V  V9  1  0.74996131  0.24994494  0.74999984  1
  P  P10  1  0.04673799  0.90417753  0.25538612  1
  P  P11  1  0.25555212  0.90416438  0.60198272  1
  P  P12  1  0.24445085  0.59582938  0.45339484  1
  P  P13  1  0.60157077  0.90348221  0.04640209  1
  P  P14  1  0.10158309  0.40348134  0.75550866  1
  P  P15  1  0.54670876  0.40416922  0.10204974  1
  P  P16  1  0.45327136  0.59582571  0.89794931  1
  P  P17  1  0.89839237  0.59650208  0.24450481  1
  P  P18  1  0.75556940  0.40416482  0.54658960  1
  P  P19  1  0.39837814  0.09650161  0.95364586  1
  P  P20  1  0.74443820  0.09583141  0.39798447  1
  P  P21  1  0.95329865  0.09581768  0.74459693  1
  H  H22  1  0.06538442  0.44228337  0.39075314  1
  H  H23  1  0.01408911  0.55802705  0.93467454  1
  H  H24  1  0.10919092  0.05792844  0.43494119  1
  H  H25  1  0.60919192  0.55793015  0.01379466  1
  H  H26  1  0.56539370  0.94228560  0.48613789  1
  H  H27  1  0.48592743  0.94194989  0.89072857  1
  H  H28  1  0.51408589  0.05802799  0.10926333  1
  H  H29  1  0.39084189  0.44204940  0.98619018  1
  H  H30  1  0.43461196  0.05770111  0.51385200  1
  H  H31  1  0.89084414  0.94205246  0.56502635  1
  H  H32  1  0.98593220  0.44194916  0.06528927  1
  H  H33  1  0.93461257  0.55770124  0.60923732  1
  O  O34  1  0.00047264  0.89755036  0.11657224  1
  O  O35  1  0.18916599  0.84442416  0.17315641  1
  O  O36  1  0.01942029  0.65562338  0.32588338  1
  O  O37  1  0.31080675  0.65555354  0.01787264  1
  O  O38  1  0.17329608  0.84474476  0.48198456  1
  O  O39  1  0.11671894  0.89782624  0.78027202  1
  O  O40  1  0.09830212  0.64071500  0.60437349  1
  O  O41  1  0.18189807  0.47165294  0.38695714  1
  O  O42  1  0.32669906  0.65522911  0.31053352  1
  O  O43  1  0.48052707  0.84433876  0.18965110  1
  O  O44  1  0.09722895  0.52787802  0.81778928  1
  O  O45  1  0.39604260  0.35966405  0.06181475  1
  O  O46  1  0.40168949  0.85930912  0.56198385  1
  O  O47  1  0.11292913  0.02827446  0.31798204  1
  O  O48  1  0.38327998  0.60219795  0.49919355  1
  O  O49  1  0.77838024  0.89595628  0.00054854  1
  O  O50  1  0.10394552  0.14035006  0.59822543  1
  O  O51  1  0.06076611  0.35914298  0.90277128  1
  O  O52  1  0.40276493  0.97211975  0.88715769  1
  O  O53  1  0.27834708  0.39593949  0.61703679  1
  O  O54  1  0.68190672  0.97165527  0.40279946  1
  O  O55  1  0.61293513  0.52826687  0.09734325  1
  O  O56  1  0.43922930  0.14088202  0.10439664  1
  O  O57  1  0.50048106  0.39754956  0.28047529  1
  O  O58  1  0.49953370  0.60246450  0.71951064  1
  O  O59  1  0.56078196  0.85914288  0.89558822  1
  O  O60  1  0.38707650  0.47173206  0.90265611  1
  O  O61  1  0.31809837  0.02835125  0.59719373  1
  O  O62  1  0.72161824  0.60406837  0.38297458  1
  O  O63  1  0.59724157  0.02787988  0.11285774  1
  O  O64  1  0.89603462  0.85967553  0.40180141  1
  O  O65  1  0.93922144  0.64088068  0.09724455  1
  O  O66  1  0.22161098  0.10405223  0.99946065  1
  O  O67  1  0.61671958  0.39782183  0.50084527  1
  O  O68  1  0.88707103  0.97173233  0.68200829  1
  O  O69  1  0.59831936  0.14071178  0.43804120  1
  O  O70  1  0.60396986  0.64035991  0.93818125  1
  O  O71  1  0.90276411  0.47211668  0.18218765  1
  O  O72  1  0.67329099  0.34473822  0.68948278  1
  O  O73  1  0.51942574  0.15562792  0.81031035  1
  O  O74  1  0.81810528  0.52834626  0.61306033  1
  O  O75  1  0.90169070  0.35930321  0.39564809  1
  O  O76  1  0.88328137  0.10219452  0.21973401  1
  O  O77  1  0.82671624  0.15523773  0.51801410  1
  O  O78  1  0.68918399  0.34440766  0.98208345  1
  O  O79  1  0.81078601  0.15555310  0.82688115  1
  O  O80  1  0.98049803  0.34432978  0.67414638  1
  O  O81  1  0.99951859  0.10246489  0.88344133  1
