# generated using pymatgen
data_Li2Cr3WO8
_symmetry_space_group_name_H-M   'P 1'
_cell_length_a   8.55303385
_cell_length_b   8.53284827
_cell_length_c   8.54068080
_cell_angle_alpha   90.13261254
_cell_angle_beta   90.01964028
_cell_angle_gamma   90.06631522
_symmetry_Int_Tables_number   1
_chemical_formula_structural   Li2Cr3WO8
_chemical_formula_sum   'Li8 Cr12 W4 O32'
_cell_volume   623.31162194
_cell_formula_units_Z   4
loop_
 _symmetry_equiv_pos_site_id
 _symmetry_equiv_pos_as_xyz
  1  'x, y, z'
loop_
 _atom_site_type_symbol
 _atom_site_label
 _atom_site_symmetry_multiplicity
 _atom_site_fract_x
 _atom_site_fract_y
 _atom_site_fract_z
 _atom_site_occupancy
  Li  Li0  1  0.99469999  0.99383847  0.99364254  1
  Li  Li1  1  0.25530644  0.25651719  0.25554033  1
  Li  Li2  1  0.24315351  0.74348829  0.75638838  1
  Li  Li3  1  0.50624344  0.00604523  0.49399043  1
  Li  Li4  1  0.49393557  0.50629336  0.00614790  1
  Li  Li5  1  0.75610853  0.24366627  0.74450340  1
  Li  Li6  1  0.74353291  0.75566475  0.24335684  1
  Li  Li7  1  0.00679569  0.49430442  0.50665469  1
  Cr  Cr8  1  0.12293928  0.12565733  0.62560166  1
  Cr  Cr9  1  0.12558283  0.37575503  0.87459083  1
  Cr  Cr10  1  0.12651012  0.62496511  0.12346010  1
  Cr  Cr11  1  0.37193203  0.37638938  0.62346840  1
  Cr  Cr12  1  0.37584998  0.62278130  0.37393023  1
  Cr  Cr13  1  0.37591335  0.87240893  0.12458375  1
  Cr  Cr14  1  0.62292025  0.37363423  0.37292524  1
  Cr  Cr15  1  0.62563577  0.12445475  0.12549232  1
  Cr  Cr16  1  0.62651636  0.87603333  0.87765139  1
  Cr  Cr17  1  0.87306894  0.12524914  0.37709670  1
  Cr  Cr18  1  0.87669810  0.87586314  0.62741283  1
  Cr  Cr19  1  0.87669105  0.62706045  0.87368687  1
  W  W20  1  0.12485579  0.87454815  0.37481579  1
  W  W21  1  0.37463352  0.12488465  0.87506597  1
  W  W22  1  0.62493396  0.62480491  0.62557350  1
  W  W23  1  0.87530579  0.37552750  0.12477873  1
  O  O24  1  0.11383042  0.11040445  0.38558182  1
  O  O25  1  0.11245590  0.88502647  0.61372484  1
  O  O26  1  0.10905814  0.60926379  0.89091362  1
  O  O27  1  0.13671778  0.13516462  0.86278911  1
  O  O28  1  0.11335548  0.38645868  0.11460070  1
  O  O29  1  0.14078665  0.35921206  0.64056081  1
  O  O30  1  0.13769460  0.63939277  0.36628861  1
  O  O31  1  0.13615724  0.86368886  0.13659949  1
  O  O32  1  0.36654545  0.13633463  0.64223508  1
  O  O33  1  0.36438613  0.36088735  0.86389277  1
  O  O34  1  0.35906755  0.64041217  0.14065549  1
  O  O35  1  0.38698731  0.61293282  0.61495465  1
  O  O36  1  0.35783087  0.86556909  0.36469865  1
  O  O37  1  0.39070912  0.38996288  0.39050098  1
  O  O38  1  0.38579388  0.11501660  0.10767229  1
  O  O39  1  0.38453001  0.88917535  0.88724743  1
  O  O40  1  0.61615491  0.39299400  0.61343216  1
  O  O41  1  0.61399237  0.61431075  0.38805072  1
  O  O42  1  0.60925536  0.89067708  0.10966278  1
  O  O43  1  0.63643334  0.36470590  0.13708147  1
  O  O44  1  0.61338812  0.11371213  0.88541987  1
  O  O45  1  0.64048874  0.14017967  0.35963672  1
  O  O46  1  0.63574883  0.85725533  0.63405748  1
  O  O47  1  0.63451573  0.63757428  0.86154502  1
  O  O48  1  0.86588721  0.36312574  0.35864297  1
  O  O49  1  0.86411760  0.14037983  0.13603646  1
  O  O50  1  0.85903384  0.85974407  0.85951521  1
  O  O51  1  0.89228940  0.88649467  0.38378524  1
  O  O52  1  0.86320532  0.63554910  0.63609988  1
  O  O53  1  0.89058519  0.10976218  0.60952928  1
  O  O54  1  0.88539083  0.38519427  0.89128368  1
  O  O55  1  0.88384146  0.60974112  0.11308491  1
