# generated using pymatgen
data_LiCu(PO3)3
_symmetry_space_group_name_H-M   'P 1'
_cell_length_a   8.26238843
_cell_length_b   8.50211491
_cell_length_c   9.13392664
_cell_angle_alpha   90.00000000
_cell_angle_beta   90.00000000
_cell_angle_gamma   90.00000000
_symmetry_Int_Tables_number   1
_chemical_formula_structural   LiCu(PO3)3
_chemical_formula_sum   'Li4 Cu4 P12 O36'
_cell_volume   641.63803136
_cell_formula_units_Z   4
loop_
 _symmetry_equiv_pos_site_id
 _symmetry_equiv_pos_as_xyz
  1  'x, y, z'
loop_
 _atom_site_type_symbol
 _atom_site_label
 _atom_site_symmetry_multiplicity
 _atom_site_fract_x
 _atom_site_fract_y
 _atom_site_fract_z
 _atom_site_occupancy
  Li  Li0  1  0.15675470  0.13055744  0.38224783  1
  Li  Li1  1  0.34324530  0.86944256  0.88224783  1
  Li  Li2  1  0.65675470  0.36944256  0.61775217  1
  Li  Li3  1  0.84324530  0.63055744  0.11775217  1
  Cu  Cu4  1  0.13259335  0.85310530  0.16002789  1
  Cu  Cu5  1  0.36740665  0.14689470  0.66002789  1
  Cu  Cu6  1  0.63259335  0.64689470  0.83997211  1
  Cu  Cu7  1  0.86740665  0.35310530  0.33997211  1
  P  P8  1  0.03171823  0.32069844  0.68822725  1
  P  P9  1  0.17776568  0.47866431  0.18928215  1
  P  P10  1  0.20283843  0.81209904  0.56483426  1
  P  P11  1  0.29716157  0.18790096  0.06483426  1
  P  P12  1  0.32223432  0.52133569  0.68928215  1
  P  P13  1  0.46828177  0.67930156  0.18822725  1
  P  P14  1  0.53171823  0.17930156  0.31177275  1
  P  P15  1  0.67776568  0.02133569  0.81071785  1
  P  P16  1  0.70283843  0.68790096  0.43516574  1
  P  P17  1  0.79716157  0.31209904  0.93516574  1
  P  P18  1  0.82223432  0.97866431  0.31071785  1
  P  P19  1  0.96828177  0.82069844  0.81177275  1
  O  O20  1  0.03713619  0.77054247  0.65425623  1
  O  O21  1  0.08387330  0.61738537  0.13172394  1
  O  O22  1  0.10319750  0.86970266  0.90952026  1
  O  O23  1  0.10513484  0.38531362  0.31433208  1
  O  O24  1  0.14029138  0.19280931  0.62626534  1
  O  O25  1  0.14535991  0.46602271  0.74018098  1
  O  O26  1  0.15905791  0.86434412  0.41410152  1
  O  O27  1  0.18673026  0.08808856  0.15846466  1
  O  O28  1  0.21899447  0.36306970  0.05464537  1
  O  O29  1  0.28100553  0.63693030  0.55464537  1
  O  O30  1  0.31326974  0.91191144  0.65846466  1
  O  O31  1  0.34094209  0.13565588  0.91410152  1
  O  O32  1  0.35464009  0.53397729  0.24018098  1
  O  O33  1  0.35970862  0.80719069  0.12626534  1
  O  O34  1  0.39486516  0.61468638  0.81433208  1
  O  O35  1  0.39680250  0.13029734  0.40952026  1
  O  O36  1  0.41612670  0.38261463  0.63172394  1
  O  O37  1  0.46286381  0.22945753  0.15425623  1
  O  O38  1  0.53713619  0.72945753  0.34574377  1
  O  O39  1  0.58387330  0.88261463  0.86827606  1
  O  O40  1  0.60319750  0.63029734  0.09047974  1
  O  O41  1  0.60513484  0.11468638  0.68566792  1
  O  O42  1  0.64029138  0.30719069  0.37373466  1
  O  O43  1  0.64535991  0.03397729  0.25981902  1
  O  O44  1  0.65905791  0.63565588  0.58589848  1
  O  O45  1  0.68673026  0.41191144  0.84153534  1
  O  O46  1  0.71899447  0.13693030  0.94535463  1
  O  O47  1  0.78100553  0.86306970  0.44535463  1
  O  O48  1  0.81326974  0.58808856  0.34153534  1
  O  O49  1  0.84094209  0.36434412  0.08589748  1
  O  O50  1  0.85464009  0.96602271  0.75981902  1
  O  O51  1  0.85970862  0.69280931  0.87373466  1
  O  O52  1  0.89486516  0.88531362  0.18566792  1
  O  O53  1  0.89680250  0.36970266  0.59047974  1
  O  O54  1  0.91612670  0.11738537  0.36827606  1
  O  O55  1  0.96286381  0.27054247  0.84574377  1
