# generated using pymatgen
data_K2Ti8O17
_symmetry_space_group_name_H-M   'P 1'
_cell_length_a   3.80722328
_cell_length_b   8.18184922
_cell_length_c   12.10892465
_cell_angle_alpha   84.46979518
_cell_angle_beta   90.00000000
_cell_angle_gamma   76.54610585
_symmetry_Int_Tables_number   1
_chemical_formula_structural   K2Ti8O17
_chemical_formula_sum   'K2 Ti8 O17'
_cell_volume   365.03794207
_cell_formula_units_Z   1
loop_
 _symmetry_equiv_pos_site_id
 _symmetry_equiv_pos_as_xyz
  1  'x, y, z'
loop_
 _atom_site_type_symbol
 _atom_site_label
 _atom_site_symmetry_multiplicity
 _atom_site_fract_x
 _atom_site_fract_y
 _atom_site_fract_z
 _atom_site_occupancy
  K  K0  1  0.55551801  0.88896399  0.80483855  1
  K  K1  1  0.44448199  0.11103601  0.19516145  1
  Ti  Ti2  1  0.10984430  0.78031041  0.07081440  1
  Ti  Ti3  1  0.15124356  0.69751287  0.32755584  1
  Ti  Ti4  1  0.19499404  0.61001191  0.57566075  1
  Ti  Ti5  1  0.24270338  0.51459224  0.83161604  1
  Ti  Ti6  1  0.75729662  0.48540776  0.16838396  1
  Ti  Ti7  1  0.80500596  0.38998809  0.42433925  1
  Ti  Ti8  1  0.84875644  0.30248713  0.67244416  1
  Ti  Ti9  1  0.89015570  0.21968959  0.92918560  1
  O  O10  1  0.06482043  0.87035914  0.21824713  1
  O  O11  1  0.10816815  0.78366270  0.46268368  1
  O  O12  1  0.15294167  0.69411567  0.71083328  1
  O  O13  1  0.17141809  0.65716383  0.93644820  1
  O  O14  1  0.63640569  0.72718862  0.08482505  1
  O  O15  1  0.68559292  0.62881415  0.32178511  1
  O  O16  1  0.72796498  0.54407005  0.56786346  1
  O  O17  1  0.77259713  0.45480474  0.81885008  1
  O  O18  1  0.22740287  0.54519526  0.18114992  1
  O  O19  1  0.27203502  0.45592995  0.43213654  1
  O  O20  1  0.31440708  0.37118585  0.67821489  1
  O  O21  1  0.36359431  0.27281138  0.91517495  1
  O  O22  1  0.82858191  0.34283617  0.06355180  1
  O  O23  1  0.84705833  0.30588433  0.28916672  1
  O  O24  1  0.89183185  0.21633730  0.53731632  1
  O  O25  1  0.93517957  0.12964086  0.78175287  1
  O  O26  1  0.00000000  0.00000000  0.00000000  1
