# generated using pymatgen
data_NaCo2P3O10
_symmetry_space_group_name_H-M   'P 1'
_cell_length_a   4.73018803
_cell_length_b   8.63821825
_cell_length_c   9.11612043
_cell_angle_alpha   90.00000000
_cell_angle_beta   97.65932675
_cell_angle_gamma   90.00000000
_symmetry_Int_Tables_number   1
_chemical_formula_structural   NaCo2P3O10
_chemical_formula_sum   'Na2 Co4 P6 O20'
_cell_volume   369.16497933
_cell_formula_units_Z   2
loop_
 _symmetry_equiv_pos_site_id
 _symmetry_equiv_pos_as_xyz
  1  'x, y, z'
loop_
 _atom_site_type_symbol
 _atom_site_label
 _atom_site_symmetry_multiplicity
 _atom_site_fract_x
 _atom_site_fract_y
 _atom_site_fract_z
 _atom_site_occupancy
  Na  Na0  1  0.00000000  0.00000000  0.00000000  1
  Na  Na1  1  0.00000000  0.50000000  0.00000000  1
  Co  Co2  1  0.04544614  0.07075527  0.34130038  1
  Co  Co3  1  0.04544614  0.42924473  0.34130038  1
  Co  Co4  1  0.95455386  0.57075527  0.65869962  1
  Co  Co5  1  0.95455386  0.92924473  0.65869962  1
  P  P6  1  0.33408984  0.25000000  0.81707930  1
  P  P7  1  0.38994940  0.75000000  0.46032989  1
  P  P8  1  0.52688270  0.75000000  0.84902346  1
  P  P9  1  0.47311730  0.25000000  0.15097654  1
  P  P10  1  0.61005060  0.25000000  0.53967011  1
  P  P11  1  0.66591016  0.75000000  0.18292070  1
  O  O12  1  0.16648886  0.10093052  0.80076573  1
  O  O13  1  0.16648886  0.39906948  0.80076573  1
  O  O14  1  0.21963846  0.75000000  0.76591003  1
  O  O15  1  0.22366429  0.60081396  0.48480006  1
  O  O16  1  0.22366429  0.89918604  0.48480006  1
  O  O17  1  0.30905269  0.25000000  0.45297452  1
  O  O18  1  0.31050628  0.10194507  0.17379715  1
  O  O19  1  0.31050628  0.39805493  0.17379715  1
  O  O20  1  0.53694934  0.25000000  0.97578758  1
  O  O21  1  0.41995009  0.75000000  0.28614866  1
  O  O22  1  0.58004991  0.25000000  0.71385134  1
  O  O23  1  0.46305066  0.75000000  0.02421242  1
  O  O24  1  0.68949372  0.60194507  0.82620285  1
  O  O25  1  0.68949372  0.89805493  0.82620285  1
  O  O26  1  0.69094731  0.75000000  0.54702548  1
  O  O27  1  0.77633571  0.10081396  0.51519994  1
  O  O28  1  0.77633571  0.39918604  0.51519994  1
  O  O29  1  0.78036154  0.25000000  0.23408997  1
  O  O30  1  0.83351114  0.60093052  0.19923427  1
  O  O31  1  0.83351114  0.89906948  0.19923427  1
