# generated using pymatgen
data_Li3FeSiO5
_symmetry_space_group_name_H-M   'P 1'
_cell_length_a   4.96256509
_cell_length_b   5.49135907
_cell_length_c   15.90356473
_cell_angle_alpha   90.00000000
_cell_angle_beta   89.91752971
_cell_angle_gamma   90.00000000
_symmetry_Int_Tables_number   1
_chemical_formula_structural   Li3FeSiO5
_chemical_formula_sum   'Li12 Fe4 Si4 O20'
_cell_volume   433.39120061
_cell_formula_units_Z   4
loop_
 _symmetry_equiv_pos_site_id
 _symmetry_equiv_pos_as_xyz
  1  'x, y, z'
loop_
 _atom_site_type_symbol
 _atom_site_label
 _atom_site_symmetry_multiplicity
 _atom_site_fract_x
 _atom_site_fract_y
 _atom_site_fract_z
 _atom_site_occupancy
  Li  Li0  1  0.00133528  0.66503649  0.59212545  1
  Li  Li1  1  0.00734625  0.16576568  0.90799445  1
  Li  Li2  1  0.00816205  0.66583124  0.00582084  1
  Li  Li3  1  0.01108023  0.16249219  0.49400821  1
  Li  Li4  1  0.50133528  0.83496351  0.09212545  1
  Li  Li5  1  0.50365035  0.32095949  0.80425821  1
  Li  Li6  1  0.50245415  0.81994661  0.69513646  1
  Li  Li7  1  0.50734625  0.33423432  0.40799445  1
  Li  Li8  1  0.50816205  0.83416876  0.50582084  1
  Li  Li9  1  0.51108023  0.33750781  0.99400821  1
  Li  Li10  1  0.00365035  0.17904051  0.30425821  1
  Li  Li11  1  0.00245415  0.68005339  0.19513646  1
  Fe  Fe12  1  0.00468280  0.66970257  0.80271289  1
  Fe  Fe13  1  0.50468280  0.83029743  0.30271289  1
  Fe  Fe14  1  0.50151609  0.33061476  0.19803292  1
  Fe  Fe15  1  0.00151609  0.16938524  0.69803292  1
  Si  Si16  1  0.01103748  0.66411408  0.40276616  1
  Si  Si17  1  0.50779181  0.33373943  0.59718406  1
  Si  Si18  1  0.51103748  0.83588592  0.90276616  1
  Si  Si19  1  0.00779181  0.16626057  0.09718406  1
  O  O20  1  0.10960516  0.31687449  0.01522196  1
  O  O21  1  0.09925420  0.83623376  0.70229916  1
  O  O22  1  0.10089526  0.33636621  0.79790713  1
  O  O23  1  0.10500623  0.88370193  0.10128210  1
  O  O24  1  0.10892444  0.38128921  0.39802874  1
  O  O25  1  0.11105899  0.81298878  0.48495466  1
  O  O26  1  0.11459255  0.31177669  0.18586764  1
  O  O27  1  0.11757392  0.81117714  0.31429419  1
  O  O28  1  0.16872575  0.31964811  0.60350949  1
  O  O29  1  0.17208802  0.82151756  0.89673828  1
  O  O30  1  0.60960516  0.18312551  0.51522196  1
  O  O31  1  0.59925420  0.66376624  0.20229916  1
  O  O32  1  0.60089526  0.16363379  0.29790713  1
  O  O33  1  0.60500623  0.61629807  0.60128210  1
  O  O34  1  0.60892444  0.11871079  0.89802874  1
  O  O35  1  0.61105899  0.68701122  0.98495466  1
  O  O36  1  0.61459255  0.18822331  0.68586764  1
  O  O37  1  0.61757392  0.68882286  0.81429419  1
  O  O38  1  0.66872575  0.18035189  0.10350949  1
  O  O39  1  0.67208802  0.67848244  0.39673828  1
