# generated using pymatgen
data_LiVFe(P2O7)2
_symmetry_space_group_name_H-M   'P 1'
_cell_length_a   9.75704521
_cell_length_b   8.08875745
_cell_length_c   7.17263693
_cell_angle_alpha   90.07657991
_cell_angle_beta   68.17084804
_cell_angle_gamma   90.02033563
_symmetry_Int_Tables_number   1
_chemical_formula_structural   LiVFe(P2O7)2
_chemical_formula_sum   'Li2 V2 Fe2 P8 O28'
_cell_volume   525.49116379
_cell_formula_units_Z   2
loop_
 _symmetry_equiv_pos_site_id
 _symmetry_equiv_pos_as_xyz
  1  'x, y, z'
loop_
 _atom_site_type_symbol
 _atom_site_label
 _atom_site_symmetry_multiplicity
 _atom_site_fract_x
 _atom_site_fract_y
 _atom_site_fract_z
 _atom_site_occupancy
  Li  Li0  1  0.25025946  0.86416141  0.67286055  1
  Li  Li1  1  0.74832729  0.36115877  0.32880533  1
  V  V2  1  0.24357039  0.49505590  0.72169823  1
  V  V3  1  0.74408748  0.50715839  0.72743028  1
  Fe  Fe4  1  0.25780877  0.00976027  0.26550690  1
  Fe  Fe5  1  0.75742785  0.99418489  0.27545438  1
  P  P6  1  0.06536482  0.77919879  0.08771623  1
  P  P7  1  0.06263288  0.67775404  0.47996169  1
  P  P8  1  0.44047139  0.18088550  0.52378836  1
  P  P9  1  0.56457476  0.78178689  0.08519721  1
  P  P10  1  0.43597919  0.28550734  0.91381415  1
  P  P11  1  0.56016007  0.68185740  0.47683185  1
  P  P12  1  0.93910328  0.17733242  0.52015349  1
  P  P13  1  0.93331896  0.28378092  0.91164374  1
  O  O14  1  0.07951237  0.64763630  0.25093986  1
  O  O15  1  0.15992330  0.93204799  0.08006106  1
  O  O16  1  0.10283648  0.17860221  0.39336329  1
  O  O17  1  0.12716086  0.84724198  0.49439457  1
  O  O18  1  0.14759198  0.53738638  0.53112729  1
  O  O19  1  0.09718301  0.33191296  0.85100232  1
  O  O20  1  0.12959598  0.68537264  0.88615191  1
  O  O21  1  0.38421341  0.19378394  0.11074808  1
  O  O22  1  0.40248304  0.82595804  0.14287202  1
  O  O23  1  0.34980134  0.04050728  0.48525784  1
  O  O24  1  0.37152362  0.35181993  0.52051783  1
  O  O25  1  0.39314199  0.67351946  0.60780934  1
  O  O26  1  0.34168444  0.43588210  0.90396327  1
  O  O27  1  0.42654016  0.14974855  0.75306849  1
  O  O28  1  0.57705204  0.64601967  0.24912685  1
  O  O29  1  0.66036310  0.93016033  0.08671396  1
  O  O30  1  0.60326792  0.18399187  0.38984301  1
  O  O31  1  0.62022977  0.85178907  0.49076018  1
  O  O32  1  0.64918947  0.53999745  0.52093192  1
  O  O33  1  0.59851334  0.33971071  0.84926443  1
  O  O34  1  0.62187836  0.68109136  0.88969964  1
  O  O35  1  0.87556255  0.20007753  0.11582518  1
  O  O36  1  0.90348072  0.81826966  0.14049503  1
  O  O37  1  0.85082482  0.04014878  0.47465597  1
  O  O38  1  0.86533961  0.34776026  0.51839817  1
  O  O39  1  0.89572059  0.66564171  0.60687774  1
  O  O40  1  0.84012547  0.43795527  0.91157873  1
  O  O41  1  0.92227067  0.15020067  0.75354163  1
