# generated using pymatgen
data_KMnP3HO10
_symmetry_space_group_name_H-M   'P 1'
_cell_length_a   7.28377712
_cell_length_b   7.40051691
_cell_length_c   9.14018415
_cell_angle_alpha   71.56802567
_cell_angle_beta   73.22533273
_cell_angle_gamma   71.33124235
_symmetry_Int_Tables_number   1
_chemical_formula_structural   KMnP3HO10
_chemical_formula_sum   'K2 Mn2 P6 H2 O20'
_cell_volume   433.08907016
_cell_formula_units_Z   2
loop_
 _symmetry_equiv_pos_site_id
 _symmetry_equiv_pos_as_xyz
  1  'x, y, z'
loop_
 _atom_site_type_symbol
 _atom_site_label
 _atom_site_symmetry_multiplicity
 _atom_site_fract_x
 _atom_site_fract_y
 _atom_site_fract_z
 _atom_site_occupancy
  K  K0  1  0.41341888  0.56219035  0.23644354  1
  K  K1  1  0.58658112  0.43780965  0.76355646  1
  Mn  Mn2  1  0.00000000  0.50000000  0.00000000  1
  Mn  Mn3  1  0.50000000  0.00000000  0.50000000  1
  P  P4  1  0.25276588  0.12041386  0.22214167  1
  P  P5  1  0.16419912  0.29199549  0.70813575  1
  P  P6  1  0.15155084  0.87802608  0.79351070  1
  P  P7  1  0.84844916  0.12197392  0.20648930  1
  P  P8  1  0.83580088  0.70800451  0.29186425  1
  P  P9  1  0.74723412  0.87958614  0.77785833  1
  H  H10  1  0.00000000  0.50000000  0.50000000  1
  H  H11  1  0.50000000  0.00000000  0.00000000  1
  O  O12  1  0.03092751  0.08013961  0.28414360  1
  O  O13  1  0.98576032  0.38243137  0.62783651  1
  O  O14  1  0.23234421  0.33313019  0.12956006  1
  O  O15  1  0.12822882  0.08253813  0.82879633  1
  O  O16  1  0.29922085  0.07798573  0.38414780  1
  O  O17  1  0.17268539  0.40857109  0.81817339  1
  O  O18  1  0.36318832  0.25164534  0.59675862  1
  O  O19  1  0.13820841  0.72149231  0.94684639  1
  O  O20  1  0.38323617  0.96978985  0.12606099  1
  O  O21  1  0.65572038  0.17248101  0.32291509  1
  O  O22  1  0.34427962  0.82751899  0.67708491  1
  O  O23  1  0.61676383  0.03021015  0.87393901  1
  O  O24  1  0.86179159  0.27850769  0.05315361  1
  O  O25  1  0.63681168  0.74835466  0.40324138  1
  O  O26  1  0.82731461  0.59142891  0.18182661  1
  O  O27  1  0.70077915  0.92201427  0.61585220  1
  O  O28  1  0.87177118  0.91746187  0.17120367  1
  O  O29  1  0.76765579  0.66686981  0.87043994  1
  O  O30  1  0.01423968  0.61756863  0.37216349  1
  O  O31  1  0.96907249  0.91986039  0.71585640  1
