# generated using pymatgen
data_Li4(NiO2)5
_symmetry_space_group_name_H-M   'P 1'
_cell_length_a   5.07017798
_cell_length_b   5.82180289
_cell_length_c   6.42406638
_cell_angle_alpha   104.82784961
_cell_angle_beta   96.74523493
_cell_angle_gamma   107.47151282
_symmetry_Int_Tables_number   1
_chemical_formula_structural   Li4(NiO2)5
_chemical_formula_sum   'Li4 Ni5 O10'
_cell_volume   170.92621968
_cell_formula_units_Z   1
loop_
 _symmetry_equiv_pos_site_id
 _symmetry_equiv_pos_as_xyz
  1  'x, y, z'
loop_
 _atom_site_type_symbol
 _atom_site_label
 _atom_site_symmetry_multiplicity
 _atom_site_fract_x
 _atom_site_fract_y
 _atom_site_fract_z
 _atom_site_occupancy
  Li  Li0  1  0.79916444  0.59339140  0.59005210  1
  Li  Li1  1  0.60097109  0.20664046  0.21010243  1
  Li  Li2  1  0.39604871  0.78815239  0.79076149  1
  Li  Li3  1  0.00393866  0.01200560  0.00918898  1
  Ni  Ni4  1  0.80501248  0.10276978  0.60256348  1
  Ni  Ni5  1  0.40325627  0.30312229  0.79896690  1
  Ni  Ni6  1  0.59497764  0.69717909  0.19742219  1
  Ni  Ni7  1  0.20002911  0.90000811  0.39999879  1
  Ni  Ni8  1  0.99669782  0.49686219  0.00101066  1
  O  O9  1  0.86680844  0.02580095  0.30930197  1
  O  O10  1  0.68003739  0.63868502  0.91407812  1
  O  O11  1  0.87363197  0.56311189  0.27336827  1
  O  O12  1  0.71990647  0.16133839  0.88590059  1
  O  O13  1  0.53318456  0.77414302  0.49067250  1
  O  O14  1  0.52637212  0.23686120  0.52663809  1
  O  O15  1  0.30403148  0.81909754  0.10123385  1
  O  O16  1  0.07555712  0.43421144  0.71727071  1
  O  O17  1  0.32440507  0.36577330  0.08272235  1
  O  O18  1  0.09596916  0.98084493  0.69874654  1
