# generated using pymatgen
data_LiVCr(P2O7)2
_symmetry_space_group_name_H-M   'P 1'
_cell_length_a   13.65595103
_cell_length_b   8.06506190
_cell_length_c   7.16441904
_cell_angle_alpha   90.09660923
_cell_angle_beta   97.21437606
_cell_angle_gamma   89.88317365
_symmetry_Int_Tables_number   1
_chemical_formula_structural   LiVCr(P2O7)2
_chemical_formula_sum   'Li3 V3 Cr3 P12 O42'
_cell_volume   782.81184108
_cell_formula_units_Z   3
loop_
 _symmetry_equiv_pos_site_id
 _symmetry_equiv_pos_as_xyz
  1  'x, y, z'
loop_
 _atom_site_type_symbol
 _atom_site_label
 _atom_site_symmetry_multiplicity
 _atom_site_fract_x
 _atom_site_fract_y
 _atom_site_fract_z
 _atom_site_occupancy
  Li  Li0  1  0.16624458  0.86440545  0.84124065  1
  Li  Li1  1  0.50062700  0.86428787  0.17582048  1
  Li  Li2  1  0.83308927  0.36218348  0.16136290  1
  V  V3  1  0.16244162  0.49485463  0.88392785  1
  V  V4  1  0.49458307  0.49540729  0.21926734  1
  V  V5  1  0.82881426  0.50705724  0.55705058  1
  Cr  Cr6  1  0.16981932  0.00618536  0.44345620  1
  Cr  Cr7  1  0.50511985  0.00549670  0.77489331  1
  Cr  Cr8  1  0.83773776  0.99713190  0.11326128  1
  P  P9  1  0.04329707  0.78157746  0.13225253  1
  P  P10  1  0.04176970  0.67778652  0.52023101  1
  P  P11  1  0.28770392  0.28114019  0.20393005  1
  P  P12  1  0.29457710  0.17980773  0.81456068  1
  P  P13  1  0.37606069  0.78279658  0.46531924  1
  P  P14  1  0.37537223  0.67914516  0.85266003  1
  P  P15  1  0.62694065  0.18059198  0.14960496  1
  P  P16  1  0.62314149  0.28263775  0.53818651  1
  P  P17  1  0.70710105  0.68283851  0.18266694  1
  P  P18  1  0.70992051  0.78335351  0.79554767  1
  P  P19  1  0.95949689  0.17645541  0.47817918  1
  P  P20  1  0.95519651  0.28148085  0.86650579  1
  O  O21  1  0.05341546  0.64693096  0.30312532  1
  O  O22  1  0.10621826  0.93413896  0.18827362  1
  O  O23  1  0.06859051  0.18058764  0.46129229  1
  O  O24  1  0.08501668  0.84779488  0.57683298  1
  O  O25  1  0.09909859  0.53824954  0.62942411  1
  O  O26  1  0.22666137  0.43505106  0.13250058  1
  O  O27  1  0.06441793  0.33091985  0.91623556  1
  O  O28  1  0.28321215  0.14701098  0.03522239  1
  O  O29  1  0.08612275  0.68774044  0.97228386  1
  O  O30  1  0.25387514  0.18973299  0.36564719  1
  O  O31  1  0.26796901  0.82355469  0.41304807  1
  O  O32  1  0.23070311  0.04221168  0.71570942  1
  O  O33  1  0.24876441  0.35253054  0.76813894  1
  O  O34  1  0.26337390  0.67729416  0.86963004  1
  O  O35  1  0.39696420  0.33378466  0.25057989  1
  O  O36  1  0.41809723  0.68882680  0.30435450  1
  O  O37  1  0.38701950  0.64781643  0.63579982  1
  O  O38  1  0.44025736  0.93409459  0.52089563  1
  O  O39  1  0.40211220  0.17825378  0.79025692  1
  O  O40  1  0.56603519  0.04170281  0.04891387  1
  O  O41  1  0.58156676  0.35257676  0.10145465  1
  O  O42  1  0.41985329  0.84874663  0.90935678  1
  O  O43  1  0.43071617  0.53871663  0.96259663  1
  O  O44  1  0.59575779  0.67497394  0.20439166  1
  O  O45  1  0.56041171  0.43468965  0.46612789  1
  O  O46  1  0.61744009  0.14759716  0.36904842  1
  O  O47  1  0.58943462  0.19059136  0.69968175  1
  O  O48  1  0.60170328  0.82472165  0.74419089  1
  O  O49  1  0.73597833  0.18240260  0.12466539  1
  O  O50  1  0.74740638  0.85271096  0.23528036  1
  O  O51  1  0.76646115  0.54078259  0.28784300  1
  O  O52  1  0.73181358  0.33831366  0.58151232  1
  O  O53  1  0.74781272  0.68285129  0.63668062  1
  O  O54  1  0.91728445  0.19689402  0.03221321  1
  O  O55  1  0.71845642  0.64527470  0.96659070  1
  O  O56  1  0.93500292  0.81869648  0.07766992  1
  O  O57  1  0.77321402  0.93221124  0.85966640  1
  O  O58  1  0.90050985  0.03896490  0.37554835  1
  O  O59  1  0.91062618  0.34819395  0.42810270  1
  O  O60  1  0.93069891  0.66754786  0.53856137  1
  O  O61  1  0.89269081  0.43674602  0.80630795  1
  O  O62  1  0.94797005  0.14828490  0.70062789  1
