# generated using pymatgen
data_Li3VF6
_symmetry_space_group_name_H-M   'P 1'
_cell_length_a   9.78971106
_cell_length_b   8.56740193
_cell_length_c   5.12429225
_cell_angle_alpha   90.00000000
_cell_angle_beta   90.00000000
_cell_angle_gamma   90.00000000
_symmetry_Int_Tables_number   1
_chemical_formula_structural   Li3VF6
_chemical_formula_sum   'Li12 V4 F24'
_cell_volume   429.78663514
_cell_formula_units_Z   4
loop_
 _symmetry_equiv_pos_site_id
 _symmetry_equiv_pos_as_xyz
  1  'x, y, z'
loop_
 _atom_site_type_symbol
 _atom_site_label
 _atom_site_symmetry_multiplicity
 _atom_site_fract_x
 _atom_site_fract_y
 _atom_site_fract_z
 _atom_site_occupancy
  Li  Li0  1  0.10438325  0.45131857  0.49583027  1
  Li  Li1  1  0.12570280  0.85341437  0.00755970  1
  Li  Li2  1  0.14646744  0.04844952  0.50249665  1
  Li  Li3  1  0.35353256  0.54844952  0.00249665  1
  Li  Li4  1  0.37429720  0.35341437  0.50755970  1
  Li  Li5  1  0.39561675  0.95131857  0.99583027  1
  Li  Li6  1  0.60438325  0.04868143  0.49583027  1
  Li  Li7  1  0.62570280  0.64658563  0.00755970  1
  Li  Li8  1  0.64646744  0.45155048  0.50249665  1
  Li  Li9  1  0.85353256  0.95155048  0.00249665  1
  Li  Li10  1  0.87429720  0.14658563  0.50755970  1
  Li  Li11  1  0.89561675  0.54868143  0.99583027  1
  V  V12  1  0.12814165  0.24018447  -0.00064688  1
  V  V13  1  0.37185835  0.74018447  0.49935312  1
  V  V14  1  0.62814165  0.25981553  -0.00064688  1
  V  V15  1  0.87185835  0.75981553  0.49935312  1
  F  F16  1  0.00881240  0.08451500  0.81964591  1
  F  F17  1  0.02075245  0.24669772  0.32984094  1
  F  F18  1  0.02391446  0.40861071  0.84265154  1
  F  F19  1  0.22745569  0.05900987  0.14728764  1
  F  F20  1  0.24028969  0.23033145  0.67773434  1
  F  F21  1  0.24915937  0.38847985  0.18480990  1
  F  F22  1  0.25084063  0.88847985  0.68480990  1
  F  F23  1  0.25971031  0.73033145  0.17773434  1
  F  F24  1  0.27254431  0.55900987  0.64728764  1
  F  F25  1  0.47608554  0.90861071  0.34265154  1
  F  F26  1  0.47924755  0.74669772  0.82984094  1
  F  F27  1  0.49118760  0.58451500  0.31964591  1
  F  F28  1  0.50881240  0.41548500  0.81964591  1
  F  F29  1  0.52075245  0.25330228  0.32984094  1
  F  F30  1  0.52391446  0.09138929  0.84265154  1
  F  F31  1  0.72745569  0.44099013  0.14728764  1
  F  F32  1  0.74028969  0.26966855  0.67773434  1
  F  F33  1  0.74915937  0.11152015  0.18480990  1
  F  F34  1  0.75084063  0.61152015  0.68480990  1
  F  F35  1  0.75971031  0.76966855  0.17773434  1
  F  F36  1  0.77254431  0.94099013  0.64728764  1
  F  F37  1  0.97608554  0.59138929  0.34265154  1
  F  F38  1  0.97924755  0.75330228  0.82984094  1
  F  F39  1  0.99118760  0.91548500  0.31964591  1
