# generated using pymatgen
data_LiVFe(P2O7)2
_symmetry_space_group_name_H-M   'P 1'
_cell_length_a   13.70531698
_cell_length_b   8.09056266
_cell_length_c   7.16116941
_cell_angle_alpha   90.06274075
_cell_angle_beta   97.24073333
_cell_angle_gamma   89.82000449
_symmetry_Int_Tables_number   1
_chemical_formula_structural   LiVFe(P2O7)2
_chemical_formula_sum   'Li3 V3 Fe3 P12 O42'
_cell_volume   787.72073214
_cell_formula_units_Z   3
loop_
 _symmetry_equiv_pos_site_id
 _symmetry_equiv_pos_as_xyz
  1  'x, y, z'
loop_
 _atom_site_type_symbol
 _atom_site_label
 _atom_site_symmetry_multiplicity
 _atom_site_fract_x
 _atom_site_fract_y
 _atom_site_fract_z
 _atom_site_occupancy
  Li  Li0  1  0.16634603  0.86404076  0.83968985  1
  Li  Li1  1  0.50041128  0.86414159  0.17410535  1
  Li  Li2  1  0.83220457  0.36123609  0.16041270  1
  V  V3  1  0.16277695  0.49436322  0.88227055  1
  V  V4  1  0.49486743  0.49521006  0.21769066  1
  V  V5  1  0.82916711  0.50703205  0.55677903  1
  Fe  Fe6  1  0.17059850  0.01001555  0.43860683  1
  Fe  Fe7  1  0.50590415  0.00838089  0.76921844  1
  Fe  Fe8  1  0.83798891  0.99404030  0.11395677  1
  P  P9  1  0.04375350  0.77931128  0.13053412  1
  P  P10  1  0.04143062  0.67767326  0.52151930  1
  P  P11  1  0.28879477  0.28430289  0.20413374  1
  P  P12  1  0.29403272  0.17920360  0.81625727  1
  P  P13  1  0.37561018  0.78053494  0.46368719  1
  P  P14  1  0.37486760  0.67904031  0.85421201  1
  P  P15  1  0.62667184  0.18106635  0.15062023  1
  P  P16  1  0.62410689  0.28565770  0.53818258  1
  P  P17  1  0.70652175  0.68165671  0.18399005  1
  P  P18  1  0.70987314  0.78177958  0.79467194  1
  P  P19  1  0.95909877  0.17763823  0.47965207  1
  P  P20  1  0.95588235  0.28408280  0.86773205  1
  O  O21  1  0.05298749  0.64778891  0.30356083  1
  O  O22  1  0.10647530  0.93202097  0.18634024  1
  O  O23  1  0.06801903  0.17939522  0.46152585  1
  O  O24  1  0.08415029  0.84690953  0.57966964  1
  O  O25  1  0.09827274  0.53693163  0.62887009  1
  O  O26  1  0.22760926  0.43639564  0.13189901  1
  O  O27  1  0.06493827  0.33206100  0.91638105  1
  O  O28  1  0.28321365  0.14879527  0.03735877  1
  O  O29  1  0.08656139  0.68540041  0.97160858  1
  O  O30  1  0.25454077  0.19251169  0.36671211  1
  O  O31  1  0.26785708  0.82357662  0.41182383  1
  O  O32  1  0.23135859  0.04044578  0.71832771  1
  O  O33  1  0.24795547  0.35084372  0.76785603  1
  O  O34  1  0.26292471  0.67486766  0.86896811  1
  O  O35  1  0.39773406  0.33466848  0.25098491  1
  O  O36  1  0.41811294  0.68654582  0.30398122  1
  O  O37  1  0.38637742  0.64863810  0.63642943  1
  O  O38  1  0.43994733  0.93193487  0.51900506  1
  O  O39  1  0.40169965  0.17720097  0.79165488  1
  O  O40  1  0.56670583  0.04057549  0.05165618  1
  O  O41  1  0.58015068  0.35174484  0.10118557  1
  O  O42  1  0.41890910  0.84787803  0.91247935  1
  O  O43  1  0.43019306  0.53758825  0.96217142  1
  O  O44  1  0.59535254  0.67330746  0.20353851  1
  O  O45  1  0.56142216  0.43630939  0.46543423  1
  O  O46  1  0.61746257  0.14978072  0.37087416  1
  O  O47  1  0.58967384  0.19339149  0.70052255  1
  O  O48  1  0.60182533  0.82536310  0.74367127  1
  O  O49  1  0.73525926  0.18461555  0.12504281  1
  O  O50  1  0.74694099  0.85119529  0.23839299  1
  O  O51  1  0.76593067  0.53945734  0.28722214  1
  O  O52  1  0.73249147  0.33914639  0.58212895  1
  O  O53  1  0.74780453  0.68098505  0.63699063  1
  O  O54  1  0.91740150  0.20009091  0.03363896  1
  O  O55  1  0.71833273  0.64623301  0.96722125  1
  O  O56  1  0.93569976  0.81860374  0.07555062  1
  O  O57  1  0.77335157  0.93042459  0.85946803  1
  O  O58  1  0.90055715  0.04020554  0.37534051  1
  O  O59  1  0.91007954  0.34809213  0.42831793  1
  O  O60  1  0.93035584  0.66527189  0.53736681  1
  O  O61  1  0.89342532  0.43812703  0.80536497  1
  O  O62  1  0.94836608  0.15022930  0.70216308  1
