# generated using pymatgen
data_LiMnV(P2O7)2
_symmetry_space_group_name_H-M   'P 1'
_cell_length_a   13.66383743
_cell_length_b   8.16326330
_cell_length_c   7.15199941
_cell_angle_alpha   91.35135356
_cell_angle_beta   97.87835749
_cell_angle_gamma   88.35625121
_symmetry_Int_Tables_number   1
_chemical_formula_structural   LiMnV(P2O7)2
_chemical_formula_sum   'Li3 Mn3 V3 P12 O42'
_cell_volume   789.73434040
_cell_formula_units_Z   3
loop_
 _symmetry_equiv_pos_site_id
 _symmetry_equiv_pos_as_xyz
  1  'x, y, z'
loop_
 _atom_site_type_symbol
 _atom_site_label
 _atom_site_symmetry_multiplicity
 _atom_site_fract_x
 _atom_site_fract_y
 _atom_site_fract_z
 _atom_site_occupancy
  Li  Li0  1  0.16550433  0.86358794  0.83773448  1
  Li  Li1  1  0.49968804  0.86345853  0.17188168  1
  Li  Li2  1  0.83220858  0.35796431  0.15951574  1
  Mn  Mn3  1  0.17174735  0.00714516  0.43973495  1
  Mn  Mn4  1  0.50654783  0.00732627  0.77155379  1
  Mn  Mn5  1  0.83741729  0.99250258  0.11543046  1
  V  V6  1  0.16326843  0.49478214  0.88044026  1
  V  V7  1  0.49508853  0.49495357  0.21574012  1
  V  V8  1  0.82910287  0.50586668  0.55462408  1
  P  P9  1  0.04302833  0.78003968  0.13438463  1
  P  P10  1  0.03957758  0.67822823  0.52466619  1
  P  P11  1  0.29017103  0.28717990  0.20473856  1
  P  P12  1  0.29501295  0.17605437  0.81537092  1
  P  P13  1  0.37532298  0.78200185  0.46736815  1
  P  P14  1  0.37346427  0.67942476  0.85718897  1
  P  P15  1  0.62759631  0.17769751  0.15049510  1
  P  P16  1  0.62521035  0.28870233  0.53914823  1
  P  P17  1  0.70493723  0.68268652  0.18829163  1
  P  P18  1  0.70925855  0.78205648  0.79986025  1
  P  P19  1  0.96038744  0.17460704  0.47856992  1
  P  P20  1  0.95781908  0.28795888  0.86710032  1
  O  O21  1  0.05255199  0.65159456  0.30489565  1
  O  O22  1  0.10386127  0.93242790  0.18983261  1
  O  O23  1  0.07026681  0.17469528  0.46201212  1
  O  O24  1  0.07919600  0.84361762  0.59075699  1
  O  O25  1  0.09833462  0.53526583  0.62615302  1
  O  O26  1  0.22814559  0.43938335  0.12895727  1
  O  O27  1  0.06753878  0.33285839  0.90954904  1
  O  O28  1  0.28472130  0.14990972  0.03524678  1
  O  O29  1  0.08579222  0.68575195  0.97396404  1
  O  O30  1  0.25744788  0.20262340  0.36686551  1
  O  O31  1  0.26612573  0.82612322  0.41060939  1
  O  O32  1  0.23286054  0.03832657  0.71558529  1
  O  O33  1  0.25052467  0.34757280  0.76578487  1
  O  O34  1  0.26081949  0.67253615  0.86621107  1
  O  O35  1  0.39977631  0.33665235  0.24471973  1
  O  O36  1  0.41662833  0.68734233  0.30540796  1
  O  O37  1  0.38584947  0.65291560  0.63700135  1
  O  O38  1  0.43757049  0.93289024  0.52236815  1
  O  O39  1  0.40383530  0.17217024  0.79205098  1
  O  O40  1  0.56765561  0.03898077  0.04919522  1
  O  O41  1  0.58244208  0.34825872  0.09916207  1
  O  O42  1  0.41443066  0.84457165  0.92315127  1
  O  O43  1  0.43027030  0.53545142  0.95846295  1
  O  O44  1  0.59291310  0.67010734  0.20082281  1
  O  O45  1  0.56174534  0.43937495  0.46370013  1
  O  O46  1  0.61862504  0.15097754  0.36959149  1
  O  O47  1  0.59311342  0.20346642  0.70169989  1
  O  O48  1  0.73730804  0.17730786  0.12700681  1
  O  O49  1  0.60022196  0.82853395  0.74259104  1
  O  O50  1  0.74234980  0.84838265  0.25029713  1
  O  O51  1  0.76543370  0.53748814  0.28444652  1
  O  O52  1  0.73436731  0.34181422  0.57644281  1
  O  O53  1  0.74654417  0.68256137  0.63909336  1
  O  O54  1  0.92093441  0.21058693  0.03229044  1
  O  O55  1  0.71717551  0.64989914  0.96823264  1
  O  O56  1  0.93388071  0.81958824  0.07401059  1
  O  O57  1  0.77092637  0.93100338  0.86598941  1
  O  O58  1  0.90237756  0.03760131  0.37215612  1
  O  O59  1  0.91206782  0.34444660  0.42594752  1
  O  O60  1  0.92788965  0.66214947  0.53385403  1
  O  O61  1  0.89449745  0.44194152  0.80241012  1
  O  O62  1  0.94919287  0.15145621  0.69913538  1
