# generated using pymatgen
data_Na2B8O13
_symmetry_space_group_name_H-M   'P 1'
_cell_length_a   11.86983761
_cell_length_b   7.96858883
_cell_length_c   10.50165393
_cell_angle_alpha   90.00000000
_cell_angle_beta   99.90377901
_cell_angle_gamma   90.00000000
_symmetry_Int_Tables_number   1
_chemical_formula_structural   Na2B8O13
_chemical_formula_sum   'Na8 B32 O52'
_cell_volume   978.50562961
_cell_formula_units_Z   4
loop_
 _symmetry_equiv_pos_site_id
 _symmetry_equiv_pos_as_xyz
  1  'x, y, z'
loop_
 _atom_site_type_symbol
 _atom_site_label
 _atom_site_symmetry_multiplicity
 _atom_site_fract_x
 _atom_site_fract_y
 _atom_site_fract_z
 _atom_site_occupancy
  Na  Na0  1  0.11425156  0.00178471  0.78492379  1
  Na  Na1  1  0.11361736  0.49734870  0.28399069  1
  Na  Na2  1  0.42518559  0.61415078  0.96850713  1
  Na  Na3  1  0.37512978  0.78710033  0.46728748  1
  Na  Na4  1  0.57481441  0.11415078  0.53149287  1
  Na  Na5  1  0.62487022  0.28710033  0.03271252  1
  Na  Na6  1  0.88574844  0.50178471  0.71507621  1
  Na  Na7  1  0.88638264  0.99734870  0.21600931  1
  B  B8  1  0.05864498  0.31866306  0.95571167  1
  B  B9  1  0.05841943  0.18166158  0.45558852  1
  B  B10  1  0.10018288  0.60729934  0.59323565  1
  B  B11  1  0.16790332  0.44845677  0.79712177  1
  B  B12  1  0.10046240  0.89292700  0.09295913  1
  B  B13  1  0.16756093  0.05191367  0.29643177  1
  B  B14  1  0.20613872  0.98075440  0.53263642  1
  B  B15  1  0.25672407  0.41377078  0.60113807  1
  B  B16  1  0.20647532  0.52105130  0.03214442  1
  B  B17  1  0.37417465  0.10265483  0.92554116  1
  B  B18  1  0.25678884  0.08563737  0.10101839  1
  B  B19  1  0.36413432  0.91284788  0.73486048  1
  B  B20  1  0.37463304  0.39556125  0.42524329  1
  B  B21  1  0.36423025  0.58714330  0.23276367  1
  B  B22  1  0.49752107  0.15763640  0.76869969  1
  B  B23  1  0.50247893  0.65763640  0.73130031  1
  B  B24  1  0.49793789  0.34311899  0.26815573  1
  B  B25  1  0.50206211  0.84311899  0.23184427  1
  B  B26  1  0.63586568  0.41284788  0.76513952  1
  B  B27  1  0.62582535  0.60265483  0.57445884  1
  B  B28  1  0.63576975  0.08714330  0.26723633  1
  B  B29  1  0.74327593  0.91377078  0.89886193  1
  B  B30  1  0.62536696  0.89556125  0.07475671  1
  B  B31  1  0.79386128  0.48075440  0.96736358  1
  B  B32  1  0.74321116  0.58563737  0.39898161  1
  B  B33  1  0.79352468  0.02105130  0.46785558  1
  B  B34  1  0.83209668  0.94845677  0.70287823  1
  B  B35  1  0.89981712  0.10729934  0.90676435  1
  B  B36  1  0.83243907  0.55191367  0.20356823  1
  B  B37  1  0.89953760  0.39292700  0.40704087  1
  B  B38  1  0.94135502  0.81866306  0.54428833  1
  B  B39  1  0.94158057  0.68166158  0.04441148  1
  O  O40  1  0.02832191  0.71730640  0.51480355  1
  O  O41  1  0.08928510  0.31883251  0.83667158  1
  O  O42  1  0.09299516  0.57470878  0.71792407  1
  O  O43  1  0.02827831  0.78285083  0.01474601  1
  O  O44  1  0.11513314  0.08244735  0.55681882  1
  O  O45  1  0.08917076  0.18144605  0.33666727  1
  O  O46  1  0.09302884  0.92497471  0.21780467  1
  O  O47  1  0.23364627  0.53035856  0.91187129  1
  O  O48  1  0.17787230  0.52401454  0.52963628  1
  O  O49  1  0.11500230  0.41875460  0.05615130  1
  O  O50  1  0.24921088  0.37066807  0.72375252  1
  O  O51  1  0.26505845  0.88518527  0.63032027  1
  O  O52  1  0.23204780  0.96975129  0.41189520  1
  O  O53  1  0.17714583  0.97708321  0.02935368  1
  O  O54  1  0.32068660  0.97938922  0.84899897  1
  O  O55  1  0.24906769  0.12926813  0.22365617  1
  O  O56  1  0.26462427  0.61350653  0.13143262  1
  O  O57  1  0.34277123  0.34885623  0.54122233  1
  O  O58  1  0.32174497  0.52266599  0.35079955  1
  O  O59  1  0.41850212  0.74899761  0.77177131  1
  O  O60  1  0.46854269  0.18653143  0.89187711  1
  O  O61  1  0.34261171  0.15093179  0.04112553  1
  O  O62  1  0.44648290  0.03062486  0.69132585  1
  O  O63  1  0.41844770  0.75049541  0.27116211  1
  O  O64  1  0.46810110  0.31274399  0.39098959  1
  O  O65  1  0.44600274  0.46938721  0.19074796  1
  O  O66  1  0.55351710  0.53062486  0.80867415  1
  O  O67  1  0.53145731  0.68653143  0.60812289  1
  O  O68  1  0.58149788  0.24899761  0.72822869  1
  O  O69  1  0.55399726  0.96938721  0.30925204  1
  O  O70  1  0.65722877  0.84885623  0.95877767  1
  O  O71  1  0.53189890  0.81274399  0.10901041  1
  O  O72  1  0.58155230  0.25049541  0.22883789  1
  O  O73  1  0.67931340  0.47938922  0.65100103  1
  O  O74  1  0.65738829  0.65093179  0.45887447  1
  O  O75  1  0.73494155  0.38518527  0.86967973  1
  O  O76  1  0.75078912  0.87066807  0.77624748  1
  O  O77  1  0.67825503  0.02266599  0.14920045  1
  O  O78  1  0.82212770  0.02401454  0.97036372  1
  O  O79  1  0.76635373  0.03035856  0.58812871  1
  O  O80  1  0.73537573  0.11350653  0.36856738  1
  O  O81  1  0.75093231  0.62926813  0.27634383  1
  O  O82  1  0.88486686  0.58244735  0.94318118  1
  O  O83  1  0.82285417  0.47708321  0.47064632  1
  O  O84  1  0.76795220  0.46975129  0.08810480  1
  O  O85  1  0.90700484  0.07470878  0.78207593  1
  O  O86  1  0.91071490  0.81883251  0.66332842  1
  O  O87  1  0.88499770  0.91875460  0.44384870  1
  O  O88  1  0.97167809  0.21730640  0.98519645  1
  O  O89  1  0.90697116  0.42497471  0.28219533  1
  O  O90  1  0.91082924  0.68144605  0.16333273  1
  O  O91  1  0.97172169  0.28285083  0.48525399  1
