# generated using pymatgen
data_H2O2
_symmetry_space_group_name_H-M   'P 1'
_cell_length_a   3.33183603
_cell_length_b   3.33183603
_cell_length_c   11.29810633
_cell_angle_alpha   90.00000000
_cell_angle_beta   90.00000000
_cell_angle_gamma   90.00000000
_symmetry_Int_Tables_number   1
_chemical_formula_structural   H2O2
_chemical_formula_sum   'H8 O8'
_cell_volume   125.42176216
_cell_formula_units_Z   4
loop_
 _symmetry_equiv_pos_site_id
 _symmetry_equiv_pos_as_xyz
  1  'x, y, z'
loop_
 _atom_site_type_symbol
 _atom_site_label
 _atom_site_symmetry_multiplicity
 _atom_site_fract_x
 _atom_site_fract_y
 _atom_site_fract_z
 _atom_site_occupancy
  H  H0  1  0.64541983  0.18473080  0.49306145  1
  H  H1  1  0.35458017  0.81526920  0.99306145  1
  H  H2  1  0.18473080  0.64541983  0.50693855  1
  H  H3  1  0.68473080  0.85458017  0.24306145  1
  H  H4  1  0.31526920  0.14541983  0.74306145  1
  H  H5  1  0.85458017  0.68473080  0.75693855  1
  H  H6  1  0.14541983  0.31526920  0.25693855  1
  H  H7  1  0.81526920  0.35458017  0.00693855  1
  O  O8  1  0.96002082  0.78645779  0.21178099  1
  O  O9  1  0.03997918  0.21354221  0.71178099  1
  O  O10  1  0.78645779  0.96002082  0.78821901  1
  O  O11  1  0.28645779  0.53997918  0.96178099  1
  O  O12  1  0.71354221  0.46002082  0.46178099  1
  O  O13  1  0.53997918  0.28645779  0.03821901  1
  O  O14  1  0.46002082  0.71354221  0.53821901  1
  O  O15  1  0.21354221  0.03997918  0.28821901  1
