# generated using pymatgen
data_VF5
_symmetry_space_group_name_H-M   'P 1'
_cell_length_a   5.36012910
_cell_length_b   9.20160759
_cell_length_c   8.29817708
_cell_angle_alpha   90.00000000
_cell_angle_beta   85.76879462
_cell_angle_gamma   90.00000000
_symmetry_Int_Tables_number   1
_chemical_formula_structural   VF5
_chemical_formula_sum   'V4 F20'
_cell_volume   408.16554884
_cell_formula_units_Z   4
loop_
 _symmetry_equiv_pos_site_id
 _symmetry_equiv_pos_as_xyz
  1  'x, y, z'
loop_
 _atom_site_type_symbol
 _atom_site_label
 _atom_site_symmetry_multiplicity
 _atom_site_fract_x
 _atom_site_fract_y
 _atom_site_fract_z
 _atom_site_occupancy
  V  V0  1  0.12248847  0.12296153  0.37750259  1
  V  V1  1  0.37751153  0.62296153  0.12249741  1
  V  V2  1  0.62248847  0.37703847  0.87750259  1
  V  V3  1  0.87751153  0.87703847  0.62249741  1
  F  F4  1  0.03719778  0.75131031  0.48974677  1
  F  F5  1  0.09440377  0.71484775  0.12505238  1
  F  F6  1  0.02242032  0.81211584  0.78930266  1
  F  F7  1  0.18080106  0.01101472  0.57340848  1
  F  F8  1  0.24508661  0.47185085  0.23062946  1
  F  F9  1  0.25491239  0.97185085  0.26937054  1
  F  F10  1  0.31919894  0.51101472  0.92659152  1
  F  F11  1  0.40559623  0.21484775  0.37494762  1
  F  F12  1  0.47757968  0.31211584  0.71069734  1
  F  F13  1  0.46280222  0.25131031  0.01025323  1
  F  F14  1  0.53719778  0.74868969  0.98974677  1
  F  F15  1  0.52242032  0.68788416  0.28930266  1
  F  F16  1  0.59440377  0.78515225  0.62505238  1
  F  F17  1  0.68080106  0.48898528  0.07340848  1
  F  F18  1  0.74508661  0.02814915  0.73062946  1
  F  F19  1  0.75491339  0.52814915  0.76937054  1
  F  F20  1  0.81919894  0.98898528  0.42659152  1
  F  F21  1  0.97757968  0.18788416  0.21069734  1
  F  F22  1  0.90559623  0.28515225  0.87494762  1
  F  F23  1  0.96280222  0.24868969  0.51025323  1
