# generated using pymatgen
data_LiVCr(P2O7)2
_symmetry_space_group_name_H-M   'P 1'
_cell_length_a   13.63130013
_cell_length_b   8.06804883
_cell_length_c   7.16999824
_cell_angle_alpha   90.07404174
_cell_angle_beta   97.17036753
_cell_angle_gamma   90.12609871
_symmetry_Int_Tables_number   1
_chemical_formula_structural   LiVCr(P2O7)2
_chemical_formula_sum   'Li3 V3 Cr3 P12 O42'
_cell_volume   782.37228066
_cell_formula_units_Z   3
loop_
 _symmetry_equiv_pos_site_id
 _symmetry_equiv_pos_as_xyz
  1  'x, y, z'
loop_
 _atom_site_type_symbol
 _atom_site_label
 _atom_site_symmetry_multiplicity
 _atom_site_fract_x
 _atom_site_fract_y
 _atom_site_fract_z
 _atom_site_occupancy
  Li  Li0  1  0.16699736  0.86422224  0.84194558  1
  Li  Li1  1  0.49967658  0.36263858  0.82682686  1
  Li  Li2  1  0.83319286  0.36164172  0.16213773  1
  V  V3  1  0.16252979  0.49551820  0.88555535  1
  V  V4  1  0.49543884  0.50791525  0.22522037  1
  V  V5  1  0.82999261  0.50721656  0.55642425  1
  Cr  Cr6  1  0.17105477  0.00640097  0.44263840  1
  Cr  Cr7  1  0.50539158  0.99736741  0.77921538  1
  Cr  Cr8  1  0.83691109  0.99794231  0.11431603  1
  P  P9  1  0.04298805  0.78203412  0.13202501  1
  P  P10  1  0.04250144  0.67793127  0.52046311  1
  P  P11  1  0.28987145  0.28266847  0.20474060  1
  P  P12  1  0.29399093  0.18047809  0.81685398  1
  P  P13  1  0.37621145  0.78376375  0.46225071  1
  P  P14  1  0.37442386  0.68262698  0.84950477  1
  P  P15  1  0.62550771  0.17729455  0.14679621  1
  P  P16  1  0.62366221  0.28319248  0.53412619  1
  P  P17  1  0.70771470  0.68166720  0.18386948  1
  P  P18  1  0.71021106  0.78243840  0.79548175  1
  P  P19  1  0.95992890  0.17647715  0.47859034  1
  P  P20  1  0.95514049  0.28147677  0.86638380  1
  O  O21  1  0.05335933  0.64764773  0.30327700  1
  O  O22  1  0.10635606  0.93484194  0.18737148  1
  O  O23  1  0.06930978  0.18044008  0.46209007  1
  O  O24  1  0.08578947  0.84811242  0.57721241  1
  O  O25  1  0.09896653  0.53835364  0.62991464  1
  O  O26  1  0.22752209  0.43469175  0.13252965  1
  O  O27  1  0.06469087  0.33116699  0.91578053  1
  O  O28  1  0.28376015  0.14772493  0.03593179  1
  O  O29  1  0.08564022  0.68778789  0.97225896  1
  O  O30  1  0.25606698  0.19100076  0.36669917  1
  O  O31  1  0.26769810  0.82447593  0.41085954  1
  O  O32  1  0.23289241  0.04120238  0.71637934  1
  O  O33  1  0.24905201  0.35234331  0.76797796  1
  O  O34  1  0.26262631  0.67474729  0.87088451  1
  O  O35  1  0.39879422  0.33812915  0.24790558  1
  O  O36  1  0.41403586  0.68276305  0.30389905  1
  O  O37  1  0.38523966  0.64583479  0.63343686  1
  O  O38  1  0.43963800  0.93312108  0.52592095  1
  O  O39  1  0.40330153  0.18241309  0.79244028  1
  O  O40  1  0.56902599  0.03847505  0.04283737  1
  O  O41  1  0.57744534  0.34831987  0.09491672  1
  O  O42  1  0.41471518  0.85268018  0.90257266  1
  O  O43  1  0.43309617  0.54039531  0.95444744  1
  O  O44  1  0.59701277  0.66555693  0.20713329  1
  O  O45  1  0.55946296  0.43613216  0.47341045  1
  O  O46  1  0.61559249  0.14955881  0.36799532  1
  O  O47  1  0.58603361  0.19809613  0.70013967  1
  O  O48  1  0.60149402  0.81997676  0.74193182  1
  O  O49  1  0.73617253  0.18437780  0.12891145  1
  O  O50  1  0.74694147  0.85188215  0.23680239  1
  O  O51  1  0.76813069  0.54031044  0.28811809  1
  O  O52  1  0.73258887  0.33613880  0.58034372  1
  O  O53  1  0.74865312  0.68126034  0.63808581  1
  O  O54  1  0.91730191  0.19735557  0.03262285  1
  O  O55  1  0.71815543  0.64496815  0.96738202  1
  O  O56  1  0.93445412  0.81878312  0.07769508  1
  O  O57  1  0.77276394  0.93264560  0.85932208  1
  O  O58  1  0.90039093  0.03896635  0.37623093  1
  O  O59  1  0.91128225  0.34807704  0.42843665  1
  O  O60  1  0.93094935  0.66801642  0.53865574  1
  O  O61  1  0.89290773  0.43648164  0.80595962  1
  O  O62  1  0.94781683  0.14847473  0.70083916  1
