# generated using pymatgen
data_K5Li3Ti8(AsO5)8
_symmetry_space_group_name_H-M   'P 1'
_cell_length_a   13.19611499
_cell_length_b   6.68700229
_cell_length_c   10.89391943
_cell_angle_alpha   89.62594799
_cell_angle_beta   90.02469589
_cell_angle_gamma   90.05133215
_symmetry_Int_Tables_number   1
_chemical_formula_structural   K5Li3Ti8(AsO5)8
_chemical_formula_sum   'K5 Li3 Ti8 As8 O40'
_cell_volume   961.28519484
_cell_formula_units_Z   1
loop_
 _symmetry_equiv_pos_site_id
 _symmetry_equiv_pos_as_xyz
  1  'x, y, z'
loop_
 _atom_site_type_symbol
 _atom_site_label
 _atom_site_symmetry_multiplicity
 _atom_site_fract_x
 _atom_site_fract_y
 _atom_site_fract_z
 _atom_site_occupancy
  K  K0  1  0.10501424  0.68915671  0.07829211  1
  K  K1  1  0.10935612  0.28720016  0.81756172  1
  K  K2  1  0.39270001  0.80084803  0.31927862  1
  K  K3  1  0.60858882  0.19907655  0.81918841  1
  K  K4  1  0.88597726  0.70118542  0.32335055  1
  Li  Li5  1  0.39641615  0.43843602  0.54089140  1
  Li  Li6  1  0.60334655  0.56242838  0.04033721  1
  Li  Li7  1  0.89641242  0.06289954  0.54025523  1
  Ti  Ti8  1  0.13127972  0.01485532  0.51155935  1
  Ti  Ti9  1  0.24295043  0.26879129  0.25685269  1
  Ti  Ti10  1  0.25811884  0.77679468  0.75737173  1
  Ti  Ti11  1  0.36799737  0.51343038  0.01149573  1
  Ti  Ti12  1  0.63299045  0.48498371  0.51064782  1
  Ti  Ti13  1  0.74290923  0.22235427  0.25560687  1
  Ti  Ti14  1  0.75793303  0.72431713  0.75629733  1
  Ti  Ti15  1  0.87027663  0.98751539  0.00959500  1
  As  As16  1  0.00326536  0.82999190  0.76824050  1
  As  As17  1  0.18317327  0.51545025  0.51517551  1
  As  As18  1  0.31686314  0.01600704  0.01507324  1
  As  As19  1  0.49663221  0.33147538  0.26936345  1
  As  As20  1  0.50471663  0.66902909  0.76807194  1
  As  As21  1  0.68245432  0.98484859  0.51543342  1
  As  As22  1  0.81687357  0.48456085  0.01564473  1
  As  As23  1  0.99468386  0.16893105  0.26739344  1
  O  O24  1  0.99957693  0.04363637  0.40737541  1
  O  O25  1  0.00752553  0.99943428  0.64985462  1
  O  O26  1  0.09507851  0.33425223  0.24896380  1
  O  O27  1  0.10657059  0.71547842  0.48429324  1
  O  O28  1  0.11075354  0.68449532  0.77838580  1
  O  O29  1  0.11272122  0.31027918  0.55529720  1
  O  O30  1  0.21313512  0.06452436  0.38623399  1
  O  O31  1  0.22031316  0.95922222  0.64067286  1
  O  O32  1  0.23163981  0.05536141  0.13364399  1
  O  O33  1  0.23934460  0.97363758  0.89012535  1
  O  O34  1  0.26533758  0.46988132  0.39427601  1
  O  O35  1  0.27308713  0.55714067  0.62959434  1
  O  O36  1  0.27697061  0.46178104  0.14080238  1
  O  O37  1  0.28385824  0.56445380  0.88922038  1
  O  O38  1  0.38640823  0.80918591  0.05498129  1
  O  O39  1  0.38916000  0.18721220  0.27672589  1
  O  O40  1  0.39368025  0.21688152  0.98593245  1
  O  O41  1  0.40406841  0.83041432  0.75100478  1
  O  O42  1  0.49283088  0.50159255  0.15170943  1
  O  O43  1  0.50056193  0.54131758  0.90680590  1
  O  O44  1  0.49979832  0.45972312  0.40725959  1
  O  O45  1  0.50721051  0.49805028  0.65169721  1
  O  O46  1  0.59624679  0.16815371  0.25240411  1
  O  O47  1  0.60592451  0.78498634  0.48524838  1
  O  O48  1  0.61172583  0.81450654  0.77476119  1
  O  O49  1  0.61228573  0.18945150  0.55543523  1
  O  O50  1  0.71389643  0.43690081  0.38712217  1
  O  O51  1  0.72100728  0.54071119  0.64167070  1
  O  O52  1  0.72641448  0.44419477  0.12920532  1
  O  O53  1  0.73414465  0.52994061  0.89524842  1
  O  O54  1  0.76560211  0.02989714  0.39516964  1
  O  O55  1  0.77314738  0.94396208  0.62924913  1
  O  O56  1  0.77945061  0.04189086  0.14094060  1
  O  O57  1  0.78687243  0.93451242  0.88796830  1
  O  O58  1  0.88957109  0.68652555  0.05595716  1
  O  O59  1  0.88808997  0.31682603  0.27530655  1
  O  O60  1  0.89503032  0.28692786  0.98562048  1
  O  O61  1  0.90319114  0.66639148  0.75028095  1
  O  O62  1  0.98898828  0.99413695  0.15483932  1
  O  O63  1  0.99774925  0.95816335  0.90481945  1
