# generated using pymatgen
data_AlH36C12S6(IO2)3
_symmetry_space_group_name_H-M   'P 1'
_cell_length_a   10.44268810
_cell_length_b   10.44268811
_cell_length_c   10.44268811
_cell_angle_alpha   63.07479559
_cell_angle_beta   63.07479561
_cell_angle_gamma   63.07479556
_symmetry_Int_Tables_number   1
_chemical_formula_structural   AlH36C12S6(IO2)3
_chemical_formula_sum   'Al1 H36 C12 S6 I3 O6'
_cell_volume   860.16867830
_cell_formula_units_Z   1
loop_
 _symmetry_equiv_pos_site_id
 _symmetry_equiv_pos_as_xyz
  1  'x, y, z'
loop_
 _atom_site_type_symbol
 _atom_site_label
 _atom_site_symmetry_multiplicity
 _atom_site_fract_x
 _atom_site_fract_y
 _atom_site_fract_z
 _atom_site_occupancy
  H  H0  1  0.66621375  0.03055134  0.82848455  1
  H  H1  1  0.03055134  0.82848455  0.66621375  1
  H  H2  1  0.82848455  0.66621375  0.03055134  1
  H  H3  1  0.33378625  0.96944866  0.17151545  1
  H  H4  1  0.96944866  0.17151545  0.33378625  1
  H  H5  1  0.17151545  0.33378625  0.96944866  1
  H  H6  1  0.55529361  0.22575928  0.76867239  1
  H  H7  1  0.22575928  0.76867239  0.55529361  1
  H  H8  1  0.76867239  0.55529361  0.22575928  1
  H  H9  1  0.44470639  0.77424072  0.23132761  1
  H  H10  1  0.77424072  0.23132761  0.44470639  1
  H  H11  1  0.23132761  0.44470639  0.77424072  1
  H  H12  1  0.52910431  0.12667693  0.96890462  1
  H  H13  1  0.12667693  0.96890462  0.52910431  1
  H  H14  1  0.96890462  0.52910431  0.12667693  1
  H  H15  1  0.65692684  0.00210909  0.45296902  1
  H  H16  1  0.47089569  0.87332307  0.03109538  1
  H  H17  1  0.03109538  0.47089569  0.87332307  1
  H  H18  1  0.54703098  0.34307316  0.99789091  1
  H  H19  1  0.34307316  0.99789091  0.54703098  1
  H  H20  1  0.99789091  0.54703098  0.34307316  1
  H  H21  1  0.45296902  0.65692684  0.00210909  1
  H  H22  1  0.11515762  0.29695974  0.57689512  1
  H  H23  1  0.57689512  0.11515762  0.29695974  1
  H  H24  1  0.29695974  0.57689512  0.11515762  1
  H  H25  1  0.88484238  0.70304026  0.42310488  1
  H  H26  1  0.42310488  0.88484238  0.70304026  1
  H  H27  1  0.70304026  0.42310488  0.88484238  1
  H  H28  1  0.20214744  0.42224001  0.55629242  1
  H  H29  1  0.55629242  0.20214744  0.42224001  1
  H  H30  1  0.42224001  0.55629242  0.20214744  1
  H  H31  1  0.79785256  0.57775999  0.44370758  1
  H  H32  1  0.44370758  0.79785256  0.57775999  1
  H  H33  1  0.57775999  0.44370758  0.79785256  1
  H  H34  1  0.00210909  0.45296902  0.65692684  1
  H  H35  1  0.87332307  0.03109538  0.47089569  1
  C  C36  1  0.63202846  0.37003509  0.88685939  1
  C  C37  1  0.37003509  0.88685939  0.63202846  1
  C  C38  1  0.88685939  0.63202846  0.37003509  1
  C  C39  1  0.36797154  0.62996491  0.11314061  1
  C  C40  1  0.14571625  0.38977381  0.86193256  1
  C  C41  1  0.86193256  0.14571625  0.38977381  1
  C  C42  1  0.38977381  0.86193256  0.14571625  1
  C  C43  1  0.85428375  0.61022619  0.13806744  1
  C  C44  1  0.11314061  0.36797154  0.62996491  1
  C  C45  1  0.61022619  0.13806744  0.85428375  1
  C  C46  1  0.62996491  0.11314061  0.36797154  1
  C  C47  1  0.13806744  0.85428375  0.61022619  1
  O  O48  1  0.80072014  0.08741924  0.98288011  1
  O  O49  1  0.08741924  0.98288011  0.80072014  1
  O  O50  1  0.01711989  0.19927986  0.91258076  1
  O  O51  1  0.19927986  0.91258076  0.01711989  1
  O  O52  1  0.91258076  0.01711989  0.19927986  1
  O  O53  1  0.98288011  0.80072014  0.08741924  1
  Al  Al54  1  0.00000000  0.00000000  0.00000000  1
  S  S55  1  0.15986707  0.24803701  0.80093056  1
  S  S56  1  0.84013293  0.75196299  0.19906944  1
  S  S57  1  0.24803701  0.80093056  0.15986707  1
  S  S58  1  0.80093056  0.15986707  0.24803701  1
  S  S59  1  0.19906944  0.84013293  0.75196299  1
  S  S60  1  0.75196299  0.19906944  0.84013293  1
  I  I61  1  0.24878948  0.24878948  0.24878948  1
  I  I62  1  0.50000000  0.50000000  0.50000000  1
  I  I63  1  0.75121052  0.75121052  0.75121052  1
