# generated using pymatgen
data_Ti2Mn(PO4)3
_symmetry_space_group_name_H-M   'P 1'
_cell_length_a   8.67012531
_cell_length_b   8.67012518
_cell_length_c   8.67012551
_cell_angle_alpha   60.05992249
_cell_angle_beta   60.05992240
_cell_angle_gamma   60.05991816
_symmetry_Int_Tables_number   1
_chemical_formula_structural   Ti2Mn(PO4)3
_chemical_formula_sum   'Ti4 Mn2 P6 O24'
_cell_volume   461.47748868
_cell_formula_units_Z   2
loop_
 _symmetry_equiv_pos_site_id
 _symmetry_equiv_pos_as_xyz
  1  'x, y, z'
loop_
 _atom_site_type_symbol
 _atom_site_label
 _atom_site_symmetry_multiplicity
 _atom_site_fract_x
 _atom_site_fract_y
 _atom_site_fract_z
 _atom_site_occupancy
  Ti  Ti0  1  0.14543652  0.14543652  0.14543652  1
  Ti  Ti1  1  0.35456348  0.35456348  0.35456348  1
  Ti  Ti2  1  0.64543652  0.64543652  0.64543652  1
  Ti  Ti3  1  0.85456348  0.85456348  0.85456348  1
  Mn  Mn4  1  0.00000000  0.00000000  0.00000000  1
  Mn  Mn5  1  0.50000000  0.50000000  0.50000000  1
  P  P6  1  0.04336361  0.75000000  0.45663639  1
  P  P7  1  0.45663639  0.04336361  0.75000000  1
  P  P8  1  0.75000000  0.45663639  0.04336361  1
  P  P9  1  0.25000000  0.54336361  0.95663639  1
  P  P10  1  0.54336361  0.95663639  0.25000000  1
  P  P11  1  0.95663639  0.25000000  0.54336361  1
  O  O12  1  0.11701681  0.30928738  0.50296988  1
  O  O13  1  0.30928738  0.50296988  0.11701681  1
  O  O14  1  0.05865898  0.91376942  0.26401443  1
  O  O15  1  0.50296988  0.11701681  0.30928738  1
  O  O16  1  0.00296988  0.80928738  0.61701681  1
  O  O17  1  0.23598557  0.58623058  0.44134102  1
  O  O18  1  0.26401443  0.05865898  0.91376942  1
  O  O19  1  0.44134102  0.23598557  0.58623058  1
  O  O20  1  0.19071262  0.38298319  0.99703012  1
  O  O21  1  0.58623058  0.44134102  0.23598557  1
  O  O22  1  0.08623058  0.73598557  0.94134102  1
  O  O23  1  0.38298319  0.99703012  0.19071262  1
  O  O24  1  0.61701681  0.00296988  0.80928738  1
  O  O25  1  0.91376942  0.26401443  0.05865898  1
  O  O26  1  0.41376942  0.55865898  0.76401443  1
  O  O27  1  0.80928738  0.61701681  0.00296988  1
  O  O28  1  0.55865898  0.76401443  0.41376942  1
  O  O29  1  0.73598557  0.94134102  0.08623058  1
  O  O30  1  0.76401443  0.41376942  0.55865898  1
  O  O31  1  0.99703012  0.19071262  0.38298319  1
  O  O32  1  0.49703012  0.88298319  0.69071262  1
  O  O33  1  0.94134102  0.08623058  0.73598557  1
  O  O34  1  0.69071262  0.49703012  0.88298319  1
  O  O35  1  0.88298319  0.69071262  0.49703012  1
