# generated using pymatgen
data_Bi8Rh8O27
_symmetry_space_group_name_H-M   'P 1'
_cell_length_a   7.31483859
_cell_length_b   7.31483859
_cell_length_c   12.66669251
_cell_angle_alpha   106.78271859
_cell_angle_beta   90.00000000
_cell_angle_gamma   60.00000000
_symmetry_Int_Tables_number   1
_chemical_formula_structural   Bi8Rh8O27
_chemical_formula_sum   'Bi8 Rh8 O27'
_cell_volume   553.36835675
_cell_formula_units_Z   1
loop_
 _symmetry_equiv_pos_site_id
 _symmetry_equiv_pos_as_xyz
  1  'x, y, z'
loop_
 _atom_site_type_symbol
 _atom_site_label
 _atom_site_symmetry_multiplicity
 _atom_site_fract_x
 _atom_site_fract_y
 _atom_site_fract_z
 _atom_site_occupancy
  Bi  Bi0  1  0.49604918  0.50790065  0.01185147  1
  Bi  Bi1  1  0.74269382  0.50106001  0.24481385  1
  Bi  Bi2  1  0.25624617  0.50106001  0.24481385  1
  Bi  Bi3  1  0.00098747  0.49802605  0.49703858  1
  Bi  Bi4  1  0.25624617  0.98750767  0.24481385  1
  Bi  Bi5  1  0.74862243  0.50163630  0.75301387  1
  Bi  Bi6  1  0.24974128  0.50163630  0.75301387  1
  Bi  Bi7  1  0.74862243  0.00275515  0.75301387  1
  Rh  Rh8  1  0.00065171  0.49869758  0.99918384  1
  Rh  Rh9  1  0.49951273  0.99983555  0.99918384  1
  Rh  Rh10  1  0.00065171  0.99983555  0.99918384  1
  Rh  Rh11  1  0.74927507  0.00145085  0.25217578  1
  Rh  Rh12  1  0.50115798  0.49768304  0.49996292  1
  Rh  Rh13  1  0.99772012  0.00112090  0.49996292  1
  Rh  Rh14  1  0.50115798  0.00112090  0.49996292  1
  Rh  Rh15  1  0.24999117  0.00001866  0.75002749  1
  O  O16  1  0.29196095  0.91607810  0.03999122  1
  O  O17  1  0.91905143  0.66189713  0.16887461  1
  O  O18  1  0.99689555  0.91863916  0.33417488  1
  O  O19  1  0.87608688  0.33195217  0.03999122  1
  O  O20  1  0.58446429  0.91863916  0.33417488  1
  O  O21  1  0.29196095  0.33195217  0.03999122  1
  O  O22  1  0.79096331  0.91807237  0.54217130  1
  O  O23  1  0.49302253  0.08792604  0.16887461  1
  O  O24  1  0.20815320  0.66307263  0.45491943  1
  O  O25  1  0.62877417  0.66307263  0.45491943  1
  O  O26  1  0.91905143  0.08792604  0.16887461  1
  O  O27  1  0.06857701  0.36284498  0.29426797  1
  O  O28  1  0.58446429  0.33107143  0.33417488  1
  O  O29  1  0.41651307  0.66697286  0.66688355  1
  O  O30  1  0.79096331  0.33313461  0.54217130  1
  O  O31  1  0.93836306  0.62327387  0.68491081  1
  O  O32  1  0.37590108  0.33313461  0.54217130  1
  O  O33  1  0.08261178  0.91576247  0.83315069  1
  O  O34  1  0.50162476  0.91576247  0.83315069  1
  O  O35  1  0.20815320  0.08369361  0.45491943  1
  O  O36  1  0.00008930  0.08339763  0.66688355  1
  O  O37  1  0.12769980  0.66593618  0.95957216  1
  O  O38  1  0.41651307  0.08339763  0.66688355  1
  O  O39  1  0.70636402  0.66593618  0.95957216  1
  O  O40  1  0.55597134  0.38805832  0.83208698  1
  O  O41  1  0.08261178  0.33477545  0.83315069  1
  O  O42  1  0.70636402  0.08727295  0.95957216  1
