# generated using pymatgen
data_LiMnV(P2O7)2
_symmetry_space_group_name_H-M   'P 1'
_cell_length_a   9.67722029
_cell_length_b   8.17944052
_cell_length_c   7.14474164
_cell_angle_alpha   91.33778998
_cell_angle_beta   68.75718285
_cell_angle_gamma   89.21163520
_symmetry_Int_Tables_number   1
_chemical_formula_structural   LiMnV(P2O7)2
_chemical_formula_sum   'Li2 Mn2 V2 P8 O28'
_cell_volume   526.81679963
_cell_formula_units_Z   2
loop_
 _symmetry_equiv_pos_site_id
 _symmetry_equiv_pos_as_xyz
  1  'x, y, z'
loop_
 _atom_site_type_symbol
 _atom_site_label
 _atom_site_symmetry_multiplicity
 _atom_site_fract_x
 _atom_site_fract_y
 _atom_site_fract_z
 _atom_site_occupancy
  Li  Li0  1  0.24945072  0.86323199  0.67230158  1
  Li  Li1  1  0.74834871  0.35803481  0.32638688  1
  Mn  Mn2  1  0.25891968  0.00741424  0.26659296  1
  Mn  Mn3  1  0.75608379  0.99316702  0.27791518  1
  V  V4  1  0.24442858  0.49570691  0.71894950  1
  V  V5  1  0.74403642  0.50571630  0.72557152  1
  P  P6  1  0.06384755  0.78075567  0.09141941  1
  P  P7  1  0.05970947  0.67830161  0.48494358  1
  P  P8  1  0.44119239  0.17782187  0.52261645  1
  P  P9  1  0.56382479  0.78267949  0.08974220  1
  P  P10  1  0.43765825  0.28850788  0.91397510  1
  P  P11  1  0.55866475  0.68273133  0.48243153  1
  P  P12  1  0.94094266  0.17470102  0.51806114  1
  P  P13  1  0.93694881  0.28761665  0.90965896  1
  O  O14  1  0.07835349  0.65219341  0.25222277  1
  O  O15  1  0.15546880  0.93267820  0.08576867  1
  O  O16  1  0.10578996  0.17374015  0.39192483  1
  O  O17  1  0.11994815  0.84340821  0.51062183  1
  O  O18  1  0.14751626  0.53583261  0.52800571  1
  O  O19  1  0.10138996  0.33265214  0.84280465  1
  O  O20  1  0.12757969  0.68665442  0.88806330  1
  O  O21  1  0.38826728  0.20367939  0.10895811  1
  O  O22  1  0.40009355  0.82843325  0.14244529  1
  O  O23  1  0.35174407  0.03840238  0.48148056  1
  O  O24  1  0.37431630  0.34802176  0.51533930  1
  O  O25  1  0.39056968  0.67067005  0.60744473  1
  O  O26  1  0.34294902  0.43924510  0.90121239  1
  O  O27  1  0.42706241  0.15142063  0.75122941  1
  O  O28  1  0.57647870  0.65066376  0.25013576  1
  O  O29  1  0.65600986  0.93182332  0.09429997  1
  O  O30  1  0.60576877  0.17719577  0.39019273  1
  O  O31  1  0.61542003  0.84734507  0.50737412  1
  O  O32  1  0.64837219  0.53698083  0.51857556  1
  O  O33  1  0.60145552  0.34134462  0.84254605  1
  O  O34  1  0.62001864  0.68305253  0.89170039  1
  O  O35  1  0.88142413  0.20974058  0.11185108  1
  O  O36  1  0.90036299  0.82035255  0.14042585  1
  O  O37  1  0.85335505  0.03801900  0.47057926  1
  O  O38  1  0.86870811  0.34431972  0.51357800  1
  O  O39  1  0.89214222  0.66210146  0.60624607  1
  O  O40  1  0.84180042  0.44106842  0.90884876  1
  O  O41  1  0.92392317  0.15171687  0.75016385  1
