# generated using pymatgen
data_LiNd14(Cu3O14)2
_symmetry_space_group_name_H-M   'P 1'
_cell_length_a   8.89589140
_cell_length_b   8.79451245
_cell_length_c   8.79451245
_cell_angle_alpha   88.75552822
_cell_angle_beta   95.78136329
_cell_angle_gamma   95.78136329
_symmetry_Int_Tables_number   1
_chemical_formula_structural   LiNd14(Cu3O14)2
_chemical_formula_sum   'Li1 Nd14 Cu6 O28'
_cell_volume   681.01080647
_cell_formula_units_Z   1
loop_
 _symmetry_equiv_pos_site_id
 _symmetry_equiv_pos_as_xyz
  1  'x, y, z'
loop_
 _atom_site_type_symbol
 _atom_site_label
 _atom_site_symmetry_multiplicity
 _atom_site_fract_x
 _atom_site_fract_y
 _atom_site_fract_z
 _atom_site_occupancy
  Li  Li0  1  0.00000000  0.00000000  0.00000000  1
  Nd  Nd1  1  0.00000000  0.64949140  0.35050860  1
  Nd  Nd2  1  0.00000000  0.35050860  0.64949140  1
  Nd  Nd3  1  0.14253697  0.36254370  0.06474933  1
  Nd  Nd4  1  0.14253697  0.06474933  0.36254370  1
  Nd  Nd5  1  0.28489617  0.07736536  0.77969783  1
  Nd  Nd6  1  0.28489617  0.77969783  0.07736536  1
  Nd  Nd7  1  0.42901944  0.79299458  0.49278561  1
  Nd  Nd8  1  0.42901944  0.49278561  0.79299458  1
  Nd  Nd9  1  0.57098056  0.20700542  0.50721439  1
  Nd  Nd10  1  0.57098056  0.50721439  0.20700542  1
  Nd  Nd11  1  0.71510383  0.22030217  0.92263464  1
  Nd  Nd12  1  0.71510383  0.92263464  0.22030217  1
  Nd  Nd13  1  0.85746303  0.63745630  0.93525067  1
  Nd  Nd14  1  0.85746303  0.93525067  0.63745630  1
  Cu  Cu15  1  0.42893178  0.14279733  0.14279733  1
  Cu  Cu16  1  0.28546432  0.42936940  0.42936940  1
  Cu  Cu17  1  0.14263775  0.71359626  0.71359626  1
  Cu  Cu18  1  0.71453568  0.57063060  0.57063060  1
  Cu  Cu19  1  0.85736225  0.28640374  0.28640374  1
  Cu  Cu20  1  0.57106822  0.85720267  0.85720267  1
  O  O21  1  0.07159094  0.35737250  0.35737250  1
  O  O22  1  0.22308600  0.07452619  0.07452619  1
  O  O23  1  0.07110352  0.10756858  0.60718930  1
  O  O24  1  0.07110352  0.60718930  0.10756858  1
  O  O25  1  0.35657878  0.03556412  0.53546626  1
  O  O26  1  0.50000000  0.00000000  0.00000000  1
  O  O27  1  0.21369388  0.32103552  0.82114123  1
  O  O28  1  0.35657878  0.53546626  0.03556412  1
  O  O29  1  0.21369388  0.82114123  0.32103552  1
  O  O30  1  0.35658814  0.28823973  0.28823973  1
  O  O31  1  0.07516612  0.85039395  0.85039395  1
  O  O32  1  0.21395804  0.57329339  0.57329339  1
  O  O33  1  0.36124083  0.78633355  0.78633355  1
  O  O34  1  0.63875917  0.21366645  0.21366645  1
  O  O35  1  0.50000000  0.24921668  0.75078332  1
  O  O36  1  0.50000000  0.50000000  0.50000000  1
  O  O37  1  0.50000000  0.75078332  0.24921668  1
  O  O38  1  0.64341186  0.71176027  0.71176027  1
  O  O39  1  0.64342122  0.96443588  0.46453374  1
  O  O40  1  0.92483388  0.14960605  0.14960605  1
  O  O41  1  0.78630612  0.17885877  0.67896448  1
  O  O42  1  0.78630612  0.67896448  0.17885877  1
  O  O43  1  0.78604196  0.42670661  0.42670661  1
  O  O44  1  0.64342122  0.46453374  0.96443588  1
  O  O45  1  0.77691400  0.92547381  0.92547381  1
  O  O46  1  0.92840906  0.64262750  0.64262750  1
  O  O47  1  0.92889648  0.39281070  0.89243142  1
  O  O48  1  0.92889648  0.89243142  0.39281070  1
