# generated using pymatgen
data_Mn2AsHO5
_symmetry_space_group_name_H-M   'P 1'
_cell_length_a   10.38718486
_cell_length_b   13.83098979
_cell_length_c   12.98167248
_cell_angle_alpha   90.00000000
_cell_angle_beta   108.91568624
_cell_angle_gamma   90.00000000
_symmetry_Int_Tables_number   1
_chemical_formula_structural   Mn2AsHO5
_chemical_formula_sum   'Mn32 As16 H16 O80'
_cell_volume   1764.29565357
_cell_formula_units_Z   16
loop_
 _symmetry_equiv_pos_site_id
 _symmetry_equiv_pos_as_xyz
  1  'x, y, z'
loop_
 _atom_site_type_symbol
 _atom_site_label
 _atom_site_symmetry_multiplicity
 _atom_site_fract_x
 _atom_site_fract_y
 _atom_site_fract_z
 _atom_site_occupancy
  Mn  Mn0  1  0.02781578  0.32458002  0.88995573  1
  Mn  Mn1  1  0.04174756  0.82024140  0.92150455  1
  Mn  Mn2  1  0.02781578  0.17541998  0.38995573  1
  Mn  Mn3  1  0.04174756  0.67975860  0.42150455  1
  Mn  Mn4  1  0.19343708  0.52051593  0.68839461  1
  Mn  Mn5  1  0.21678877  0.00638171  0.69904426  1
  Mn  Mn6  1  0.28731788  0.24947398  0.80252866  1
  Mn  Mn7  1  0.29996913  0.73346969  0.81344547  1
  Mn  Mn8  1  0.19343708  0.97948407  0.18839461  1
  Mn  Mn9  1  0.21678877  0.49361829  0.19904426  1
  Mn  Mn10  1  0.52669677  0.43036885  0.89936042  1
  Mn  Mn11  1  0.28731788  0.25052602  0.30252866  1
  Mn  Mn12  1  0.29996913  0.76653031  0.31344547  1
  Mn  Mn13  1  0.54809322  0.92650166  0.91346260  1
  Mn  Mn14  1  0.45190678  0.42650166  0.58653740  1
  Mn  Mn15  1  0.47330323  0.93036885  0.60063958  1
  Mn  Mn16  1  0.52669677  0.06963115  0.39936042  1
  Mn  Mn17  1  0.54809322  0.57349834  0.41346260  1
  Mn  Mn18  1  0.45190678  0.07349834  0.08653740  1
  Mn  Mn19  1  0.70003087  0.23346969  0.68655453  1
  Mn  Mn20  1  0.71268212  0.74947398  0.69747134  1
  Mn  Mn21  1  0.47330323  0.56963115  0.10063958  1
  Mn  Mn22  1  0.78321123  0.50638171  0.80095574  1
  Mn  Mn23  1  0.80656292  0.02051593  0.81160539  1
  Mn  Mn24  1  0.70003087  0.26653031  0.18655453  1
  Mn  Mn25  1  0.71268212  0.75052602  0.19747134  1
  Mn  Mn26  1  0.78321123  0.99361829  0.30095574  1
  Mn  Mn27  1  0.80656292  0.47948407  0.31160539  1
  Mn  Mn28  1  0.95825244  0.32024140  0.57849545  1
  Mn  Mn29  1  0.97218422  0.82458002  0.61004427  1
  Mn  Mn30  1  0.95825244  0.17975860  0.07849545  1
  Mn  Mn31  1  0.97218422  0.67541998  0.11004427  1
  As  As32  1  0.11385838  0.57757524  0.92602088  1
  As  As33  1  0.12051914  0.07170928  0.92519832  1
  As  As34  1  0.11385838  0.92242476  0.42602088  1
  As  As35  1  0.12051914  0.42829072  0.42519832  1
  As  As36  1  0.37996331  0.17784529  0.57639416  1
  As  As37  1  0.38345602  0.67570257  0.57506245  1
  As  As38  1  0.61654398  0.17570257  0.92493755  1
  As  As39  1  0.62003669  0.67784529  0.92360584  1
  As  As40  1  0.37996331  0.32215471  0.07639416  1
  As  As41  1  0.38345602  0.82429743  0.07506245  1
  As  As42  1  0.61654398  0.32429743  0.42493755  1
  As  As43  1  0.62003669  0.82215471  0.42360584  1
  As  As44  1  0.87948086  0.57170928  0.57480168  1
  As  As45  1  0.88614162  0.07757524  0.57397912  1
  As  As46  1  0.87948086  0.92829072  0.07480168  1
  As  As47  1  0.88614162  0.42242476  0.07397912  1
  H  H48  1  0.03404518  0.21241484  0.73888900  1
  H  H49  1  0.26826161  0.41876797  0.85925039  1
  H  H50  1  0.03404518  0.28758516  0.23888900  1
  H  H51  1  0.22786749  0.84142993  0.64587748  1
  H  H52  1  0.26826161  0.08123203  0.35925039  1
  H  H53  1  0.22786749  0.65857007  0.14587748  1
  H  H54  1  0.46666275  0.03790125  0.75763222  1
  H  H55  1  0.53333725  0.53790125  0.74236778  1
  H  H56  1  0.46666275  0.46209875  0.25763222  1
  H  H57  1  0.53333725  0.96209875  0.24236778  1
  H  H58  1  0.77213251  0.34142993  0.85412252  1
  H  H59  1  0.73173839  0.91876797  0.64074961  1
  H  H60  1  0.77213251  0.15857007  0.35412252  1
  H  H61  1  0.96595482  0.71241484  0.76111100  1
  H  H62  1  0.73173839  0.58123203  0.14074961  1
  H  H63  1  0.96595482  0.78758516  0.26111100  1
  O  O64  1  0.00974055  0.16321656  0.93110993  1
  O  O65  1  0.02219400  0.66897338  0.95962779  1
  O  O66  1  0.00508519  0.48216459  0.87701962  1
  O  O67  1  0.01635515  0.97160881  0.88331761  1
  O  O68  1  0.06693826  0.27894451  0.74171151  1
  O  O69  1  0.16730230  0.61528425  0.81873320  1
  O  O70  1  0.00974055  0.33678344  0.43110993  1
  O  O71  1  0.02219400  0.83102662  0.45962779  1
  O  O72  1  0.00508519  0.01783541  0.37701962  1
  O  O73  1  0.01635515  0.52839119  0.38331761  1
  O  O74  1  0.25188658  0.29572616  0.95719641  1
  O  O75  1  0.20374472  0.09659973  0.83367452  1
  O  O76  1  0.25455448  0.79352589  0.95712639  1
  O  O77  1  0.19225761  0.84309229  0.70695900  1
  O  O78  1  0.06693826  0.22105549  0.24171151  1
  O  O79  1  0.30687707  0.41552006  0.79999537  1
  O  O80  1  0.23821984  0.44760072  0.55273572  1
  O  O81  1  0.24845916  0.95461712  0.53858156  1
  O  O82  1  0.30956320  0.15203334  0.67668228  1
  O  O83  1  0.16730230  0.88471575  0.31873320  1
  O  O84  1  0.32092369  0.64142799  0.67799247  1
  O  O85  1  0.25188658  0.20427384  0.45719641  1
  O  O86  1  0.20374472  0.40340027  0.33367452  1
  O  O87  1  0.25455448  0.70647411  0.45712639  1
  O  O88  1  0.19225761  0.65690771  0.20695900  1
  O  O89  1  0.43721987  0.97046177  0.75290603  1
  O  O90  1  0.51645190  0.58602950  0.94206541  1
  O  O91  1  0.52852407  0.08006894  0.95344950  1
  O  O92  1  0.50848567  0.27190832  0.87986673  1
  O  O93  1  0.51108942  0.77569369  0.88009117  1
  O  O94  1  0.30687707  0.08447994  0.29999537  1
  O  O95  1  0.23821984  0.05239928  0.05273572  1
  O  O96  1  0.24845916  0.54538288  0.03858156  1
  O  O97  1  0.48891058  0.27569369  0.61990883  1
  O  O98  1  0.30956320  0.34796666  0.17668228  1
  O  O99  1  0.49151433  0.77190732  0.62013327  1
  O  O100  1  0.32092369  0.85857201  0.17799247  1
  O  O101  1  0.47147593  0.58006894  0.54655050  1
  O  O102  1  0.48354810  0.08602950  0.55793459  1
  O  O103  1  0.56278013  0.47046177  0.74709397  1
  O  O104  1  0.43721987  0.52953823  0.25290603  1
  O  O105  1  0.51645190  0.91397050  0.44206541  1
  O  O106  1  0.52852407  0.41993106  0.45344950  1
  O  O107  1  0.67907631  0.14142799  0.82200753  1
  O  O108  1  0.50848567  0.22809268  0.37986673  1
  O  O109  1  0.69043680  0.65203334  0.82331772  1
  O  O110  1  0.51108942  0.72430631  0.38009117  1
  O  O111  1  0.75154084  0.45461712  0.96141844  1
  O  O112  1  0.76178016  0.94760072  0.94726428  1
  O  O113  1  0.69312293  0.91552006  0.70000463  1
  O  O114  1  0.48891058  0.22430631  0.11990883  1
  O  O115  1  0.49151433  0.72809268  0.12013327  1
  O  O116  1  0.47147593  0.91993106  0.04655050  1
  O  O117  1  0.48354810  0.41397050  0.05793459  1
  O  O118  1  0.56278013  0.02953823  0.24709397  1
  O  O119  1  0.80774239  0.34309229  0.79304100  1
  O  O120  1  0.74544552  0.29352589  0.54287361  1
  O  O121  1  0.79625528  0.59659973  0.66632548  1
  O  O122  1  0.74811342  0.79572616  0.54280359  1
  O  O123  1  0.67907631  0.35857201  0.32200753  1
  O  O124  1  0.83269770  0.11528425  0.68126680  1
  O  O125  1  0.69043680  0.84796666  0.32331772  1
  O  O126  1  0.75154084  0.04538288  0.46141844  1
  O  O127  1  0.76178016  0.55239928  0.44726428  1
  O  O128  1  0.69312293  0.58447994  0.20000463  1
  O  O129  1  0.93306174  0.77894451  0.75828849  1
  O  O130  1  0.80774239  0.15690771  0.29304100  1
  O  O131  1  0.74544552  0.20647411  0.04287361  1
  O  O132  1  0.79625528  0.90340027  0.16632548  1
  O  O133  1  0.74811342  0.70427384  0.04280359  1
  O  O134  1  0.98364485  0.47160881  0.61668239  1
  O  O135  1  0.99491481  0.98216459  0.62298038  1
  O  O136  1  0.97780600  0.16897338  0.54037221  1
  O  O137  1  0.99025945  0.66321656  0.56889007  1
  O  O138  1  0.83269770  0.38471575  0.18126680  1
  O  O139  1  0.93306174  0.72105549  0.25828849  1
  O  O140  1  0.98364485  0.02839119  0.11668239  1
  O  O141  1  0.99491481  0.51783541  0.12298038  1
  O  O142  1  0.97780600  0.33102662  0.04037221  1
  O  O143  1  0.99025945  0.83678344  0.06889007  1
