# generated using pymatgen
data_LiVCrP2(O4F)2
_symmetry_space_group_name_H-M   'P 1'
_cell_length_a   7.47945919
_cell_length_b   6.88357775
_cell_length_c   7.71366625
_cell_angle_alpha   90.89695249
_cell_angle_beta   117.05815591
_cell_angle_gamma   91.25420226
_symmetry_Int_Tables_number   1
_chemical_formula_structural   LiVCrP2(O4F)2
_chemical_formula_sum   'Li2 V2 Cr2 P4 O16 F4'
_cell_volume   353.44142135
_cell_formula_units_Z   2
loop_
 _symmetry_equiv_pos_site_id
 _symmetry_equiv_pos_as_xyz
  1  'x, y, z'
loop_
 _atom_site_type_symbol
 _atom_site_label
 _atom_site_symmetry_multiplicity
 _atom_site_fract_x
 _atom_site_fract_y
 _atom_site_fract_z
 _atom_site_occupancy
  Li  Li0  1  0.58838214  0.15831971  0.77140778  1
  Li  Li1  1  0.41161786  0.84168029  0.22859222  1
  V  V2  1  0.00000000  0.00000000  0.00000000  1
  V  V3  1  0.50000000  0.50000000  0.50000000  1
  Cr  Cr4  1  0.74816769  0.25379016  0.25187753  1
  Cr  Cr5  1  0.25183231  0.74620984  0.74812247  1
  P  P6  1  0.21682657  0.10054871  0.45760069  1
  P  P7  1  0.28154968  0.39667078  0.03669717  1
  P  P8  1  0.71845032  0.60332922  0.96330283  1
  P  P9  1  0.78317343  0.89945129  0.54239931  1
  O  O10  1  0.11269689  0.24744881  0.02637839  1
  O  O11  1  0.03447764  0.21151749  0.42976304  1
  O  O12  1  0.46173615  0.27610248  0.06291178  1
  O  O13  1  0.68025509  0.00486168  0.34783819  1
  O  O14  1  0.39238487  0.24956563  0.48126555  1
  O  O15  1  0.33663589  0.53954392  0.21500764  1
  O  O16  1  0.81777348  0.03786059  0.71737549  1
  O  O17  1  0.81175043  0.49476796  0.15257683  1
  O  O18  1  0.18824957  0.50523204  0.84742317  1
  O  O19  1  0.18222652  0.96213941  0.28262451  1
  O  O20  1  0.66336411  0.46045608  0.78499236  1
  O  O21  1  0.60761513  0.75043437  0.51873445  1
  O  O22  1  0.31974491  0.99513832  0.65216181  1
  O  O23  1  0.53826385  0.72389752  0.93708822  1
  O  O24  1  0.96552236  0.78848251  0.57023696  1
  O  O25  1  0.88730311  0.75255119  0.97362161  1
  F  F26  1  0.77596196  0.10348770  0.03984336  1
  F  F27  1  0.28255392  0.60063504  0.54261251  1
  F  F28  1  0.71744608  0.39936496  0.45738749  1
  F  F29  1  0.22403804  0.89651230  0.96015664  1
