# generated using pymatgen
data_LiCr3Ni(SO4)6
_symmetry_space_group_name_H-M   'P 1'
_cell_length_a   8.28422580
_cell_length_b   8.85890230
_cell_length_c   8.30008304
_cell_angle_alpha   117.87109773
_cell_angle_beta   60.24231261
_cell_angle_gamma   117.66229598
_symmetry_Int_Tables_number   1
_chemical_formula_structural   LiCr3Ni(SO4)6
_chemical_formula_sum   'Li1 Cr3 Ni1 S6 O24'
_cell_volume   445.55193893
_cell_formula_units_Z   1
loop_
 _symmetry_equiv_pos_site_id
 _symmetry_equiv_pos_as_xyz
  1  'x, y, z'
loop_
 _atom_site_type_symbol
 _atom_site_label
 _atom_site_symmetry_multiplicity
 _atom_site_fract_x
 _atom_site_fract_y
 _atom_site_fract_z
 _atom_site_occupancy
  Li  Li0  1  0.76652841  0.37362609  0.42423624  1
  Cr  Cr1  1  0.35385701  0.06287869  0.35125083  1
  Cr  Cr2  1  0.64231515  0.93105705  0.64483186  1
  Cr  Cr3  1  0.85066851  0.55042452  0.85309842  1
  Ni  Ni4  1  0.16004238  0.45617176  0.14618538  1
  S  S5  1  0.03782288  0.25105882  0.46662700  1
  S  S6  1  0.53842542  0.74845968  0.25351905  1
  S  S7  1  0.25423752  0.74803214  0.95541500  1
  S  S8  1  0.75074825  0.25130945  0.03710759  1
  S  S9  1  0.46090467  0.24830585  0.74747489  1
  S  S10  1  0.95677132  0.75017963  0.54235597  1
  O  O11  1  0.30070813  0.92268288  0.10548401  1
  O  O12  1  0.10800526  0.91813307  0.50922845  1
  O  O13  1  0.00346436  0.29645572  0.33761813  1
  O  O14  1  0.02515218  0.39579689  0.65781820  1
  O  O15  1  0.35026567  0.60820550  0.28661805  1
  O  O16  1  0.04737273  0.70677729  0.98505681  1
  O  O17  1  0.51605055  0.92353991  0.29997907  1
  O  O18  1  0.23567632  0.23291233  0.37663153  1
  O  O19  1  0.67440539  0.70543632  0.04769366  1
  O  O20  1  0.38088285  0.76992799  0.75907428  1
  O  O21  1  0.62962665  0.77062876  0.38172381  1
  O  O22  1  0.28816146  0.60697583  0.96895631  1
  O  O23  1  0.71404743  0.39479160  0.02520457  1
  O  O24  1  0.38298588  0.23334059  0.61151192  1
  O  O25  1  0.62045195  0.23643893  0.24044215  1
  O  O26  1  0.33349549  0.29485843  0.94959660  1
  O  O27  1  0.76004151  0.77120608  0.63122709  1
  O  O28  1  0.49053884  0.07703530  0.69328101  1
  O  O29  1  0.95211813  0.29400024  0.01356320  1
  O  O30  1  0.65780696  0.39320561  0.70888775  1
  O  O31  1  0.96259693  0.59904843  0.35712422  1
  O  O32  1  0.98480070  0.70832943  0.67820305  1
  O  O33  1  0.89184627  0.07860293  0.49363168  1
  O  O34  1  0.69137785  0.07756428  0.89644125  1
