# generated using pymatgen
data_Ti15VO24
_symmetry_space_group_name_H-M   'P 1'
_cell_length_a   5.53784601
_cell_length_b   9.10917384
_cell_length_c   9.11153414
_cell_angle_alpha   68.23323551
_cell_angle_beta   95.23778750
_cell_angle_gamma   95.19733850
_symmetry_Int_Tables_number   1
_chemical_formula_structural   Ti15VO24
_chemical_formula_sum   'Ti15 V1 O24'
_cell_volume   424.27884160
_cell_formula_units_Z   1
loop_
 _symmetry_equiv_pos_site_id
 _symmetry_equiv_pos_as_xyz
  1  'x, y, z'
loop_
 _atom_site_type_symbol
 _atom_site_label
 _atom_site_symmetry_multiplicity
 _atom_site_fract_x
 _atom_site_fract_y
 _atom_site_fract_z
 _atom_site_occupancy
  Ti  Ti0  1  0.69092774  0.07660527  0.07724442  1
  Ti  Ti1  1  0.30857947  0.17235892  0.17290547  1
  Ti  Ti2  1  0.19235065  0.07674988  0.57813520  1
  Ti  Ti3  1  0.30729049  0.42251427  0.42373664  1
  Ti  Ti4  1  0.69092882  0.32745047  0.32711013  1
  Ti  Ti5  1  0.80958755  0.17302265  0.67320573  1
  Ti  Ti6  1  0.19242361  0.32811670  0.82732199  1
  Ti  Ti7  1  0.18996050  0.57637062  0.07621388  1
  Ti  Ti8  1  0.80933480  0.67290270  0.17296225  1
  Ti  Ti9  1  0.19108685  0.82591002  0.32779072  1
  Ti  Ti10  1  0.69353612  0.57745915  0.57578872  1
  Ti  Ti11  1  0.80785614  0.42296150  0.92314820  1
  Ti  Ti12  1  0.80817096  0.92428835  0.42203572  1
  Ti  Ti13  1  0.30890244  0.92279776  0.92394979  1
  Ti  Ti14  1  0.69059166  0.82741671  0.82583548  1
  V  V15  1  0.30957694  0.67249895  0.67220022  1
  O  O16  1  0.15728136  0.03080613  0.37613408  1
  O  O17  1  0.99915554  0.21857543  0.03054984  1
  O  O18  1  0.99960644  0.28185139  0.46902605  1
  O  O19  1  0.15699814  0.12519051  0.78192925  1
  O  O20  1  0.65596978  0.12549938  0.28065840  1
  O  O21  1  0.65613750  0.03042814  0.87542331  1
  O  O22  1  0.34278222  0.37509724  0.21912124  1
  O  O23  1  0.49984389  0.21929751  0.53069692  1
  O  O24  1  0.15623454  0.62470659  0.28138427  1
  O  O25  1  0.49968594  0.28026449  0.96937481  1
  O  O26  1  0.34411433  0.46502145  0.62505134  1
  O  O27  1  0.84315605  0.46907370  0.12475683  1
  O  O28  1  0.15596161  0.52591323  0.88234114  1
  O  O29  1  0.65426108  0.53095917  0.37493568  1
  O  O30  1  0.99066057  0.71896724  0.52586199  1
  O  O31  1  0.49909811  0.71834648  0.03051235  1
  O  O32  1  0.84369601  0.37599447  0.71893241  1
  O  O33  1  0.66220966  0.62492500  0.78168772  1
  O  O34  1  0.50297437  0.78245744  0.46524841  1
  O  O35  1  0.99946463  0.78143908  0.96853821  1
  O  O36  1  0.34319590  0.96809804  0.12599034  1
  O  O37  1  0.34702456  0.88222336  0.71842132  1
  O  O38  1  0.84485683  0.87579123  0.21905492  1
  O  O39  1  0.84452318  0.96964936  0.62478758  1
