# generated using pymatgen
data_Na4(WO3)9
_symmetry_space_group_name_H-M   'P 1'
_cell_length_a   11.69819707
_cell_length_b   9.54649899
_cell_length_c   5.51417328
_cell_angle_alpha   106.78706749
_cell_angle_beta   89.99816749
_cell_angle_gamma   114.08953396
_symmetry_Int_Tables_number   1
_chemical_formula_structural   Na4(WO3)9
_chemical_formula_sum   'Na4 W9 O27'
_cell_volume   533.30146532
_cell_formula_units_Z   1
loop_
 _symmetry_equiv_pos_site_id
 _symmetry_equiv_pos_as_xyz
  1  'x, y, z'
loop_
 _atom_site_type_symbol
 _atom_site_label
 _atom_site_symmetry_multiplicity
 _atom_site_fract_x
 _atom_site_fract_y
 _atom_site_fract_z
 _atom_site_occupancy
  Na  Na0  1  0.88931223  0.66665860  0.33332166  1
  Na  Na1  1  0.33351037  0.00012690  0.00006499  1
  Na  Na2  1  0.55514640  0.66666912  0.33332127  1
  Na  Na3  1  0.11092139  0.33321616  0.66661374  1
  W  W4  1  0.94232139  0.33049886  0.16526591  1
  W  W5  1  0.83285210  0.00216391  0.50108694  1
  W  W6  1  0.72222062  0.66665941  0.83335160  1
  W  W7  1  0.50212813  0.00280904  0.50143690  1
  W  W8  1  0.61157859  0.33114599  0.16557760  1
  W  W9  1  0.38932352  0.66790006  0.83396254  1
  W  W10  1  0.16655146  0.99969671  0.49983774  1
  W  W11  1  0.27788958  0.33364456  0.16680063  1
  W  W12  1  0.05511900  0.66540162  0.83269849  1
  O  O13  1  0.89073579  0.16804157  0.83157219  1
  O  O14  1  0.89074067  0.16804509  0.33646768  1
  O  O15  1  0.88899294  0.66669331  0.83333509  1
  O  O16  1  0.66574702  0.99734163  0.49867874  1
  O  O17  1  0.77869275  0.33598332  0.16800725  1
  O  O18  1  0.77665965  0.83021322  0.66059087  1
  O  O19  1  0.66779522  0.50313270  0.00608013  1
  O  O20  1  0.55370621  0.16530916  0.83508580  1
  O  O21  1  0.66778995  0.50313899  0.49704270  1
  O  O22  1  0.55370602  0.16530292  0.33020849  1
  O  O23  1  0.77665982  0.83021808  0.16962090  1
  O  O24  1  0.55545718  0.66666721  0.83332084  1
  O  O25  1  0.33334673  0.00025712  0.50012569  1
  O  O26  1  0.44425632  0.33304101  0.16652647  1
  O  O27  1  0.22222134  0.16667160  0.33332847  1
  O  O28  1  0.22222370  0.16667971  0.83331992  1
  O  O29  1  0.33341179  0.50026331  0.50030891  1
  O  O30  1  0.44461438  0.83362898  0.66678312  1
  O  O31  1  0.33341100  0.50026434  0.99995023  1
  O  O32  1  0.44461231  0.83362198  0.16686391  1
  O  O33  1  0.22222407  0.66667943  0.83332725  1
  O  O34  1  0.00018554  0.00028267  0.50013940  1
  O  O35  1  0.11109492  0.33306609  0.16653769  1
  O  O36  1  0.11103586  0.83306940  0.66671722  1
  O  O37  1  0.99983047  0.49970158  0.49981287  1
  O  O38  1  0.99983114  0.49970087  0.99988142  1
  O  O39  1  0.11103243  0.83305977  0.16636073  1
