# generated using pymatgen
data_LiVCrP2(O4F)2
_symmetry_space_group_name_H-M   'P 1'
_cell_length_a   5.16401330
_cell_length_b   10.70103418
_cell_length_c   7.33488557
_cell_angle_alpha   109.58062833
_cell_angle_beta   106.12411419
_cell_angle_gamma   98.01204139
_symmetry_Int_Tables_number   1
_chemical_formula_structural   LiVCrP2(O4F)2
_chemical_formula_sum   'Li2 V2 Cr2 P4 O16 F4'
_cell_volume   354.56010125
_cell_formula_units_Z   2
loop_
 _symmetry_equiv_pos_site_id
 _symmetry_equiv_pos_as_xyz
  1  'x, y, z'
loop_
 _atom_site_type_symbol
 _atom_site_label
 _atom_site_symmetry_multiplicity
 _atom_site_fract_x
 _atom_site_fract_y
 _atom_site_fract_z
 _atom_site_occupancy
  Li  Li0  1  0.07831897  0.21925491  0.82032375  1
  Li  Li1  1  0.92168103  0.78074509  0.17967625  1
  V  V2  1  0.00000000  0.50000000  0.00000000  1
  V  V3  1  0.00000000  0.00000000  0.00000000  1
  Cr  Cr4  1  0.50542206  0.74865169  0.50334737  1
  Cr  Cr5  1  0.49457794  0.25134831  0.49665263  1
  P  P6  1  0.43557825  0.55992000  0.76031807  1
  P  P7  1  0.43752085  0.05531296  0.75365860  1
  P  P8  1  0.56247915  0.94468704  0.24634140  1
  P  P9  1  0.56442175  0.44008000  0.23968193  1
  O  O10  1  0.26307699  0.56939134  0.91058272  1
  O  O11  1  0.34442771  0.90826726  0.59542953  1
  O  O12  1  0.27896119  0.06902689  0.91321157  1
  O  O13  1  0.35780448  0.66023701  0.66155730  1
  O  O14  1  0.24082027  0.89826239  0.12465902  1
  O  O15  1  0.35341942  0.41046124  0.61063903  1
  O  O16  1  0.34679132  0.16043068  0.66430366  1
  O  O17  1  0.24968694  0.39016624  0.09670771  1
  O  O18  1  0.75031306  0.60983376  0.90329229  1
  O  O19  1  0.65320868  0.83956932  0.33569634  1
  O  O20  1  0.64658058  0.58953876  0.38936097  1
  O  O21  1  0.75917973  0.10173761  0.87534098  1
  O  O22  1  0.64219552  0.33976299  0.33844270  1
  O  O23  1  0.72103881  0.93097311  0.08678843  1
  O  O24  1  0.65557229  0.09173274  0.40457047  1
  O  O25  1  0.73692301  0.43060866  0.08941728  1
  F  F26  1  0.14515571  0.66386989  0.26419232  1
  F  F27  1  0.14102916  0.15834200  0.25915503  1
  F  F28  1  0.85897084  0.84165800  0.74084497  1
  F  F29  1  0.85484429  0.33613011  0.73580768  1
