# generated using pymatgen
data_Na2AsPCO7
_symmetry_space_group_name_H-M   'P 1'
_cell_length_a   9.24387602
_cell_length_b   6.66243627
_cell_length_c   5.41030328
_cell_angle_alpha   90.00000000
_cell_angle_beta   96.03461357
_cell_angle_gamma   90.00000000
_symmetry_Int_Tables_number   1
_chemical_formula_structural   Na2AsPCO7
_chemical_formula_sum   'Na4 As2 P2 C2 O14'
_cell_volume   331.35649179
_cell_formula_units_Z   2
loop_
 _symmetry_equiv_pos_site_id
 _symmetry_equiv_pos_as_xyz
  1  'x, y, z'
loop_
 _atom_site_type_symbol
 _atom_site_label
 _atom_site_symmetry_multiplicity
 _atom_site_fract_x
 _atom_site_fract_y
 _atom_site_fract_z
 _atom_site_occupancy
  Na  Na0  1  0.22905542  0.49015089  0.24925449  1
  Na  Na1  1  0.22905542  0.00984911  0.24925449  1
  Na  Na2  1  0.77094458  0.50984911  0.75074551  1
  Na  Na3  1  0.77094458  0.99015089  0.75074551  1
  As  As4  1  0.36365129  0.75000000  0.82630802  1
  As  As5  1  0.63634871  0.25000000  0.17369198  1
  P  P6  1  0.39883200  0.25000000  0.74028934  1
  P  P7  1  0.60116800  0.75000000  0.25971066  1
  C  C8  1  0.08299687  0.75000000  0.70679012  1
  C  C9  1  0.91700313  0.25000000  0.29320988  1
  O  O10  1  0.05078157  0.25000000  0.27531237  1
  O  O11  1  0.17486930  0.75000000  0.92641712  1
  O  O12  1  0.14916389  0.75000000  0.50997439  1
  O  O13  1  0.33390497  0.06409831  0.86338561  1
  O  O14  1  0.33390497  0.43590169  0.86338561  1
  O  O15  1  0.42706226  0.75000000  0.17672506  1
  O  O16  1  0.37804601  0.25000000  0.45926168  1
  O  O17  1  0.62195399  0.75000000  0.54073832  1
  O  O18  1  0.57293774  0.25000000  0.82327494  1
  O  O19  1  0.66609503  0.56409831  0.13661439  1
  O  O20  1  0.66609503  0.93590169  0.13661439  1
  O  O21  1  0.85083611  0.25000000  0.49002561  1
  O  O22  1  0.82513070  0.25000000  0.07358288  1
  O  O23  1  0.94921843  0.75000000  0.72468763  1
