# generated using pymatgen
data_LiNbSn3(PO4)6
_symmetry_space_group_name_H-M   'P 1'
_cell_length_a   8.99997527
_cell_length_b   8.99997514
_cell_length_c   8.99997575
_cell_angle_alpha   58.33432932
_cell_angle_beta   58.33432367
_cell_angle_gamma   58.33432627
_symmetry_Int_Tables_number   1
_chemical_formula_structural   LiNbSn3(PO4)6
_chemical_formula_sum   'Li1 Nb1 Sn3 P6 O24'
_cell_volume   495.81689075
_cell_formula_units_Z   1
loop_
 _symmetry_equiv_pos_site_id
 _symmetry_equiv_pos_as_xyz
  1  'x, y, z'
loop_
 _atom_site_type_symbol
 _atom_site_label
 _atom_site_symmetry_multiplicity
 _atom_site_fract_x
 _atom_site_fract_y
 _atom_site_fract_z
 _atom_site_occupancy
  Li  Li0  1  0.00671242  0.00671242  0.00671242  1
  Nb  Nb1  1  0.85568939  0.85568939  0.85568939  1
  Sn  Sn2  1  0.14619383  0.14619383  0.14619383  1
  Sn  Sn3  1  0.35853331  0.35853331  0.35853331  1
  Sn  Sn4  1  0.64314507  0.64314507  0.64314507  1
  P  P5  1  0.03791414  0.75223885  0.45461361  1
  P  P6  1  0.45461361  0.03791414  0.75223885  1
  P  P7  1  0.75223885  0.45461361  0.03791414  1
  P  P8  1  0.25162779  0.54004998  0.96210576  1
  P  P9  1  0.54004998  0.96210576  0.25162779  1
  P  P10  1  0.96210576  0.25162779  0.54004998  1
  O  O11  1  0.13219144  0.27210441  0.51805413  1
  O  O12  1  0.27210441  0.51805413  0.13219144  1
  O  O13  1  0.06131571  0.92074729  0.27110320  1
  O  O14  1  0.51805413  0.13219144  0.27210441  1
  O  O15  1  0.21568595  0.58192515  0.44517284  1
  O  O16  1  0.99516340  0.79889084  0.62122570  1
  O  O17  1  0.27110320  0.06131571  0.92074729  1
  O  O18  1  0.44517284  0.21568595  0.58192515  1
  O  O19  1  0.58192515  0.44517284  0.21568595  1
  O  O20  1  0.21389723  0.37860456  0.98821126  1
  O  O21  1  0.07876388  0.72289317  0.93351904  1
  O  O22  1  0.37860456  0.98821126  0.21389723  1
  O  O23  1  0.62122570  0.99516340  0.79889084  1
  O  O24  1  0.92074729  0.27110320  0.06131571  1
  O  O25  1  0.79889084  0.62122570  0.99516340  1
  O  O26  1  0.41704587  0.56517193  0.78368484  1
  O  O27  1  0.56517193  0.78368484  0.41704587  1
  O  O28  1  0.72289317  0.93351904  0.07876388  1
  O  O29  1  0.98821126  0.21389723  0.37860456  1
  O  O30  1  0.78368484  0.41704587  0.56517193  1
  O  O31  1  0.48194259  0.87218393  0.72167952  1
  O  O32  1  0.93351904  0.07876388  0.72289317  1
  O  O33  1  0.72167952  0.48194259  0.87218393  1
  O  O34  1  0.87218393  0.72167952  0.48194259  1
