# generated using pymatgen
data_LiVCr(P2O7)2
_symmetry_space_group_name_H-M   'P 1'
_cell_length_a   4.86306882
_cell_length_b   8.07951476
_cell_length_c   6.99773021
_cell_angle_alpha   89.98365940
_cell_angle_beta   108.01435102
_cell_angle_gamma   90.29214563
_symmetry_Int_Tables_number   1
_chemical_formula_structural   LiVCr(P2O7)2
_chemical_formula_sum   'Li1 V1 Cr1 P4 O14'
_cell_volume   261.46755697
_cell_formula_units_Z   1
loop_
 _symmetry_equiv_pos_site_id
 _symmetry_equiv_pos_as_xyz
  1  'x, y, z'
loop_
 _atom_site_type_symbol
 _atom_site_label
 _atom_site_symmetry_multiplicity
 _atom_site_fract_x
 _atom_site_fract_y
 _atom_site_fract_z
 _atom_site_occupancy
  Li  Li0  1  0.82852685  0.36205549  0.32835884  1
  V  V1  1  0.21813980  0.50798898  0.72836032  1
  Cr  Cr2  1  0.78976836  0.99803835  0.27551658  1
  P  P3  1  0.39908918  0.17704623  0.52098441  1
  P  P4  1  0.21605126  0.78259227  0.08638307  1
  P  P5  1  0.78048562  0.28300130  0.91018816  1
  P  P6  1  0.60112091  0.68195245  0.47563483  1
  O  O7  1  0.04404494  0.33653695  0.84688750  1
  O  O8  1  0.13513292  0.68126440  0.89063537  1
  O  O9  1  0.18103920  0.03850834  0.47334218  1
  O  O10  1  0.25209445  0.34800178  0.51722569  1
  O  O11  1  0.40340814  0.66592325  0.61044628  1
  O  O12  1  0.59131918  0.43555612  0.91345797  1
  O  O13  1  0.59863401  0.14913132  0.75223139  1
  O  O14  1  0.40342627  0.64495650  0.24954559  1
  O  O15  1  0.40542866  0.93268688  0.08730082  1
  O  O16  1  0.60316143  0.18384265  0.39277528  1
  O  O17  1  0.73088460  0.85267995  0.48834274  1
  O  O18  1  0.82601545  0.54138329  0.51982608  1
  O  O19  1  0.87105281  0.19831348  0.11381378  1
  O  O20  1  0.94515297  0.82052001  0.14157812  1
