# generated using pymatgen
data_LiVCr(P2O7)2
_symmetry_space_group_name_H-M   'P 1'
_cell_length_a   4.86725372
_cell_length_b   8.05686610
_cell_length_c   7.00036455
_cell_angle_alpha   90.17758771
_cell_angle_beta   108.37670516
_cell_angle_gamma   89.87107230
_symmetry_Int_Tables_number   1
_chemical_formula_structural   LiVCr(P2O7)2
_chemical_formula_sum   'Li1 V1 Cr1 P4 O14'
_cell_volume   260.51724488
_cell_formula_units_Z   1
loop_
 _symmetry_equiv_pos_site_id
 _symmetry_equiv_pos_as_xyz
  1  'x, y, z'
loop_
 _atom_site_type_symbol
 _atom_site_label
 _atom_site_symmetry_multiplicity
 _atom_site_fract_x
 _atom_site_fract_y
 _atom_site_fract_z
 _atom_site_occupancy
  Li  Li0  1  0.17531957  0.86430413  0.67538950  1
  V  V1  1  0.20674058  0.49448051  0.72272382  1
  Cr  Cr2  1  0.78401631  0.00531521  0.27200248  1
  P  P3  1  0.40314647  0.18003789  0.52055066  1
  P  P4  1  0.21674067  0.78266006  0.08829509  1
  P  P5  1  0.78014593  0.28163773  0.91649199  1
  P  P6  1  0.60167290  0.67860833  0.47740652  1
  O  O7  1  0.04619939  0.33310050  0.85394396  1
  O  O8  1  0.13988199  0.68897905  0.88501532  1
  O  O9  1  0.17787346  0.04147748  0.48479163  1
  O  O10  1  0.26308667  0.35235161  0.51965778  1
  O  O11  1  0.39460556  0.67651091  0.60601127  1
  O  O12  1  0.58750296  0.43593780  0.90578759  1
  O  O13  1  0.60123803  0.14707496  0.75270780  1
  O  O14  1  0.40935661  0.64768818  0.24824782  1
  O  O15  1  0.40066556  0.93442856  0.08048067  1
  O  O16  1  0.59452294  0.17928116  0.38894701  1
  O  O17  1  0.74772726  0.84844150  0.49077246  1
  O  O18  1  0.82205218  0.53766086  0.53108039  1
  O  O19  1  0.87531370  0.18995848  0.11226218  1
  O  O20  1  0.94809424  0.82274407  0.14422904  1
