# generated using pymatgen
data_LiH4SeNO4
_symmetry_space_group_name_H-M   'P 1'
_cell_length_a   5.17815725
_cell_length_b   5.43094368
_cell_length_c   17.51864673
_cell_angle_alpha   90.00000000
_cell_angle_beta   90.00000000
_cell_angle_gamma   90.00000000
_symmetry_Int_Tables_number   1
_chemical_formula_structural   LiH4SeNO4
_chemical_formula_sum   'Li4 H16 Se4 N4 O16'
_cell_volume   492.66429541
_cell_formula_units_Z   4
loop_
 _symmetry_equiv_pos_site_id
 _symmetry_equiv_pos_as_xyz
  1  'x, y, z'
loop_
 _atom_site_type_symbol
 _atom_site_label
 _atom_site_symmetry_multiplicity
 _atom_site_fract_x
 _atom_site_fract_y
 _atom_site_fract_z
 _atom_site_occupancy
  H  H0  1  0.81833020  0.72085155  0.22332544  1
  H  H1  1  0.31833020  0.27914845  0.77667456  1
  H  H2  1  0.81833020  0.77914845  0.72332544  1
  H  H3  1  0.31833020  0.22085155  0.27667456  1
  H  H4  1  0.81198495  0.51218919  0.14966275  1
  H  H5  1  0.31198495  0.48781081  0.85033725  1
  H  H6  1  0.81198495  0.98781081  0.64966275  1
  H  H7  1  0.31198495  0.01218919  0.35033725  1
  H  H8  1  0.99965284  0.76870994  0.14249707  1
  H  H9  1  0.17444504  0.28868281  0.36087954  1
  H  H10  1  0.99965284  0.73129006  0.64249707  1
  H  H11  1  0.49965284  0.23129006  0.85750293  1
  H  H12  1  0.67444504  0.78868281  0.13912046  1
  H  H13  1  0.17444504  0.21131719  0.86087954  1
  H  H14  1  0.67444504  0.71131719  0.63912046  1
  H  H15  1  0.49965284  0.26870994  0.35750293  1
  Li  Li16  1  0.85459571  0.18681160  0.49901950  1
  Li  Li17  1  0.35459571  0.68681160  0.00098050  1
  Li  Li18  1  0.85459571  0.31318840  0.99901950  1
  Li  Li19  1  0.35459571  0.81318840  0.50098050  1
  N  N20  1  0.32779316  0.19740749  0.33609998  1
  N  N21  1  0.82779316  0.69740749  0.16390002  1
  N  N22  1  0.82779316  0.80259251  0.66390002  1
  N  N23  1  0.32779316  0.30259251  0.83609998  1
  O  O24  1  0.25088709  0.19598486  0.68376366  1
  O  O25  1  0.30294978  0.89103855  0.09433079  1
  O  O26  1  0.80294978  0.10896145  0.90566921  1
  O  O27  1  0.30294978  0.60896145  0.59433079  1
  O  O28  1  0.75088709  0.80401514  0.31623634  1
  O  O29  1  0.80294978  0.39103855  0.40566921  1
  O  O30  1  0.75088709  0.69598486  0.81623634  1
  O  O31  1  0.25088709  0.30401514  0.18376366  1
  O  O32  1  0.68294182  0.23351067  0.09593933  1
  O  O33  1  0.22466325  0.15264098  0.52814309  1
  O  O34  1  0.72466325  0.84735902  0.47185691  1
  O  O35  1  0.22466325  0.34735902  0.02814309  1
  O  O36  1  0.18294182  0.73351067  0.40406067  1
  O  O37  1  0.68294182  0.26648933  0.59593933  1
  O  O38  1  0.18294182  0.76648933  0.90406067  1
  O  O39  1  0.72466325  0.65264098  0.97185691  1
  Se  Se40  1  0.86175617  0.69569277  0.39836722  1
  Se  Se41  1  0.36175617  0.30430723  0.60163278  1
  Se  Se42  1  0.86175617  0.80430723  0.89836722  1
  Se  Se43  1  0.36175617  0.19569277  0.10163278  1
