# generated using pymatgen
data_LiVF4
_symmetry_space_group_name_H-M   'P 1'
_cell_length_a   6.81820674
_cell_length_b   5.66974008
_cell_length_c   5.66974049
_cell_angle_alpha   70.21317140
_cell_angle_beta   52.72834424
_cell_angle_gamma   52.72833627
_symmetry_Int_Tables_number   1
_chemical_formula_structural   LiVF4
_chemical_formula_sum   'Li2 V2 F8'
_cell_volume   138.65746710
_cell_formula_units_Z   2
loop_
 _symmetry_equiv_pos_site_id
 _symmetry_equiv_pos_as_xyz
  1  'x, y, z'
loop_
 _atom_site_type_symbol
 _atom_site_label
 _atom_site_symmetry_multiplicity
 _atom_site_fract_x
 _atom_site_fract_y
 _atom_site_fract_z
 _atom_site_occupancy
  Li  Li0  1  0.25000000  0.24997857  0.75002143  1
  Li  Li1  1  0.75000000  0.75002143  0.24997857  1
  V  V2  1  0.00000000  0.00000000  0.50000000  1
  V  V3  1  0.50000000  0.50000000  0.00000000  1
  F  F4  1  0.06383420  0.74808506  0.24550424  1
  F  F5  1  0.00104577  0.70553286  0.79251050  1
  F  F6  1  0.49895423  0.20748950  0.29446714  1
  F  F7  1  0.43616580  0.75449576  0.25191494  1
  F  F8  1  0.56383420  0.24550424  0.74808506  1
  F  F9  1  0.50104577  0.79251050  0.70553286  1
  F  F10  1  0.99895423  0.29446714  0.20748950  1
  F  F11  1  0.93616580  0.25191494  0.75449576  1
