# generated using pymatgen
data_NaCo2BiO6
_symmetry_space_group_name_H-M   'P 1'
_cell_length_a   11.26589032
_cell_length_b   11.26588955
_cell_length_c   11.26589087
_cell_angle_alpha   56.82029716
_cell_angle_beta   56.82030191
_cell_angle_gamma   56.82029970
_symmetry_Int_Tables_number   1
_chemical_formula_structural   NaCo2BiO6
_chemical_formula_sum   'Na8 Co16 Bi8 O48'
_cell_volume   936.87707361
_cell_formula_units_Z   8
loop_
 _symmetry_equiv_pos_site_id
 _symmetry_equiv_pos_as_xyz
  1  'x, y, z'
loop_
 _atom_site_type_symbol
 _atom_site_label
 _atom_site_symmetry_multiplicity
 _atom_site_fract_x
 _atom_site_fract_y
 _atom_site_fract_z
 _atom_site_occupancy
  Na  Na0  1  0.14113695  0.14113695  0.14113695  1
  Na  Na1  1  0.14113695  0.14113695  0.64113695  1
  Na  Na2  1  0.14113695  0.64113695  0.14113695  1
  Na  Na3  1  0.14113695  0.64113695  0.64113695  1
  Na  Na4  1  0.64113695  0.14113695  0.14113695  1
  Na  Na5  1  0.64113695  0.14113695  0.64113695  1
  Na  Na6  1  0.64113695  0.64113695  0.14113695  1
  Na  Na7  1  0.64113695  0.64113695  0.64113695  1
  Co  Co8  1  0.00513496  0.00513496  0.00513496  1
  Co  Co9  1  0.00513496  0.00513496  0.50513496  1
  Co  Co10  1  0.00513496  0.50513496  0.00513496  1
  Co  Co11  1  0.00513496  0.50513496  0.50513496  1
  Co  Co12  1  0.50513496  0.00513496  0.00513496  1
  Co  Co13  1  0.50513496  0.00513496  0.50513496  1
  Co  Co14  1  0.50513496  0.50513496  0.00513496  1
  Co  Co15  1  0.50513496  0.50513496  0.50513496  1
  Co  Co16  1  0.25522969  0.25522969  0.25522969  1
  Co  Co17  1  0.25522969  0.25522969  0.75522969  1
  Co  Co18  1  0.25522969  0.75522969  0.25522969  1
  Co  Co19  1  0.25522969  0.75522969  0.75522969  1
  Co  Co20  1  0.75522969  0.25522969  0.25522969  1
  Co  Co21  1  0.75522969  0.25522969  0.75522969  1
  Co  Co22  1  0.75522969  0.75522969  0.25522969  1
  Co  Co23  1  0.75522969  0.75522969  0.75522969  1
  Bi  Bi24  1  0.39891332  0.39891332  0.39891332  1
  Bi  Bi25  1  0.39891332  0.39891332  0.89891332  1
  Bi  Bi26  1  0.39891332  0.89891332  0.39891332  1
  Bi  Bi27  1  0.39891332  0.89891332  0.89891332  1
  Bi  Bi28  1  0.89891332  0.39891332  0.39891332  1
  Bi  Bi29  1  0.89891332  0.39891332  0.89891332  1
  Bi  Bi30  1  0.89891332  0.89891332  0.39891332  1
  Bi  Bi31  1  0.89891332  0.89891332  0.89891332  1
  O  O32  1  0.06333346  0.18839657  0.36892681  1
  O  O33  1  0.06333346  0.18839657  0.86892681  1
  O  O34  1  0.06333346  0.68839657  0.36892681  1
  O  O35  1  0.06333346  0.68839657  0.86892681  1
  O  O36  1  0.56333346  0.18839657  0.36892681  1
  O  O37  1  0.56333346  0.18839657  0.86892681  1
  O  O38  1  0.56333346  0.68839657  0.36892681  1
  O  O39  1  0.56333346  0.68839657  0.86892681  1
  O  O40  1  0.18839657  0.36892681  0.06333346  1
  O  O41  1  0.18839657  0.36892681  0.56333346  1
  O  O42  1  0.18839657  0.86892681  0.06333346  1
  O  O43  1  0.18839657  0.86892681  0.56333346  1
  O  O44  1  0.68839657  0.36892681  0.06333346  1
  O  O45  1  0.68839657  0.36892681  0.56333346  1
  O  O46  1  0.68839657  0.86892681  0.06333346  1
  O  O47  1  0.68839657  0.86892681  0.56333346  1
  O  O48  1  0.36892681  0.06333346  0.18839657  1
  O  O49  1  0.36892681  0.06333346  0.68839657  1
  O  O50  1  0.36892681  0.56333346  0.18839657  1
  O  O51  1  0.36892681  0.56333346  0.68839657  1
  O  O52  1  0.86892681  0.06333346  0.18839657  1
  O  O53  1  0.86892681  0.06333346  0.68839657  1
  O  O54  1  0.86892681  0.56333346  0.18839657  1
  O  O55  1  0.86892681  0.56333346  0.68839657  1
  O  O56  1  0.11503749  0.41466933  0.33212142  1
  O  O57  1  0.11503749  0.41466933  0.83212142  1
  O  O58  1  0.11503749  0.91466933  0.33212142  1
  O  O59  1  0.11503749  0.91466933  0.83212142  1
  O  O60  1  0.61503749  0.41466933  0.33212142  1
  O  O61  1  0.61503749  0.41466933  0.83212142  1
  O  O62  1  0.61503749  0.91466933  0.33212142  1
  O  O63  1  0.61503749  0.91466933  0.83212142  1
  O  O64  1  0.33212142  0.11503749  0.41466933  1
  O  O65  1  0.33212142  0.11503749  0.91466933  1
  O  O66  1  0.33212142  0.61503749  0.41466933  1
  O  O67  1  0.33212142  0.61503749  0.91466933  1
  O  O68  1  0.83212142  0.11503749  0.41466933  1
  O  O69  1  0.83212142  0.11503749  0.91466933  1
  O  O70  1  0.83212142  0.61503749  0.41466933  1
  O  O71  1  0.83212142  0.61503749  0.91466933  1
  O  O72  1  0.41466933  0.33212142  0.11503749  1
  O  O73  1  0.41466933  0.33212142  0.61503749  1
  O  O74  1  0.41466933  0.83212142  0.11503749  1
  O  O75  1  0.41466933  0.83212142  0.61503749  1
  O  O76  1  0.91466933  0.33212142  0.11503749  1
  O  O77  1  0.91466933  0.33212142  0.61503749  1
  O  O78  1  0.91466933  0.83212142  0.11503749  1
  O  O79  1  0.91466933  0.83212142  0.61503749  1
