# generated using pymatgen
data_LiMgCr3(SO4)6
_symmetry_space_group_name_H-M   'P 1'
_cell_length_a   8.31506428
_cell_length_b   8.87946842
_cell_length_c   8.32632132
_cell_angle_alpha   117.82094279
_cell_angle_beta   60.40044112
_cell_angle_gamma   117.65824806
_symmetry_Int_Tables_number   1
_chemical_formula_structural   LiMgCr3(SO4)6
_chemical_formula_sum   'Li1 Mg1 Cr3 S6 O24'
_cell_volume   450.39258546
_cell_formula_units_Z   1
loop_
 _symmetry_equiv_pos_site_id
 _symmetry_equiv_pos_as_xyz
  1  'x, y, z'
loop_
 _atom_site_type_symbol
 _atom_site_label
 _atom_site_symmetry_multiplicity
 _atom_site_fract_x
 _atom_site_fract_y
 _atom_site_fract_z
 _atom_site_occupancy
  Li  Li0  1  0.76287385  0.37133467  0.42380670  1
  Mg  Mg1  1  0.16161400  0.45009816  0.14232175  1
  Cr  Cr2  1  0.35266156  0.06061921  0.35012740  1
  Cr  Cr3  1  0.64299373  0.93095468  0.64481504  1
  Cr  Cr4  1  0.85116735  0.55115522  0.85301578  1
  S  S5  1  0.03649208  0.25060291  0.46859683  1
  S  S6  1  0.53977082  0.74969899  0.25357886  1
  S  S7  1  0.25430370  0.74923367  0.95494309  1
  S  S8  1  0.74821673  0.25075717  0.03754380  1
  S  S9  1  0.46401373  0.24686757  0.74369639  1
  S  S10  1  0.95620183  0.74963686  0.54286493  1
  O  O11  1  0.30152465  0.92390128  0.10420971  1
  O  O12  1  0.10775153  0.91654075  0.50770223  1
  O  O13  1  0.00435166  0.29731214  0.33945374  1
  O  O14  1  0.02432439  0.39557942  0.65872544  1
  O  O15  1  0.35234685  0.61006361  0.28271239  1
  O  O16  1  0.04891875  0.70909838  0.98252507  1
  O  O17  1  0.51746529  0.92465201  0.29992330  1
  O  O18  1  0.23281311  0.23102341  0.37871587  1
  O  O19  1  0.67646337  0.70696562  0.04923559  1
  O  O20  1  0.38156837  0.77116338  0.75961413  1
  O  O21  1  0.63007101  0.77202852  0.38235931  1
  O  O22  1  0.28297595  0.60846409  0.97328676  1
  O  O23  1  0.71388610  0.39442307  0.02412992  1
  O  O24  1  0.38609444  0.23114642  0.60780090  1
  O  O25  1  0.61723335  0.23471733  0.23918603  1
  O  O26  1  0.33690524  0.29512862  0.94422787  1
  O  O27  1  0.76108868  0.77235175  0.63104572  1
  O  O28  1  0.49295193  0.07632944  0.69094400  1
  O  O29  1  0.94766186  0.29548790  0.01936700  1
  O  O30  1  0.65953480  0.39213223  0.70681633  1
  O  O31  1  0.96330198  0.59737963  0.36019488  1
  O  O32  1  0.98310813  0.71073960  0.68145369  1
  O  O33  1  0.89066162  0.07897264  0.49589048  1
  O  O34  1  0.69088258  0.07784268  0.89616706  1
