# generated using pymatgen
data_MoH8S2(NO)2
_symmetry_space_group_name_H-M   'P 1'
_cell_length_a   6.85886922
_cell_length_b   6.85886921
_cell_length_c   9.42672157
_cell_angle_alpha   93.37695620
_cell_angle_beta   110.60528257
_cell_angle_gamma   115.80806563
_symmetry_Int_Tables_number   1
_chemical_formula_structural   MoH8S2(NO)2
_chemical_formula_sum   'Mo2 H16 S4 N4 O4'
_cell_volume   361.66462709
_cell_formula_units_Z   2
loop_
 _symmetry_equiv_pos_site_id
 _symmetry_equiv_pos_as_xyz
  1  'x, y, z'
loop_
 _atom_site_type_symbol
 _atom_site_label
 _atom_site_symmetry_multiplicity
 _atom_site_fract_x
 _atom_site_fract_y
 _atom_site_fract_z
 _atom_site_occupancy
  H  H0  1  0.20262605  0.14947228  0.81198847  1
  H  H1  1  0.33748381  0.89063758  0.68801153  1
  H  H2  1  0.79737395  0.85052772  0.18801153  1
  H  H3  1  0.66251619  0.10936242  0.31198847  1
  H  H4  1  0.85045899  0.78763390  0.03420564  1
  H  H5  1  0.75342826  0.31625335  0.46579436  1
  H  H6  1  0.14954101  0.21236610  0.96579436  1
  H  H7  1  0.24657174  0.68374665  0.53420564  1
  H  H8  1  0.84860143  0.38021696  0.32191137  1
  H  H9  1  0.05830560  0.02669006  0.17808863  1
  H  H10  1  0.15139857  0.61978304  0.67808863  1
  H  H11  1  0.94169440  0.97330994  0.82191137  1
  H  H12  1  0.44501728  0.71039174  0.71607810  1
  H  H13  1  0.99431364  0.22893918  0.78392190  1
  H  H14  1  0.00568636  0.77106082  0.21607810  1
  H  H15  1  0.55498272  0.28960826  0.28392190  1
  N  N16  1  0.07130471  0.14026548  0.84538228  1
  N  N17  1  0.29488321  0.72592244  0.65461772  1
  N  N18  1  0.92869529  0.85973452  0.15461772  1
  N  N19  1  0.70511679  0.27407756  0.34538228  1
  O  O20  1  0.87674332  0.40630020  0.67981687  1
  O  O21  1  0.72648333  0.69692645  0.82018313  1
  O  O22  1  0.12325668  0.59369980  0.32018313  1
  O  O23  1  0.27351667  0.30307355  0.17981687  1
  S  S24  1  0.66617111  0.24324079  0.94034209  1
  S  S25  1  0.30289870  0.22582901  0.55965791  1
  S  S26  1  0.33382889  0.75675921  0.05965791  1
  S  S27  1  0.69710130  0.77417099  0.44034209  1
  Mo  Mo28  1  0.66553384  0.41553384  0.75000000  1
  Mo  Mo29  1  0.33446616  0.58446616  0.25000000  1
