# generated using pymatgen
data_Ba2YCl7
_symmetry_space_group_name_H-M   'P 1'
_cell_length_a   10.66335994
_cell_length_b   15.75084365
_cell_length_c   6.92948645
_cell_angle_alpha   90.00000000
_cell_angle_beta   90.72569087
_cell_angle_gamma   90.00000000
_symmetry_Int_Tables_number   1
_chemical_formula_structural   Ba2YCl7
_chemical_formula_sum   'Ba8 Y4 Cl28'
_cell_volume   1163.76181645
_cell_formula_units_Z   4
loop_
 _symmetry_equiv_pos_site_id
 _symmetry_equiv_pos_as_xyz
  1  'x, y, z'
loop_
 _atom_site_type_symbol
 _atom_site_label
 _atom_site_symmetry_multiplicity
 _atom_site_fract_x
 _atom_site_fract_y
 _atom_site_fract_z
 _atom_site_occupancy
  Ba  Ba0  1  0.04907919  0.22018559  0.26538896  1
  Ba  Ba1  1  0.17635071  0.56079588  0.26581352  1
  Ba  Ba2  1  0.32364929  0.06079588  0.73418648  1
  Ba  Ba3  1  0.45092081  0.72018559  0.73461104  1
  Ba  Ba4  1  0.54907919  0.27981441  0.26538896  1
  Ba  Ba5  1  0.67635071  0.93920412  0.26581352  1
  Ba  Ba6  1  0.82364929  0.43920412  0.73418648  1
  Ba  Ba7  1  0.95092081  0.77981441  0.73461104  1
  Y  Y8  1  0.21799509  0.87311527  0.21723505  1
  Y  Y9  1  0.28200491  0.37311527  0.78276495  1
  Y  Y10  1  0.71799509  0.62688473  0.21723505  1
  Y  Y11  1  0.78200491  0.12688473  0.78276495  1
  Cl  Cl12  1  0.02812089  0.13974862  0.70879705  1
  Cl  Cl13  1  0.07140573  0.39564290  0.00008046  1
  Cl  Cl14  1  0.08602730  0.39516353  0.51307633  1
  Cl  Cl15  1  0.12389553  0.92914735  0.87102110  1
  Cl  Cl16  1  0.19816126  0.74275215  0.48852205  1
  Cl  Cl17  1  0.20528349  0.72777366  0.00122996  1
  Cl  Cl18  1  0.21303213  0.04012136  0.29498768  1
  Cl  Cl19  1  0.28696787  0.54012136  0.70501232  1
  Cl  Cl20  1  0.29471651  0.22777366  0.99877004  1
  Cl  Cl21  1  0.30183874  0.24275215  0.51147795  1
  Cl  Cl22  1  0.37610447  0.42914735  0.12897890  1
  Cl  Cl23  1  0.41397270  0.89516353  0.48692367  1
  Cl  Cl24  1  0.42859427  0.89564290  0.99991954  1
  Cl  Cl25  1  0.47187911  0.63974862  0.29120295  1
  Cl  Cl26  1  0.52812089  0.36025138  0.70879705  1
  Cl  Cl27  1  0.57140573  0.10435710  0.00008046  1
  Cl  Cl28  1  0.58602730  0.10483647  0.51307633  1
  Cl  Cl29  1  0.62389553  0.57085265  0.87102110  1
  Cl  Cl30  1  0.69816126  0.75724785  0.48852205  1
  Cl  Cl31  1  0.70528349  0.77222634  0.00122996  1
  Cl  Cl32  1  0.71303213  0.45987864  0.29498768  1
  Cl  Cl33  1  0.78696787  0.95987864  0.70501232  1
  Cl  Cl34  1  0.79471651  0.27222634  0.99877004  1
  Cl  Cl35  1  0.80183874  0.25724785  0.51147795  1
  Cl  Cl36  1  0.87610447  0.07085265  0.12897890  1
  Cl  Cl37  1  0.91397270  0.60483647  0.48692367  1
  Cl  Cl38  1  0.92859427  0.60435710  0.99991954  1
  Cl  Cl39  1  0.97187911  0.86025138  0.29120295  1
