# generated using pymatgen
data_NaMnPCO7
_symmetry_space_group_name_H-M   'P 1'
_cell_length_a   9.09052436
_cell_length_b   6.25284197
_cell_length_c   10.47371026
_cell_angle_alpha   89.76634813
_cell_angle_beta   88.02614557
_cell_angle_gamma   91.34054967
_symmetry_Int_Tables_number   1
_chemical_formula_structural   NaMnPCO7
_chemical_formula_sum   'Na4 Mn4 P4 C4 O28'
_cell_volume   594.81937688
_cell_formula_units_Z   4
loop_
 _symmetry_equiv_pos_site_id
 _symmetry_equiv_pos_as_xyz
  1  'x, y, z'
loop_
 _atom_site_type_symbol
 _atom_site_label
 _atom_site_symmetry_multiplicity
 _atom_site_fract_x
 _atom_site_fract_y
 _atom_site_fract_z
 _atom_site_occupancy
  Na  Na0  1  0.24071592  0.46729087  0.62377125  1
  Na  Na1  1  0.24141246  0.02863769  0.12310927  1
  Na  Na2  1  0.75969705  0.97423753  0.88042263  1
  Na  Na3  1  0.76071507  0.97497639  0.37833494  1
  Mn  Mn4  1  0.34215062  0.74828304  0.89121792  1
  Mn  Mn5  1  0.34204288  0.75167449  0.39096879  1
  Mn  Mn6  1  0.65783098  0.26046909  0.60842425  1
  Mn  Mn7  1  0.65829840  0.26456345  0.10848592  1
  P  P8  1  0.43306271  0.25106319  0.85853626  1
  P  P9  1  0.43265059  0.25106985  0.35841741  1
  P  P10  1  0.56748428  0.75328766  0.64109481  1
  P  P11  1  0.56740276  0.75624592  0.14108867  1
  C  C12  1  0.07648463  0.74568500  0.86554145  1
  C  C13  1  0.07618328  0.74015589  0.36530585  1
  C  C14  1  0.92250257  0.24436946  0.63476752  1
  C  C15  1  0.92366452  0.25820787  0.13474935  1
  O  O16  1  0.05605948  0.23195753  0.65006001  1
  O  O17  1  0.05728373  0.25352737  0.14991861  1
  O  O18  1  0.14095218  0.75046762  0.97628262  1
  O  O19  1  0.14102197  0.73396897  0.47597172  1
  O  O20  1  0.17685636  0.74064138  0.77068256  1
  O  O21  1  0.17675800  0.74561103  0.27028964  1
  O  O22  1  0.33009797  0.05634204  0.89589314  1
  O  O23  1  0.33203729  0.44266666  0.88675207  1
  O  O24  1  0.32576087  0.05642250  0.38462664  1
  O  O25  1  0.33577652  0.44276775  0.39719975  1
  O  O26  1  0.47415763  0.25078835  0.71271497  1
  O  O27  1  0.42504086  0.74550319  0.56573189  1
  O  O28  1  0.47448206  0.25320553  0.21269311  1
  O  O29  1  0.42504838  0.75790843  0.06573480  1
  O  O30  1  0.57509668  0.25002933  0.93434757  1
  O  O31  1  0.52656885  0.76231856  0.78687932  1
  O  O32  1  0.57415201  0.24177374  0.43456097  1
  O  O33  1  0.52655731  0.76318966  0.28688825  1
  O  O34  1  0.66904360  0.56342968  0.61030230  1
  O  O35  1  0.66942472  0.94945511  0.60511423  1
  O  O36  1  0.66769954  0.56686795  0.10809699  1
  O  O37  1  0.67100237  0.95277007  0.10717447  1
  O  O38  1  0.82185160  0.24980206  0.72951051  1
  O  O39  1  0.82262543  0.26026084  0.22951628  1
  O  O40  1  0.85874467  0.25388944  0.52376438  1
  O  O41  1  0.85920580  0.26060139  0.02377453  1
  O  O42  1  0.94213768  0.74604497  0.85059229  1
  O  O43  1  0.94225971  0.74337446  0.35068908  1
