# generated using pymatgen
data_Na3CrPCO7
_symmetry_space_group_name_H-M   'P 1'
_cell_length_a   9.16395334
_cell_length_b   6.66118174
_cell_length_c   5.30382022
_cell_angle_alpha   90.00000000
_cell_angle_beta   87.97202223
_cell_angle_gamma   90.00000000
_symmetry_Int_Tables_number   1
_chemical_formula_structural   Na3CrPCO7
_chemical_formula_sum   'Na6 Cr2 P2 C2 O14'
_cell_volume   323.55703617
_cell_formula_units_Z   2
loop_
 _symmetry_equiv_pos_site_id
 _symmetry_equiv_pos_as_xyz
  1  'x, y, z'
loop_
 _atom_site_type_symbol
 _atom_site_label
 _atom_site_symmetry_multiplicity
 _atom_site_fract_x
 _atom_site_fract_y
 _atom_site_fract_z
 _atom_site_occupancy
  Na  Na0  1  0.08390205  0.25000000  0.77165980  1
  Na  Na1  1  0.26335678  0.00326121  0.24627814  1
  Na  Na2  1  0.26335678  0.49673879  0.24627814  1
  Na  Na3  1  0.73664322  0.50326121  0.75372186  1
  Na  Na4  1  0.73664322  0.99673879  0.75372186  1
  Na  Na5  1  0.91609795  0.75000000  0.22834020  1
  Cr  Cr6  1  0.35441165  0.75000000  0.76960184  1
  Cr  Cr7  1  0.64558835  0.25000000  0.23039816  1
  P  P8  1  0.41759487  0.25000000  0.69290414  1
  P  P9  1  0.58240513  0.75000000  0.30709586  1
  C  C10  1  0.05617225  0.75000000  0.72085526  1
  C  C11  1  0.94382775  0.25000000  0.27914474  1
  O  O12  1  0.08478843  0.25000000  0.25210714  1
  O  O13  1  0.13508444  0.75000000  0.92270596  1
  O  O14  1  0.12042609  0.75000000  0.49897300  1
  O  O15  1  0.32326457  0.06383018  0.77358963  1
  O  O16  1  0.32326457  0.43616982  0.77358963  1
  O  O17  1  0.43691703  0.25000000  0.39806301  1
  O  O18  1  0.43165290  0.75000000  0.18845882  1
  O  O19  1  0.56834710  0.25000000  0.81154118  1
  O  O20  1  0.56308297  0.75000000  0.60193699  1
  O  O21  1  0.67673543  0.56383018  0.22641037  1
  O  O22  1  0.67673543  0.93616982  0.22641037  1
  O  O23  1  0.87957391  0.25000000  0.50102700  1
  O  O24  1  0.86491556  0.25000000  0.07729404  1
  O  O25  1  0.91521157  0.75000000  0.74789286  1
