# generated using pymatgen
data_Na3Mn2P2(CO7)2
_symmetry_space_group_name_H-M   'P 1'
_cell_length_a   18.00799986
_cell_length_b   6.58301959
_cell_length_c   5.21451800
_cell_angle_alpha   90.00000000
_cell_angle_beta   88.28987231
_cell_angle_gamma   90.00000000
_symmetry_Int_Tables_number   1
_chemical_formula_structural   Na3Mn2P2(CO7)2
_chemical_formula_sum   'Na6 Mn4 P4 C4 O28'
_cell_volume   617.89021764
_cell_formula_units_Z   2
loop_
 _symmetry_equiv_pos_site_id
 _symmetry_equiv_pos_as_xyz
  1  'x, y, z'
loop_
 _atom_site_type_symbol
 _atom_site_label
 _atom_site_symmetry_multiplicity
 _atom_site_fract_x
 _atom_site_fract_y
 _atom_site_fract_z
 _atom_site_occupancy
  Na  Na0  1  0.12149014  0.02286007  0.24333475  1
  Na  Na1  1  0.37930301  0.50772106  0.75681355  1
  Na  Na2  1  0.38182122  0.98820043  0.75520226  1
  Na  Na3  1  0.62149014  0.47713993  0.24333475  1
  Na  Na4  1  0.88182122  0.51179957  0.75520226  1
  Na  Na5  1  0.87930301  0.99227894  0.75681355  1
  Mn  Mn6  1  0.17222686  0.73988948  0.78726148  1
  Mn  Mn7  1  0.32452770  0.24507748  0.21778369  1
  Mn  Mn8  1  0.67222686  0.76011052  0.78726148  1
  Mn  Mn9  1  0.82452770  0.25492252  0.21778369  1
  P  P10  1  0.21230598  0.24600973  0.71534968  1
  P  P11  1  0.28555290  0.74770479  0.28365478  1
  P  P12  1  0.71230598  0.25399027  0.71534968  1
  P  P13  1  0.78555290  0.75229521  0.28365478  1
  C  C14  1  0.03892829  0.75289992  0.72989127  1
  C  C15  1  0.46043958  0.24961603  0.26877074  1
  C  C16  1  0.53892829  0.74710008  0.72989127  1
  C  C17  1  0.96043958  0.25038397  0.26877074  1
  O  O18  1  0.02783587  0.24725402  0.29293136  1
  O  O19  1  0.07018415  0.74992301  0.95379650  1
  O  O20  1  0.08855513  0.75124585  0.53965772  1
  O  O21  1  0.16383218  0.05934692  0.78646152  1
  O  O22  1  0.16586643  0.43471287  0.78022840  1
  O  O23  1  0.23321269  0.23565238  0.42174112  1
  O  O24  1  0.21271282  0.75788420  0.13727456  1
  O  O25  1  0.28726468  0.24434746  0.85914876  1
  O  O26  1  0.26759567  0.74725017  0.58064635  1
  O  O27  1  0.33308727  0.55898679  0.21265651  1
  O  O28  1  0.33656184  0.93162982  0.21816138  1
  O  O29  1  0.41065652  0.24825643  0.46325827  1
  O  O30  1  0.42614448  0.24809224  0.04668233  1
  O  O31  1  0.47032159  0.74365531  0.70071401  1
  O  O32  1  0.52783587  0.25274598  0.29293136  1
  O  O33  1  0.57018415  0.75007699  0.95379650  1
  O  O34  1  0.58855513  0.74875415  0.53965772  1
  O  O35  1  0.66586643  0.06528713  0.78022840  1
  O  O36  1  0.66383218  0.44065308  0.78646152  1
  O  O37  1  0.73321269  0.26434862  0.42174112  1
  O  O38  1  0.71271282  0.74211580  0.13727456  1
  O  O39  1  0.78726468  0.25565254  0.85914876  1
  O  O40  1  0.76759567  0.75274983  0.58064635  1
  O  O41  1  0.83656184  0.56837018  0.21816138  1
  O  O42  1  0.83308727  0.94101321  0.21265651  1
  O  O43  1  0.91065652  0.25174357  0.46325827  1
  O  O44  1  0.92614448  0.25190776  0.04668233  1
  O  O45  1  0.97032159  0.75634469  0.70071401  1
