# generated using pymatgen
data_Sr(IO3)2
_symmetry_space_group_name_H-M   'P 1'
_cell_length_a   6.21067673
_cell_length_b   18.12898924
_cell_length_c   6.04189654
_cell_angle_alpha   90.00000000
_cell_angle_beta   90.00000000
_cell_angle_gamma   90.00000000
_symmetry_Int_Tables_number   1
_chemical_formula_structural   Sr(IO3)2
_chemical_formula_sum   'Sr4 I8 O24'
_cell_volume   680.27701901
_cell_formula_units_Z   4
loop_
 _symmetry_equiv_pos_site_id
 _symmetry_equiv_pos_as_xyz
  1  'x, y, z'
loop_
 _atom_site_type_symbol
 _atom_site_label
 _atom_site_symmetry_multiplicity
 _atom_site_fract_x
 _atom_site_fract_y
 _atom_site_fract_z
 _atom_site_occupancy
  Sr  Sr0  1  0.17171306  0.09597223  0.70951329  1
  Sr  Sr1  1  0.32828694  0.90402777  0.20951329  1
  Sr  Sr2  1  0.67171306  0.40402777  0.29048671  1
  Sr  Sr3  1  0.82828694  0.59597223  0.79048671  1
  I  I4  1  0.13559403  0.42107217  0.97104185  1
  I  I5  1  0.21172052  0.20979008  0.25318697  1
  I  I6  1  0.28827948  0.79020992  0.75318697  1
  I  I7  1  0.36440597  0.57892783  0.47104185  1
  I  I8  1  0.63559403  0.07892783  0.02895815  1
  I  I9  1  0.71172052  0.29020992  0.74681303  1
  I  I10  1  0.78827948  0.70979008  0.24681303  1
  I  I11  1  0.86440597  0.92107217  0.52895815  1
  O  O12  1  0.01518684  0.33937581  0.10725003  1
  O  O13  1  0.02678778  0.16642659  0.05287427  1
  O  O14  1  0.03735233  0.21128369  0.49920286  1
  O  O15  1  0.09196147  0.98345037  0.46925036  1
  O  O16  1  0.13154472  0.87209982  0.84241068  1
  O  O17  1  0.19408897  0.54687817  0.70181116  1
  O  O18  1  0.30591103  0.45312183  0.20181116  1
  O  O19  1  0.36845528  0.12790018  0.34241068  1
  O  O20  1  0.40803853  0.01654963  0.96925036  1
  O  O21  1  0.46264767  0.78871631  0.99920286  1
  O  O22  1  0.47321222  0.83357341  0.55287427  1
  O  O23  1  0.48481316  0.66062419  0.60725003  1
  O  O24  1  0.51518684  0.16062419  0.89274997  1
  O  O25  1  0.52678778  0.33357341  0.94712573  1
  O  O26  1  0.53735233  0.28871631  0.50079714  1
  O  O27  1  0.59196147  0.51654963  0.53074964  1
  O  O28  1  0.63154472  0.62790018  0.15758932  1
  O  O29  1  0.69408897  0.95312183  0.29818884  1
  O  O30  1  0.80591103  0.04687817  0.79818884  1
  O  O31  1  0.86845528  0.37209982  0.65758932  1
  O  O32  1  0.90803853  0.48345037  0.03074964  1
  O  O33  1  0.96264767  0.71128369  0.00079714  1
  O  O34  1  0.97321222  0.66642659  0.44712573  1
  O  O35  1  0.98481316  0.83937581  0.39274997  1
