# generated using pymatgen
data_NaMnPCO7
_symmetry_space_group_name_H-M   'P 1'
_cell_length_a   9.11439009
_cell_length_b   8.13385488
_cell_length_c   8.15830805
_cell_angle_alpha   100.40872429
_cell_angle_beta   89.73613495
_cell_angle_gamma   87.46272558
_symmetry_Int_Tables_number   1
_chemical_formula_structural   NaMnPCO7
_chemical_formula_sum   'Na4 Mn4 P4 C4 O28'
_cell_volume   594.23223365
_cell_formula_units_Z   4
loop_
 _symmetry_equiv_pos_site_id
 _symmetry_equiv_pos_as_xyz
  1  'x, y, z'
loop_
 _atom_site_type_symbol
 _atom_site_label
 _atom_site_symmetry_multiplicity
 _atom_site_fract_x
 _atom_site_fract_y
 _atom_site_fract_z
 _atom_site_occupancy
  Na  Na0  1  0.75523412  0.60380028  0.14988367  1
  Na  Na1  1  0.75459327  0.89752799  0.85669415  1
  Na  Na2  1  0.23891583  0.10502617  0.13382192  1
  Na  Na3  1  0.23776464  0.60564984  0.63464732  1
  Mn  Mn4  1  0.66000860  0.47711011  0.72748736  1
  Mn  Mn5  1  0.65603249  0.98894349  0.23905524  1
  Mn  Mn6  1  0.34288614  0.52330195  0.26190519  1
  Mn  Mn7  1  0.34215806  0.02467756  0.75981032  1
  P  P8  1  0.56610184  0.26713581  0.01412048  1
  P  P9  1  0.56646127  0.76509471  0.51634580  1
  P  P10  1  0.43339797  0.23932045  0.48376025  1
  P  P11  1  0.43444012  0.73514825  0.97911351  1
  C  C12  1  0.92058681  0.00621646  0.26389048  1
  C  C13  1  0.92220344  0.50797217  0.76544328  1
  C  C14  1  0.08052247  0.48767195  0.24089367  1
  C  C15  1  0.07909184  0.99246956  0.73655837  1
  O  O16  1  0.94817721  0.46555484  0.23157147  1
  O  O17  1  0.94653908  0.97366176  0.72488088  1
  O  O18  1  0.86138378  0.39498753  0.65460724  1
  O  O19  1  0.85367565  0.89354694  0.15294501  1
  O  O20  1  0.82149710  0.10168106  0.35965737  1
  O  O21  1  0.81735693  0.60234651  0.86007189  1
  O  O22  1  0.66837526  0.13217739  0.07539861  1
  O  O23  1  0.67451211  0.64137930  0.58451811  1
  O  O24  1  0.66750988  0.33225125  0.89014006  1
  O  O25  1  0.66121790  0.82286984  0.38044850  1
  O  O26  1  0.52484996  0.41321174  0.16106427  1
  O  O27  1  0.57421523  0.31171533  0.56067248  1
  O  O28  1  0.57807965  0.80846913  0.05551869  1
  O  O29  1  0.52468236  0.91315496  0.66106916  1
  O  O30  1  0.47343709  0.09728247  0.33211884  1
  O  O31  1  0.42486626  0.19058544  0.93875250  1
  O  O32  1  0.42550178  0.68463196  0.44485895  1
  O  O33  1  0.47497457  0.59354836  0.82853307  1
  O  O34  1  0.33125090  0.17558691  0.60839887  1
  O  O35  1  0.32981971  0.37218946  0.42105054  1
  O  O36  1  0.33549722  0.67490774  0.10883536  1
  O  O37  1  0.33260947  0.87131752  0.91944048  1
  O  O38  1  0.18296479  0.39549081  0.14400784  1
  O  O39  1  0.18146004  0.89906906  0.64036888  1
  O  O40  1  0.14276053  0.10664014  0.84636937  1
  O  O41  1  0.14322317  0.60521394  0.34762466  1
  O  O42  1  0.05446008  0.01883369  0.27343532  1
  O  O43  1  0.05470833  0.52852717  0.78230858  1
