# generated using pymatgen
data_Na2MnPCO7
_symmetry_space_group_name_H-M   'P 1'
_cell_length_a   8.98307974
_cell_length_b   13.36057443
_cell_length_c   5.24550230
_cell_angle_alpha   90.20608431
_cell_angle_beta   88.41208437
_cell_angle_gamma   90.16770711
_symmetry_Int_Tables_number   1
_chemical_formula_structural   Na2MnPCO7
_chemical_formula_sum   'Na8 Mn4 P4 C4 O28'
_cell_volume   629.31214358
_cell_formula_units_Z   4
loop_
 _symmetry_equiv_pos_site_id
 _symmetry_equiv_pos_as_xyz
  1  'x, y, z'
loop_
 _atom_site_type_symbol
 _atom_site_label
 _atom_site_symmetry_multiplicity
 _atom_site_fract_x
 _atom_site_fract_y
 _atom_site_fract_z
 _atom_site_occupancy
  Na  Na0  1  0.25010420  0.23056161  0.24104312  1
  Na  Na1  1  0.23835891  0.50508581  0.24411353  1
  Na  Na2  1  0.24946384  0.74760863  0.23988977  1
  Na  Na3  1  0.76004305  0.25440347  0.75825562  1
  Na  Na4  1  0.76126892  0.49782396  0.76010958  1
  Na  Na5  1  0.75180395  0.74962508  0.75144253  1
  Na  Na6  1  0.74818868  0.99854263  0.75103019  1
  Na  Na7  1  0.93499672  0.88806226  0.22826465  1
  Mn  Mn8  1  0.35151757  0.37450250  0.78396498  1
  Mn  Mn9  1  0.35298066  0.87914498  0.77673022  1
  Mn  Mn10  1  0.64780434  0.12579172  0.21572036  1
  Mn  Mn11  1  0.64405957  0.62557477  0.22755938  1
  P  P12  1  0.42332953  0.12149607  0.71182900  1
  P  P13  1  0.42127850  0.62966876  0.70765441  1
  P  P14  1  0.57480500  0.37743632  0.28624280  1
  P  P15  1  0.57951583  0.87220851  0.29936460  1
  C  C16  1  0.08012996  0.37418742  0.72936776  1
  C  C17  1  0.06560982  0.87137255  0.71982691  1
  C  C18  1  0.92597289  0.62478243  0.27623190  1
  C  C19  1  0.91919646  0.12668026  0.26877102  1
  O  O20  1  0.05536636  0.12577361  0.28785569  1
  O  O21  1  0.06575239  0.62830912  0.26296547  1
  O  O22  1  0.14922493  0.37464980  0.94861230  1
  O  O23  1  0.14466836  0.87460755  0.92804896  1
  O  O24  1  0.13488397  0.86583478  0.50550330  1
  O  O25  1  0.17466879  0.37307109  0.53355908  1
  O  O26  1  0.33484125  0.02471562  0.76512213  1
  O  O27  1  0.32795450  0.21266952  0.78645990  1
  O  O28  1  0.32625154  0.53840779  0.78254283  1
  O  O29  1  0.33379902  0.72702830  0.77317758  1
  O  O30  1  0.46592809  0.12909762  0.42046476  1
  O  O31  1  0.44999937  0.62779774  0.40691297  1
  O  O32  1  0.42284410  0.37575674  0.14976006  1
  O  O33  1  0.43324594  0.86840224  0.15990755  1
  O  O34  1  0.57292301  0.12225605  0.85848504  1
  O  O35  1  0.57437074  0.62822663  0.83674983  1
  O  O36  1  0.54101062  0.37568328  0.58374558  1
  O  O37  1  0.54881271  0.87662888  0.59862519  1
  O  O38  1  0.67162184  0.28754869  0.21016049  1
  O  O39  1  0.66285677  0.47420363  0.22108827  1
  O  O40  1  0.67904753  0.77771521  0.24642576  1
  O  O41  1  0.68171677  0.96171116  0.22627211  1
  O  O42  1  0.82118659  0.12698023  0.46340547  1
  O  O43  1  0.84480960  0.62226334  0.48386607  1
  O  O44  1  0.84985578  0.12434689  0.04776120  1
  O  O45  1  0.84683006  0.62539964  0.06439069  1
  O  O46  1  0.94162908  0.37496094  0.71524537  1
  O  O47  1  0.92191084  0.87534920  0.74546205  1
