# generated using pymatgen
data_Li4VCr3O8
_symmetry_space_group_name_H-M   'P 1'
_cell_length_a   5.15081403
_cell_length_b   5.97306713
_cell_length_c   5.15095331
_cell_angle_alpha   90.14904178
_cell_angle_beta   80.25641928
_cell_angle_gamma   73.10528392
_symmetry_Int_Tables_number   1
_chemical_formula_structural   Li4VCr3O8
_chemical_formula_sum   'Li4 V1 Cr3 O8'
_cell_volume   149.22249547
_cell_formula_units_Z   1
loop_
 _symmetry_equiv_pos_site_id
 _symmetry_equiv_pos_as_xyz
  1  'x, y, z'
loop_
 _atom_site_type_symbol
 _atom_site_label
 _atom_site_symmetry_multiplicity
 _atom_site_fract_x
 _atom_site_fract_y
 _atom_site_fract_z
 _atom_site_occupancy
  Li  Li0  1  0.99624405  0.00163060  0.00006310  1
  Li  Li1  1  0.00375246  0.24837534  0.49992134  1
  Li  Li2  1  0.99904190  0.49964947  0.00102506  1
  Li  Li3  1  0.00096057  0.75034884  0.49897127  1
  V  V4  1  0.49999690  0.62500150  0.75000467  1
  Cr  Cr5  1  0.49999774  0.12500456  0.74999506  1
  Cr  Cr6  1  0.49983635  0.37443603  0.25070561  1
  Cr  Cr7  1  0.50016659  0.87556022  0.24929801  1
  O  O8  1  0.27687912  0.18053850  0.12142213  1
  O  O9  1  0.72312664  0.06945811  0.37857858  1
  O  O10  1  0.27365316  0.42937698  0.62175269  1
  O  O11  1  0.72536686  0.31505718  0.88138674  1
  O  O12  1  0.27454404  0.68123774  0.12345709  1
  O  O13  1  0.72545694  0.56875506  0.37655106  1
  O  O14  1  0.27463222  0.93494305  0.61861675  1
  O  O15  1  0.72634546  0.82062582  0.87825183  1
