# generated using pymatgen
data_Na3Mn2P2(CO7)2
_symmetry_space_group_name_H-M   'P 1'
_cell_length_a   8.97367748
_cell_length_b   6.58601474
_cell_length_c   10.38944181
_cell_angle_alpha   90.00000000
_cell_angle_beta   88.49255465
_cell_angle_gamma   90.00000000
_symmetry_Int_Tables_number   1
_chemical_formula_structural   Na3Mn2P2(CO7)2
_chemical_formula_sum   'Na6 Mn4 P4 C4 O28'
_cell_volume   613.81152878
_cell_formula_units_Z   2
loop_
 _symmetry_equiv_pos_site_id
 _symmetry_equiv_pos_as_xyz
  1  'x, y, z'
loop_
 _atom_site_type_symbol
 _atom_site_label
 _atom_site_symmetry_multiplicity
 _atom_site_fract_x
 _atom_site_fract_y
 _atom_site_fract_z
 _atom_site_occupancy
  Na  Na0  1  0.24365504  0.47429788  0.62315248  1
  Na  Na1  1  0.24365504  0.02570212  0.12315248  1
  Na  Na2  1  0.76081368  0.50916276  0.87659906  1
  Na  Na3  1  0.76001705  0.99043980  0.87915921  1
  Na  Na4  1  0.76001705  0.50956020  0.37915921  1
  Na  Na5  1  0.76081368  0.99083724  0.37659906  1
  Mn  Mn6  1  0.34400485  0.74740127  0.89384450  1
  Mn  Mn7  1  0.34400485  0.75259873  0.39384450  1
  Mn  Mn8  1  0.64979837  0.24729527  0.60893546  1
  Mn  Mn9  1  0.64979837  0.25270473  0.10893546  1
  P  P10  1  0.42400271  0.24968178  0.85626915  1
  P  P11  1  0.42400271  0.25031822  0.35626915  1
  P  P12  1  0.57190720  0.74756150  0.64271713  1
  P  P13  1  0.57190720  0.75243850  0.14271713  1
  C  C14  1  0.07579558  0.75178166  0.86538216  1
  C  C15  1  0.07579558  0.74821834  0.36538216  1
  C  C16  1  0.92274442  0.24710395  0.63427240  1
  C  C17  1  0.92274442  0.25289605  0.13427340  1
  O  O18  1  0.05842182  0.24884449  0.64527476  1
  O  O19  1  0.05842182  0.25115551  0.14527476  1
  O  O20  1  0.13981941  0.76110822  0.97721406  1
  O  O21  1  0.13981941  0.73889178  0.47721406  1
  O  O22  1  0.17430502  0.74245686  0.76984292  1
  O  O23  1  0.17430502  0.75754314  0.26984292  1
  O  O24  1  0.33082482  0.06212556  0.89533073  1
  O  O25  1  0.32761315  0.43777985  0.88595330  1
  O  O26  1  0.32761315  0.06222015  0.38595330  1
  O  O27  1  0.33082482  0.43787444  0.39533073  1
  O  O28  1  0.46487952  0.24956771  0.70865632  1
  O  O29  1  0.42454990  0.74094376  0.57048432  1
  O  O30  1  0.46487952  0.25043229  0.20865632  1
  O  O31  1  0.42454990  0.75905624  0.07048432  1
  O  O32  1  0.57509322  0.25264256  0.92781175  1
  O  O33  1  0.53723425  0.74867467  0.79191958  1
  O  O34  1  0.57509322  0.24735744  0.42781175  1
  O  O35  1  0.53723425  0.75132533  0.29191958  1
  O  O36  1  0.67198800  0.56169271  0.60921494  1
  O  O37  1  0.66869244  0.93452188  0.60653502  1
  O  O38  1  0.66869244  0.56547812  0.10653502  1
  O  O39  1  0.67198800  0.93830729  0.10921494  1
  O  O40  1  0.82403598  0.24585259  0.73216968  1
  O  O41  1  0.82403598  0.25414741  0.23216968  1
  O  O42  1  0.85269592  0.24724037  0.52327158  1
  O  O43  1  0.85269592  0.25275963  0.02327158  1
  O  O44  1  0.93796667  0.75071785  0.85169848  1
  O  O45  1  0.93796667  0.74928215  0.35169848  1
