# generated using pymatgen
data_Li4AlCr3O8
_symmetry_space_group_name_H-M   'P 1'
_cell_length_a   5.10915034
_cell_length_b   5.86599719
_cell_length_c   10.15822589
_cell_angle_alpha   89.96220796
_cell_angle_beta   80.46028456
_cell_angle_gamma   73.32974486
_symmetry_Int_Tables_number   1
_chemical_formula_structural   Li4AlCr3O8
_chemical_formula_sum   'Li8 Al2 Cr6 O16'
_cell_volume   287.26174081
_cell_formula_units_Z   2
loop_
 _symmetry_equiv_pos_site_id
 _symmetry_equiv_pos_as_xyz
  1  'x, y, z'
loop_
 _atom_site_type_symbol
 _atom_site_label
 _atom_site_symmetry_multiplicity
 _atom_site_fract_x
 _atom_site_fract_y
 _atom_site_fract_z
 _atom_site_occupancy
  Li  Li0  1  0.99939918  0.00090153  0.00116982  1
  Li  Li1  1  0.00031971  0.00065659  0.49895144  1
  Li  Li2  1  0.00000000  0.25000000  0.25000000  1
  Li  Li3  1  0.00000000  0.25000000  0.75000000  1
  Li  Li4  1  0.99968029  0.49934341  0.00104856  1
  Li  Li5  1  0.00060082  0.49909747  0.49883018  1
  Li  Li6  1  0.00000000  0.75000000  0.25000000  1
  Li  Li7  1  0.00000000  0.75000000  0.75000000  1
  Al  Al8  1  0.50022442  0.12608773  0.37319223  1
  Al  Al9  1  0.49977558  0.37391227  0.12680777  1
  Cr  Cr10  1  0.50026576  0.12600633  0.87665883  1
  Cr  Cr11  1  0.49973424  0.37399367  0.62334217  1
  Cr  Cr12  1  0.49968536  0.62374851  0.37324604  1
  Cr  Cr13  1  0.49981193  0.62387163  0.87690074  1
  Cr  Cr14  1  0.50031364  0.87625149  0.12675396  1
  Cr  Cr15  1  0.50018807  0.87612837  0.62309926  1
  O  O16  1  0.27969626  0.18925430  0.06397909  1
  O  O17  1  0.27848443  0.18093219  0.55226899  1
  O  O18  1  0.71698138  0.07933538  0.19332797  1
  O  O19  1  0.72752632  0.06839491  0.68962790  1
  O  O20  1  0.28301862  0.42066362  0.30667303  1
  O  O21  1  0.72030374  0.31074570  0.43602191  1
  O  O22  1  0.27247268  0.43160509  0.81037210  1
  O  O23  1  0.72151757  0.31906681  0.94773001  1
  O  O24  1  0.27818744  0.67165369  0.06505230  1
  O  O25  1  0.72026043  0.56070431  0.18676520  1
  O  O26  1  0.27264090  0.68177222  0.55946816  1
  O  O27  1  0.72683986  0.56798542  0.68925881  1
  O  O28  1  0.27973957  0.93929669  0.31323480  1
  O  O29  1  0.72181156  0.82834731  0.43494770  1
  O  O30  1  0.27316014  0.93201358  0.81074119  1
  O  O31  1  0.72735810  0.81822878  0.94053184  1
