# generated using pymatgen
data_Li4AlCr3O8
_symmetry_space_group_name_H-M   'P 1'
_cell_length_a   5.11243339
_cell_length_b   5.86745080
_cell_length_c   5.86831559
_cell_angle_alpha   120.00499278
_cell_angle_beta   90.00000016
_cell_angle_gamma   73.32920972
_symmetry_Int_Tables_number   1
_chemical_formula_structural   Li4AlCr3O8
_chemical_formula_sum   'Li4 Al1 Cr3 O8'
_cell_volume   143.83286781
_cell_formula_units_Z   1
loop_
 _symmetry_equiv_pos_site_id
 _symmetry_equiv_pos_as_xyz
  1  'x, y, z'
loop_
 _atom_site_type_symbol
 _atom_site_label
 _atom_site_symmetry_multiplicity
 _atom_site_fract_x
 _atom_site_fract_y
 _atom_site_fract_z
 _atom_site_occupancy
  Li  Li0  1  0.99971460  0.99929688  0.49964844  1
  Li  Li1  1  0.00028540  0.00070312  0.00035156  1
  Li  Li2  1  1.00000000  0.50000000  0.49881198  1
  Li  Li3  1  0.00000000  0.50000000  0.00118802  1
  Al  Al4  1  0.50000000  0.50000000  0.25000000  1
  Cr  Cr5  1  0.50000000  0.00000000  0.75000000  1
  Cr  Cr6  1  0.50000000  0.00000000  0.25000000  1
  Cr  Cr7  1  0.50000000  0.50000000  0.75000000  1
  O  O8  1  0.27275992  0.24226991  0.62113445  1
  O  O9  1  0.72134188  0.26527405  0.89131666  1
  O  O10  1  0.27984605  0.25170866  0.12585433  1
  O  O11  1  0.72134188  0.26527305  0.37395739  1
  O  O12  1  0.27865812  0.73472595  0.60868334  1
  O  O13  1  0.72724008  0.75773009  0.87886555  1
  O  O14  1  0.27865812  0.73472595  0.12604261  1
  O  O15  1  0.72015395  0.74829134  0.37414567  1
