# generated using pymatgen
data_Li4Cr3CoO8
_symmetry_space_group_name_H-M   'P 1'
_cell_length_a   5.10198472
_cell_length_b   7.75206027
_cell_length_c   7.75050169
_cell_angle_alpha   81.67775271
_cell_angle_beta   71.03310129
_cell_angle_gamma   83.74370179
_symmetry_Int_Tables_number   1
_chemical_formula_structural   Li4Cr3CoO8
_chemical_formula_sum   'Li8 Cr6 Co2 O16'
_cell_volume   286.21453241
_cell_formula_units_Z   2
loop_
 _symmetry_equiv_pos_site_id
 _symmetry_equiv_pos_as_xyz
  1  'x, y, z'
loop_
 _atom_site_type_symbol
 _atom_site_label
 _atom_site_symmetry_multiplicity
 _atom_site_fract_x
 _atom_site_fract_y
 _atom_site_fract_z
 _atom_site_occupancy
  Li  Li0  1  0.99656074  0.00067286  0.00165697  1
  Li  Li1  1  0.99463704  0.24956394  0.25256161  1
  Li  Li2  1  0.00535620  0.62542971  0.12243854  1
  Li  Li3  1  0.00150727  0.12672480  0.62349074  1
  Li  Li4  1  0.99613144  0.49706483  0.50222182  1
  Li  Li5  1  0.00343631  0.87429470  0.37334877  1
  Li  Li6  1  0.00386693  0.37793695  0.87278118  1
  Li  Li7  1  0.99847147  0.74826491  0.75152447  1
  Cr  Cr8  1  0.49997093  0.06360244  0.31364867  1
  Cr  Cr9  1  0.50000900  0.43750029  0.18749630  1
  Cr  Cr10  1  0.50002756  0.81139500  0.06135382  1
  Cr  Cr11  1  0.50056832  0.68350318  0.44114363  1
  Cr  Cr12  1  0.49942609  0.19150156  0.93385552  1
  Cr  Cr13  1  0.49998421  0.93749389  0.68750025  1
  Co  Co14  1  0.50013292  0.31330233  0.56329356  1
  Co  Co15  1  0.49988775  0.56170947  0.81170253  1
  O  O16  1  0.27307370  0.03148388  0.15032077  1
  O  O17  1  0.72753617  0.22044914  0.09729828  1
  O  O18  1  0.27570240  0.40965931  0.02219002  1
  O  O19  1  0.72394821  0.09944588  0.47575035  1
  O  O20  1  0.27680348  0.28149417  0.40542339  1
  O  O21  1  0.27242566  0.65455368  0.27771402  1
  O  O22  1  0.72433357  0.46534129  0.35279368  1
  O  O23  1  0.27587863  0.15915577  0.77127490  1
  O  O24  1  0.28245764  0.52421258  0.65477765  1
  O  O25  1  0.72692637  0.84351950  0.22469248  1
  O  O26  1  0.71755502  0.35081735  0.72021057  1
  O  O27  1  0.27268128  0.90386454  0.52684274  1
  O  O28  1  0.72413416  0.71585344  0.60371427  1
  O  O29  1  0.27601778  0.77555022  0.89926559  1
  O  O30  1  0.72326442  0.59349815  0.96955937  1
  O  O31  1  0.72728635  0.97114124  0.84815455  1
