# generated using pymatgen
data_Cr(SiO3)2
_symmetry_space_group_name_H-M   'P 1'
_cell_length_a   6.50859282
_cell_length_b   6.50859282
_cell_length_c   5.34317490
_cell_angle_alpha   74.70138540
_cell_angle_beta   105.29861459
_cell_angle_gamma   95.53654669
_symmetry_Int_Tables_number   1
_chemical_formula_structural   Cr(SiO3)2
_chemical_formula_sum   'Cr2 Si4 O12'
_cell_volume   210.50111369
_cell_formula_units_Z   2
loop_
 _symmetry_equiv_pos_site_id
 _symmetry_equiv_pos_as_xyz
  1  'x, y, z'
loop_
 _atom_site_type_symbol
 _atom_site_label
 _atom_site_symmetry_multiplicity
 _atom_site_fract_x
 _atom_site_fract_y
 _atom_site_fract_z
 _atom_site_occupancy
  O  O0  1  0.37956549  0.09829219  0.72398251  1
  O  O1  1  0.95389354  0.18446321  0.37204067  1
  O  O2  1  0.04610646  0.81553679  0.62795933  1
  O  O3  1  0.18446321  0.95389354  0.12795933  1
  O  O4  1  0.09829219  0.37956549  0.77601749  1
  O  O5  1  0.36801089  0.64878448  0.54043369  1
  O  O6  1  0.62043451  0.90170781  0.27601749  1
  O  O7  1  0.90170781  0.62043451  0.22398251  1
  O  O8  1  0.64878448  0.36801089  0.95956631  1
  O  O9  1  0.35121552  0.63198911  0.04043369  1
  O  O10  1  0.63198911  0.35121552  0.45956631  1
  O  O11  1  0.81553679  0.04610646  0.87204067  1
  Si  Si12  1  0.38697144  0.78416834  0.24564951  1
  Si  Si13  1  0.61302856  0.21583166  0.75435049  1
  Si  Si14  1  0.21583166  0.61302856  0.74564951  1
  Si  Si15  1  0.78416834  0.38697144  0.25435049  1
  Cr  Cr16  1  0.89916825  0.89916825  0.25000000  1
  Cr  Cr17  1  0.10083175  0.10083175  0.75000000  1
