# generated using pymatgen
data_Li4AlCr3O8
_symmetry_space_group_name_H-M   'P 1'
_cell_length_a   5.11086617
_cell_length_b   7.76086522
_cell_length_c   7.75934191
_cell_angle_alpha   81.85897312
_cell_angle_beta   71.00920023
_cell_angle_gamma   83.83847801
_symmetry_Int_Tables_number   1
_chemical_formula_structural   Li4AlCr3O8
_chemical_formula_sum   'Li8 Al2 Cr6 O16'
_cell_volume   287.47035185
_cell_formula_units_Z   2
loop_
 _symmetry_equiv_pos_site_id
 _symmetry_equiv_pos_as_xyz
  1  'x, y, z'
loop_
 _atom_site_type_symbol
 _atom_site_label
 _atom_site_symmetry_multiplicity
 _atom_site_fract_x
 _atom_site_fract_y
 _atom_site_fract_z
 _atom_site_occupancy
  Li  Li0  1  0.00011384  0.00002885  0.99962131  1
  Li  Li1  1  0.99968754  0.25057214  0.25071089  1
  Li  Li2  1  0.00032340  0.62443083  0.12428901  1
  Li  Li3  1  0.99981759  0.12660078  0.62480027  1
  Li  Li4  1  0.99966013  0.49904261  0.50151071  1
  Li  Li5  1  -0.00011343  0.87497450  0.37538566  1
  Li  Li6  1  0.00034322  0.37596085  0.87349378  1
  Li  Li7  1  0.00018220  0.74839999  0.75019867  1
  Al  Al8  1  0.50013484  0.31377742  0.56371400  1
  Al  Al9  1  0.49985657  0.56122657  0.81128166  1
  Cr  Cr10  1  0.50015598  0.06382913  0.31378468  1
  Cr  Cr11  1  0.50000419  0.43748902  0.18749355  1
  Cr  Cr12  1  0.49984416  0.81117543  0.06121725  1
  Cr  Cr13  1  0.50006178  0.68457280  0.44027796  1
  Cr  Cr14  1  0.49994390  0.19043346  0.93472179  1
  Cr  Cr15  1  0.49999468  0.93749444  0.68748990  1
  O  O16  1  0.27318913  0.03113246  0.15065727  1
  O  O17  1  0.72748239  0.22005724  0.09769588  1
  O  O18  1  0.27829307  0.41182607  0.01926971  1
  O  O19  1  0.72161336  0.10336232  0.47746144  1
  O  O20  1  0.27940633  0.28266358  0.40863066  1
  O  O21  1  0.27249880  0.65494257  0.27731378  1
  O  O22  1  0.72172834  0.46316188  0.35572848  1
  O  O23  1  0.27866080  0.16121566  0.76843056  1
  O  O24  1  0.28409739  0.52334033  0.65542858  1
  O  O25  1  0.72682482  0.84387995  0.22434752  1
  O  O26  1  0.71592494  0.35167537  0.71955419  1
  O  O27  1  0.27271511  0.90442422  0.52655407  1
  O  O28  1  0.72136962  0.71377813  0.60657594  1
  O  O29  1  0.27837273  0.77162500  0.89754960  1
  O  O30  1  0.72056436  0.59232916  0.96636789  1
  O  O31  1  0.72724522  0.97057524  0.84844432  1
