# generated using pymatgen
data_Li4AlCr3O8
_symmetry_space_group_name_H-M   'P 1'
_cell_length_a   5.08165993
_cell_length_b   5.89439491
_cell_length_c   5.86901142
_cell_angle_alpha   60.14067382
_cell_angle_beta   90.00022140
_cell_angle_gamma   73.30762186
_symmetry_Int_Tables_number   1
_chemical_formula_structural   Li4AlCr3O8
_chemical_formula_sum   'Li4 Al1 Cr3 O8'
_cell_volume   143.85460344
_cell_formula_units_Z   1
loop_
 _symmetry_equiv_pos_site_id
 _symmetry_equiv_pos_as_xyz
  1  'x, y, z'
loop_
 _atom_site_type_symbol
 _atom_site_label
 _atom_site_symmetry_multiplicity
 _atom_site_fract_x
 _atom_site_fract_y
 _atom_site_fract_z
 _atom_site_occupancy
  Li  Li0  1  0.00000000  0.00000000  0.00000000  1
  Li  Li1  1  0.00000000  0.00000000  0.50000000  1
  Li  Li2  1  0.50038828  0.00005678  0.24997535  1
  Li  Li3  1  0.49961072  0.99994322  0.75002465  1
  Al  Al4  1  0.00000000  0.49999900  0.00000000  1
  Cr  Cr5  1  0.00000000  0.50000100  0.50000000  1
  Cr  Cr6  1  0.50000335  0.49999935  0.24791088  1
  Cr  Cr7  1  0.49999665  0.50000065  0.75208912  1
  O  O8  1  0.23470750  0.27876108  0.35163564  1
  O  O9  1  0.23468845  0.27876929  0.86963561  1
  O  O10  1  0.75291780  0.27849032  0.11075318  1
  O  O11  1  0.25915964  0.72573917  0.38712882  1
  O  O12  1  0.24708220  0.72150868  0.88924782  1
  O  O13  1  0.76531155  0.72122971  0.13036439  1
  O  O14  1  0.74084036  0.27426183  0.61287118  1
  O  O15  1  0.76529150  0.72123792  0.64836336  1
