# generated using pymatgen
data_Li2Ni2(SO4)3
_symmetry_space_group_name_H-M   'P 1'
_cell_length_a   12.23252883
_cell_length_b   8.57581770
_cell_length_c   8.75513011
_cell_angle_alpha   90.00000000
_cell_angle_beta   90.00000000
_cell_angle_gamma   90.00000000
_symmetry_Int_Tables_number   1
_chemical_formula_structural   Li2Ni2(SO4)3
_chemical_formula_sum   'Li8 Ni8 S12 O48'
_cell_volume   918.44761973
_cell_formula_units_Z   4
loop_
 _symmetry_equiv_pos_site_id
 _symmetry_equiv_pos_as_xyz
  1  'x, y, z'
loop_
 _atom_site_type_symbol
 _atom_site_label
 _atom_site_symmetry_multiplicity
 _atom_site_fract_x
 _atom_site_fract_y
 _atom_site_fract_z
 _atom_site_occupancy
  Li  Li0  1  0.18263112  0.21720141  0.27709653  1
  Li  Li1  1  0.18263112  0.78279859  0.77709653  1
  Li  Li2  1  0.31736888  0.28279859  0.77709653  1
  Li  Li3  1  0.31736888  0.71720141  0.27709653  1
  Li  Li4  1  0.68263112  0.28279859  0.72290347  1
  Li  Li5  1  0.68263112  0.71720141  0.22290347  1
  Li  Li6  1  0.81736888  0.21720141  0.22290347  1
  Li  Li7  1  0.81736888  0.78279859  0.72290347  1
  Ni  Ni8  1  0.11019119  0.25223431  0.96291652  1
  Ni  Ni9  1  0.11019119  0.74776569  0.46291652  1
  Ni  Ni10  1  0.38980881  0.75223431  0.96291652  1
  Ni  Ni11  1  0.38980881  0.24776569  0.46291652  1
  Ni  Ni12  1  0.61019119  0.24776569  0.03708348  1
  Ni  Ni13  1  0.61019119  0.75223431  0.53708348  1
  Ni  Ni14  1  0.88980881  0.25223431  0.53708348  1
  Ni  Ni15  1  0.88980881  0.74776569  0.03708348  1
  S  S16  1  0.00000000  0.45839040  0.25000000  1
  S  S17  1  0.00000000  0.54160960  0.75000000  1
  S  S18  1  0.14534859  0.10219386  0.60576975  1
  S  S19  1  0.14534859  0.89780614  0.10576975  1
  S  S20  1  0.35465141  0.39780614  0.10576975  1
  S  S21  1  0.35465141  0.60219386  0.60576975  1
  S  S22  1  0.50000000  0.04160960  0.75000000  1
  S  S23  1  0.50000000  0.95839040  0.25000000  1
  S  S24  1  0.64534859  0.39780614  0.39423025  1
  S  S25  1  0.64534859  0.60219386  0.89423025  1
  S  S26  1  0.85465141  0.10219386  0.89423025  1
  S  S27  1  0.85465141  0.89780614  0.39423025  1
  O  O28  1  0.03127910  0.13730351  0.57228494  1
  O  O29  1  0.03127910  0.86269649  0.07228494  1
  O  O30  1  0.06056917  0.54972100  0.36275495  1
  O  O31  1  0.06056917  0.45027900  0.86275495  1
  O  O32  1  0.08112472  0.35473754  0.17166516  1
  O  O33  1  0.08112472  0.64526246  0.67166516  1
  O  O34  1  0.16092157  0.07068624  0.10975716  1
  O  O35  1  0.16092157  0.92931376  0.60975716  1
  O  O36  1  0.17951889  0.16595119  0.75710946  1
  O  O37  1  0.17951889  0.83404881  0.25710946  1
  O  O38  1  0.21749108  0.82998961  0.98505839  1
  O  O39  1  0.21749108  0.17001039  0.48505839  1
  O  O40  1  0.28250892  0.32998961  0.98505839  1
  O  O41  1  0.28250892  0.67001039  0.48505839  1
  O  O42  1  0.32048111  0.66595119  0.75710946  1
  O  O43  1  0.32048111  0.33404881  0.25710946  1
  O  O44  1  0.33907843  0.42931376  0.60975716  1
  O  O45  1  0.33907843  0.57068624  0.10975716  1
  O  O46  1  0.41887528  0.14526246  0.67166516  1
  O  O47  1  0.41887528  0.85473754  0.17166516  1
  O  O48  1  0.43943083  0.04972100  0.36275495  1
  O  O49  1  0.43943083  0.95027900  0.86275495  1
  O  O50  1  0.46872090  0.63730351  0.57228494  1
  O  O51  1  0.46872090  0.36269649  0.07228494  1
  O  O52  1  0.53127910  0.36269649  0.42771506  1
  O  O53  1  0.53127910  0.63730351  0.92771506  1
  O  O54  1  0.56056917  0.04972100  0.13724505  1
  O  O55  1  0.56056917  0.95027900  0.63724505  1
  O  O56  1  0.58112472  0.14526246  0.82833484  1
  O  O57  1  0.58112472  0.85473754  0.32833484  1
  O  O58  1  0.66092157  0.42931376  0.89024284  1
  O  O59  1  0.66092157  0.57068624  0.39024284  1
  O  O60  1  0.67951889  0.33404881  0.24289054  1
  O  O61  1  0.67951889  0.66595119  0.74289054  1
  O  O62  1  0.71749108  0.32998961  0.51494161  1
  O  O63  1  0.71749108  0.67001039  0.01494161  1
  O  O64  1  0.78250892  0.17001039  0.01494161  1
  O  O65  1  0.78250892  0.82998961  0.51494161  1
  O  O66  1  0.82048111  0.16595119  0.74289054  1
  O  O67  1  0.82048111  0.83404881  0.24289054  1
  O  O68  1  0.83907843  0.07068624  0.39024284  1
  O  O69  1  0.83907843  0.92931376  0.89024284  1
  O  O70  1  0.91887528  0.35473754  0.32833484  1
  O  O71  1  0.91887528  0.64526246  0.82833484  1
  O  O72  1  0.93943083  0.45027900  0.63724505  1
  O  O73  1  0.93943083  0.54972100  0.13724505  1
  O  O74  1  0.96872090  0.13730351  0.92771506  1
  O  O75  1  0.96872090  0.86269649  0.42771506  1
