# generated using pymatgen
data_Li4AlCr3O8
_symmetry_space_group_name_H-M   'P 1'
_cell_length_a   5.86848094
_cell_length_b   5.89432934
_cell_length_c   5.86843607
_cell_angle_alpha   119.85626663
_cell_angle_beta   59.99966177
_cell_angle_gamma   90.00005706
_symmetry_Int_Tables_number   1
_chemical_formula_structural   Li4AlCr3O8
_chemical_formula_sum   'Li4 Al1 Cr3 O8'
_cell_volume   143.84858318
_cell_formula_units_Z   1
loop_
 _symmetry_equiv_pos_site_id
 _symmetry_equiv_pos_as_xyz
  1  'x, y, z'
loop_
 _atom_site_type_symbol
 _atom_site_label
 _atom_site_symmetry_multiplicity
 _atom_site_fract_x
 _atom_site_fract_y
 _atom_site_fract_z
 _atom_site_occupancy
  Li  Li0  1  0.00000062  0.00000043  0.99999934  1
  Li  Li1  1  0.00000002  0.00000093  0.50000169  1
  Li  Li2  1  0.50000009  0.00000096  0.00000052  1
  Li  Li3  1  0.49999953  0.00000029  0.50000073  1
  Al  Al4  1  0.99999870  0.50000203  0.00000173  1
  Cr  Cr5  1  -0.00000200  0.50000297  0.50000158  1
  Cr  Cr6  1  0.49999643  0.49999829  0.00000264  1
  Cr  Cr7  1  0.50000548  0.49999305  0.49999442  1
  O  O8  1  0.23473678  0.27866833  0.01339208  1
  O  O9  1  0.23474429  0.27866181  0.53051303  1
  O  O10  1  0.25793411  0.72618516  0.48413109  1
  O  O11  1  0.75187080  0.27866695  0.01339206  1
  O  O12  1  0.24813105  0.72133463  0.98660583  1
  O  O13  1  0.76525590  0.72133849  0.46948914  1
  O  O14  1  0.74206692  0.27381236  0.51586715  1
  O  O15  1  0.76526229  0.72133230  0.98660797  1
