# generated using pymatgen
data_Li6Bi(BO3)3
_symmetry_space_group_name_H-M   'P 1'
_cell_length_a   7.35578372
_cell_length_b   16.73112984
_cell_length_c   6.80006695
_cell_angle_alpha   90.00000000
_cell_angle_beta   105.59268349
_cell_angle_gamma   90.00000000
_symmetry_Int_Tables_number   1
_chemical_formula_structural   Li6Bi(BO3)3
_chemical_formula_sum   'Li24 Bi4 B12 O36'
_cell_volume   806.08805404
_cell_formula_units_Z   4
loop_
 _symmetry_equiv_pos_site_id
 _symmetry_equiv_pos_as_xyz
  1  'x, y, z'
loop_
 _atom_site_type_symbol
 _atom_site_label
 _atom_site_symmetry_multiplicity
 _atom_site_fract_x
 _atom_site_fract_y
 _atom_site_fract_z
 _atom_site_occupancy
  Li  Li0  1  0.07117770  0.99837894  0.67738887  1
  Li  Li1  1  0.14395774  0.55062862  0.57773926  1
  Li  Li2  1  0.07117770  0.50162106  0.17738887  1
  Li  Li3  1  0.30409968  0.46375538  0.94505071  1
  Li  Li4  1  0.14395774  0.94937138  0.07773926  1
  Li  Li5  1  0.28800900  0.70634907  0.63174524  1
  Li  Li6  1  0.30409968  0.03624462  0.44505071  1
  Li  Li7  1  0.43464443  0.29546934  0.94736533  1
  Li  Li8  1  0.45575019  0.96958749  0.83106914  1
  Li  Li9  1  0.28800900  0.79365093  0.13174524  1
  Li  Li10  1  0.43464443  0.20453066  0.44736533  1
  Li  Li11  1  0.45575019  0.53041251  0.33106914  1
  Li  Li12  1  0.54424981  0.46958749  0.66893086  1
  Li  Li13  1  0.56535557  0.79546934  0.55263467  1
  Li  Li14  1  0.71199100  0.20634907  0.86825476  1
  Li  Li15  1  0.54424981  0.03041251  0.16893086  1
  Li  Li16  1  0.56535557  0.70453066  0.05263467  1
  Li  Li17  1  0.69590032  0.96375538  0.55494929  1
  Li  Li18  1  0.71199100  0.29365093  0.36825476  1
  Li  Li19  1  0.85604226  0.05062862  0.92226074  1
  Li  Li20  1  0.69590032  0.53624462  0.05494929  1
  Li  Li21  1  0.92882230  0.49837894  0.82261113  1
  Li  Li22  1  0.85604226  0.44937138  0.42226074  1
  Li  Li23  1  0.92882230  0.00162106  0.32261113  1
  Bi  Bi24  1  0.07531984  0.18670650  0.65380553  1
  Bi  Bi25  1  0.07531984  0.31329350  0.15380553  1
  Bi  Bi26  1  0.92468016  0.68670650  0.84619447  1
  Bi  Bi27  1  0.92468016  0.81329350  0.34619447  1
  B  B28  1  0.07979448  0.36696444  0.65950920  1
  B  B29  1  0.07979448  0.13303556  0.15950920  1
  B  B30  1  0.29486828  0.88196125  0.50603086  1
  B  B31  1  0.44232320  0.11340299  0.81633549  1
  B  B32  1  0.29486828  0.61803875  0.00603086  1
  B  B33  1  0.44232320  0.38659701  0.31633549  1
  B  B34  1  0.55767680  0.61340299  0.68366451  1
  B  B35  1  0.70513172  0.38196125  0.99396914  1
  B  B36  1  0.55767680  0.88659701  0.18366451  1
  B  B37  1  0.70513172  0.11803875  0.49396914  1
  B  B38  1  0.92020552  0.86696444  0.84049080  1
  B  B39  1  0.92020552  0.63303556  0.34049080  1
  O  O40  1  0.00914241  0.66911734  0.52802043  1
  O  O41  1  0.13131809  0.57063306  0.96753853  1
  O  O42  1  0.08458160  0.44857009  0.67718952  1
  O  O43  1  0.15330755  0.31727028  0.82667436  1
  O  O44  1  0.00914241  0.83088266  0.02802043  1
  O  O45  1  0.13131809  0.92936694  0.46753853  1
  O  O46  1  0.27071156  0.69870519  0.95076799  1
  O  O47  1  0.08458160  0.05142991  0.17718952  1
  O  O48  1  0.15330755  0.18272972  0.32667436  1
  O  O49  1  0.28092196  0.06650245  0.73544514  1
  O  O50  1  0.27071156  0.80129481  0.45076799  1
  O  O51  1  0.28092196  0.43349755  0.23544514  1
  O  O52  1  0.42783584  0.19498904  0.77722425  1
  O  O53  1  0.39518898  0.57650243  0.57106326  1
  O  O54  1  0.52992003  0.41368629  0.90879069  1
  O  O55  1  0.47007997  0.91368629  0.59120931  1
  O  O56  1  0.42783584  0.30501096  0.27722425  1
  O  O57  1  0.60481102  0.07650243  0.92893674  1
  O  O58  1  0.39518898  0.92349757  0.07106326  1
  O  O59  1  0.57216416  0.69498904  0.72277575  1
  O  O60  1  0.52992003  0.08631371  0.40879069  1
  O  O61  1  0.47007997  0.58631371  0.09120931  1
  O  O62  1  0.60481102  0.42349757  0.42893674  1
  O  O63  1  0.57216416  0.80501096  0.22277575  1
  O  O64  1  0.71907804  0.56650245  0.76455486  1
  O  O65  1  0.72928844  0.19870519  0.54923201  1
  O  O66  1  0.71907804  0.93349755  0.26455486  1
  O  O67  1  0.84669245  0.81727028  0.67332564  1
  O  O68  1  0.91541840  0.94857009  0.82281048  1
  O  O69  1  0.72928844  0.30129481  0.04923201  1
  O  O70  1  0.86868191  0.07063306  0.53246147  1
  O  O71  1  0.99085759  0.16911734  0.97197957  1
  O  O72  1  0.84669245  0.68272972  0.17332564  1
  O  O73  1  0.91541840  0.55142991  0.32281048  1
  O  O74  1  0.86868191  0.42936694  0.03246147  1
  O  O75  1  0.99085759  0.33088266  0.47197957  1
