# generated using pymatgen
data_Li4Cr3CoO8
_symmetry_space_group_name_H-M   'P 1'
_cell_length_a   5.10410057
_cell_length_b   7.75831134
_cell_length_c   7.73938775
_cell_angle_alpha   81.85878845
_cell_angle_beta   71.00916744
_cell_angle_gamma   83.81208336
_symmetry_Int_Tables_number   1
_chemical_formula_structural   Li4Cr3CoO8
_chemical_formula_sum   'Li8 Cr6 Co2 O16'
_cell_volume   286.24788304
_cell_formula_units_Z   2
loop_
 _symmetry_equiv_pos_site_id
 _symmetry_equiv_pos_as_xyz
  1  'x, y, z'
loop_
 _atom_site_type_symbol
 _atom_site_label
 _atom_site_symmetry_multiplicity
 _atom_site_fract_x
 _atom_site_fract_y
 _atom_site_fract_z
 _atom_site_occupancy
  Li  Li0  1  0.00000705  0.00004495  0.99997925  1
  Li  Li1  1  0.99789677  0.24895364  0.25096510  1
  Li  Li2  1  0.99817036  0.62586459  0.12503555  1
  Li  Li3  1  0.99836114  0.12931051  0.62439285  1
  Li  Li4  1  0.99998402  0.49995507  0.50001491  1
  Li  Li5  1  0.00162995  0.87074658  0.37562519  1
  Li  Li6  1  0.00183297  0.37407212  0.87495669  1
  Li  Li7  1  0.00211247  0.75106184  0.74903805  1
  Cr  Cr8  1  0.50001289  0.06175199  0.31470746  1
  Cr  Cr9  1  0.50003064  0.43793904  0.19159542  1
  Cr  Cr10  1  0.50034988  0.81143753  0.06450798  1
  Cr  Cr11  1  0.49963902  0.18858465  0.93547260  1
  Cr  Cr12  1  0.49997372  0.56200589  0.80840219  1
  Cr  Cr13  1  0.49999459  0.93829938  0.68528156  1
  Co  Co14  1  0.50007819  0.31400537  0.56176072  1
  Co  Co15  1  0.49992367  0.68596319  0.43826619  1
  O  O16  1  0.27263402  0.03052389  0.15179284  1
  O  O17  1  0.72708985  0.21971350  0.09897805  1
  O  O18  1  0.27254178  0.40614178  0.02712651  1
  O  O19  1  0.72416653  0.10024052  0.47505191  1
  O  O20  1  0.27723855  0.28043819  0.40578827  1
  O  O21  1  0.27699044  0.65542155  0.28104780  1
  O  O22  1  0.71861571  0.47135531  0.35681255  1
  O  O23  1  0.27601649  0.15932411  0.77088286  1
  O  O24  1  0.28138989  0.52853274  0.64322667  1
  O  O25  1  0.72397370  0.84072999  0.22913295  1
  O  O26  1  0.72299793  0.34452221  0.71893624  1
  O  O27  1  0.27583649  0.89982172  0.52494240  1
  O  O28  1  0.72277404  0.71956836  0.59428195  1
  O  O29  1  0.27292013  0.78028459  0.90094909  1
  O  O30  1  0.72746160  0.59379053  0.97287478  1
  O  O31  1  0.72735651  0.96959564  0.84817142  1
