# generated using pymatgen
data_Li4Nb2Cr3Fe3O16
_symmetry_space_group_name_H-M   'P 1'
_cell_length_a   5.99738781
_cell_length_b   5.99304284
_cell_length_c   9.70454633
_cell_angle_alpha   89.99780022
_cell_angle_beta   90.49136266
_cell_angle_gamma   119.97685606
_symmetry_Int_Tables_number   1
_chemical_formula_structural   Li4Nb2Cr3Fe3O16
_chemical_formula_sum   'Li4 Nb2 Cr3 Fe3 O16'
_cell_volume   302.13109901
_cell_formula_units_Z   1
loop_
 _symmetry_equiv_pos_site_id
 _symmetry_equiv_pos_as_xyz
  1  'x, y, z'
loop_
 _atom_site_type_symbol
 _atom_site_label
 _atom_site_symmetry_multiplicity
 _atom_site_fract_x
 _atom_site_fract_y
 _atom_site_fract_z
 _atom_site_occupancy
  Li  Li0  1  0.33239806  0.66620971  0.90300096  1
  Li  Li1  1  0.00019841  0.00009101  0.99136085  1
  Li  Li2  1  0.00072421  0.00034153  0.49128624  1
  Li  Li3  1  0.66568031  0.33286018  0.40049815  1
  Nb  Nb4  1  0.33106144  0.66555426  0.49234583  1
  Nb  Nb5  1  0.66348207  0.33174541  0.99460243  1
  Cr  Cr6  1  0.17070469  0.83008104  0.21437323  1
  Cr  Cr7  1  0.17072868  0.34065730  0.21438671  1
  Cr  Cr8  1  0.34166254  0.17086051  0.71361567  1
  Fe  Fe9  1  0.65811664  0.82905834  0.21905130  1
  Fe  Fe10  1  0.82959902  0.65799918  0.71779645  1
  Fe  Fe11  1  0.82959470  0.17164643  0.71781249  1
  O  O12  1  0.17014779  0.83506336  0.59289115  1
  O  O13  1  0.03982920  0.51991026  0.33894898  1
  O  O14  1  0.33791407  0.66897575  0.10859776  1
  O  O15  1  0.99850104  0.99924389  0.30580971  1
  O  O16  1  -0.00013803  -0.00004110  0.80497889  1
  O  O17  1  0.17017012  0.33508907  0.59287196  1
  O  O18  1  0.47765090  0.96202570  0.34297261  1
  O  O19  1  0.47766156  0.51564803  0.34297379  1
  O  O20  1  0.33366064  0.16685039  0.09527975  1
  O  O21  1  0.66473307  0.83236849  0.58950699  1
  O  O22  1  0.51641376  0.47804579  0.84256056  1
  O  O23  1  0.51639639  0.03841584  0.84257952  1
  O  O24  1  0.67095014  0.33548292  0.60779661  1
  O  O25  1  0.83496541  0.66494408  0.09193202  1
  O  O26  1  0.96221695  0.48113202  0.84607983  1
  O  O27  1  0.83497723  0.17004362  0.09192957  1
