# generated using pymatgen
data_Na2SbAsCO7
_symmetry_space_group_name_H-M   'P 1'
_cell_length_a   9.51635582
_cell_length_b   7.06393326
_cell_length_c   5.50863355
_cell_angle_alpha   90.00000000
_cell_angle_beta   94.63273794
_cell_angle_gamma   90.00000000
_symmetry_Int_Tables_number   1
_chemical_formula_structural   Na2SbAsCO7
_chemical_formula_sum   'Na4 Sb2 As2 C2 O14'
_cell_volume   369.09650431
_cell_formula_units_Z   2
loop_
 _symmetry_equiv_pos_site_id
 _symmetry_equiv_pos_as_xyz
  1  'x, y, z'
loop_
 _atom_site_type_symbol
 _atom_site_label
 _atom_site_symmetry_multiplicity
 _atom_site_fract_x
 _atom_site_fract_y
 _atom_site_fract_z
 _atom_site_occupancy
  Na  Na0  1  0.21708477  0.49168834  0.23500251  1
  Na  Na1  1  0.21708477  0.00831166  0.23500251  1
  Na  Na2  1  0.78291523  0.50831166  0.76499749  1
  Na  Na3  1  0.78291523  0.99168834  0.76499749  1
  Sb  Sb4  1  0.36118538  0.75000000  0.80093482  1
  Sb  Sb5  1  0.63881462  0.25000000  0.19906418  1
  As  As6  1  0.39578124  0.25000000  0.72904459  1
  As  As7  1  0.60421876  0.75000000  0.27095541  1
  C  C8  1  0.07651668  0.75000000  0.71874815  1
  C  C9  1  0.92348332  0.25000000  0.28125185  1
  O  O10  1  0.05397621  0.25000000  0.27575287  1
  O  O11  1  0.16012654  0.75000000  0.93198367  1
  O  O12  1  0.14680949  0.75000000  0.52438338  1
  O  O13  1  0.32291396  0.05614429  0.86315520  1
  O  O14  1  0.32291396  0.44385571  0.86315520  1
  O  O15  1  0.42023883  0.75000000  0.18662055  1
  O  O16  1  0.36821440  0.25000000  0.42273639  1
  O  O17  1  0.63178560  0.75000000  0.57726361  1
  O  O18  1  0.57976117  0.25000000  0.81337945  1
  O  O19  1  0.67708604  0.55614429  0.13684480  1
  O  O20  1  0.67708604  0.94385571  0.13684480  1
  O  O21  1  0.85319051  0.25000000  0.47561662  1
  O  O22  1  0.83987346  0.25000000  0.06801633  1
  O  O23  1  0.94602379  0.75000000  0.72424713  1
