# generated using pymatgen
data_LiNiSnO4
_symmetry_space_group_name_H-M   'P 1'
_cell_length_a   5.82318371
_cell_length_b   6.12658225
_cell_length_c   6.12657401
_cell_angle_alpha   60.88861709
_cell_angle_beta   61.64322918
_cell_angle_gamma   61.64299136
_symmetry_Int_Tables_number   1
_chemical_formula_structural   LiNiSnO4
_chemical_formula_sum   'Li2 Ni2 Sn2 O8'
_cell_volume   159.36848170
_cell_formula_units_Z   2
loop_
 _symmetry_equiv_pos_site_id
 _symmetry_equiv_pos_as_xyz
  1  'x, y, z'
loop_
 _atom_site_type_symbol
 _atom_site_label
 _atom_site_symmetry_multiplicity
 _atom_site_fract_x
 _atom_site_fract_y
 _atom_site_fract_z
 _atom_site_occupancy
  Li  Li0  1  0.12569463  0.12406286  0.12407449  1
  Li  Li1  1  0.87430810  0.87592787  0.87593047  1
  Ni  Ni2  1  -0.00000028  0.50000363  0.49999811  1
  Ni  Ni3  1  0.50000081  0.50000554  0.49999431  1
  Sn  Sn4  1  0.49999745  0.00000114  0.50000653  1
  Sn  Sn5  1  0.50000021  0.49999383  0.00000076  1
  O  O6  1  0.25859691  0.25554003  0.25554556  1
  O  O7  1  0.25959327  0.28147941  0.69870309  1
  O  O8  1  0.25959307  0.69870789  0.28146675  1
  O  O9  1  0.72989661  0.25610908  0.25611463  1
  O  O10  1  0.27010468  0.74388675  0.74388813  1
  O  O11  1  0.74040794  0.71853381  0.30129064  1
  O  O12  1  0.74040960  0.30129461  0.71852223  1
  O  O13  1  0.74139801  0.74445456  0.74446429  1
