# generated using pymatgen
data_Li3Mn(NiO2)4
_symmetry_space_group_name_H-M   'P 1'
_cell_length_a   5.87749831
_cell_length_b   5.87749851
_cell_length_c   5.89301044
_cell_angle_alpha   89.75090662
_cell_angle_beta   59.80037102
_cell_angle_gamma   59.99887248
_symmetry_Int_Tables_number   1
_chemical_formula_structural   Li3Mn(NiO2)4
_chemical_formula_sum   'Li3 Mn1 Ni4 O8'
_cell_volume   143.82289244
_cell_formula_units_Z   1
loop_
 _symmetry_equiv_pos_site_id
 _symmetry_equiv_pos_as_xyz
  1  'x, y, z'
loop_
 _atom_site_type_symbol
 _atom_site_label
 _atom_site_symmetry_multiplicity
 _atom_site_fract_x
 _atom_site_fract_y
 _atom_site_fract_z
 _atom_site_occupancy
  Li  Li0  1  0.00000000  0.00000000  0.50000000  1
  Li  Li1  1  0.50000000  0.00000000  0.50000000  1
  Li  Li2  1  0.50000000  0.50000000  0.50000000  1
  Mn  Mn3  1  0.50000000  0.50000000  0.00000000  1
  Ni  Ni4  1  0.00000000  0.50000000  0.50000000  1
  Ni  Ni5  1  0.00000000  0.00000000  0.00000000  1
  Ni  Ni6  1  0.50000000  0.00000000  0.00000000  1
  Ni  Ni7  1  0.00000000  0.50000000  0.00000000  1
  O  O8  1  0.49128904  0.26530491  0.77401587  1
  O  O9  1  0.97162138  0.26302113  0.76302030  1
  O  O10  1  0.50000083  0.73464167  0.76302030  1
  O  O11  1  0.98120135  0.75065038  0.76944903  1
  O  O12  1  0.01879865  0.24934962  0.23055097  1
  O  O13  1  0.49999917  0.26535833  0.23697970  1
  O  O14  1  0.02837862  0.73697887  0.23697970  1
  O  O15  1  0.50871096  0.73469509  0.22598413  1
