# generated using pymatgen
data_Li4MnCr3O8
_symmetry_space_group_name_H-M   'P 1'
_cell_length_a   10.24773263
_cell_length_b   10.24516872
_cell_length_c   14.53900739
_cell_angle_alpha   19.49155478
_cell_angle_beta   19.48704819
_cell_angle_gamma   33.41902431
_symmetry_Int_Tables_number   1
_chemical_formula_structural   Li4MnCr3O8
_chemical_formula_sum   'Li4 Mn1 Cr3 O8'
_cell_volume   148.55288652
_cell_formula_units_Z   1
loop_
 _symmetry_equiv_pos_site_id
 _symmetry_equiv_pos_as_xyz
  1  'x, y, z'
loop_
 _atom_site_type_symbol
 _atom_site_label
 _atom_site_symmetry_multiplicity
 _atom_site_fract_x
 _atom_site_fract_y
 _atom_site_fract_z
 _atom_site_occupancy
  Li  Li0  1  -0.00000076  0.00000443  0.49999777  1
  Li  Li1  1  0.00000015  0.50000360  0.49999789  1
  Li  Li2  1  0.49999875  0.00000216  0.49999981  1
  Li  Li3  1  0.50000362  0.50000649  0.49999373  1
  Mn  Mn4  1  0.00000127  -0.00000216  0.00000291  1
  Cr  Cr5  1  0.00000030  0.49999104  0.00000287  1
  Cr  Cr6  1  0.50000053  -0.00000189  0.00000436  1
  Cr  Cr7  1  0.49999031  0.49998048  0.00001716  1
  O  O8  1  0.99061566  0.99054474  0.27115682  1
  O  O9  1  0.99057915  0.50319359  0.26460133  1
  O  O10  1  0.50381477  0.99045961  0.26430014  1
  O  O11  1  0.00938566  0.00945467  0.72884253  1
  O  O12  1  0.53323727  0.53309226  0.20847120  1
  O  O13  1  0.00942131  0.49681284  0.73539475  1
  O  O14  1  0.49619100  0.00954469  0.73569416  1
  O  O15  1  0.46676302  0.46691444  0.79152358  1
