# generated using pymatgen
data_TiCr(PO4)2
_symmetry_space_group_name_H-M   'P 1'
_cell_length_a   8.75594966
_cell_length_b   8.63609590
_cell_length_c   8.64577692
_cell_angle_alpha   59.73886526
_cell_angle_beta   59.29482141
_cell_angle_gamma   59.22049523
_symmetry_Int_Tables_number   1
_chemical_formula_structural   TiCr(PO4)2
_chemical_formula_sum   'Ti3 Cr3 P6 O24'
_cell_volume   456.14133122
_cell_formula_units_Z   3
loop_
 _symmetry_equiv_pos_site_id
 _symmetry_equiv_pos_as_xyz
  1  'x, y, z'
loop_
 _atom_site_type_symbol
 _atom_site_label
 _atom_site_symmetry_multiplicity
 _atom_site_fract_x
 _atom_site_fract_y
 _atom_site_fract_z
 _atom_site_occupancy
  Ti  Ti0  1  0.06331905  0.64436925  0.64474746  1
  Ti  Ti1  1  0.43289192  0.85686582  0.85682367  1
  Ti  Ti2  1  0.93670186  0.35569633  0.35558851  1
  Cr  Cr3  1  0.00049359  0.99925891  0.99930920  1
  Cr  Cr4  1  0.57176277  0.14233559  0.14205895  1
  Cr  Cr5  1  0.49719167  0.50108314  0.50075460  1
  P  P6  1  0.25127546  0.24918300  0.54003467  1
  P  P7  1  0.25533165  0.95732169  0.24917659  1
  P  P8  1  0.25240124  0.54159146  0.95634842  1
  P  P9  1  0.74877067  0.45536036  0.04480152  1
  P  P10  1  0.74646520  0.04385170  0.75149019  1
  P  P11  1  0.75041311  0.75134077  0.45677924  1
  O  O12  1  0.07109686  0.12054885  0.30767504  1
  O  O13  1  0.07105451  0.50101965  0.11749891  1
  O  O14  1  0.07257304  0.30529288  0.49997392  1
  O  O15  1  0.23570531  0.08618316  0.73635608  1
  O  O16  1  0.43239119  0.19467676  0.38115850  1
  O  O17  1  0.25292879  0.41645034  0.56126543  1
  O  O18  1  0.24286790  0.94268825  0.08452631  1
  O  O19  1  0.26129363  0.76206991  0.41458463  1
  O  O20  1  0.56979221  0.61599637  0.00317676  1
  O  O21  1  0.26555014  0.55902289  0.76033906  1
  O  O22  1  0.77010392  0.25935874  0.05624167  1
  O  O23  1  0.57059609  0.00316419  0.80558501  1
  O  O24  1  0.43121173  0.99239196  0.19664532  1
  O  O25  1  0.22935036  0.73947656  0.94462819  1
  O  O26  1  0.73046740  0.44415228  0.24011357  1
  O  O27  1  0.43142941  0.38484259  0.99199544  1
  O  O28  1  0.73548614  0.23840291  0.58492448  1
  O  O29  1  0.75887198  0.05748284  0.91533928  1
  O  O30  1  0.74338486  0.58318761  0.44211423  1
  O  O31  1  0.56938680  0.80776402  0.61987449  1
  O  O32  1  0.76469575  0.91422573  0.26242615  1
  O  O33  1  0.92679461  0.69389394  0.49864066  1
  O  O34  1  0.92784912  0.49748081  0.88543529  1
  O  O35  1  0.92810508  0.88196974  0.69156753  1
