# generated using pymatgen
data_YMo3O8
_symmetry_space_group_name_H-M   'P 1'
_cell_length_a   6.20585322
_cell_length_b   6.26999487
_cell_length_c   4.79096604
_cell_angle_alpha   90.36170822
_cell_angle_beta   89.65831401
_cell_angle_gamma   119.54928864
_symmetry_Int_Tables_number   1
_chemical_formula_structural   YMo3O8
_chemical_formula_sum   'Y1 Mo3 O8'
_cell_volume   162.16830691
_cell_formula_units_Z   1
loop_
 _symmetry_equiv_pos_site_id
 _symmetry_equiv_pos_as_xyz
  1  'x, y, z'
loop_
 _atom_site_type_symbol
 _atom_site_label
 _atom_site_symmetry_multiplicity
 _atom_site_fract_x
 _atom_site_fract_y
 _atom_site_fract_z
 _atom_site_occupancy
  O  O0  1  0.52004162  0.02306071  0.47463590  1
  O  O1  1  0.67645947  0.32822956  0.03781990  1
  O  O2  1  0.68472387  0.84534079  0.03305474  1
  O  O3  1  0.16276601  0.84319076  0.03771761  1
  O  O4  1  0.98244202  0.48827174  0.47335454  1
  O  O5  1  0.99049055  0.00539209  0.46868528  1
  O  O6  1  0.14690434  0.31067653  0.03186430  1
  O  O7  1  0.50430861  0.49070836  0.46875869  1
  Y  Y8  1  0.33345880  0.66683892  0.75332321  1
  Mo  Mo9  1  0.83365514  0.66684431  0.25338620  1
  Mo  Mo10  1  0.83340818  0.16659896  0.25323337  1
  Mo  Mo11  1  0.33342138  0.16692727  0.25327627  1
