# generated using pymatgen
data_Li2Ni3SbO8
_symmetry_space_group_name_H-M   'P 1'
_cell_length_a   5.81278866
_cell_length_b   5.81290964
_cell_length_c   9.51311747
_cell_angle_alpha   90.00090585
_cell_angle_beta   89.99954152
_cell_angle_gamma   120.00068950
_symmetry_Int_Tables_number   1
_chemical_formula_structural   Li2Ni3SbO8
_chemical_formula_sum   'Li4 Ni6 Sb2 O16'
_cell_volume   278.37394190
_cell_formula_units_Z   2
loop_
 _symmetry_equiv_pos_site_id
 _symmetry_equiv_pos_as_xyz
  1  'x, y, z'
loop_
 _atom_site_type_symbol
 _atom_site_label
 _atom_site_symmetry_multiplicity
 _atom_site_fract_x
 _atom_site_fract_y
 _atom_site_fract_z
 _atom_site_occupancy
  Li  Li0  1  0.33327625  0.66664797  0.90159082  1
  Li  Li1  1  0.99996203  0.99999179  0.99066860  1
  Li  Li2  1  0.00003797  0.00003075  0.49066860  1
  Li  Li3  1  0.66672375  0.33337072  0.40159082  1
  Ni  Ni4  1  0.17393680  0.83503377  0.21413475  1
  Ni  Ni5  1  0.16497771  0.33893293  0.21413473  1
  Ni  Ni6  1  0.66106584  0.82605479  0.21413621  1
  Ni  Ni7  1  0.33893416  0.16498895  0.71413621  1
  Ni  Ni8  1  0.82606320  0.66109698  0.71413475  1
  Ni  Ni9  1  0.83502229  0.17395622  0.71413473  1
  Sb  Sb10  1  0.33336124  0.66669482  0.48627610  1
  Sb  Sb11  1  0.66663876  0.33333359  0.98627610  1
  O  O12  1  0.18276639  0.85570956  0.59347500  1
  O  O13  1  0.03196899  0.54263682  0.34475201  1
  O  O14  1  0.33332278  0.66665931  0.11880383  1
  O  O15  1  0.99999277  0.00002153  0.29947216  1
  O  O16  1  0.00000723  0.00002777  0.79947216  1
  O  O17  1  0.14429436  0.32707256  0.59345956  1
  O  O18  1  0.51067412  0.96807320  0.34476379  1
  O  O19  1  0.45741330  0.48934094  0.34478000  1
  O  O20  1  0.32701597  0.14429328  0.09347346  1
  O  O21  1  0.67298403  0.81727831  0.59347346  1
  O  O22  1  0.48932588  0.45739908  0.84476379  1
  O  O23  1  0.54258670  0.03192764  0.84478000  1
  O  O24  1  0.66667722  0.33333553  0.61880383  1
  O  O25  1  0.81723361  0.67294417  0.09347500  1
  O  O26  1  0.96803101  0.51066783  0.84475201  1
  O  O27  1  0.85570564  0.18277820  0.09345956  1
