# generated using pymatgen
data_Li4Fe3Ni3(TeO8)2
_symmetry_space_group_name_H-M   'P 1'
_cell_length_a   5.94039093
_cell_length_b   5.93787510
_cell_length_c   9.70661958
_cell_angle_alpha   89.99075517
_cell_angle_beta   90.31206959
_cell_angle_gamma   119.96205957
_symmetry_Int_Tables_number   1
_chemical_formula_structural   Li4Fe3Ni3(TeO8)2
_chemical_formula_sum   'Li4 Fe3 Ni3 Te2 O16'
_cell_volume   296.62127608
_cell_formula_units_Z   1
loop_
 _symmetry_equiv_pos_site_id
 _symmetry_equiv_pos_as_xyz
  1  'x, y, z'
loop_
 _atom_site_type_symbol
 _atom_site_label
 _atom_site_symmetry_multiplicity
 _atom_site_fract_x
 _atom_site_fract_y
 _atom_site_fract_z
 _atom_site_occupancy
  Li  Li0  1  0.32983099  0.66503480  0.90876762  1
  Li  Li1  1  0.99421121  0.99703610  0.98364395  1
  Li  Li2  1  0.99604167  0.99803796  0.48704440  1
  Li  Li3  1  0.66594442  0.33290575  0.41233181  1
  Fe  Fe4  1  0.17218039  0.83110433  0.21258062  1
  Fe  Fe5  1  0.17223567  0.34107798  0.21253585  1
  Fe  Fe6  1  0.34144238  0.17076553  0.71319467  1
  Ni  Ni7  1  0.65672898  0.82838187  0.21128163  1
  Ni  Ni8  1  0.82955068  0.65877324  0.71211608  1
  Ni  Ni9  1  0.82937236  0.17063985  0.71223577  1
  Te  Te10  1  0.33891638  0.66948558  0.48535236  1
  Te  Te11  1  0.67193100  0.33605268  0.98161230  1
  O  O12  1  0.17666767  0.83187809  0.59126337  1
  O  O13  1  0.03850724  0.51932771  0.35266571  1
  O  O14  1  0.32110490  0.66050485  0.10859267  1
  O  O15  1  0.00546130  0.00280752  0.29827267  1
  O  O16  1  0.00358326  0.00190150  0.79636885  1
  O  O17  1  0.17659301  0.34474325  0.59126104  1
  O  O18  1  0.47719323  0.96225234  0.35317471  1
  O  O19  1  0.47730402  0.51501273  0.35318599  1
  O  O20  1  0.34687451  0.17345952  0.09234597  1
  O  O21  1  0.66207741  0.83109416  0.59005685  1
  O  O22  1  0.51367552  0.47746810  0.85324864  1
  O  O23  1  0.51396105  0.03642435  0.85326514  1
  O  O24  1  0.66091256  0.33034613  0.61196210  1
  O  O25  1  0.83267516  0.65844845  0.08943682  1
  O  O26  1  0.96230111  0.48102444  0.85054558  1
  O  O27  1  0.83272093  0.17431020  0.08949785  1
