# generated using pymatgen
data_Mg3Fe4O7
_symmetry_space_group_name_H-M   'P 1'
_cell_length_a   3.05817045
_cell_length_b   11.02063732
_cell_length_c   4.34548105
_cell_angle_alpha   100.94441921
_cell_angle_beta   90.09819940
_cell_angle_gamma   82.35884282
_symmetry_Int_Tables_number   1
_chemical_formula_structural   Mg3Fe4O7
_chemical_formula_sum   'Mg3 Fe4 O7'
_cell_volume   142.47342425
_cell_formula_units_Z   1
loop_
 _symmetry_equiv_pos_site_id
 _symmetry_equiv_pos_as_xyz
  1  'x, y, z'
loop_
 _atom_site_type_symbol
 _atom_site_label
 _atom_site_symmetry_multiplicity
 _atom_site_fract_x
 _atom_site_fract_y
 _atom_site_fract_z
 _atom_site_occupancy
  Mg  Mg0  1  0.00313843  -0.00200575  0.00067631  1
  Mg  Mg1  1  0.13939496  0.71477524  0.85573382  1
  Mg  Mg2  1  0.28934490  0.42868612  0.70939807  1
  Fe  Fe3  1  0.71292439  0.56984264  0.28184697  1
  Fe  Fe4  1  0.56710699  0.85709997  0.42837707  1
  Fe  Fe5  1  0.84597675  0.28169399  0.13851250  1
  Fe  Fe6  1  0.41199361  0.14557570  0.57205147  1
  O  O7  1  0.15533533  0.71431121  0.35597398  1
  O  O8  1  0.26572393  0.42489517  0.20614086  1
  O  O9  1  0.44341615  0.13549406  0.06748978  1
  O  O10  1  0.71220216  0.57193120  0.78254034  1
  O  O11  1  0.56876145  0.85524340  0.92780742  1
  O  O12  1  0.96857467  0.00180473  0.50416123  1
  O  O13  1  0.86613827  0.29122033  0.64279316  1
