# generated using pymatgen
data_Cr3(CoO6)2
_symmetry_space_group_name_H-M   'P 1'
_cell_length_a   12.58216737
_cell_length_b   9.03438803
_cell_length_c   8.94938933
_cell_angle_alpha   90.02025904
_cell_angle_beta   90.00973626
_cell_angle_gamma   90.00030079
_symmetry_Int_Tables_number   1
_chemical_formula_structural   Cr3(CoO6)2
_chemical_formula_sum   'Cr12 Co8 O48'
_cell_volume   1017.29653693
_cell_formula_units_Z   4
loop_
 _symmetry_equiv_pos_site_id
 _symmetry_equiv_pos_as_xyz
  1  'x, y, z'
loop_
 _atom_site_type_symbol
 _atom_site_label
 _atom_site_symmetry_multiplicity
 _atom_site_fract_x
 _atom_site_fract_y
 _atom_site_fract_z
 _atom_site_occupancy
  Cr  Cr0  1  -0.00006487  0.46914047  0.25003846  1
  Cr  Cr1  1  0.00001413  0.53090537  0.75003941  1
  Cr  Cr2  1  0.14411730  0.10253559  0.60376653  1
  Cr  Cr3  1  0.14415693  0.89751646  0.10378512  1
  Cr  Cr4  1  0.35584911  0.39752958  0.10378580  1
  Cr  Cr5  1  0.35583455  0.60250359  0.60379473  1
  Cr  Cr6  1  0.50001850  0.03078491  0.74998833  1
  Cr  Cr7  1  0.50001087  0.96914422  0.24996238  1
  Cr  Cr8  1  0.64413726  0.39743195  0.39621503  1
  Cr  Cr9  1  0.64411621  0.60253952  0.89620014  1
  Cr  Cr10  1  0.85588787  0.10251070  0.89614978  1
  Cr  Cr11  1  0.85587826  0.89747014  0.39619396  1
  Co  Co12  1  0.12287289  0.24917222  0.97078268  1
  Co  Co13  1  0.12286618  0.75084937  0.47073135  1
  Co  Co14  1  0.37718144  0.25079427  0.47069873  1
  Co  Co15  1  0.37720436  0.74918221  0.97066344  1
  Co  Co16  1  0.62287536  0.25083945  0.02930055  1
  Co  Co17  1  0.62286357  0.74911242  0.52922290  1
  Co  Co18  1  0.87716876  0.24913184  0.52938644  1
  Co  Co19  1  0.87714929  0.75084233  0.02936398  1
  O  O20  1  0.02328483  0.15521586  0.55916344  1
  O  O21  1  0.02334188  0.84480744  0.05914118  1
  O  O22  1  0.07153404  0.57783047  0.36317653  1
  O  O23  1  0.07152329  0.42218150  0.86315983  1
  O  O24  1  0.08295373  0.36290548  0.15516078  1
  O  O25  1  0.08302885  0.63710146  0.65517276  1
  O  O26  1  0.15613867  0.08442404  0.08875254  1
  O  O27  1  0.15610708  0.91561839  0.58877849  1
  O  O28  1  0.17106004  0.15153208  0.77746781  1
  O  O29  1  0.17111127  0.84851039  0.27743489  1
  O  O30  1  0.22923792  0.17720923  0.48355317  1
  O  O31  1  0.22928283  0.82274239  0.98354017  1
  O  O32  1  0.27068470  0.32280399  0.98355131  1
  O  O33  1  0.27071439  0.67721991  0.48359182  1
  O  O34  1  0.32893418  0.65150183  0.77752863  1
  O  O35  1  0.32890795  0.34855571  0.27744090  1
  O  O36  1  0.34391704  0.41558373  0.58881877  1
  O  O37  1  0.34389409  0.58444462  0.08885470  1
  O  O38  1  0.41698329  0.13702305  0.65519120  1
  O  O39  1  0.41697069  0.86287566  0.15510869  1
  O  O40  1  0.42841134  0.07778278  0.36312302  1
  O  O41  1  0.42843920  0.92220289  0.86314167  1
  O  O42  1  0.47664683  0.65514060  0.55923027  1
  O  O43  1  0.47668432  0.34486762  0.05916203  1
  O  O44  1  0.52329594  0.34479388  0.44083152  1
  O  O45  1  0.52326923  0.65518776  0.94083798  1
  O  O46  1  0.57154384  0.07780308  0.13679547  1
  O  O47  1  0.57155960  0.92209729  0.63680491  1
  O  O48  1  0.58301928  0.13706038  0.84483338  1
  O  O49  1  0.58299284  0.86294167  0.34478414  1
  O  O50  1  0.65607185  0.41559627  0.91122992  1
  O  O51  1  0.65608846  0.58435582  0.41131740  1
  O  O52  1  0.67110442  0.34849378  0.22253504  1
  O  O53  1  0.67108471  0.65149090  0.72260756  1
  O  O54  1  0.72926351  0.32278432  0.51641051  1
  O  O55  1  0.72924733  0.67727493  0.01643167  1
  O  O56  1  0.77076753  0.17718028  0.01638617  1
  O  O57  1  0.77077716  0.82288115  0.51637911  1
  O  O58  1  0.82894137  0.15146411  0.72251992  1
  O  O59  1  0.82894985  0.84850676  0.22248055  1
  O  O60  1  0.84391151  0.08444283  0.41124091  1
  O  O61  1  0.84392843  0.91556481  0.91118896  1
  O  O62  1  0.91696630  0.36294567  0.34487102  1
  O  O63  1  0.91699729  0.63710130  0.84489405  1
  O  O64  1  0.92842920  0.42219475  0.63685063  1
  O  O65  1  0.92841198  0.57783915  0.13682857  1
  O  O66  1  0.97673799  0.15518119  0.94080758  1
  O  O67  1  0.97670996  0.84480020  0.44081866  1
