# generated using pymatgen
data_LiTi2(PO4)3
_symmetry_space_group_name_H-M   'P 1'
_cell_length_a   8.61741981
_cell_length_b   11.99879606
_cell_length_c   8.68141403
_cell_angle_alpha   89.93975226
_cell_angle_beta   90.09025682
_cell_angle_gamma   90.48944930
_symmetry_Int_Tables_number   1
_chemical_formula_structural   LiTi2(PO4)3
_chemical_formula_sum   'Li4 Ti8 P12 O48'
_cell_volume   897.61225365
_cell_formula_units_Z   4
loop_
 _symmetry_equiv_pos_site_id
 _symmetry_equiv_pos_as_xyz
  1  'x, y, z'
loop_
 _atom_site_type_symbol
 _atom_site_label
 _atom_site_symmetry_multiplicity
 _atom_site_fract_x
 _atom_site_fract_y
 _atom_site_fract_z
 _atom_site_occupancy
  Li  Li0  1  0.70058818  0.68090258  0.72178534  1
  Li  Li1  1  0.79856432  0.82016885  0.22224292  1
  Li  Li2  1  0.92027755  0.23740693  0.29846771  1
  Li  Li3  1  0.93024505  0.29801354  0.91789608  1
  Ti  Ti4  1  0.24765392  0.62087484  0.53111171  1
  Ti  Ti5  1  0.25211421  0.87758661  0.03297791  1
  Ti  Ti6  1  0.25309435  0.11851106  0.46664704  1
  Ti  Ti7  1  0.26001510  0.38303792  0.96775143  1
  Ti  Ti8  1  0.75313904  0.61104387  0.04077017  1
  Ti  Ti9  1  0.74857657  0.89022700  0.54071046  1
  Ti  Ti10  1  0.73666993  0.11143316  0.96579859  1
  Ti  Ti11  1  0.74159872  0.38614142  0.47547009  1
  P  P12  1  0.03592430  0.49209685  0.24935223  1
  P  P13  1  0.10378092  0.85536319  0.38466100  1
  P  P14  1  0.10731316  0.14326061  0.10535950  1
  P  P15  1  0.39685346  0.64625275  0.88345818  1
  P  P16  1  0.38997823  0.35662350  0.60959151  1
  P  P17  1  0.46272944  0.00317874  0.74781271  1
  P  P18  1  0.52959332  0.99401131  0.25336302  1
  P  P19  1  0.60290105  0.64743841  0.39116778  1
  P  P20  1  0.60790502  0.35111656  0.11626913  1
  P  P21  1  0.89651047  0.85451035  0.89244385  1
  P  P22  1  0.89909425  0.14935401  0.61630150  1
  P  P23  1  0.96776013  0.50672385  0.75127706  1
  O  O24  1  0.04878942  0.42808593  0.86519265  1
  O  O25  1  0.07360962  0.85969281  0.89109253  1
  O  O26  1  0.07684511  0.59310559  0.67967236  1
  O  O27  1  0.07246350  0.16326170  0.58356244  1
  O  O28  1  0.10626549  0.56918478  0.37228414  1
  O  O29  1  0.12985250  0.82996604  0.21144498  1
  O  O30  1  0.15258119  0.97507558  0.42287013  1
  O  O31  1  0.15199272  0.23788357  0.99166531  1
  O  O32  1  0.14995384  0.17642697  0.27282534  1
  O  O33  1  0.16462239  0.43736270  0.15545275  1
  O  O34  1  0.17761840  0.03283369  0.05827373  1
  O  O35  1  0.18996035  0.77294458  0.49004644  1
  O  O36  1  0.30905710  0.72620917  0.99071875  1
  O  O37  1  0.32453699  0.46931350  0.55969804  1
  O  O38  1  0.33558547  0.06307143  0.65850430  1
  O  O39  1  0.33696773  0.32764714  0.77394527  1
  O  O40  1  0.34813756  0.52567854  0.92231746  1
  O  O41  1  0.33867263  0.26501669  0.49587477  1
  O  O42  1  0.36978022  0.67120731  0.71104746  1
  O  O43  1  0.39240424  0.92721842  0.87137370  1
  O  O44  1  0.42514780  0.90575310  0.17812037  1
  O  O45  1  0.42582045  0.64206344  0.38911472  1
  O  O46  1  0.43479878  0.33172654  0.08273354  1
  O  O47  1  0.44128621  0.06940853  0.36376651  1
  O  O48  1  0.56113577  0.93026183  0.63762321  1
  O  O49  1  0.57415338  0.66124253  0.91084102  1
  O  O50  1  0.57164270  0.36089543  0.60802191  1
  O  O51  1  0.57375357  0.09143559  0.82106841  1
  O  O52  1  0.60813801  0.07052468  0.13013152  1
  O  O53  1  0.64137722  0.32504564  0.28704910  1
  O  O54  1  0.66172136  0.73296071  0.51222281  1
  O  O55  1  0.65139437  0.47467112  0.08114103  1
  O  O56  1  0.66773325  0.68202001  0.23111313  1
  O  O57  1  0.66574381  0.93259575  0.33500444  1
  O  O58  1  0.67369041  0.53345497  0.43648500  1
  O  O59  1  0.70741094  0.27751523  0.00810280  1
  O  O60  1  0.81227617  0.22583965  0.50102872  1
  O  O61  1  0.82547083  0.96829580  0.93827466  1
  O  O62  1  0.83383633  0.57036283  0.83394763  1
  O  O63  1  0.83242746  0.81968518  0.73209192  1
  O  O64  1  0.83822469  0.76853166  0.01319689  1
  O  O65  1  0.84652380  0.02697862  0.58507266  1
  O  O66  1  0.86543069  0.17795694  0.78593703  1
  O  O67  1  0.88744571  0.43136896  0.62869968  1
  O  O68  1  0.92561317  0.84010871  0.41105870  1
  O  O69  1  0.92946748  0.40039422  0.31843359  1
  O  O70  1  0.92493173  0.14378680  0.10502389  1
  O  O71  1  0.93582778  0.56674947  0.14014762  1
