# generated using pymatgen
data_PWO4
_symmetry_space_group_name_H-M   'P 1'
_cell_length_a   5.10752256
_cell_length_b   5.99302532
_cell_length_c   10.20480197
_cell_angle_alpha   90.00000000
_cell_angle_beta   90.00000000
_cell_angle_gamma   90.00000000
_symmetry_Int_Tables_number   1
_chemical_formula_structural   PWO4
_chemical_formula_sum   'P4 W4 O16'
_cell_volume   312.36400861
_cell_formula_units_Z   4
loop_
 _symmetry_equiv_pos_site_id
 _symmetry_equiv_pos_as_xyz
  1  'x, y, z'
loop_
 _atom_site_type_symbol
 _atom_site_label
 _atom_site_symmetry_multiplicity
 _atom_site_fract_x
 _atom_site_fract_y
 _atom_site_fract_z
 _atom_site_occupancy
  O  O0  1  0.66138783  0.25000079  0.11425930  1
  O  O1  1  0.27659923  0.45272838  0.65776487  1
  O  O2  1  0.77659951  0.54727141  0.84223499  1
  O  O3  1  0.72339935  0.95272828  0.34223471  1
  O  O4  1  0.22340105  0.04727151  0.15776459  1
  O  O5  1  0.72339935  0.54727141  0.34223471  1
  O  O6  1  0.22340105  0.45272838  0.15776459  1
  O  O7  1  0.27659923  0.04727151  0.65776487  1
  O  O8  1  0.33861273  0.75000069  0.88574225  1
  O  O9  1  0.83861103  0.25000079  0.61425761  1
  O  O10  1  0.77659951  0.95272828  0.84223499  1
  O  O11  1  0.16138954  0.75000069  0.38574197  1
  O  O12  1  0.81270672  0.75000069  0.55977052  1
  O  O13  1  0.31270644  0.25000079  0.94022934  1
  O  O14  1  0.18729186  0.25000079  0.44023005  1
  O  O15  1  0.68729413  0.75000069  0.05977023  1
  P  P16  1  0.63103160  0.75000069  0.91367149  1
  P  P17  1  0.86896726  0.75000069  0.41367121  1
  P  P18  1  0.36897095  0.25000079  0.08632709  1
  P  P19  1  0.13103132  0.25000079  0.58632837  1
  W  W20  1  0.06434509  0.75000069  0.72838687  1
  W  W21  1  0.43565321  0.75000069  0.22838659  1
  W  W22  1  0.93565349  0.25000079  0.27161271  1
  W  W23  1  0.56434537  0.25000079  0.77161299  1
