# generated using pymatgen
data_Bi3IO4
_symmetry_space_group_name_H-M   'P 1'
_cell_length_a   5.86185449
_cell_length_b   5.90371238
_cell_length_c   19.99506190
_cell_angle_alpha   90.00000000
_cell_angle_beta   90.00000000
_cell_angle_gamma   90.00000000
_symmetry_Int_Tables_number   1
_chemical_formula_structural   Bi3IO4
_chemical_formula_sum   'Bi12 I4 O16'
_cell_volume   691.96316709
_cell_formula_units_Z   4
loop_
 _symmetry_equiv_pos_site_id
 _symmetry_equiv_pos_as_xyz
  1  'x, y, z'
loop_
 _atom_site_type_symbol
 _atom_site_label
 _atom_site_symmetry_multiplicity
 _atom_site_fract_x
 _atom_site_fract_y
 _atom_site_fract_z
 _atom_site_occupancy
  Bi  Bi0  1  0.20185304  0.20164169  0.13571464  1
  Bi  Bi1  1  0.20185304  0.29835831  0.36428536  1
  Bi  Bi2  1  0.25000000  0.69815941  0.00000000  1
  Bi  Bi3  1  0.25000000  0.80184059  0.50000000  1
  Bi  Bi4  1  0.29814696  0.29835831  0.63571464  1
  Bi  Bi5  1  0.29814696  0.20164169  0.86428536  1
  Bi  Bi6  1  0.70185304  0.70164169  0.36428536  1
  Bi  Bi7  1  0.70185304  0.79835831  0.13571464  1
  Bi  Bi8  1  0.75000000  0.30184059  0.00000000  1
  Bi  Bi9  1  0.75000000  0.19815941  0.50000000  1
  Bi  Bi10  1  0.79814696  0.79835831  0.86428536  1
  Bi  Bi11  1  0.79814696  0.70164169  0.63571464  1
  I  I12  1  0.22435403  0.75000000  0.25000000  1
  I  I13  1  0.27564597  0.75000000  0.75000000  1
  I  I14  1  0.72435403  0.25000000  0.25000000  1
  I  I15  1  0.77564597  0.25000000  0.75000000  1
  O  O16  1  0.01419548  0.45741185  0.58562323  1
  O  O17  1  0.01419548  0.04258815  0.91437677  1
  O  O18  1  0.07387609  0.43069668  0.06143291  1
  O  O19  1  0.07387609  0.06930332  0.43856709  1
  O  O20  1  0.42612391  0.06930332  0.56143291  1
  O  O21  1  0.42612391  0.43069668  0.93856709  1
  O  O22  1  0.48580452  0.45741185  0.41437677  1
  O  O23  1  0.48580452  0.04258815  0.08562323  1
  O  O24  1  0.51419548  0.95741185  0.91437677  1
  O  O25  1  0.51419548  0.54258815  0.58562323  1
  O  O26  1  0.57387609  0.56930332  0.06143291  1
  O  O27  1  0.57387609  0.93069668  0.43856709  1
  O  O28  1  0.92612391  0.56930332  0.93856709  1
  O  O29  1  0.92612391  0.93069668  0.56143291  1
  O  O30  1  0.98580452  0.95741185  0.08562323  1
  O  O31  1  0.98580452  0.54258815  0.41437677  1
