# generated using pymatgen
data_Li2V3SbO8
_symmetry_space_group_name_H-M   'P 1'
_cell_length_a   6.00326436
_cell_length_b   6.00336058
_cell_length_c   9.79570023
_cell_angle_alpha   90.00167922
_cell_angle_beta   89.99917955
_cell_angle_gamma   120.00068189
_symmetry_Int_Tables_number   1
_chemical_formula_structural   Li2V3SbO8
_chemical_formula_sum   'Li4 V6 Sb2 O16'
_cell_volume   305.73491011
_cell_formula_units_Z   2
loop_
 _symmetry_equiv_pos_site_id
 _symmetry_equiv_pos_as_xyz
  1  'x, y, z'
loop_
 _atom_site_type_symbol
 _atom_site_label
 _atom_site_symmetry_multiplicity
 _atom_site_fract_x
 _atom_site_fract_y
 _atom_site_fract_z
 _atom_site_occupancy
  Li  Li0  1  0.33334123  0.66667663  0.90174906  1
  Li  Li1  1  0.99999553  0.00002365  0.99074640  1
  Li  Li2  1  0.00000441  0.00002820  0.49074743  1
  Li  Li3  1  0.66665876  0.33333523  0.40174903  1
  V  V4  1  0.17067877  0.82934246  0.21419578  1
  V  V5  1  0.17068195  0.34135739  0.21418816  1
  V  V6  1  0.65867041  0.82934369  0.21419113  1
  V  V7  1  0.34132771  0.17067188  0.71418978  1
  V  V8  1  0.82932205  0.65866543  0.71419370  1
  V  V9  1  0.82931888  0.17067561  0.71418588  1
  Sb  Sb10  1  0.33333441  0.66666888  0.48726919  1
  Sb  Sb11  1  0.66666561  0.33333469  0.98726918  1
  O  O12  1  0.16633435  0.83364335  0.59306946  1
  O  O13  1  0.03666719  0.51833250  0.34581346  1
  O  O14  1  0.33334274  0.66667768  0.10833022  1
  O  O15  1  0.00001763  0.00003109  0.30659138  1
  O  O16  1  0.99998232  0.00001350  0.80659156  1
  O  O17  1  0.16636517  0.33272819  0.59307347  1
  O  O18  1  0.48166539  0.96334582  0.34582066  1
  O  O19  1  0.48169509  0.51836554  0.34580787  1
  O  O20  1  0.33271336  0.16636313  0.09307602  1
  O  O21  1  0.66728659  0.83364907  0.59307608  1
  O  O22  1  0.51833462  0.48168035  0.84582056  1
  O  O23  1  0.51830482  0.03667023  0.84580792  1
  O  O24  1  0.66665746  0.33333593  0.60833026  1
  O  O25  1  0.83366563  0.66730884  0.09306942  1
  O  O26  1  0.96333298  0.48166521  0.84581352  1
  O  O27  1  0.83363494  0.16636280  0.09307343  1
