# generated using pymatgen
data_Na2Ti12O25
_symmetry_space_group_name_H-M   'P 1'
_cell_length_a   14.65693745
_cell_length_b   7.52213708
_cell_length_c   10.10487736
_cell_angle_alpha   68.14824103
_cell_angle_beta   104.68957328
_cell_angle_gamma   90.00066665
_symmetry_Int_Tables_number   1
_chemical_formula_structural   Na2Ti12O25
_chemical_formula_sum   'Na4 Ti24 O50'
_cell_volume   994.69167688
_cell_formula_units_Z   2
loop_
 _symmetry_equiv_pos_site_id
 _symmetry_equiv_pos_as_xyz
  1  'x, y, z'
loop_
 _atom_site_type_symbol
 _atom_site_label
 _atom_site_symmetry_multiplicity
 _atom_site_fract_x
 _atom_site_fract_y
 _atom_site_fract_z
 _atom_site_occupancy
  Na  Na0  1  0.04164869  0.60241583  0.29494905  1
  Na  Na1  1  0.49335416  0.48981923  0.02062366  1
  Na  Na2  1  0.95880084  0.39717947  0.70577120  1
  Na  Na3  1  0.95953280  0.89819772  0.70351276  1
  Ti  Ti4  1  0.12379921  0.50399323  0.99118592  1
  Ti  Ti5  1  0.12348749  0.00474228  0.99134698  1
  Ti  Ti6  1  0.17540904  0.15838234  0.68435126  1
  Ti  Ti7  1  0.17607819  0.65710233  0.68529047  1
  Ti  Ti8  1  0.29309308  0.76722880  0.96788588  1
  Ti  Ti9  1  0.29359453  0.26542834  0.96712575  1
  Ti  Ti10  1  0.23941435  0.30182296  0.39395563  1
  Ti  Ti11  1  0.23911336  0.80397960  0.39444086  1
  Ti  Ti12  1  0.35235310  0.41052880  0.67887888  1
  Ti  Ti13  1  0.35296950  0.91011012  0.67991743  1
  Ti  Ti14  1  0.40638766  0.06827680  0.36312462  1
  Ti  Ti15  1  0.40581975  0.56865845  0.36327878  1
  Ti  Ti16  1  0.59332001  0.93154382  0.63735156  1
  Ti  Ti17  1  0.59292504  0.43170296  0.63632462  1
  Ti  Ti18  1  0.64757149  0.08872757  0.32146946  1
  Ti  Ti19  1  0.64746561  0.58985447  0.32101113  1
  Ti  Ti20  1  0.75891558  0.19697484  0.60652395  1
  Ti  Ti21  1  0.75887672  0.69640300  0.60706614  1
  Ti  Ti22  1  0.70556874  0.23353780  0.03160172  1
  Ti  Ti23  1  0.70659220  0.73442350  0.03204946  1
  Ti  Ti24  1  0.82388535  0.34195528  0.31530266  1
  Ti  Ti25  1  0.82454073  0.84198904  0.31603239  1
  Ti  Ti26  1  0.87813000  0.49131888  0.01606078  1
  Ti  Ti27  1  0.87815314  0.99275779  0.01570174  1
  O  O28  1  0.07501254  0.61869464  0.76075501  1
  O  O29  1  0.07455247  0.12076147  0.76043362  1
  O  O30  1  0.15719904  0.25601173  0.98770996  1
  O  O31  1  0.15685745  0.75725225  0.98588391  1
  O  O32  1  0.99964062  0.99712452  0.99744062  1
  O  O33  1  0.99977427  0.50529208  0.99751168  1
  O  O34  1  0.13639446  0.27152754  0.48120963  1
  O  O35  1  0.13643298  0.74716481  0.48182520  1
  O  O36  1  0.21788032  0.38983114  0.71990739  1
  O  O37  1  0.21695458  0.89185746  0.71715623  1
  O  O38  1  0.25825351  0.03656935  0.92698055  1
  O  O39  1  0.25813990  0.53628161  0.92767702  1
  O  O40  1  0.17580719  0.40428817  0.20337440  1
  O  O41  1  0.17574255  0.89228943  0.20334547  1
  O  O42  1  0.27941955  0.53344775  0.43308866  1
  O  O43  1  0.27911760  0.03346663  0.43314465  1
  O  O44  1  0.31770983  0.17741152  0.64469201  1
  O  O45  1  0.31724101  0.67917359  0.64240518  1
  O  O46  1  0.39699742  0.32211357  0.87860861  1
  O  O47  1  0.39687898  0.79904225  0.87923150  1
  O  O48  1  0.37764723  0.81398243  0.37254392  1
  O  O49  1  0.37808536  0.31267674  0.37425835  1
  O  O50  1  0.36547772  0.17657561  0.15644112  1
  O  O51  1  0.36539756  0.66732054  0.15645332  1
  O  O52  1  0.46126802  0.94577666  0.60706340  1
  O  O53  1  0.46101199  0.44719665  0.60695141  1
  O  O54  1  0.53884781  0.05465181  0.39286894  1
  O  O55  1  0.53860522  0.55243666  0.39297826  1
  O  O56  1  0.63547249  0.82605955  0.84286098  1
  O  O57  1  0.63516877  0.33082768  0.84246410  1
  O  O58  1  0.62189732  0.18658841  0.62687683  1
  O  O59  1  0.62164736  0.68708715  0.62580989  1
  O  O60  1  0.60252604  0.20050373  0.12204641  1
  O  O61  1  0.60274742  0.67750866  0.12194862  1
  O  O62  1  0.68306149  0.32081578  0.35783518  1
  O  O63  1  0.68293815  0.82209289  0.35610965  1
  O  O64  1  0.72114930  0.46643117  0.56739082  1
  O  O65  1  0.72135034  0.96627325  0.56736464  1
  O  O66  1  0.82634571  0.10306146  0.79455365  1
  O  O67  1  0.82641206  0.60253333  0.79471113  1
  O  O68  1  0.74143910  0.46315299  0.07289821  1
  O  O69  1  0.74077337  0.96338247  0.07359966  1
  O  O70  1  0.78315920  0.10839552  0.28231493  1
  O  O71  1  0.78219052  0.60868736  0.28294825  1
  O  O72  1  0.86519790  0.24056763  0.52082926  1
  O  O73  1  0.86541007  0.73795367  0.52140976  1
  O  O74  1  0.84193340  0.24432946  0.01095625  1
  O  O75  1  0.84146459  0.74541231  0.00944355  1
  O  O76  1  0.92222951  0.39401002  0.23520908  1
  O  O77  1  0.92253538  0.87061366  0.23522140  1
