# generated using pymatgen
data_ErTa7O19
_symmetry_space_group_name_H-M   'P 1'
_cell_length_a   6.25785500
_cell_length_b   6.25787950
_cell_length_c   20.06707362
_cell_angle_alpha   89.99981701
_cell_angle_beta   90.00009271
_cell_angle_gamma   120.00015663
_symmetry_Int_Tables_number   1
_chemical_formula_structural   ErTa7O19
_chemical_formula_sum   'Er2 Ta14 O38'
_cell_volume   680.56041184
_cell_formula_units_Z   2
loop_
 _symmetry_equiv_pos_site_id
 _symmetry_equiv_pos_as_xyz
  1  'x, y, z'
loop_
 _atom_site_type_symbol
 _atom_site_label
 _atom_site_symmetry_multiplicity
 _atom_site_fract_x
 _atom_site_fract_y
 _atom_site_fract_z
 _atom_site_occupancy
  Er  Er0  1  0.33327886  0.66665765  0.99998297  1
  Er  Er1  1  0.33328597  0.66660269  0.49999567  1
  Ta  Ta2  1  0.36037169  0.36048951  0.15524072  1
  Ta  Ta3  1  0.36036002  0.36048699  0.34475967  1
  Ta  Ta4  1  0.63952869  0.63964018  0.84475956  1
  Ta  Ta5  1  0.63952712  0.63964446  0.65523810  1
  Ta  Ta6  1  0.36036816  0.99988395  0.65523397  1
  Ta  Ta7  1  0.36037752  0.99988187  0.84475583  1
  Ta  Ta8  1  0.66665459  0.33332769  0.49999977  1
  Ta  Ta9  1  0.66665391  0.33332085  0.00000205  1
  Ta  Ta10  1  0.63952242  0.99987620  0.15524265  1
  Ta  Ta11  1  0.63952341  0.99987595  0.34476553  1
  Ta  Ta12  1  0.00012449  0.63964092  0.15524277  1
  Ta  Ta13  1  0.00013244  0.63964636  0.34476400  1
  Ta  Ta14  1  0.00013038  0.36048185  0.84475882  1
  Ta  Ta15  1  0.00012602  0.36048007  0.65523773  1
  O  O16  1  0.99962241  0.75247250  0.84696134  1
  O  O17  1  0.99962364  0.75248215  0.65303778  1
  O  O18  1  0.04262885  0.62641397  0.24999677  1
  O  O19  1  0.24752735  0.00038337  0.34696483  1
  O  O20  1  0.24752883  0.00038966  0.15303749  1
  O  O21  1  0.04263978  0.41622609  0.75000015  1
  O  O22  1  0.99961721  0.24714114  0.15303665  1
  O  O23  1  0.99962224  0.24715854  0.34696844  1
  O  O24  1  0.37359915  0.95737465  0.75000084  1
  O  O25  1  0.33333616  0.66666993  0.13058589  1
  O  O26  1  0.33333799  0.66666908  0.86941919  1
  O  O27  1  0.33333389  0.66665810  0.63058314  1
  O  O28  1  0.33333767  0.66666599  0.36941997  1
  O  O29  1  0.58379014  0.95737688  0.25000010  1
  O  O30  1  0.24752994  0.24714435  0.65303740  1
  O  O31  1  0.24752509  0.24714237  0.84696225  1
  O  O32  1  0.37359166  0.41622600  0.24999734  1
  O  O33  1  0.42705763  0.38451866  0.05524484  1
  O  O34  1  0.42705480  0.38451374  0.44475421  1
  O  O35  1  0.75284819  0.00038272  0.84696566  1
  O  O36  1  0.75285133  0.00038474  0.65303088  1
  O  O37  1  0.58378549  0.62641461  0.75000390  1
  O  O38  1  0.61548281  0.57293329  0.55524989  1
  O  O39  1  0.61548329  0.57293793  0.94475303  1
  O  O40  1  0.75284776  0.75246242  0.15303710  1
  O  O41  1  0.75286046  0.75247921  0.34696231  1
  O  O42  1  0.42705303  0.04253864  0.55524769  1
  O  O43  1  0.42705354  0.04254141  0.94475326  1
  O  O44  1  0.66667360  0.33333792  0.33397528  1
  O  O45  1  0.66667914  0.33334525  0.66602463  1
  O  O46  1  0.66667225  0.33333770  0.83397339  1
  O  O47  1  0.66667383  0.33334209  0.16602838  1
  O  O48  1  0.61547609  0.04254618  0.05524981  1
  O  O49  1  0.61548076  0.04254875  0.44475483  1
  O  O50  1  0.95745086  0.57293020  0.05524599  1
  O  O51  1  0.95744732  0.57293778  0.44475429  1
  O  O52  1  0.95745205  0.38451680  0.94475136  1
  O  O53  1  0.95745808  0.38451700  0.55524890  1
