# generated using pymatgen
data_Li2Mn3CuO8
_symmetry_space_group_name_H-M   'P 1'
_cell_length_a   8.38357568
_cell_length_b   8.30052144
_cell_length_c   8.33339325
_cell_angle_alpha   89.89732943
_cell_angle_beta   90.22882288
_cell_angle_gamma   90.08057059
_symmetry_Int_Tables_number   1
_chemical_formula_structural   Li2Mn3CuO8
_chemical_formula_sum   'Li8 Mn12 Cu4 O32'
_cell_volume   579.89846005
_cell_formula_units_Z   4
loop_
 _symmetry_equiv_pos_site_id
 _symmetry_equiv_pos_as_xyz
  1  'x, y, z'
loop_
 _atom_site_type_symbol
 _atom_site_label
 _atom_site_symmetry_multiplicity
 _atom_site_fract_x
 _atom_site_fract_y
 _atom_site_fract_z
 _atom_site_occupancy
  Li  Li0  1  0.00526062  0.00602954  0.00463587  1
  Li  Li1  1  0.24669461  0.24327027  0.24262783  1
  Li  Li2  1  0.25542207  0.75435944  0.74567977  1
  Li  Li3  1  0.49544024  0.99252021  0.50682724  1
  Li  Li4  1  0.50344647  0.49586855  0.99570352  1
  Li  Li5  1  0.74446329  0.25733541  0.75716161  1
  Li  Li6  1  0.75411994  0.74364144  0.25412750  1
  Li  Li7  1  0.99461026  0.50740717  0.49359828  1
  Mn  Mn8  1  0.11916404  0.12916261  0.62779030  1
  Mn  Mn9  1  0.12816375  0.38323164  0.87059331  1
  Mn  Mn10  1  0.13322604  0.62595080  0.11788690  1
  Mn  Mn11  1  0.36893841  0.37873207  0.62065263  1
  Mn  Mn12  1  0.37671197  0.62150299  0.36737441  1
  Mn  Mn13  1  0.38183376  0.86712175  0.12170277  1
  Mn  Mn14  1  0.61635871  0.37054869  0.37117551  1
  Mn  Mn15  1  0.62292532  0.12001332  0.12865671  1
  Mn  Mn16  1  0.63118481  0.87075463  0.88332341  1
  Mn  Mn17  1  0.86780810  0.12372723  0.37973121  1
  Mn  Mn18  1  0.87447044  0.87902927  0.63219564  1
  Mn  Mn19  1  0.88068449  0.63000190  0.87853798  1
  Cu  Cu20  1  0.12318368  0.87493012  0.37235245  1
  Cu  Cu21  1  0.37309906  0.12316714  0.87542105  1
  Cu  Cu22  1  0.62286548  0.62551953  0.62687887  1
  Cu  Cu23  1  0.87485304  0.37668156  0.12650036  1
  O  O24  1  0.09988187  0.11510678  0.39238425  1
  O  O25  1  0.10340474  0.90034074  0.63352312  1
  O  O26  1  0.11514159  0.61802683  0.88293688  1
  O  O27  1  0.12574197  0.15284571  0.85909990  1
  O  O28  1  0.14037323  0.39564515  0.09749889  1
  O  O29  1  0.13373734  0.36628206  0.63174655  1
  O  O30  1  0.14301597  0.63539997  0.35012460  1
  O  O31  1  0.15455877  0.85838596  0.11632625  1
  O  O32  1  0.35057363  0.14257316  0.63502851  1
  O  O33  1  0.35531198  0.38991515  0.84627717  1
  O  O34  1  0.36603470  0.63310534  0.13331989  1
  O  O35  1  0.37512792  0.61110200  0.59604340  1
  O  O36  1  0.38141675  0.85101975  0.35339891  1
  O  O37  1  0.38211083  0.38239528  0.38505155  1
  O  O38  1  0.39108891  0.09858178  0.11446317  1
  O  O39  1  0.40608970  0.86015218  0.89239814  1
  O  O40  1  0.60046777  0.38500343  0.60717455  1
  O  O41  1  0.60360714  0.59772644  0.36112924  1
  O  O42  1  0.61721961  0.88391447  0.11724033  1
  O  O43  1  0.60951337  0.34599293  0.14287515  1
  O  O44  1  0.62428849  0.10517017  0.89856728  1
  O  O45  1  0.63345479  0.13328673  0.36704042  1
  O  O46  1  0.64170209  0.86497982  0.65141776  1
  O  O47  1  0.65625033  0.64052337  0.88928321  1
  O  O48  1  0.84812323  0.35933251  0.36716195  1
  O  O49  1  0.85437042  0.12806440  0.14916357  1
  O  O50  1  0.86620237  0.86661237  0.86784655  1
  O  O51  1  0.86850948  0.89195332  0.40333445  1
  O  O52  1  0.87468350  0.64828793  0.64625547  1
  O  O53  1  0.88355144  0.11766239  0.61596113  1
  O  O54  1  0.89482293  0.39785957  0.88399845  1
  O  O55  1  0.90469254  0.62238702  0.11093318  1
