# generated using pymatgen
data_K(WO3)3
_symmetry_space_group_name_H-M   'P 1'
_cell_length_a   7.51004243
_cell_length_b   7.51035240
_cell_length_c   7.74336140
_cell_angle_alpha   90.00117243
_cell_angle_beta   89.99926139
_cell_angle_gamma   120.00030962
_symmetry_Int_Tables_number   1
_chemical_formula_structural   K(WO3)3
_chemical_formula_sum   'K2 W6 O18'
_cell_volume   378.23482400
_cell_formula_units_Z   2
loop_
 _symmetry_equiv_pos_site_id
 _symmetry_equiv_pos_as_xyz
  1  'x, y, z'
loop_
 _atom_site_type_symbol
 _atom_site_label
 _atom_site_symmetry_multiplicity
 _atom_site_fract_x
 _atom_site_fract_y
 _atom_site_fract_z
 _atom_site_occupancy
  K  K0  1  0.00000283  0.99999831  0.26719547  1
  K  K1  1  0.99999872  0.00000621  0.76678438  1
  W  W2  1  0.00001358  0.50226856  0.50016928  1
  W  W3  1  0.99999005  0.49758807  0.00015312  1
  W  W4  1  0.49769742  0.49769311  0.50014720  1
  W  W5  1  0.50236741  0.50232776  0.00016801  1
  W  W6  1  0.49762471  0.00003903  0.00016520  1
  W  W7  1  0.50231572  0.00003049  0.50015158  1
  O  O8  1  0.01342876  0.50663884  0.75023555  1
  O  O9  1  0.20879059  0.78968245  0.00793450  1
  O  O10  1  0.21029349  0.79117457  0.49183369  1
  O  O11  1  0.20886540  0.41914667  0.49185734  1
  O  O12  1  0.49318471  0.98658845  0.75024327  1
  O  O13  1  0.21035176  0.41914743  0.00792532  1
  O  O14  1  0.58089055  0.79124032  0.00790397  1
  O  O15  1  0.58087911  0.78973136  0.49187191  1
  O  O16  1  0.49339043  0.50677723  0.75023059  1
  O  O17  1  0.50680676  0.49341244  0.24982817  1
  O  O18  1  0.41917848  0.21034279  0.99187376  1
  O  O19  1  0.41911930  0.20882282  0.50790263  1
  O  O20  1  0.78974000  0.58089264  0.50792579  1
  O  O21  1  0.50664268  0.01339468  0.24981620  1
  O  O22  1  0.79121246  0.58084758  0.99184928  1
  O  O23  1  0.78964883  0.20877239  0.99184285  1
  O  O24  1  0.79116273  0.21024240  0.50794094  1
  O  O25  1  0.98658553  0.49319240  0.24982896  1
