# generated using pymatgen
data_Li2MnV3O8
_symmetry_space_group_name_H-M   'P 1'
_cell_length_a   8.50121766
_cell_length_b   8.50178808
_cell_length_c   8.50362666
_cell_angle_alpha   89.97706125
_cell_angle_beta   89.97414973
_cell_angle_gamma   89.97263514
_symmetry_Int_Tables_number   1
_chemical_formula_structural   Li2MnV3O8
_chemical_formula_sum   'Li8 Mn4 V12 O32'
_cell_volume   614.60412082
_cell_formula_units_Z   4
loop_
 _symmetry_equiv_pos_site_id
 _symmetry_equiv_pos_as_xyz
  1  'x, y, z'
loop_
 _atom_site_type_symbol
 _atom_site_label
 _atom_site_symmetry_multiplicity
 _atom_site_fract_x
 _atom_site_fract_y
 _atom_site_fract_z
 _atom_site_occupancy
  Li  Li0  1  0.12595509  0.87261248  0.37162256  1
  Li  Li1  1  0.25116422  0.75187267  0.74875471  1
  Li  Li2  1  0.24844077  0.24839325  0.24847891  1
  Li  Li3  1  0.37156484  0.12610976  0.87252934  1
  Li  Li4  1  0.62823857  0.62771749  0.62815637  1
  Li  Li5  1  0.75206340  0.74883882  0.25123384  1
  Li  Li6  1  0.74863931  0.25136234  0.75205396  1
  Li  Li7  1  0.87291595  0.37155679  0.12615626  1
  Mn  Mn8  1  0.99531752  0.50409093  0.49676092  1
  Mn  Mn9  1  0.50393580  0.49659410  0.99526691  1
  Mn  Mn10  1  0.49674251  0.99533654  0.50390661  1
  Mn  Mn11  1  0.00428327  0.00425157  0.00422483  1
  V  V12  1  0.12635124  0.61981758  0.12165286  1
  V  V13  1  0.12089013  0.37908319  0.87331973  1
  V  V14  1  0.12155638  0.12629256  0.61978061  1
  V  V15  1  0.37909832  0.87334203  0.12096363  1
  V  V16  1  0.37918838  0.62099025  0.37472620  1
  V  V17  1  0.37477528  0.37910423  0.62089503  1
  V  V18  1  0.62611399  0.87994533  0.87920530  1
  V  V19  1  0.61981041  0.12170881  0.12616028  1
  V  V20  1  0.62109522  0.37479210  0.37903664  1
  V  V21  1  0.87914196  0.62628754  0.88011804  1
  V  V22  1  0.87984799  0.87925319  0.62637909  1
  V  V23  1  0.87329225  0.12088607  0.37906839  1
  O  O24  1  0.10327338  0.13112807  0.39950049  1
  O  O25  1  0.10024624  0.89637024  0.63022204  1
  O  O26  1  0.11567773  0.61530441  0.88485029  1
  O  O27  1  0.13140701  0.39945580  0.10321611  1
  O  O28  1  0.12212498  0.14763499  0.85028333  1
  O  O29  1  0.13651516  0.36419037  0.63532198  1
  O  O30  1  0.14848830  0.62238119  0.35285520  1
  O  O31  1  0.14764392  0.85034693  0.12214592  1
  O  O32  1  0.35289918  0.14853181  0.62222263  1
  O  O33  1  0.35131512  0.37766744  0.85198992  1
  O  O34  1  0.36426788  0.63529513  0.13660590  1
  O  O35  1  0.37770503  0.85215896  0.35127814  1
  O  O36  1  0.36839237  0.60001875  0.60397238  1
  O  O37  1  0.38483691  0.38479900  0.38473469  1
  O  O38  1  0.39947122  0.10330291  0.13126521  1
  O  O39  1  0.39616681  0.86846697  0.90049316  1
  O  O40  1  0.60413829  0.36855021  0.59991432  1
  O  O41  1  0.60011263  0.60410311  0.36838877  1
  O  O42  1  0.61533909  0.88481994  0.11559039  1
  O  O43  1  0.62986386  0.10035617  0.89624693  1
  O  O44  1  0.62249755  0.35295062  0.14841892  1
  O  O45  1  0.63529431  0.13662225  0.36406992  1
  O  O46  1  0.64943684  0.87764559  0.64796446  1
  O  O47  1  0.64785380  0.64950137  0.87770745  1
  O  O48  1  0.85227350  0.35132790  0.37761285  1
  O  O49  1  0.85035842  0.12200821  0.14769231  1
  O  O50  1  0.86428948  0.86446390  0.86446932  1
  O  O51  1  0.87773536  0.64792783  0.64973718  1
  O  O52  1  0.86851208  0.90035166  0.39641579  1
  O  O53  1  0.88469359  0.11573675  0.61527868  1
  O  O54  1  0.90035191  0.39627182  0.86880606  1
  O  O55  1  0.89639726  0.63015011  0.10035721  1
