# generated using pymatgen
data_Li3V3(FeO6)2
_symmetry_space_group_name_H-M   'P 1'
_cell_length_a   8.85941006
_cell_length_b   12.48919131
_cell_length_c   9.23257495
_cell_angle_alpha   90.00000000
_cell_angle_beta   90.00000000
_cell_angle_gamma   91.28310869
_symmetry_Int_Tables_number   1
_chemical_formula_structural   Li3V3(FeO6)2
_chemical_formula_sum   'Li12 V12 Fe8 O48'
_cell_volume   1021.29934265
_cell_formula_units_Z   4
loop_
 _symmetry_equiv_pos_site_id
 _symmetry_equiv_pos_as_xyz
  1  'x, y, z'
loop_
 _atom_site_type_symbol
 _atom_site_label
 _atom_site_symmetry_multiplicity
 _atom_site_fract_x
 _atom_site_fract_y
 _atom_site_fract_z
 _atom_site_occupancy
  Li  Li0  1  0.07138107  0.69825623  0.08994705  1
  Li  Li1  1  0.06382809  0.34448034  0.50675214  1
  Li  Li2  1  0.18005739  0.17952521  0.77646244  1
  Li  Li3  1  0.31994261  0.32047479  0.27646244  1
  Li  Li4  1  0.42861893  0.80174377  0.58994705  1
  Li  Li5  1  0.43617191  0.15551966  0.00675214  1
  Li  Li6  1  0.56382809  0.84448034  0.99324786  1
  Li  Li7  1  0.57138107  0.19825623  0.41005295  1
  Li  Li8  1  0.68005739  0.67952521  0.72353756  1
  Li  Li9  1  0.81994261  0.82047479  0.22353756  1
  Li  Li10  1  0.93617191  0.65551966  0.49324786  1
  Li  Li11  1  0.92861893  0.30174377  0.91005295  1
  V  V12  1  0.03842457  0.49120034  0.24694428  1
  V  V13  1  0.11534386  0.85075343  0.38033816  1
  V  V14  1  0.11270959  0.14283356  0.11613001  1
  V  V15  1  0.38465614  0.64924657  0.88033816  1
  V  V16  1  0.38729041  0.35716644  0.61613001  1
  V  V17  1  0.46157543  0.00879966  0.74694428  1
  V  V18  1  0.53842457  0.99120034  0.25305572  1
  V  V19  1  0.61270959  0.64283356  0.38386999  1
  V  V20  1  0.61534386  0.35075343  0.11966184  1
  V  V21  1  0.88729041  0.85716644  0.88386999  1
  V  V22  1  0.88465614  0.14924657  0.61966184  1
  V  V23  1  0.96157543  0.50879966  0.75305572  1
  Fe  Fe24  1  0.24706481  0.89237697  0.02243145  1
  Fe  Fe25  1  0.25293519  0.60762303  0.52243145  1
  Fe  Fe26  1  0.25470457  0.38338021  0.96855905  1
  Fe  Fe27  1  0.24529543  0.11661979  0.46855905  1
  Fe  Fe28  1  0.75470457  0.88338021  0.53144095  1
  Fe  Fe29  1  0.74529543  0.61661979  0.03144095  1
  Fe  Fe30  1  0.74706481  0.39237697  0.47756855  1
  Fe  Fe31  1  0.75293519  0.10762303  0.97756855  1
  O  O32  1  0.06096894  0.43879924  0.88313292  1
  O  O33  1  0.06946806  0.90695083  0.88826750  1
  O  O34  1  0.06525793  0.60700188  0.66004299  1
  O  O35  1  0.07234063  0.19250326  0.57617587  1
  O  O36  1  0.09695632  0.59232600  0.36768341  1
  O  O37  1  0.12295869  0.83737265  0.19086005  1
  O  O38  1  0.13972377  0.98365109  0.41993882  1
  O  O39  1  0.12431352  0.24590255  0.98640129  1
  O  O40  1  0.17506549  0.19123756  0.28483089  1
  O  O41  1  0.19620622  0.43016789  0.17186464  1
  O  O42  1  0.24433569  0.77333778  0.47426153  1
  O  O43  1  0.25566431  0.72666222  0.97426153  1
  O  O44  1  0.24744346  0.05221740  0.05420759  1
  O  O45  1  0.25255654  0.44778260  0.55420759  1
  O  O46  1  0.30379378  0.06983211  0.67186464  1
  O  O47  1  0.32493451  0.30876244  0.78483089  1
  O  O48  1  0.36027623  0.51634891  0.91993882  1
  O  O49  1  0.37568648  0.25409745  0.48640129  1
  O  O50  1  0.37704131  0.66262735  0.69086005  1
  O  O51  1  0.40304368  0.90767400  0.86768341  1
  O  O52  1  0.43474207  0.89299812  0.16004299  1
  O  O53  1  0.43053194  0.59304917  0.38826750  1
  O  O54  1  0.42765937  0.30749674  0.07617587  1
  O  O55  1  0.43903106  0.06120076  0.38313292  1
  O  O56  1  0.56096894  0.93879924  0.61686708  1
  O  O57  1  0.57234063  0.69250326  0.92382413  1
  O  O58  1  0.56946806  0.40695083  0.61173250  1
  O  O59  1  0.56525793  0.10700188  0.83995701  1
  O  O60  1  0.59695632  0.09232600  0.13231659  1
  O  O61  1  0.62295869  0.33737265  0.30913995  1
  O  O62  1  0.62431352  0.74590255  0.51359871  1
  O  O63  1  0.63972377  0.48365109  0.08006118  1
  O  O64  1  0.67506549  0.69123756  0.21516911  1
  O  O65  1  0.69620622  0.93016789  0.32813536  1
  O  O66  1  0.74744346  0.55221740  0.44579241  1
  O  O67  1  0.75255654  0.94778260  0.94579241  1
  O  O68  1  0.74433569  0.27333778  0.02573847  1
  O  O69  1  0.75566431  0.22666222  0.52573847  1
  O  O70  1  0.80379378  0.56983211  0.82813536  1
  O  O71  1  0.82493451  0.80876244  0.71516911  1
  O  O72  1  0.87568648  0.75409745  0.01359871  1
  O  O73  1  0.86027623  0.01634891  0.58006118  1
  O  O74  1  0.87704131  0.16262735  0.80913995  1
  O  O75  1  0.90304368  0.40767400  0.63231659  1
  O  O76  1  0.92765937  0.80749674  0.42382413  1
  O  O77  1  0.93474207  0.39299812  0.33995701  1
  O  O78  1  0.93053194  0.09304917  0.11173250  1
  O  O79  1  0.93903106  0.56120076  0.11686708  1
