# generated using pymatgen
data_Fe(SeO3)2
_symmetry_space_group_name_H-M   'P 1'
_cell_length_a   9.25235128
_cell_length_b   9.25235128
_cell_length_c   9.25235129
_cell_angle_alpha   107.93856354
_cell_angle_beta   107.93856356
_cell_angle_gamma   112.58204179
_symmetry_Int_Tables_number   1
_chemical_formula_structural   Fe(SeO3)2
_chemical_formula_sum   'Fe4 Se8 O24'
_cell_volume   608.36967524
_cell_formula_units_Z   4
loop_
 _symmetry_equiv_pos_site_id
 _symmetry_equiv_pos_as_xyz
  1  'x, y, z'
loop_
 _atom_site_type_symbol
 _atom_site_label
 _atom_site_symmetry_multiplicity
 _atom_site_fract_x
 _atom_site_fract_y
 _atom_site_fract_z
 _atom_site_occupancy
  O  O0  1  0.91015887  0.56771142  0.96940527  1
  O  O1  1  0.32355764  0.94735789  0.77811586  1
  O  O2  1  0.15169421  0.68228942  0.84244792  1
  O  O3  1  0.08437206  0.37451488  0.87449299  1
  O  O4  1  0.83984107  0.30924558  0.15755138  1
  O  O5  1  0.50002177  0.20987928  0.12550766  1
  O  O6  1  0.69735733  0.57355835  0.27811669  1
  O  O7  1  0.66562836  0.04012096  0.79014244  1
  O  O8  1  0.31771101  0.16015843  0.46940513  1
  O  O9  1  0.43228903  0.40169360  0.34244840  1
  O  O10  1  0.59830605  0.94075421  0.03059474  1
  O  O11  1  0.42644189  0.70455886  0.12379922  1
  O  O12  1  0.79012010  0.91562820  0.29014245  1
  O  O13  1  0.95987934  0.75002251  0.62550779  1
  O  O14  1  0.12451414  0.33437213  0.37449244  1
  O  O15  1  0.62548544  0.49997781  0.70985742  1
  O  O16  1  0.58075875  0.30264295  0.87620017  1
  O  O17  1  0.16924130  0.54544146  0.22188336  1
  O  O18  1  0.05264316  0.83075944  0.37620124  1
  O  O19  1  0.69075351  0.84830532  0.53059465  1
  O  O20  1  0.05924662  0.08984093  0.65755247  1
  O  O21  1  0.24997826  0.87548597  0.20985738  1
  O  O22  1  0.45455816  0.67644197  0.62379938  1
  O  O23  1  0.29544214  0.41924141  0.72188395  1
  Fe  Fe24  1  0.87499917  0.83440455  0.45940495  1
  Fe  Fe25  1  0.37499959  0.41559437  0.54059444  1
  Fe  Fe26  1  0.16559432  0.62499945  0.04059403  1
  Fe  Fe27  1  0.58440553  0.12500038  0.95940530  1
  Se  Se28  1  0.03857347  0.33153051  0.17917150  1
  Se  Se29  1  0.71142672  0.39059869  0.79295784  1
  Se  Se30  1  0.60940184  0.40235946  0.32082847  1
  Se  Se31  1  0.59764057  0.91846841  0.20704240  1
  Se  Se32  1  0.66846943  0.84764086  0.70704315  1
  Se  Se33  1  0.08153142  0.28857360  0.67917217  1
  Se  Se34  1  0.14059854  0.96142583  0.29295718  1
  Se  Se35  1  0.15235928  0.85940215  0.82082772  1
