# generated using pymatgen
data_Na2MnPCO7
_symmetry_space_group_name_H-M   'P 1'
_cell_length_a   8.92107849
_cell_length_b   13.42919576
_cell_length_c   5.17724009
_cell_angle_alpha   89.74472462
_cell_angle_beta   88.65767327
_cell_angle_gamma   90.55834286
_symmetry_Int_Tables_number   1
_chemical_formula_structural   Na2MnPCO7
_chemical_formula_sum   'Na8 Mn4 P4 C4 O28'
_cell_volume   620.04196755
_cell_formula_units_Z   4
loop_
 _symmetry_equiv_pos_site_id
 _symmetry_equiv_pos_as_xyz
  1  'x, y, z'
loop_
 _atom_site_type_symbol
 _atom_site_label
 _atom_site_symmetry_multiplicity
 _atom_site_fract_x
 _atom_site_fract_y
 _atom_site_fract_z
 _atom_site_occupancy
  Na  Na0  1  0.25049306  0.00565132  0.24313281  1
  Na  Na1  1  0.24030870  0.24534266  0.24553032  1
  Na  Na2  1  0.24473009  0.50552136  0.24635422  1
  Na  Na3  1  0.25515857  0.74170777  0.24804862  1
  Na  Na4  1  0.75818490  0.25421485  0.75524332  1
  Na  Na5  1  0.76141470  0.50117209  0.75535280  1
  Na  Na6  1  0.74475882  0.99423761  0.75510824  1
  Na  Na7  1  0.91419634  0.86124858  0.23023813  1
  Mn  Mn8  1  0.35180971  0.37573525  0.78369460  1
  Mn  Mn9  1  0.35453139  0.87431155  0.77716034  1
  Mn  Mn10  1  0.64575516  0.12575390  0.22331403  1
  Mn  Mn11  1  0.65601968  0.63057858  0.20819995  1
  P  P12  1  0.42008642  0.12219004  0.70659606  1
  P  P13  1  0.42460096  0.62755385  0.70907073  1
  P  P14  1  0.57892120  0.37422748  0.28937426  1
  P  P15  1  0.57886334  0.87727199  0.30193524  1
  C  C16  1  0.07502864  0.37518941  0.73033907  1
  C  C17  1  0.06731866  0.87640651  0.72145374  1
  C  C18  1  0.92884166  0.62318722  0.26614413  1
  C  C19  1  0.92739361  0.12481941  0.27632461  1
  O  O20  1  0.06781780  0.12137199  0.27069659  1
  O  O21  1  0.06859332  0.62507169  0.28650080  1
  O  O22  1  0.14718331  0.37483390  0.95099497  1
  O  O23  1  0.14582595  0.87273537  0.93741891  1
  O  O24  1  0.14594367  0.87366381  0.50745916  1
  O  O25  1  0.16784689  0.37442858  0.53035507  1
  O  O26  1  0.32973834  0.02584634  0.77818784  1
  O  O27  1  0.32670452  0.21331938  0.78218724  1
  O  O28  1  0.32467478  0.53649202  0.77777866  1
  O  O29  1  0.33528740  0.72364911  0.77794369  1
  O  O30  1  0.44793362  0.12263208  0.40214571  1
  O  O31  1  0.45800455  0.62800617  0.40857973  1
  O  O32  1  0.42342417  0.37386209  0.15593876  1
  O  O33  1  0.42593365  0.87622491  0.16853238  1
  O  O34  1  0.57508803  0.12319418  0.83422918  1
  O  O35  1  0.57434235  0.62342310  0.85228715  1
  O  O36  1  0.54567643  0.37420557  0.59195516  1
  O  O37  1  0.54641621  0.88267821  0.60244716  1
  O  O38  1  0.66684509  0.27878088  0.22132821  1
  O  O39  1  0.67270087  0.46582223  0.21410502  1
  O  O40  1  0.67647560  0.78759684  0.23663856  1
  O  O41  1  0.67575951  0.97119777  0.22867593  1
  O  O42  1  0.84252844  0.12568417  0.48293058  1
  O  O43  1  0.83274375  0.62267443  0.46053081  1
  O  O44  1  0.85030481  0.12607051  0.05875035  1
  O  O45  1  0.86223912  0.62597086  0.04191095  1
  O  O46  1  0.93565667  0.37616235  0.71983942  1
  O  O47  1  0.92661854  0.88203000  0.73418280  1
