# generated using pymatgen
data_LiFe2F7
_symmetry_space_group_name_H-M   'P 1'
_cell_length_a   13.00480101
_cell_length_b   5.10341286
_cell_length_c   7.47101339
_cell_angle_alpha   90.00000000
_cell_angle_beta   95.56608932
_cell_angle_gamma   90.00000000
_symmetry_Int_Tables_number   1
_chemical_formula_structural   LiFe2F7
_chemical_formula_sum   'Li4 Fe8 F28'
_cell_volume   493.50479886
_cell_formula_units_Z   4
loop_
 _symmetry_equiv_pos_site_id
 _symmetry_equiv_pos_as_xyz
  1  'x, y, z'
loop_
 _atom_site_type_symbol
 _atom_site_label
 _atom_site_symmetry_multiplicity
 _atom_site_fract_x
 _atom_site_fract_y
 _atom_site_fract_z
 _atom_site_occupancy
  Li  Li0  1  0.07113833  0.74507263  0.85291820  1
  Li  Li1  1  0.07113833  0.75492737  0.35291820  1
  Li  Li2  1  0.92886167  0.24507263  0.64708180  1
  Li  Li3  1  0.92886167  0.25492737  0.14708180  1
  Fe  Fe4  1  0.18142693  0.24791211  0.65639896  1
  Fe  Fe5  1  0.18142693  0.25208789  0.15639896  1
  Fe  Fe6  1  0.39326532  0.75269584  0.72379841  1
  Fe  Fe7  1  0.39326532  0.74730416  0.22379841  1
  Fe  Fe8  1  0.60673468  0.25269584  0.77620159  1
  Fe  Fe9  1  0.60673468  0.24730416  0.27620159  1
  Fe  Fe10  1  0.81857307  0.74791211  0.84360104  1
  Fe  Fe11  1  0.81857307  0.75208789  0.34360104  1
  F  F12  1  0.10576179  0.94531690  0.57677988  1
  F  F13  1  0.05716661  0.44044557  0.68837745  1
  F  F14  1  0.17659486  0.10496047  0.90824722  1
  F  F15  1  0.10576179  0.55468310  0.07677988  1
  F  F16  1  0.05716661  0.05955443  0.18837745  1
  F  F17  1  0.17659486  0.39503953  0.40824722  1
  F  F18  1  0.31333277  0.06246199  0.64230295  1
  F  F19  1  0.26399830  0.55673244  0.74844411  1
  F  F20  1  0.31333277  0.43753801  0.14230295  1
  F  F21  1  0.26399830  0.94326756  0.24844411  1
  F  F22  1  0.39187003  0.63392414  0.47387696  1
  F  F23  1  0.39187003  0.86607586  0.97387696  1
  F  F24  1  0.47832522  0.44904403  0.80059241  1
  F  F25  1  0.52167478  0.94904403  0.69940759  1
  F  F26  1  0.47832522  0.05095597  0.30059241  1
  F  F27  1  0.52167478  0.55095597  0.19940759  1
  F  F28  1  0.60812997  0.13392414  0.02612304  1
  F  F29  1  0.60812997  0.36607586  0.52612304  1
  F  F30  1  0.73600170  0.05673244  0.75155589  1
  F  F31  1  0.68666723  0.56246199  0.85769705  1
  F  F32  1  0.73600170  0.44326756  0.25155589  1
  F  F33  1  0.68666723  0.93753801  0.35769705  1
  F  F34  1  0.82340514  0.60496047  0.59175278  1
  F  F35  1  0.94283339  0.94044557  0.81162255  1
  F  F36  1  0.89423821  0.44531690  0.92322012  1
  F  F37  1  0.82340514  0.89503953  0.09175278  1
  F  F38  1  0.94283339  0.55955443  0.31162255  1
  F  F39  1  0.89423821  0.05468310  0.42322012  1
