# generated using pymatgen
data_Li2Y14Ti14(S2O5)7
_symmetry_space_group_name_H-M   'P 1'
_cell_length_a   11.69432127
_cell_length_b   12.15842787
_cell_length_c   8.59754465
_cell_angle_alpha   81.87314352
_cell_angle_beta   77.26098776
_cell_angle_gamma   84.03522194
_symmetry_Int_Tables_number   1
_chemical_formula_structural   Li2Y14Ti14(S2O5)7
_chemical_formula_sum   'Li2 Y14 Ti14 S14 O35'
_cell_volume   1177.01873889
_cell_formula_units_Z   1
loop_
 _symmetry_equiv_pos_site_id
 _symmetry_equiv_pos_as_xyz
  1  'x, y, z'
loop_
 _atom_site_type_symbol
 _atom_site_label
 _atom_site_symmetry_multiplicity
 _atom_site_fract_x
 _atom_site_fract_y
 _atom_site_fract_z
 _atom_site_occupancy
  Li  Li0  1  0.00000000  0.21428600  0.35714300  1
  Li  Li1  1  0.00000000  0.71428600  0.35714300  1
  Y  Y2  1  0.66647805  0.23805205  0.95258587  1
  Y  Y3  1  0.33352195  0.19051995  0.76170013  1
  Y  Y4  1  0.33372643  0.47748042  0.90187598  1
  Y  Y5  1  0.66627357  0.95109158  0.81241002  1
  Y  Y6  1  0.66858141  0.66638130  0.66691889  1
  Y  Y7  1  0.66795162  0.38054531  0.52443151  1
  Y  Y8  1  0.66871582  0.09554268  0.37904056  1
  Y  Y9  1  0.33128418  0.33302932  0.33524544  1
  Y  Y10  1  0.33079558  0.61915032  0.47773699  1
  Y  Y11  1  0.33319276  0.90340299  0.62177813  1
  Y  Y12  1  0.33204838  0.04802669  0.18985349  1
  Y  Y13  1  0.66920442  0.80942168  0.23654901  1
  Y  Y14  1  0.66680724  0.52516901  0.09250787  1
  Y  Y15  1  0.33141859  0.76218970  0.04736611  1
  Ti  Ti16  1  0.83616581  0.15396126  0.62638962  1
  Ti  Ti17  1  0.83999998  0.72573526  0.90280051  1
  Ti  Ti18  1  0.83991075  0.44137331  0.75836174  1
  Ti  Ti19  1  0.15997627  0.41852000  0.66704170  1
  Ti  Ti20  1  0.16008925  0.98719869  0.95592426  1
  Ti  Ti21  1  0.16000002  0.70283574  0.81148449  1
  Ti  Ti22  1  0.16379667  0.13047658  0.53275925  1
  Ti  Ti23  1  0.83571699  0.57889504  0.32929597  1
  Ti  Ti24  1  0.83601695  0.87309415  0.47898891  1
  Ti  Ti25  1  0.83620333  0.29809442  0.18152575  1
  Ti  Ti26  1  0.84002373  0.01005200  0.04724430  1
  Ti  Ti27  1  0.16383419  0.27461074  0.08789638  1
  Ti  Ti28  1  0.16428301  0.84967696  0.38499003  1
  Ti  Ti29  1  0.16398305  0.55547785  0.23529709  1
  S  S30  1  0.59210224  0.17214378  0.68620503  1
  S  S31  1  0.58815775  0.74355288  0.97534947  1
  S  S32  1  0.58839873  0.45772237  0.83231117  1
  S  S33  1  0.41183887  0.39923094  0.59580509  1
  S  S34  1  0.41160127  0.97084963  0.88197383  1
  S  S35  1  0.41184225  0.68501912  0.73893553  1
  S  S36  1  0.40806389  0.11391970  0.45357213  1
  S  S37  1  0.59259344  0.60175122  0.40226607  1
  S  S38  1  0.59245225  0.88550470  0.54360187  1
  S  S39  1  0.59193611  0.31465130  0.26071387  1
  S  S40  1  0.58816113  0.02934006  0.11848091  1
  S  S41  1  0.40789776  0.25642822  0.02808097  1
  S  S42  1  0.40740656  0.82681978  0.31201993  1
  S  S43  1  0.40754775  0.54306630  0.17068313  1
  O  O44  1  0.79919744  0.08503077  0.84555964  1
  O  O45  1  0.79935595  0.37223167  0.98347029  1
  O  O46  1  0.79945217  0.01541519  0.55902559  1
  O  O47  1  0.20064405  0.05634033  0.73081471  1
  O  O48  1  0.79938233  0.58615995  0.84197827  1
  O  O49  1  0.79945955  0.87106656  0.98701666  1
  O  O50  1  0.20080256  0.34354023  0.86872636  1
  O  O51  1  0.79875733  0.30013447  0.70152844  1
  O  O52  1  0.20054045  0.55750544  0.72726934  1
  O  O53  1  0.20061767  0.84241105  0.87230773  1
  O  O54  1  0.20115028  0.27142284  0.58653634  1
  O  O55  1  0.99996130  0.14515612  0.56657094  1
  O  O56  1  0.81210550  0.22767521  0.41077450  1
  O  O57  1  0.00000000  0.71428600  0.85714300  1
  O  O58  1  0.79878533  0.80059164  0.70128013  1
  O  O59  1  0.79893467  0.51353669  0.55661283  1
  O  O60  1  0.99995586  0.42892798  0.71274960  1
  O  O61  1  0.18789450  0.20089579  0.30351150  1
  O  O62  1  0.79884972  0.15714816  0.12774966  1
  O  O63  1  0.20080463  0.48475737  0.44179905  1
  O  O64  1  0.81282076  0.72775619  0.41053825  1
  O  O65  1  0.79948496  0.44183019  0.26967632  1
  O  O66  1  0.20094219  0.77181474  0.58646283  1
  O  O67  1  0.00004414  0.99964402  0.00153540  1
  O  O68  1  0.00003870  0.28341488  0.14771506  1
  O  O69  1  0.20051504  0.98674181  0.44460968  1
  O  O70  1  0.00004357  0.85413879  0.42696489  1
  O  O71  1  0.18717924  0.70081581  0.30374775  1
  O  O72  1  0.79919537  0.94381363  0.27248695  1
  O  O73  1  0.99995643  0.57443221  0.28732111  1
  O  O74  1  0.20124267  0.12843653  0.01275656  1
  O  O75  1  0.20054783  0.41315681  0.15525941  1
  O  O76  1  0.79905781  0.65675726  0.12782217  1
  O  O77  1  0.20121467  0.62798036  0.01300587  1
  O  O78  1  0.20106533  0.91503431  0.15767317  1
