# generated using pymatgen
data_Li2Y14Ti14(S2O5)7
_symmetry_space_group_name_H-M   'P 1'
_cell_length_a   8.59631321
_cell_length_b   12.15707540
_cell_length_c   12.89677637
_cell_angle_alpha   67.85049460
_cell_angle_beta   70.53680811
_cell_angle_gamma   81.86812514
_symmetry_Int_Tables_number   1
_chemical_formula_structural   Li2Y14Ti14(S2O5)7
_chemical_formula_sum   'Li2 Y14 Ti14 S14 O35'
_cell_volume   1176.80013147
_cell_formula_units_Z   1
loop_
 _symmetry_equiv_pos_site_id
 _symmetry_equiv_pos_as_xyz
  1  'x, y, z'
loop_
 _atom_site_type_symbol
 _atom_site_label
 _atom_site_symmetry_multiplicity
 _atom_site_fract_x
 _atom_site_fract_y
 _atom_site_fract_z
 _atom_site_occupancy
  Li  Li0  1  0.21428600  0.92857100  0.00000000  1
  Li  Li1  1  0.21428600  0.42857100  0.00000000  1
  Y  Y2  1  0.99935752  0.66752120  0.33204175  1
  Y  Y3  1  0.14462775  0.95239540  0.33211702  1
  Y  Y4  1  0.14078610  0.61834450  0.66933237  1
  Y  Y5  1  0.28394325  0.90474660  0.66788298  1
  Y  Y6  1  0.43145039  0.52273310  0.33317244  1
  Y  Y7  1  0.57120335  0.80932844  0.33362837  1
  Y  Y8  1  0.28778490  0.23879750  0.33066763  1
  Y  Y9  1  0.71701855  0.76052181  0.66698193  1
  Y  Y10  1  0.57154317  0.47527732  0.66848653  1
  Y  Y11  1  0.42921448  0.18962180  0.66795825  1
  Y  Y12  1  0.85702883  0.38186468  0.33151347  1
  Y  Y13  1  0.71155345  0.09662119  0.33301807  1
  Y  Y14  1  0.85736765  0.04781456  0.66637163  1
  Y  Y15  1  0.99712061  0.33440990  0.66682756  1
  Ti  Ti16  1  0.36624843  0.79797369  0.16398688  1
  Ti  Ti17  1  0.06916856  0.22283870  0.16401798  1
  Ti  Ti18  1  0.21863289  0.51710807  0.16414823  1
  Ti  Ti19  1  0.20993811  0.34003493  0.83585177  1
  Ti  Ti20  1  0.50676333  0.91506583  0.83627043  1
  Ti  Ti21  1  0.35940244  0.63430430  0.83598202  1
  Ti  Ti22  1  0.06232357  0.05916931  0.83601312  1
  Ti  Ti23  1  0.92180767  0.94207717  0.16372957  1
  Ti  Ti24  1  0.79007252  0.65581612  0.16014853  1
  Ti  Ti25  1  0.64579449  0.37153921  0.15992161  1
  Ti  Ti26  1  0.50133621  0.08694164  0.15991589  1
  Ti  Ti27  1  0.78277751  0.48560379  0.84007839  1
  Ti  Ti28  1  0.63849848  0.20132688  0.83985147  1
  Ti  Ti29  1  0.92723479  0.77020136  0.84008411  1
  S  S30  1  0.03352834  0.86130113  0.58812587  1
  S  S31  1  0.25255199  0.71151448  0.40777457  1
  S  S32  1  0.11113461  0.42456106  0.40752510  1
  S  S33  1  0.39504366  0.99584187  0.41187413  1
  S  S34  1  0.31743739  0.43258194  0.59247490  1
  S  S35  1  0.45969194  0.71596140  0.59242519  1
  S  S36  1  0.17602001  0.14562852  0.59222543  1
  S  S37  1  0.82615398  0.85443115  0.40789321  1
  S  S38  1  0.53723654  0.28139328  0.41206222  1
  S  S39  1  0.68051893  0.56741894  0.41159017  1
  S  S40  1  0.89133546  0.57574972  0.58793778  1
  S  S41  1  0.60241802  0.00271185  0.59210679  1
  S  S42  1  0.74805307  0.28972406  0.58840983  1
  S  S43  1  0.96887906  0.14118160  0.40757481  1
  O  O44  1  0.01363242  0.92888768  0.79881708  1
  O  O45  1  0.13358358  0.86140008  0.18794896  1
  O  O46  1  0.00490170  0.99773992  0.99996396  1
  O  O47  1  0.14449080  0.28874237  0.99998116  1
  O  O48  1  0.42367030  0.85940208  0.00003604  1
  O  O49  1  0.27299246  0.64362409  0.20052238  1
  O  O50  1  0.41493858  0.92825532  0.20118292  1
  O  O51  1  0.13405894  0.36156592  0.18734599  1
  O  O52  1  0.01374112  0.42856718  0.79895939  1
  O  O53  1  0.15839377  0.71543245  0.79899315  1
  O  O54  1  0.28408020  0.56840063  0.00001884  1
  O  O55  1  0.29498842  0.99574292  0.81205104  1
  O  O56  1  0.44491321  0.78691991  0.79943324  1
  O  O57  1  0.15557854  0.21351891  0.79947762  1
  O  O58  1  0.41483088  0.42857582  0.20104061  1
  O  O59  1  0.29451306  0.49557608  0.81265401  1
  O  O60  1  0.55930405  0.71327836  0.20050153  1
  O  O61  1  0.27017823  0.14171055  0.20100685  1
  O  O62  1  0.73130854  0.85653324  0.79934028  1
  O  O63  1  0.70066228  0.49933931  0.20063538  1
  O  O64  1  0.84109772  0.78527162  0.20115366  1
  O  O65  1  0.55583075  0.21447888  0.20061266  1
  O  O66  1  0.56975565  0.14332349  0.99994749  1
  O  O67  1  0.71428600  0.42857100  0.00000000  1
  O  O68  1  0.58725899  0.57233457  0.79879325  1
  O  O69  1  0.44241741  0.28534990  0.79892832  1
  O  O70  1  0.85881635  0.71381951  0.00005251  1
  O  O71  1  0.58747328  0.07187138  0.79884634  1
  O  O72  1  0.87274025  0.64266412  0.79938734  1
  O  O73  1  0.69726346  0.00060976  0.20065972  1
  O  O74  1  0.98615359  0.57179310  0.20107168  1
  O  O75  1  0.84131201  0.28480743  0.20120675  1
  O  O76  1  0.72790872  0.35780369  0.79936462  1
  O  O77  1  0.86926795  0.14386464  0.79949847  1
  O  O78  1  0.98365879  0.07022309  0.20056676  1
