# generated using pymatgen
data_Li2MnV(P2O7)2
_symmetry_space_group_name_H-M   'P 1'
_cell_length_a   4.85806483
_cell_length_b   8.27989433
_cell_length_c   13.33835931
_cell_angle_alpha   90.00000000
_cell_angle_beta   88.57619542
_cell_angle_gamma   90.00000000
_symmetry_Int_Tables_number   1
_chemical_formula_structural   Li2MnV(P2O7)2
_chemical_formula_sum   'Li4 Mn2 V2 P8 O28'
_cell_volume   536.36002753
_cell_formula_units_Z   2
loop_
 _symmetry_equiv_pos_site_id
 _symmetry_equiv_pos_as_xyz
  1  'x, y, z'
loop_
 _atom_site_type_symbol
 _atom_site_label
 _atom_site_symmetry_multiplicity
 _atom_site_fract_x
 _atom_site_fract_y
 _atom_site_fract_z
 _atom_site_occupancy
  Li  Li0  1  0.16184373  0.36222500  0.66147971  1
  Li  Li1  1  0.33710798  0.86216651  0.83754724  1
  Li  Li2  1  0.66289202  0.36216651  0.16245276  1
  Li  Li3  1  0.83815627  0.86222500  0.33852029  1
  Mn  Mn4  1  0.14976739  0.99950295  0.63479313  1
  Mn  Mn5  1  0.85023261  0.49950295  0.36520687  1
  V  V6  1  0.35068498  0.49914256  0.86389258  1
  V  V7  1  0.64931502  0.99914256  0.13610742  1
  P  P8  1  0.13970729  0.17991413  0.25944964  1
  P  P9  1  0.16882789  0.78338686  0.04306004  1
  P  P10  1  0.33207600  0.28658382  0.45571933  1
  P  P11  1  0.35994705  0.67882899  0.23926909  1
  P  P12  1  0.64005295  0.17882899  0.76073091  1
  P  P13  1  0.66792400  0.78658382  0.54428067  1
  P  P14  1  0.83117211  0.28338686  0.95693996  1
  P  P15  1  0.86029271  0.67991413  0.74055036  1
  O  O16  1  0.00333748  0.84258160  0.75181780  1
  O  O17  1  0.05218655  0.53574378  0.75829517  1
  O  O18  1  0.09214327  0.67667308  0.30422263  1
  O  O19  1  0.14340833  0.43645359  0.45696566  1
  O  O20  1  0.12485636  0.32374732  0.92593872  1
  O  O21  1  0.21992290  0.15550191  0.37616899  1
  O  O22  1  0.18962107  0.69393796  0.94276994  1
  O  O23  1  0.28118014  0.65192658  0.12390062  1
  O  O24  1  0.31841115  0.20220166  0.55682390  1
  O  O25  1  0.35557083  0.93310733  0.04112055  1
  O  O26  1  0.36862501  0.82693368  0.57470033  1
  O  O27  1  0.40877441  0.17554917  0.19743468  1
  O  O28  1  0.44554516  0.03650359  0.74050441  1
  O  O29  1  0.50355444  0.84296791  0.24671380  1
  O  O30  1  0.49644556  0.34296791  0.75328620  1
  O  O31  1  0.55445484  0.53650359  0.25949559  1
  O  O32  1  0.59122559  0.67554917  0.80256532  1
  O  O33  1  0.63137499  0.32693368  0.42529967  1
  O  O34  1  0.64442917  0.43310733  0.95887945  1
  O  O35  1  0.68158885  0.70220166  0.44317610  1
  O  O36  1  0.71881986  0.15192658  0.87609938  1
  O  O37  1  0.81037893  0.19393796  0.05723006  1
  O  O38  1  0.78007710  0.65550191  0.62383101  1
  O  O39  1  0.87514364  0.82374732  0.07406228  1
  O  O40  1  0.85659167  0.93645359  0.54303434  1
  O  O41  1  0.90785673  0.17667308  0.69577737  1
  O  O42  1  0.94781345  0.03574378  0.24170483  1
  O  O43  1  0.99666252  0.34258160  0.24818220  1
