# generated using pymatgen
data_Na3FeO4
_symmetry_space_group_name_H-M   'P 1'
_cell_length_a   5.76340242
_cell_length_b   6.48325459
_cell_length_c   5.32452225
_cell_angle_alpha   90.00000000
_cell_angle_beta   110.06681653
_cell_angle_gamma   90.00000000
_symmetry_Int_Tables_number   1
_chemical_formula_structural   Na3FeO4
_chemical_formula_sum   'Na6 Fe2 O8'
_cell_volume   186.87612152
_cell_formula_units_Z   2
loop_
 _symmetry_equiv_pos_site_id
 _symmetry_equiv_pos_as_xyz
  1  'x, y, z'
loop_
 _atom_site_type_symbol
 _atom_site_label
 _atom_site_symmetry_multiplicity
 _atom_site_fract_x
 _atom_site_fract_y
 _atom_site_fract_z
 _atom_site_occupancy
  Na  Na0  1  0.00000000  0.38012601  0.75000000  1
  Na  Na1  1  0.00000000  0.61987399  0.25000000  1
  Na  Na2  1  0.50000000  0.11677719  0.75000000  1
  Na  Na3  1  0.50000000  0.61966599  0.75000000  1
  Na  Na4  1  0.50000000  0.38033401  0.25000000  1
  Na  Na5  1  0.50000000  0.88322281  0.25000000  1
  Fe  Fe6  1  0.00000000  0.87299037  0.75000000  1
  Fe  Fe7  1  0.00000000  0.12700963  0.25000000  1
  O  O8  1  0.21910508  0.67613771  0.94980502  1
  O  O9  1  0.18749695  0.90355356  0.50823284  1
  O  O10  1  0.21910508  0.32386229  0.44980502  1
  O  O11  1  0.18749695  0.09644644  0.00823284  1
  O  O12  1  0.78089492  0.67613771  0.55019498  1
  O  O13  1  0.81250305  0.09644644  0.49176716  1
  O  O14  1  0.78089492  0.32386229  0.05019498  1
  O  O15  1  0.81250305  0.90355356  0.99176716  1
