# generated using pymatgen
data_DyP5O14
_symmetry_space_group_name_H-M   'P 1'
_cell_length_a   8.82140046
_cell_length_b   12.89497329
_cell_length_c   9.04379404
_cell_angle_alpha   90.00000000
_cell_angle_beta   90.00000000
_cell_angle_gamma   90.00000000
_symmetry_Int_Tables_number   1
_chemical_formula_structural   DyP5O14
_chemical_formula_sum   'Dy4 P20 O56'
_cell_volume   1028.74715733
_cell_formula_units_Z   4
loop_
 _symmetry_equiv_pos_site_id
 _symmetry_equiv_pos_as_xyz
  1  'x, y, z'
loop_
 _atom_site_type_symbol
 _atom_site_label
 _atom_site_symmetry_multiplicity
 _atom_site_fract_x
 _atom_site_fract_y
 _atom_site_fract_z
 _atom_site_occupancy
  Dy  Dy0  1  0.02055818  0.25000000  0.06051211  1
  Dy  Dy1  1  0.47944182  0.75000000  0.56051211  1
  Dy  Dy2  1  0.52055818  0.25000000  0.43948789  1
  Dy  Dy3  1  0.97944182  0.75000000  0.93948789  1
  P  P4  1  0.00524701  0.58338510  0.29866963  1
  P  P5  1  0.00524701  0.91661490  0.29866963  1
  P  P6  1  0.06814611  0.75000000  0.51185438  1
  P  P7  1  0.25423081  0.06651160  0.27476136  1
  P  P8  1  0.25423081  0.43348840  0.27476136  1
  P  P9  1  0.24576919  0.56651160  0.77476136  1
  P  P10  1  0.24576919  0.93348840  0.77476136  1
  P  P11  1  0.43185389  0.25000000  0.01185438  1
  P  P12  1  0.49475299  0.41661490  0.79866963  1
  P  P13  1  0.49475299  0.08338510  0.79866963  1
  P  P14  1  0.50524701  0.91661490  0.20133037  1
  P  P15  1  0.50524701  0.58338510  0.20133037  1
  P  P16  1  0.56814611  0.75000000  0.98814562  1
  P  P17  1  0.75423081  0.06651160  0.22523864  1
  P  P18  1  0.75423081  0.43348840  0.22523864  1
  P  P19  1  0.74576919  0.56651160  0.72523864  1
  P  P20  1  0.74576919  0.93348840  0.72523864  1
  P  P21  1  0.93185389  0.25000000  0.48814562  1
  P  P22  1  0.99475299  0.08338510  0.70133037  1
  P  P23  1  0.99475299  0.41661490  0.70133037  1
  O  O24  1  0.99713476  0.13655384  0.84596029  1
  O  O25  1  0.99713476  0.36344616  0.84596029  1
  O  O26  1  0.03194027  0.75000000  0.67186126  1
  O  O27  1  0.02747020  0.15372416  0.56213294  1
  O  O28  1  0.02747020  0.34627584  0.56213294  1
  O  O29  1  0.11747267  0.50401496  0.67970331  1
  O  O30  1  0.11747267  0.99598504  0.67970331  1
  O  O31  1  0.15474981  0.11729038  0.16330677  1
  O  O32  1  0.15474981  0.38270962  0.16330677  1
  O  O33  1  0.16068354  0.53060286  0.34544901  1
  O  O34  1  0.16068354  0.96939714  0.34544901  1
  O  O35  1  0.17315084  0.62499758  0.89754874  1
  O  O36  1  0.17315084  0.87500242  0.89754874  1
  O  O37  1  0.22596400  0.75000000  0.45237488  1
  O  O38  1  0.27403600  0.25000000  0.95237488  1
  O  O39  1  0.32684916  0.12499758  0.39754874  1
  O  O40  1  0.32684916  0.37500242  0.39754874  1
  O  O41  1  0.33931646  0.03060286  0.84544901  1
  O  O42  1  0.33931646  0.46939714  0.84544901  1
  O  O43  1  0.34525019  0.61729038  0.66330677  1
  O  O44  1  0.34525019  0.88270962  0.66330677  1
  O  O45  1  0.38252733  0.00401596  0.17970331  1
  O  O46  1  0.38252733  0.49598504  0.17970331  1
  O  O47  1  0.47252980  0.65372416  0.06213294  1
  O  O48  1  0.47252980  0.84627584  0.06213294  1
  O  O49  1  0.46805973  0.25000000  0.17186126  1
  O  O50  1  0.50286524  0.63655384  0.34596029  1
  O  O51  1  0.50286524  0.86344616  0.34596029  1
  O  O52  1  0.49713476  0.13655384  0.65403971  1
  O  O53  1  0.49713476  0.36344616  0.65403971  1
  O  O54  1  0.53194027  0.75000000  0.82813874  1
  O  O55  1  0.52747020  0.15372416  0.93786706  1
  O  O56  1  0.52747020  0.34627584  0.93786706  1
  O  O57  1  0.61747267  0.50401496  0.82029669  1
  O  O58  1  0.61747267  0.99598504  0.82029669  1
  O  O59  1  0.65474981  0.11729038  0.33669323  1
  O  O60  1  0.65474981  0.38270962  0.33669323  1
  O  O61  1  0.66068354  0.53060286  0.15455099  1
  O  O62  1  0.66068354  0.96939714  0.15455099  1
  O  O63  1  0.67315084  0.62499758  0.60245126  1
  O  O64  1  0.67315084  0.87500242  0.60245126  1
  O  O65  1  0.72596400  0.75000000  0.04762512  1
  O  O66  1  0.77403600  0.25000000  0.54762512  1
  O  O67  1  0.82684916  0.12499758  0.10245126  1
  O  O68  1  0.82684916  0.37500242  0.10245126  1
  O  O69  1  0.83931646  0.03060286  0.65455099  1
  O  O70  1  0.83931646  0.46939714  0.65455099  1
  O  O71  1  0.84525019  0.88270962  0.83669323  1
  O  O72  1  0.84525019  0.61729038  0.83669323  1
  O  O73  1  0.88252733  0.00401596  0.32029669  1
  O  O74  1  0.88252733  0.49598504  0.32029669  1
  O  O75  1  0.97252980  0.65372416  0.43786706  1
  O  O76  1  0.97252980  0.84627584  0.43786706  1
  O  O77  1  0.96805973  0.25000000  0.32813874  1
  O  O78  1  0.00286524  0.63655384  0.15403971  1
  O  O79  1  0.00286524  0.86344616  0.15403971  1
