# generated using pymatgen
data_Li32Mn11Cr5O48
_symmetry_space_group_name_H-M   'P 1'
_cell_length_a   5.01190521
_cell_length_b   5.00291839
_cell_length_c   38.41851271
_cell_angle_alpha   89.02026463
_cell_angle_beta   91.13435029
_cell_angle_gamma   60.21579816
_symmetry_Int_Tables_number   1
_chemical_formula_structural   Li32Mn11Cr5O48
_chemical_formula_sum   'Li32 Mn11 Cr5 O48'
_cell_volume   835.49397090
_cell_formula_units_Z   1
loop_
 _symmetry_equiv_pos_site_id
 _symmetry_equiv_pos_as_xyz
  1  'x, y, z'
loop_
 _atom_site_type_symbol
 _atom_site_label
 _atom_site_symmetry_multiplicity
 _atom_site_fract_x
 _atom_site_fract_y
 _atom_site_fract_z
 _atom_site_occupancy
  Li  Li0  1  0.08335744  0.09395852  0.24993224  1
  Li  Li1  1  0.00042592  0.49924073  0.99996814  1
  Li  Li2  1  0.06077225  0.43614647  0.18749064  1
  Li  Li3  1  0.12498192  0.37440128  0.37503013  1
  Li  Li4  1  0.19008458  0.30840800  0.56251135  1
  Li  Li5  1  0.25263580  0.24961377  0.74995278  1
  Li  Li6  1  0.31253775  0.18762639  0.93749630  1
  Li  Li7  1  0.03634917  0.78826407  0.12479131  1
  Li  Li8  1  0.37491761  0.12430120  0.12491479  1
  Li  Li9  1  0.16648782  0.66069977  0.50003031  1
  Li  Li10  1  0.28776834  0.53802130  0.87497478  1
  Li  Li11  1  0.43827824  0.06333265  0.31252307  1
  Li  Li12  1  0.49756095  0.00122244  0.49992249  1
  Li  Li13  1  0.41769944  0.40620464  0.25013885  1
  Li  Li14  1  0.53662562  0.28733883  0.62494264  1
  Li  Li15  1  0.21605016  0.96243078  0.62525523  1
  Li  Li16  1  0.33925402  0.83759463  0.99988575  1
  Li  Li17  1  0.66063759  0.16386562  0.00004110  1
  Li  Li18  1  0.78369686  0.04034348  0.37491575  1
  Li  Li19  1  0.46591406  0.71008463  0.37519694  1
  Li  Li20  1  0.58735164  0.58924866  0.74986654  1
  Li  Li21  1  0.56245900  0.93769447  0.68750464  1
  Li  Li22  1  0.71460602  0.46313085  0.12501055  1
  Li  Li23  1  0.83550103  0.33874171  0.49981459  1
  Li  Li24  1  0.62757634  0.87341062  0.87508560  1
  Li  Li25  1  0.96024048  0.21302451  0.87520384  1
  Li  Li26  1  0.68513221  0.81113129  0.06247223  1
  Li  Li27  1  0.74926842  0.74966244  0.25004541  1
  Li  Li28  1  0.81260945  0.68764911  0.43748283  1
  Li  Li29  1  0.87176649  0.62544750  0.62506555  1
  Li  Li30  1  0.93415601  0.56571969  0.81250045  1
  Li  Li31  1  0.91078682  0.91099693  0.74999157  1
  Mn  Mn32  1  0.14519270  0.02043465  0.43749526  1
  Mn  Mn33  1  0.22938970  0.60445122  0.68748649  1
  Mn  Mn34  1  0.35472767  0.47984650  0.06247990  1
  Mn  Mn35  1  0.47951645  0.35445292  0.43749003  1
  Mn  Mn36  1  0.60410057  0.22935880  0.81250181  1
  Mn  Mn37  1  0.72948021  0.10455406  0.18751384  1
  Mn  Mn38  1  0.52112992  0.64584490  0.56249779  1
  Mn  Mn39  1  0.64516854  0.52050066  0.93750251  1
  Mn  Mn40  1  0.77056644  0.39556185  0.31249960  1
  Mn  Mn41  1  0.89531049  0.27045946  0.68749691  1
  Mn  Mn42  1  0.97952710  0.85446724  0.93749860  1
  Cr  Cr43  1  0.01708817  0.14301425  0.06251184  1
  Cr  Cr44  1  0.10765514  0.73230952  0.31247972  1
  Cr  Cr45  1  0.26544263  0.90015965  0.81245821  1
  Cr  Cr46  1  0.39152566  0.76792376  0.18752864  1
  Cr  Cr47  1  0.85980488  0.97461363  0.56255156  1
  O  O48  1  0.08680536  0.05327226  0.34051652  1
  O  O49  1  0.04776608  0.09353985  0.15917481  1
  O  O50  1  0.06937853  0.42951940  0.28399091  1
  O  O51  1  0.19472921  0.30474449  0.65891815  1
  O  O52  1  0.05616308  0.44500326  0.09095962  1
  O  O53  1  0.17891211  0.32143021  0.46599081  1
  O  O54  1  0.30753743  0.19036051  0.84091875  1
  O  O55  1  0.32039803  0.18048193  0.03394897  1
  O  O56  1  0.44543739  0.05391972  0.40905217  1
  O  O57  1  0.07263975  0.78829626  0.21550424  1
  O  O58  1  0.43118321  0.06932180  0.21599879  1
  O  O59  1  0.19545173  0.66328000  0.59047000  1
  O  O60  1  0.32075744  0.53648178  0.96544580  1
  O  O61  1  0.03852446  0.82290019  0.03450376  1
  O  O62  1  0.16145944  0.69571996  0.40949887  1
  O  O63  1  0.28942140  0.57160879  0.78450515  1
  O  O64  1  0.21239660  0.92938783  0.71548869  1
  O  O65  1  0.18443956  0.96269709  0.53426976  1
  O  O66  1  0.30372446  0.83887709  0.90952501  1
  O  O67  1  0.45151715  0.40667185  0.34077461  1
  O  O68  1  0.57093797  0.28730240  0.71536673  1
  O  O69  1  0.41372698  0.44735768  0.15955656  1
  O  O70  1  0.53508538  0.32336269  0.53439071  1
  O  O71  1  0.66086596  0.19566890  0.90960479  1
  O  O72  1  0.34406669  0.79805662  0.09083809  1
  O  O73  1  0.46401715  0.67919424  0.46546792  1
  O  O74  1  0.59070423  0.55115446  0.84063807  1
  O  O75  1  0.42782087  0.71148499  0.28455898  1
  O  O76  1  0.55364684  0.58813570  0.65951093  1
  O  O77  1  0.69761544  0.16313329  0.09036996  1
  O  O78  1  0.82104586  0.03605487  0.46551165  1
  O  O79  1  0.78209438  0.07568884  0.28431532  1
  O  O80  1  0.71889954  0.42328260  0.21579209  1
  O  O81  1  0.83575752  0.30398528  0.59049223  1
  O  O82  1  0.96358323  0.17919566  0.96555821  1
  O  O83  1  0.67300532  0.46915699  0.03420152  1
  O  O84  1  0.80393482  0.33848406  0.40958624  1
  O  O85  1  0.57536054  0.93014071  0.78357988  1
  O  O86  1  0.92927020  0.21255701  0.78454773  1
  O  O87  1  0.54935444  0.94522484  0.59141264  1
  O  O88  1  0.67939739  0.82104870  0.96600811  1
  O  O89  1  0.69533278  0.80553560  0.15894837  1
  O  O90  1  0.81817123  0.68429374  0.53410320  1
  O  O91  1  0.94588730  0.55353571  0.90906254  1
  O  O92  1  0.80486700  0.69472165  0.34106064  1
  O  O93  1  0.93029307  0.56999162  0.71597481  1
  O  O94  1  0.94143168  0.91225460  0.84072155  1
  O  O95  1  0.91207204  0.94556927  0.65941605  1
