# generated using pymatgen
data_Na5LiV6O18
_symmetry_space_group_name_H-M   'P 1'
_cell_length_a   10.34680074
_cell_length_b   11.18846097
_cell_length_c   8.09750029
_cell_angle_alpha   102.72343477
_cell_angle_beta   110.46319018
_cell_angle_gamma   90.39141372
_symmetry_Int_Tables_number   1
_chemical_formula_structural   Na5LiV6O18
_chemical_formula_sum   'Na10 Li2 V12 O36'
_cell_volume   853.07453945
_cell_formula_units_Z   2
loop_
 _symmetry_equiv_pos_site_id
 _symmetry_equiv_pos_as_xyz
  1  'x, y, z'
loop_
 _atom_site_type_symbol
 _atom_site_label
 _atom_site_symmetry_multiplicity
 _atom_site_fract_x
 _atom_site_fract_y
 _atom_site_fract_z
 _atom_site_occupancy
  Na  Na0  1  0.94469765  0.13949564  0.05483978  1
  Na  Na1  1  0.84637117  0.44259874  0.15372120  1
  Na  Na2  1  0.82051931  0.89092365  0.17990359  1
  Na  Na3  1  0.61260403  0.47276900  0.38786081  1
  Na  Na4  1  0.48757620  0.22302756  0.51308649  1
  Na  Na5  1  0.38809180  0.52617233  0.61185213  1
  Na  Na6  1  0.51360156  0.77728505  0.48669874  1
  Na  Na7  1  0.17956414  0.10922007  0.82000024  1
  Na  Na8  1  0.27769689  0.80766600  0.72233585  1
  Na  Na9  1  0.15253056  0.55731975  0.84640365  1
  Li  Li10  1  0.71990226  0.18982862  0.28006680  1
  Li  Li11  1  0.05321519  0.85634340  0.94694440  1
  V  V12  1  0.84101302  0.35760721  0.73731858  1
  V  V13  1  0.59873618  0.02161039  0.82316592  1
  V  V14  1  0.93177511  0.68904928  0.48959632  1
  V  V15  1  0.73908418  0.64824707  0.84787380  1
  V  V16  1  0.82495142  0.97562901  0.59206657  1
  V  V17  1  0.49296658  0.30671575  0.92857019  1
  V  V18  1  0.17493000  0.02437588  0.40355940  1
  V  V19  1  0.50904976  0.69210114  0.07347139  1
  V  V20  1  0.26416462  0.35449514  0.15336903  1
  V  V21  1  0.40308310  0.98059139  0.18001806  1
  V  V22  1  0.06625020  0.31159889  0.51180101  1
  V  V23  1  0.15680005  0.64364170  0.25638266  1
  O  O24  1  0.96363915  0.00886268  0.78678350  1
  O  O25  1  0.83037982  0.27178203  0.87674945  1
  O  O26  1  0.84151753  0.51581935  0.86133362  1
  O  O27  1  0.84057525  0.77483123  0.88053772  1
  O  O28  1  0.83138505  0.06493599  0.45360608  1
  O  O29  1  0.93163837  0.28524309  0.31306591  1
  O  O30  1  0.99577566  0.65888200  0.30160576  1
  O  O31  1  0.83558767  0.56012875  0.45736408  1
  O  O32  1  0.70641788  0.31513850  0.53869457  1
  O  O33  1  0.82331510  0.81774060  0.46763978  1
  O  O34  1  0.48966117  0.14947857  0.80150957  1
  O  O35  1  0.50448374  0.39447088  0.79156855  1
  O  O36  1  0.60755540  0.62369760  0.64676498  1
  O  O37  1  0.72619745  0.05020331  0.02883039  1
  O  O38  1  0.32890853  0.32502438  0.96664075  1
  O  O39  1  0.66328642  0.99192850  0.63577218  1
  O  O40  1  0.50222441  0.89275807  0.79070810  1
  O  O41  1  0.37088754  0.65267871  0.87919717  1
  O  O42  1  0.63126335  0.34074114  0.12367453  1
  O  O43  1  0.50448200  0.10678320  0.21033421  1
  O  O44  1  0.67286691  0.67617369  0.03364250  1
  O  O45  1  0.34044002  0.00978178  0.36867335  1
  O  O46  1  0.26791006  0.95422534  0.98168427  1
  O  O47  1  0.39485474  0.37868815  0.35516822  1
  O  O48  1  0.49811930  0.60554628  0.21195950  1
  O  O49  1  0.50835885  0.84982163  0.19610056  1
  O  O50  1  0.17400295  0.18225976  0.52681147  1
  O  O51  1  0.29523056  0.68187661  0.45061980  1
  O  O52  1  0.16287428  0.43991013  0.54113755  1
  O  O53  1  0.00607719  0.34173291  0.70265571  1
  O  O54  1  0.05951819  0.71710479  0.69504485  1
  O  O55  1  0.16380382  0.93885993  0.54321574  1
  O  O56  1  0.16755389  0.22609953  0.12250815  1
  O  O57  1  0.15758105  0.48496451  0.13583191  1
  O  O58  1  0.16241100  0.73171778  0.11636989  1
  O  O59  1  0.04003772  0.98179695  0.20529105  1
