# generated using pymatgen
data_Ba2Ho2Co4O11
_symmetry_space_group_name_H-M   'P 1'
_cell_length_a   7.59967785
_cell_length_b   7.80002965
_cell_length_c   7.89930439
_cell_angle_alpha   90.00000000
_cell_angle_beta   90.00000000
_cell_angle_gamma   90.00000000
_symmetry_Int_Tables_number   1
_chemical_formula_structural   Ba2Ho2Co4O11
_chemical_formula_sum   'Ba4 Ho4 Co8 O22'
_cell_volume   468.25269506
_cell_formula_units_Z   2
loop_
 _symmetry_equiv_pos_site_id
 _symmetry_equiv_pos_as_xyz
  1  'x, y, z'
loop_
 _atom_site_type_symbol
 _atom_site_label
 _atom_site_symmetry_multiplicity
 _atom_site_fract_x
 _atom_site_fract_y
 _atom_site_fract_z
 _atom_site_occupancy
  O  O0  1  0.30171181  0.74999962  0.23701684  1
  O  O1  1  0.30171181  0.74999962  0.76298281  1
  O  O2  1  0.69828803  0.24999987  0.76298281  1
  O  O3  1  0.69828803  0.24999987  0.23701684  1
  O  O4  1  0.68994308  0.74999962  0.22857696  1
  O  O5  1  0.68994308  0.74999962  0.77142270  1
  O  O6  1  0.31005677  0.24999987  0.77142270  1
  O  O7  1  0.31005677  0.24999987  0.22857696  1
  O  O8  1  0.72107249  0.99719442  0.50000045  1
  O  O9  1  0.72107249  0.50280615  0.50000045  1
  O  O10  1  0.27892736  0.49719467  0.50000045  1
  O  O11  1  0.27892736  0.00280640  0.50000045  1
  O  O12  1  0.68256039  0.00619890  0.00000000  1
  O  O13  1  0.68256039  0.49380085  0.00000000  1
  O  O14  1  0.31743945  0.50619865  0.00000000  1
  O  O15  1  0.31743945  0.99380060  0.00000000  1
  O  O16  1  0.00972965  0.24999987  0.00000000  1
  O  O17  1  0.99027020  0.74999962  0.00000000  1
  O  O18  1  -0.00943421  0.24999987  0.50000045  1
  O  O19  1  0.49435280  0.74999962  0.50000045  1
  O  O20  1  0.50564705  0.24999987  0.50000045  1
  O  O21  1  1.00943405  0.74999962  0.50000045  1
  Co  Co22  1  0.25263716  0.74999962  0.50000045  1
  Co  Co23  1  0.74736402  0.24999987  0.50000045  1
  Co  Co24  1  0.74575464  0.74999962  0.50000045  1
  Co  Co25  1  0.25424654  0.24999987  0.50000045  1
  Co  Co26  1  0.27220531  0.74999962  0.00000000  1
  Co  Co27  1  0.26266380  0.24999987  0.00000000  1
  Co  Co28  1  0.73733605  0.74999962  0.00000000  1
  Co  Co29  1  0.72779453  0.24999987  0.00000000  1
  Ba  Ba30  1  0.00000000  0.00000000  0.24158573  1
  Ba  Ba31  1  0.00000000  0.00000000  0.75841392  1
  Ba  Ba32  1  0.00000000  0.49999975  0.75841392  1
  Ba  Ba33  1  0.00000000  0.49999975  0.24158573  1
  Ho  Ho34  1  0.50000059  0.49999975  0.26891121  1
  Ho  Ho35  1  0.50000059  0.00000000  0.73108970  1
  Ho  Ho36  1  0.50000059  0.49999975  0.73108970  1
  Ho  Ho37  1  0.50000059  0.00000000  0.26891121  1
