# generated using pymatgen
data_Hf2N2O
_symmetry_space_group_name_H-M   'P 1'
_cell_length_a   8.73681303
_cell_length_b   8.74617167
_cell_length_c   8.71451777
_cell_angle_alpha   109.39608465
_cell_angle_beta   109.41154887
_cell_angle_gamma   109.66879044
_symmetry_Int_Tables_number   1
_chemical_formula_structural   Hf2N2O
_chemical_formula_sum   'Hf16 N16 O8'
_cell_volume   512.21622609
_cell_formula_units_Z   8
loop_
 _symmetry_equiv_pos_site_id
 _symmetry_equiv_pos_as_xyz
  1  'x, y, z'
loop_
 _atom_site_type_symbol
 _atom_site_label
 _atom_site_symmetry_multiplicity
 _atom_site_fract_x
 _atom_site_fract_y
 _atom_site_fract_z
 _atom_site_occupancy
  Hf  Hf0  1  0.50031751  0.00753247  0.99879951  1
  Hf  Hf1  1  0.74891021  0.28552814  0.53645990  1
  Hf  Hf2  1  0.21537862  0.96490153  0.25146240  1
  Hf  Hf3  1  0.72008421  0.46036494  0.24289258  1
  Hf  Hf4  1  0.24454799  0.21233933  0.95013462  1
  Hf  Hf5  1  0.96692314  0.25560078  0.22592248  1
  Hf  Hf6  1  0.03579249  0.74819436  0.78104777  1
  Hf  Hf7  1  0.53182378  0.74453220  0.29047930  1
  Hf  Hf8  1  0.49342386  0.49771720  0.51011266  1
  Hf  Hf9  1  0.99835074  0.50855122  0.99695353  1
  Hf  Hf10  1  0.00047374  0.99962229  0.49810831  1
  Hf  Hf11  1  0.47216660  0.25933771  0.71801930  1
  Hf  Hf12  1  0.75992558  0.78475159  0.04497632  1
  Hf  Hf13  1  0.78159088  0.03086789  0.74769897  1
  Hf  Hf14  1  0.28254490  0.53722069  0.74779165  1
  Hf  Hf15  1  0.25035407  0.70902078  0.46311268  1
  N  N16  1  0.50847582  0.23766124  0.96829563  1
  N  N17  1  0.73780726  0.22187375  0.27402838  1
  N  N18  1  0.72718574  0.25399749  0.77269276  1
  N  N19  1  0.76811375  0.72634078  0.26223957  1
  N  N20  1  0.46407474  0.22797818  0.45194065  1
  N  N21  1  0.01210262  0.04567241  0.27381231  1
  N  N22  1  0.27646569  0.74080220  0.22582157  1
  N  N23  1  0.96638892  0.51050669  0.23714473  1
  N  N24  1  0.22867499  0.45633643  0.46750906  1
  N  N25  1  0.95581354  0.72849301  0.98676810  1
  N  N26  1  0.98837337  0.95485797  0.72810700  1
  N  N27  1  0.22467390  0.27181465  0.73701248  1
  N  N28  1  0.54781289  0.53743041  0.77563904  1
  N  N29  1  0.54028838  0.77188081  0.54543404  1
  N  N30  1  0.03047349  0.48756228  0.75647248  1
  N  N31  1  0.26636696  0.78049096  0.73015632  1
  O  O32  1  0.72559277  0.99070016  0.95436789  1
  O  O33  1  0.27421336  0.00768865  0.04492992  1
  O  O34  1  0.76190481  0.03386541  0.48815799  1
  O  O35  1  0.49335161  0.76828873  0.03739132  1
  O  O36  1  0.77102377  0.54441819  0.52966370  1
  O  O37  1  0.04832402  0.26904884  0.01666756  1
  O  O38  1  0.44613583  0.46285948  0.22392861  1
  O  O39  1  0.23375244  0.96334617  0.50784790  1
