# generated using pymatgen
data_Cs3DyO3
_symmetry_space_group_name_H-M   'P 1'
_cell_length_a   7.63432424
_cell_length_b   7.63432424
_cell_length_c   7.66759326
_cell_angle_alpha   84.08284117
_cell_angle_beta   95.91715883
_cell_angle_gamma   63.62415538
_symmetry_Int_Tables_number   1
_chemical_formula_structural   Cs3DyO3
_chemical_formula_sum   'Cs6 Dy2 O6'
_cell_volume   392.63702176
_cell_formula_units_Z   2
loop_
 _symmetry_equiv_pos_site_id
 _symmetry_equiv_pos_as_xyz
  1  'x, y, z'
loop_
 _atom_site_type_symbol
 _atom_site_label
 _atom_site_symmetry_multiplicity
 _atom_site_fract_x
 _atom_site_fract_y
 _atom_site_fract_z
 _atom_site_occupancy
  Cs  Cs0  1  0.35805845  0.64194155  0.64970032  1
  Cs  Cs1  1  0.21106096  0.21106096  0.50000000  1
  Cs  Cs2  1  0.78893904  0.78893904  0.50000000  1
  Cs  Cs3  1  0.26135323  0.26135323  0.00000000  1
  Cs  Cs4  1  0.73864677  0.73864677  0.00000000  1
  Cs  Cs5  1  0.64194155  0.35805845  0.35029968  1
  Dy  Dy6  1  0.17354087  0.82645913  0.15022304  1
  Dy  Dy7  1  0.82645913  0.17354087  0.84977696  1
  O  O8  1  0.10004699  0.89995301  0.85673485  1
  O  O9  1  0.16848645  0.56171946  0.26558310  1
  O  O10  1  0.43828054  0.83151355  0.26558310  1
  O  O11  1  0.56171946  0.16848645  0.73441690  1
  O  O12  1  0.83151355  0.43828054  0.73441690  1
  O  O13  1  0.89995301  0.10004699  0.14326515  1
