# generated using pymatgen
data_Na4Fe2C4SO16
_symmetry_space_group_name_H-M   'P 1'
_cell_length_a   9.95221295
_cell_length_b   9.78402012
_cell_length_c   9.95124325
_cell_angle_alpha   59.93881553
_cell_angle_beta   59.42560763
_cell_angle_gamma   60.34489234
_symmetry_Int_Tables_number   1
_chemical_formula_structural   Na4Fe2C4SO16
_chemical_formula_sum   'Na8 Fe4 C8 S2 O32'
_cell_volume   683.57688573
_cell_formula_units_Z   2
loop_
 _symmetry_equiv_pos_site_id
 _symmetry_equiv_pos_as_xyz
  1  'x, y, z'
loop_
 _atom_site_type_symbol
 _atom_site_label
 _atom_site_symmetry_multiplicity
 _atom_site_fract_x
 _atom_site_fract_y
 _atom_site_fract_z
 _atom_site_occupancy
  Na  Na0  1  0.91436966  0.33519697  0.33528400  1
  Na  Na1  1  0.08797152  0.07578679  0.65903088  1
  Na  Na2  1  0.65750299  0.68077841  0.08753184  1
  Na  Na3  1  0.35067934  0.32104137  0.91947515  1
  Na  Na4  1  0.90850975  0.91913389  0.32496280  1
  Na  Na5  1  0.90940465  0.32601431  0.91876016  1
  Na  Na6  1  0.08636539  0.67688963  0.65904079  1
  Na  Na7  1  0.33739112  0.91374010  0.91210363  1
  Fe  Fe8  1  0.49730603  0.49614366  0.00344934  1
  Fe  Fe9  1  0.50220343  0.99980887  0.49553018  1
  Fe  Fe10  1  0.50092853  0.50062456  0.50136159  1
  Fe  Fe11  1  0.00015292  0.50241922  0.49408242  1
  C  C12  1  0.64204341  0.28859681  0.28442252  1
  C  C13  1  0.28538268  0.28264232  0.29169016  1
  C  C14  1  0.28918174  0.64105861  0.28701061  1
  C  C15  1  0.28299136  0.28548327  0.64348824  1
  C  C16  1  0.71338738  0.36018655  0.71315971  1
  C  C17  1  0.71373464  0.71390381  0.36076227  1
  C  C18  1  0.35950993  0.71098022  0.71760325  1
  C  C19  1  0.71424352  0.71588148  0.71175014  1
  S  S20  1  0.12514453  0.12394578  0.12374748  1
  S  S21  1  0.87346120  0.87793633  0.87351845  1
  O  O22  1  0.30755198  0.06305063  0.05877402  1
  O  O23  1  0.06378321  0.06236024  0.06086124  1
  O  O24  1  0.06490636  0.31096211  0.06011088  1
  O  O25  1  0.05675310  0.06537686  0.30684352  1
  O  O26  1  0.64351168  0.14412560  0.31246706  1
  O  O27  1  0.39767253  0.31288748  0.14635057  1
  O  O28  1  0.64653415  0.40372141  0.13840903  1
  O  O29  1  0.31408534  0.14381938  0.40866209  1
  O  O30  1  0.13821802  0.39328583  0.31909445  1
  O  O31  1  0.64446191  0.31879349  0.39569031  1
  O  O32  1  0.31827244  0.64617301  0.14231901  1
  O  O33  1  0.39538270  0.14272198  0.64314275  1
  O  O34  1  0.69129255  0.59718396  0.35230971  1
  O  O35  1  0.86028548  0.35094913  0.59964935  1
  O  O36  1  0.40292999  0.63540342  0.31821382  1
  O  O37  1  0.13832107  0.31373200  0.64704356  1
  O  O38  1  0.59794508  0.36548353  0.68465615  1
  O  O39  1  0.85479937  0.68530200  0.36328642  1
  O  O40  1  0.30853958  0.40177670  0.64776853  1
  O  O41  1  0.14262640  0.64645021  0.39990189  1
  O  O42  1  0.68720461  0.36238030  0.85338147  1
  O  O43  1  0.59882760  0.85329628  0.36395765  1
  O  O44  1  0.35471004  0.68402480  0.60520717  1
  O  O45  1  0.85977685  0.60089870  0.68732692  1
  O  O46  1  0.68673915  0.85357536  0.59342064  1
  O  O47  1  0.36445865  0.59317681  0.85765877  1
  O  O48  1  0.35503493  0.85766313  0.69100310  1
  O  O49  1  0.60035477  0.68927190  0.85792626  1
  O  O50  1  0.93097923  0.69022026  0.93214085  1
  O  O51  1  0.94082484  0.93632984  0.68728819  1
  O  O52  1  0.93998008  0.93967712  0.92832829  1
  O  O53  1  0.69136854  0.93773158  0.93549670  1
