# generated using pymatgen
data_Na2CoO3
_symmetry_space_group_name_H-M   'P 1'
_cell_length_a   5.97608263
_cell_length_b   6.40776580
_cell_length_c   4.98578162
_cell_angle_alpha   90.00000000
_cell_angle_beta   90.00000000
_cell_angle_gamma   62.20459960
_symmetry_Int_Tables_number   1
_chemical_formula_structural   Na2CoO3
_chemical_formula_sum   'Na4 Co2 O6'
_cell_volume   168.89331139
_cell_formula_units_Z   2
loop_
 _symmetry_equiv_pos_site_id
 _symmetry_equiv_pos_as_xyz
  1  'x, y, z'
loop_
 _atom_site_type_symbol
 _atom_site_label
 _atom_site_symmetry_multiplicity
 _atom_site_fract_x
 _atom_site_fract_y
 _atom_site_fract_z
 _atom_site_occupancy
  Na  Na0  1  0.84533393  0.67339253  0.51124914  1
  Na  Na1  1  0.48127354  0.67339253  0.01124914  1
  Na  Na2  1  0.51872646  0.32660747  0.51124914  1
  Na  Na3  1  0.15466607  0.32660747  0.01124914  1
  Co  Co4  1  0.81879620  0.00000000  0.04435620  1
  Co  Co5  1  0.18120380  0.00000000  0.54435620  1
  O  O6  1  0.84980935  0.72002264  0.99639295  1
  O  O7  1  0.43016701  0.72002264  0.49639295  1
  O  O8  1  0.56983299  0.27997736  0.99639295  1
  O  O9  1  0.15019065  0.27997736  0.49639295  1
  O  O10  1  0.89586458  0.00000000  0.39835863  1
  O  O11  1  0.10413542  0.00000000  0.89835863  1
