# generated using pymatgen
data_TeAsF5
_symmetry_space_group_name_H-M   'P 1'
_cell_length_a   9.91671364
_cell_length_b   9.91671364
_cell_length_c   15.66764116
_cell_angle_alpha   85.49685508
_cell_angle_beta   85.49685510
_cell_angle_gamma   78.62094233
_symmetry_Int_Tables_number   1
_chemical_formula_structural   TeAsF5
_chemical_formula_sum   'Te12 As12 F60'
_cell_volume   1502.69128603
_cell_formula_units_Z   12
loop_
 _symmetry_equiv_pos_site_id
 _symmetry_equiv_pos_as_xyz
  1  'x, y, z'
loop_
 _atom_site_type_symbol
 _atom_site_label
 _atom_site_symmetry_multiplicity
 _atom_site_fract_x
 _atom_site_fract_y
 _atom_site_fract_z
 _atom_site_occupancy
  F  F0  1  0.29627579  0.13830689  0.86859420  1
  F  F1  1  0.86169311  0.70372421  0.63140580  1
  F  F2  1  0.70372421  0.86169311  0.13140580  1
  F  F3  1  0.13830689  0.29627579  0.36859420  1
  F  F4  1  0.08405935  0.04073824  0.90646334  1
  F  F5  1  0.95926176  0.91594065  0.59353666  1
  F  F6  1  0.91594065  0.95926176  0.09353666  1
  F  F7  1  0.04073824  0.08405935  0.40646334  1
  F  F8  1  0.17625443  0.16543704  0.01572920  1
  F  F9  1  0.83456296  0.82374557  0.48427080  1
  F  F10  1  0.82374557  0.83456296  0.98427080  1
  F  F11  1  0.16543704  0.17625443  0.51572920  1
  F  F12  1  0.16940094  0.37247206  0.90918192  1
  F  F13  1  0.62752794  0.83059906  0.59081808  1
  F  F14  1  0.83059906  0.62752794  0.09081808  1
  F  F15  1  0.37247206  0.16940094  0.40918192  1
  F  F16  1  0.07543914  0.24451689  0.80197397  1
  F  F17  1  0.75548311  0.92456086  0.69802603  1
  F  F18  1  0.92456086  0.75548311  0.19802603  1
  F  F19  1  0.24451689  0.07543914  0.30197397  1
  F  F20  1  0.42910961  0.30744487  0.06808541  1
  F  F21  1  0.95605121  0.27385097  0.94930433  1
  F  F22  1  0.04394879  0.72614903  0.05069567  1
  F  F23  1  0.27385097  0.95605121  0.44930433  1
  F  F24  1  0.67428282  0.13393118  0.99729832  1
  F  F25  1  0.86606882  0.32571718  0.50270168  1
  F  F26  1  0.32571718  0.86606882  0.00270168  1
  F  F27  1  0.13393118  0.67428282  0.49729832  1
  F  F28  1  0.57140634  1.00128961  0.88703261  1
  F  F29  1  -0.00128961  0.42859366  0.61296739  1
  F  F30  1  0.42859366  -0.00128961  0.11296739  1
  F  F31  1  1.00128961  0.57140634  0.38703261  1
  F  F32  1  0.78475092  0.10757554  0.84176032  1
  F  F33  1  0.89242446  0.21524908  0.65823968  1
  F  F34  1  0.21524908  0.89242446  0.15823968  1
  F  F35  1  0.10757554  0.78475092  0.34176032  1
  F  F36  1  0.39830608  0.18560935  0.62567671  1
  F  F37  1  0.81439065  0.60169392  0.87432329  1
  F  F38  1  0.60169392  0.81439065  0.37432329  1
  F  F39  1  0.18560935  0.39830608  0.12567671  1
  F  F40  1  0.56080148  0.32747811  0.54408452  1
  F  F41  1  0.67252189  0.43919852  0.95591548  1
  F  F42  1  0.43919852  0.67252189  0.45591548  1
  F  F43  1  0.32747811  0.56080148  0.04408452  1
  F  F44  1  0.57177946  0.27255067  0.70246554  1
  F  F45  1  0.72744933  0.42822054  0.79753446  1
  F  F46  1  0.42822054  0.72744933  0.29753446  1
  F  F47  1  0.27255067  0.57177946  0.20246554  1
  F  F48  1  0.48062051  0.51477946  0.64585209  1
  F  F49  1  0.48522054  0.51937949  0.85414791  1
  F  F50  1  0.51937949  0.48522054  0.35414791  1
  F  F51  1  0.51477946  0.48062051  0.14585209  1
  F  F52  1  0.31969289  0.37666867  0.72601585  1
  F  F53  1  0.62333133  0.68030711  0.77398415  1
  F  F54  1  0.68030711  0.62333133  0.27398415  1
  F  F55  1  0.37666867  0.31969289  0.22601585  1
  F  F56  1  0.30744487  0.42910961  0.56808541  1
  F  F57  1  0.57089039  0.69255513  0.93191459  1
  F  F58  1  0.69255513  0.57089039  0.43191459  1
  F  F59  1  0.72614903  0.04394879  0.55069567  1
  As  As60  1  0.12641693  0.20796514  0.90985239  1
  As  As61  1  0.79203486  0.87358307  0.59014761  1
  As  As62  1  0.87358307  0.79203486  0.09014761  1
  As  As63  1  0.20796514  0.12641693  0.40985239  1
  As  As64  1  0.34885287  0.44006585  0.13421694  1
  As  As65  1  0.55993415  0.65114713  0.36578306  1
  As  As66  1  0.65114713  0.55993415  0.86578306  1
  As  As67  1  0.44006585  0.34885287  0.63421694  1
  As  As68  1  0.16445335  0.61772138  0.39119802  1
  As  As69  1  0.38227862  0.83554665  0.10880198  1
  As  As70  1  0.83554665  0.38227862  0.60880198  1
  As  As71  1  0.61772138  0.16445335  0.89119802  1
  Te  Te72  1  0.78875404  0.30685748  0.11931876  1
  Te  Te73  1  0.69314252  0.21124596  0.38068124  1
  Te  Te74  1  0.21124596  0.69314252  0.88068124  1
  Te  Te75  1  0.30685748  0.78875404  0.61931876  1
  Te  Te76  1  0.88144905  0.39049027  0.26180071  1
  Te  Te77  1  0.60950973  0.11855095  0.23819929  1
  Te  Te78  1  0.11855095  0.60950973  0.73819929  1
  Te  Te79  1  0.39049027  0.88144905  0.76180071  1
  Te  Te80  1  0.02082887  0.15485937  0.18952762  1
  Te  Te81  1  0.84514063  0.97917113  0.31047238  1
  Te  Te82  1  0.97917113  0.84514063  0.81047238  1
  Te  Te83  1  0.15485937  0.02082887  0.68952762  1
