# generated using pymatgen
data_Li2Co(SO4)2
_symmetry_space_group_name_H-M   'P 1'
_cell_length_a   9.30261779
_cell_length_b   9.18642791
_cell_length_c   13.80134695
_cell_angle_alpha   90.00000000
_cell_angle_beta   90.00000000
_cell_angle_gamma   90.00000000
_symmetry_Int_Tables_number   1
_chemical_formula_structural   Li2Co(SO4)2
_chemical_formula_sum   'Li16 Co8 S16 O64'
_cell_volume   1179.43312971
_cell_formula_units_Z   8
loop_
 _symmetry_equiv_pos_site_id
 _symmetry_equiv_pos_as_xyz
  1  'x, y, z'
loop_
 _atom_site_type_symbol
 _atom_site_label
 _atom_site_symmetry_multiplicity
 _atom_site_fract_x
 _atom_site_fract_y
 _atom_site_fract_z
 _atom_site_occupancy
  Li  Li0  1  0.03391947  0.22010903  0.37374660  1
  Li  Li1  1  0.03391947  0.27989097  0.87374660  1
  Li  Li2  1  0.22494248  0.95535552  0.37248409  1
  Li  Li3  1  0.22494248  0.54464448  0.87248409  1
  Li  Li4  1  0.27505752  0.04464448  0.87248409  1
  Li  Li5  1  0.27505752  0.45535552  0.37248409  1
  Li  Li6  1  0.46608053  0.72010903  0.37374660  1
  Li  Li7  1  0.46608053  0.77989097  0.87374660  1
  Li  Li8  1  0.53391947  0.22010903  0.12625340  1
  Li  Li9  1  0.53391947  0.27989097  0.62625340  1
  Li  Li10  1  0.72494248  0.54464448  0.62751591  1
  Li  Li11  1  0.72494248  0.95535552  0.12751591  1
  Li  Li12  1  0.77505752  0.45535552  0.12751591  1
  Li  Li13  1  0.77505752  0.04464448  0.62751591  1
  Li  Li14  1  0.96608053  0.77989097  0.62625340  1
  Li  Li15  1  0.96608053  0.72010903  0.12625340  1
  Co  Co16  1  0.13886246  0.10276831  0.12295116  1
  Co  Co17  1  0.13886246  0.39723169  0.62295116  1
  Co  Co18  1  0.36113754  0.60276831  0.12295116  1
  Co  Co19  1  0.36113754  0.89723169  0.62295116  1
  Co  Co20  1  0.63886246  0.10276831  0.37704884  1
  Co  Co21  1  0.63886246  0.39723169  0.87704884  1
  Co  Co22  1  0.86113754  0.60276831  0.37704884  1
  Co  Co23  1  0.86113754  0.89723169  0.87704884  1
  S  S24  1  0.07469056  0.06941597  0.72708476  1
  S  S25  1  0.07469056  0.43058403  0.22708476  1
  S  S26  1  0.16068567  0.68692379  0.49088879  1
  S  S27  1  0.16068567  0.81307621  0.99088879  1
  S  S28  1  0.33931433  0.18692379  0.49088879  1
  S  S29  1  0.33931433  0.31307621  0.99088879  1
  S  S30  1  0.42530944  0.93058403  0.22708476  1
  S  S31  1  0.42530944  0.56941597  0.72708476  1
  S  S32  1  0.57469056  0.43058403  0.27291524  1
  S  S33  1  0.57469056  0.06941597  0.77291524  1
  S  S34  1  0.66068567  0.68692379  0.00911121  1
  S  S35  1  0.66068567  0.81307621  0.50911121  1
  S  S36  1  0.83931433  0.18692379  0.00911121  1
  S  S37  1  0.83931433  0.31307621  0.50911121  1
  S  S38  1  0.92530944  0.56941597  0.77291524  1
  S  S39  1  0.92530944  0.93058403  0.27291524  1
  O  O40  1  0.00214294  0.69948156  0.47730564  1
  O  O41  1  0.00214294  0.80051844  0.97730564  1
  O  O42  1  0.01753790  0.99763364  0.34745135  1
  O  O43  1  0.01753790  0.50236636  0.84745135  1
  O  O44  1  0.02407154  0.46345037  0.32877356  1
  O  O45  1  0.02407154  0.03654963  0.82877356  1
  O  O46  1  0.07319951  0.23196663  0.72235680  1
  O  O47  1  0.07319951  0.26803337  0.22235680  1
  O  O48  1  0.18868969  0.72948478  0.08180014  1
  O  O49  1  0.18868969  0.77051522  0.58180014  1
  O  O50  1  0.20545866  0.96813348  0.00419920  1
  O  O51  1  0.20545866  0.53186652  0.50419920  1
  O  O52  1  0.22494039  0.01237082  0.72183752  1
  O  O53  1  0.22494039  0.48762918  0.22183752  1
  O  O54  1  0.24186780  0.74315911  0.40622543  1
  O  O55  1  0.24186780  0.75684089  0.90622543  1
  O  O56  1  0.25813220  0.24315911  0.40622543  1
  O  O57  1  0.25813220  0.25684089  0.90622543  1
  O  O58  1  0.27505961  0.98762918  0.22183752  1
  O  O59  1  0.27505961  0.51237082  0.72183752  1
  O  O60  1  0.29454134  0.03186652  0.50419920  1
  O  O61  1  0.29454134  0.46813348  0.00419920  1
  O  O62  1  0.31131031  0.22948478  0.08180014  1
  O  O63  1  0.31131031  0.27051522  0.58180014  1
  O  O64  1  0.42680049  0.76803337  0.22235680  1
  O  O65  1  0.42680049  0.73196663  0.72235680  1
  O  O66  1  0.47592846  0.53654963  0.82877356  1
  O  O67  1  0.47592846  0.96345037  0.32877356  1
  O  O68  1  0.48246210  0.49763364  0.34745135  1
  O  O69  1  0.48246210  0.00236636  0.84745135  1
  O  O70  1  0.49785706  0.19948156  0.47730564  1
  O  O71  1  0.49785706  0.30051844  0.97730564  1
  O  O72  1  0.50214294  0.69948156  0.02269436  1
  O  O73  1  0.50214294  0.80051844  0.52269436  1
  O  O74  1  0.51753790  0.50236636  0.65254865  1
  O  O75  1  0.51753790  0.99763364  0.15254865  1
  O  O76  1  0.52407154  0.46345037  0.17122644  1
  O  O77  1  0.52407154  0.03654963  0.67122644  1
  O  O78  1  0.57319951  0.26803337  0.27764320  1
  O  O79  1  0.57319951  0.23196663  0.77764320  1
  O  O80  1  0.68868969  0.72948478  0.41819986  1
  O  O81  1  0.68868969  0.77051522  0.91819986  1
  O  O82  1  0.70545866  0.53186652  0.99580080  1
  O  O83  1  0.70545866  0.96813348  0.49580080  1
  O  O84  1  0.72494039  0.48762918  0.27816248  1
  O  O85  1  0.72494039  0.01237082  0.77816248  1
  O  O86  1  0.74186780  0.74315911  0.09377457  1
  O  O87  1  0.74186780  0.75684089  0.59377457  1
  O  O88  1  0.75813220  0.24315911  0.09377457  1
  O  O89  1  0.75813220  0.25684089  0.59377457  1
  O  O90  1  0.77505961  0.51237082  0.77816248  1
  O  O91  1  0.77505961  0.98762918  0.27816248  1
  O  O92  1  0.79454134  0.46813348  0.49580080  1
  O  O93  1  0.79454134  0.03186652  0.99580080  1
  O  O94  1  0.81131031  0.22948478  0.41819986  1
  O  O95  1  0.81131031  0.27051522  0.91819986  1
  O  O96  1  0.92680049  0.73196663  0.77764320  1
  O  O97  1  0.92680049  0.76803337  0.27764320  1
  O  O98  1  0.97592846  0.53654963  0.67122644  1
  O  O99  1  0.97592846  0.96345037  0.17122644  1
  O  O100  1  0.98246210  0.00236636  0.65254865  1
  O  O101  1  0.98246210  0.49763364  0.15254865  1
  O  O102  1  0.99785706  0.19948156  0.02269436  1
  O  O103  1  0.99785706  0.30051844  0.52269436  1
