# generated using pymatgen
data_LiMn3P3(HO6)2
_symmetry_space_group_name_H-M   'P 1'
_cell_length_a   8.73116619
_cell_length_b   8.73116619
_cell_length_c   6.68574578
_cell_angle_alpha   72.98927960
_cell_angle_beta   107.01072040
_cell_angle_gamma   87.55565801
_symmetry_Int_Tables_number   1
_chemical_formula_structural   LiMn3P3(HO6)2
_chemical_formula_sum   'Li2 Mn6 P6 H4 O24'
_cell_volume   461.44955569
_cell_formula_units_Z   2
loop_
 _symmetry_equiv_pos_site_id
 _symmetry_equiv_pos_as_xyz
  1  'x, y, z'
loop_
 _atom_site_type_symbol
 _atom_site_label
 _atom_site_symmetry_multiplicity
 _atom_site_fract_x
 _atom_site_fract_y
 _atom_site_fract_z
 _atom_site_occupancy
  Li  Li0  1  0.00468665  0.00468665  0.75000000  1
  Li  Li1  1  0.99531335  0.99531335  0.25000000  1
  Mn  Mn2  1  0.04504225  0.63331912  0.62024294  1
  Mn  Mn3  1  0.36668088  0.95495775  0.12024294  1
  Mn  Mn4  1  0.71019475  0.71019475  0.75000000  1
  Mn  Mn5  1  0.28980525  0.28980525  0.25000000  1
  Mn  Mn6  1  0.63331912  0.04504225  0.87975706  1
  Mn  Mn7  1  0.95495775  0.36668088  0.37975706  1
  P  P8  1  0.31565038  0.90223880  0.60364841  1
  P  P9  1  0.09776120  0.68434962  0.10364841  1
  P  P10  1  0.32355093  0.32355093  0.75000000  1
  P  P11  1  0.67644907  0.67644907  0.25000000  1
  P  P12  1  0.90223880  0.31565038  0.89635159  1
  P  P13  1  0.68434962  0.09776120  0.39635159  1
  H  H14  1  0.37339770  0.62751291  0.68728612  1
  H  H15  1  0.37248709  0.62660230  0.18728612  1
  H  H16  1  0.62751291  0.37339770  0.81271388  1
  H  H17  1  0.62660230  0.37248709  0.31271388  1
  O  O18  1  0.13841755  0.86884176  0.57438296  1
  O  O19  1  0.38402920  0.96516865  0.79852334  1
  O  O20  1  0.13115824  0.86158245  0.07438296  1
  O  O21  1  0.03483135  0.61597080  0.29852334  1
  O  O22  1  0.67849023  0.97685901  0.61481243  1
  O  O23  1  0.42858027  0.73820620  0.64686568  1
  O  O24  1  0.28812055  0.50336869  0.73677097  1
  O  O25  1  0.29084135  0.21684379  0.96043691  1
  O  O26  1  0.02314099  0.32150977  0.11481243  1
  O  O27  1  0.26179380  0.57141973  0.14686568  1
  O  O28  1  0.49663131  0.71187945  0.23677097  1
  O  O29  1  0.21684379  0.29084135  0.53956309  1
  O  O30  1  0.78315621  0.70915865  0.46043691  1
  O  O31  1  0.50336869  0.28812055  0.76322903  1
  O  O32  1  0.73820620  0.42858027  0.85313432  1
  O  O33  1  0.97685901  0.67849023  0.88518757  1
  O  O34  1  0.70915865  0.78315621  0.03956309  1
  O  O35  1  0.71187945  0.49663131  0.26322903  1
  O  O36  1  0.57141973  0.26179380  0.35313432  1
  O  O37  1  0.32150977  0.02314099  0.38518757  1
  O  O38  1  0.96516865  0.38402920  0.70147666  1
  O  O39  1  0.86884176  0.13841755  0.92561704  1
  O  O40  1  0.61597080  0.03483135  0.20147666  1
  O  O41  1  0.86158245  0.13115824  0.42561704  1
