# generated using pymatgen
data_Mg2Cu
_symmetry_space_group_name_H-M   'P 1'
_cell_length_a   5.28829130
_cell_length_b   6.28512414
_cell_length_c   5.29042772
_cell_angle_alpha   126.44090085
_cell_angle_beta   59.38305607
_cell_angle_gamma   126.45972555
_symmetry_Int_Tables_number   1
_chemical_formula_structural   Mg2Cu
_chemical_formula_sum   'Mg4 Cu2'
_cell_volume   110.40167903
_cell_formula_units_Z   2
loop_
 _symmetry_equiv_pos_site_id
 _symmetry_equiv_pos_as_xyz
  1  'x, y, z'
loop_
 _atom_site_type_symbol
 _atom_site_label
 _atom_site_symmetry_multiplicity
 _atom_site_fract_x
 _atom_site_fract_y
 _atom_site_fract_z
 _atom_site_occupancy
  Mg  Mg0  1  0.91131022  0.07256746  0.07754135  1
  Mg  Mg1  1  0.25535578  0.09409754  0.42245465  1
  Mg  Mg2  1  0.41130055  0.74963547  0.57753386  1
  Mg  Mg3  1  0.75536845  0.41703253  0.92246714  1
  Cu  Cu4  1  0.33333793  0.58353990  0.00000599  1
  Cu  Cu5  1  0.83333007  0.58312610  0.49999301  1
