# generated using pymatgen
data_K3InAu5
_symmetry_space_group_name_H-M   'P 1'
_cell_length_a   5.70993924
_cell_length_b   8.59220601
_cell_length_c   11.23788015
_cell_angle_alpha   112.47546103
_cell_angle_beta   104.71722757
_cell_angle_gamma   90.00000000
_symmetry_Int_Tables_number   1
_chemical_formula_structural   K3InAu5
_chemical_formula_sum   'K6 In2 Au10'
_cell_volume   489.83051004
_cell_formula_units_Z   2
loop_
 _symmetry_equiv_pos_site_id
 _symmetry_equiv_pos_as_xyz
  1  'x, y, z'
loop_
 _atom_site_type_symbol
 _atom_site_label
 _atom_site_symmetry_multiplicity
 _atom_site_fract_x
 _atom_site_fract_y
 _atom_site_fract_z
 _atom_site_occupancy
  K  K0  1  0.08569648  0.70645511  0.17139196  1
  K  K1  1  0.58569648  0.96493785  0.17139196  1
  K  K2  1  0.75000100  0.36913378  0.50000100  1
  K  K3  1  0.25000000  0.63086622  0.50000100  1
  K  K4  1  0.41430452  0.03506215  0.82860904  1
  K  K5  1  0.91430552  0.29354589  0.82860904  1
  In  In6  1  0.25000000  0.08484659  0.50000100  1
  In  In7  1  0.75000100  0.91515341  0.50000100  1
  Au  Au8  1  0.00000000  0.00000000  0.00000000  1
  Au  Au9  1  0.50000100  0.50000000  0.00000000  1
  Au  Au10  1  0.31390307  0.31390407  0.12781015  1
  Au  Au11  1  0.81390407  0.31390407  0.12781015  1
  Au  Au12  1  0.14527529  0.18067106  0.29055058  1
  Au  Au13  1  0.64527629  0.60988052  0.29055058  1
  Au  Au14  1  0.35472471  0.39012048  0.70944942  1
  Au  Au15  1  0.85472571  0.81932894  0.70944942  1
  Au  Au16  1  0.18609693  0.68609493  0.87219085  1
  Au  Au17  1  0.68609393  0.68609493  0.87219085  1
