# generated using pymatgen
data_Na2FeO3
_symmetry_space_group_name_H-M   'P 1'
_cell_length_a   5.63452084
_cell_length_b   9.60385202
_cell_length_c   5.63452084
_cell_angle_alpha   101.03155223
_cell_angle_beta   69.65316183
_cell_angle_gamma   78.96844777
_symmetry_Int_Tables_number   1
_chemical_formula_structural   Na2FeO3
_chemical_formula_sum   'Na8 Fe4 O12'
_cell_volume   269.35272349
_cell_formula_units_Z   4
loop_
 _symmetry_equiv_pos_site_id
 _symmetry_equiv_pos_as_xyz
  1  'x, y, z'
loop_
 _atom_site_type_symbol
 _atom_site_label
 _atom_site_symmetry_multiplicity
 _atom_site_fract_x
 _atom_site_fract_y
 _atom_site_fract_z
 _atom_site_occupancy
  Na  Na0  1  0.00615549  0.98768902  0.49384451  1
  Na  Na1  1  0.57894274  0.84211452  0.42105726  1
  Na  Na2  1  0.17105726  0.65788548  0.32894274  1
  Na  Na3  1  0.74384451  0.51231098  0.25615549  1
  Na  Na4  1  0.25615549  0.48768902  0.74384451  1
  Na  Na5  1  0.32894274  0.34211452  0.17105726  1
  Na  Na6  1  0.42105726  0.15788548  0.57894274  1
  Na  Na7  1  0.49384451  0.01231098  0.00615549  1
  Fe  Fe8  1  0.08558589  0.82882922  0.91441411  1
  Fe  Fe9  1  0.66441411  0.67117078  0.83558589  1
  Fe  Fe10  1  0.83558589  0.32882922  0.66441411  1
  Fe  Fe11  1  0.91441411  0.17117078  0.08558589  1
  O  O12  1  0.36525093  0.80969794  0.11313787  1
  O  O13  1  0.82505113  0.80969794  0.69656007  1
  O  O14  1  0.38474907  0.69030206  0.63686213  1
  O  O15  1  0.92494887  0.69030206  0.05343993  1
  O  O16  1  0.55852668  0.50000000  0.94147332  1
  O  O17  1  0.94147332  0.50000000  0.55852668  1
  O  O18  1  0.05343993  0.30969794  0.92494887  1
  O  O19  1  0.63686213  0.30969794  0.38474907  1
  O  O20  1  0.69656007  0.19030206  0.82505113  1
  O  O21  1  0.11313787  0.19030206  0.36525093  1
  O  O22  1  0.19147332  0.00000000  0.80852668  1
  O  O23  1  0.80852668  0.00000000  0.19147332  1
