# generated using pymatgen
data_KIn(GeO3)2
_symmetry_space_group_name_H-M   'P 1'
_cell_length_a   5.72381181
_cell_length_b   7.13633581
_cell_length_c   7.13633580
_cell_angle_alpha   85.06236697
_cell_angle_beta   78.81997298
_cell_angle_gamma   78.81997304
_symmetry_Int_Tables_number   1
_chemical_formula_structural   KIn(GeO3)2
_chemical_formula_sum   'K2 In2 Ge4 O12'
_cell_volume   280.18343836
_cell_formula_units_Z   2
loop_
 _symmetry_equiv_pos_site_id
 _symmetry_equiv_pos_as_xyz
  1  'x, y, z'
loop_
 _atom_site_type_symbol
 _atom_site_label
 _atom_site_symmetry_multiplicity
 _atom_site_fract_x
 _atom_site_fract_y
 _atom_site_fract_z
 _atom_site_occupancy
  O  O0  1  0.97612851  0.66542142  0.63418369  1
  O  O1  1  0.52387149  0.36581631  0.33457858  1
  O  O2  1  0.02387149  0.33457858  0.36581631  1
  O  O3  1  0.47612851  0.63418369  0.66542142  1
  O  O4  1  0.28505485  0.90525516  0.39754139  1
  O  O5  1  0.21494515  0.60245861  0.09474484  1
  O  O6  1  0.71494515  0.09474484  0.60245861  1
  O  O7  1  0.78505485  0.39754139  0.90525516  1
  O  O8  1  0.62899591  0.81847115  0.96182373  1
  O  O9  1  0.87100409  0.03817627  0.18152885  1
  O  O10  1  0.37100409  0.18152885  0.03817627  1
  O  O11  1  0.12899591  0.96182373  0.81847115  1
  K  K12  1  0.75000000  0.68822425  0.31177575  1
  K  K13  1  0.25000000  0.31177575  0.68822425  1
  Ge  Ge14  1  0.29191544  0.37354800  0.19548779  1
  Ge  Ge15  1  0.70808456  0.62645200  0.80451221  1
  Ge  Ge16  1  0.20808456  0.80451221  0.62645200  1
  Ge  Ge17  1  0.79191544  0.19548779  0.37354800  1
  In  In18  1  0.75000000  0.10402086  0.89597914  1
  In  In19  1  0.25000000  0.89597914  0.10402086  1
