# generated using pymatgen
data_FeMo3S4
_symmetry_space_group_name_H-M   'P 1'
_cell_length_a   6.49099990
_cell_length_b   6.51368243
_cell_length_c   6.52809029
_cell_angle_alpha   97.38980144
_cell_angle_beta   91.30439286
_cell_angle_gamma   95.91651429
_symmetry_Int_Tables_number   1
_chemical_formula_structural   FeMo3S4
_chemical_formula_sum   'Fe2 Mo6 S8'
_cell_volume   272.07752716
_cell_formula_units_Z   2
loop_
 _symmetry_equiv_pos_site_id
 _symmetry_equiv_pos_as_xyz
  1  'x, y, z'
loop_
 _atom_site_type_symbol
 _atom_site_label
 _atom_site_symmetry_multiplicity
 _atom_site_fract_x
 _atom_site_fract_y
 _atom_site_fract_z
 _atom_site_occupancy
  S  S0  1  0.73553603  0.35995765  0.12052042  1
  S  S1  1  0.26446397  0.64004235  0.87947958  1
  S  S2  1  0.79647920  0.81332938  0.78569062  1
  S  S3  1  0.20352080  0.18667062  0.21430938  1
  S  S4  1  0.64157781  0.86002167  0.26891118  1
  S  S5  1  0.35842219  0.13997833  0.73108882  1
  S  S6  1  0.14437020  0.72346763  0.38529449  1
  S  S7  1  0.85562980  0.27653237  0.61470551  1
  Fe  Fe8  1  0.99710232  0.14767637  0.90515071  1
  Fe  Fe9  1  0.00289768  0.85232363  0.09484929  1
  Mo  Mo10  1  0.77943729  0.59046543  0.45012612  1
  Mo  Mo11  1  0.22056271  0.40953457  0.54987388  1
  Mo  Mo12  1  0.45724543  0.78158980  0.59806121  1
  Mo  Mo13  1  0.54275457  0.21841020  0.40193879  1
  Mo  Mo14  1  0.58368650  0.46299219  0.77732077  1
  Mo  Mo15  1  0.41631350  0.53700781  0.22267923  1
