# generated using pymatgen
data_LiMg149
_symmetry_space_group_name_H-M   'P 1'
_cell_length_a   15.85019846
_cell_length_b   15.85099592
_cell_length_c   15.79465479
_cell_angle_alpha   90.00005353
_cell_angle_beta   89.99977202
_cell_angle_gamma   119.97384587
_symmetry_Int_Tables_number   1
_chemical_formula_structural   LiMg149
_chemical_formula_sum   'Li1 Mg149'
_cell_volume   3437.52942946
_cell_formula_units_Z   1
loop_
 _symmetry_equiv_pos_site_id
 _symmetry_equiv_pos_as_xyz
  1  'x, y, z'
loop_
 _atom_site_type_symbol
 _atom_site_label
 _atom_site_symmetry_multiplicity
 _atom_site_fract_x
 _atom_site_fract_y
 _atom_site_fract_z
 _atom_site_occupancy
  Li  Li0  1  0.00000012  0.99999764  0.99999709  1
  Mg  Mg1  1  0.19875473  0.19876162  0.99999863  1
  Mg  Mg2  1  0.00000043  0.19874903  0.99999979  1
  Mg  Mg3  1  0.80020903  0.19979319  0.99999794  1
  Mg  Mg4  1  0.39958090  0.19978777  0.99999763  1
  Mg  Mg5  1  0.59992227  0.19984274  0.99999767  1
  Mg  Mg6  1  0.39954054  0.39962604  0.99999772  1
  Mg  Mg7  1  0.00007983  0.39962968  0.99999810  1
  Mg  Mg8  1  0.19984137  0.39967993  0.99999804  1
  Mg  Mg9  1  0.80015767  0.40007743  0.99999877  1
  Mg  Mg10  1  0.59992080  0.40007874  0.99999707  1
  Mg  Mg11  1  0.19995453  0.59998012  0.99999809  1
  Mg  Mg12  1  0.40001751  0.59998082  0.99999717  1
  Mg  Mg13  1  0.80021352  0.60042106  0.99999766  1
  Mg  Mg14  1  0.60037297  0.60045984  0.99999771  1
  Mg  Mg15  1  0.00008437  0.60045595  0.99999796  1
  Mg  Mg16  1  0.40001919  0.80004576  0.99999770  1
  Mg  Mg17  1  0.60032169  0.80016000  0.99999800  1
  Mg  Mg18  1  0.19983990  0.80016021  0.99999826  1
  Mg  Mg19  1  0.80124064  0.80124477  0.99999863  1
  Mg  Mg20  1  0.00000472  0.80125134  0.99999952  1
  Mg  Mg21  1  0.60037053  0.99991913  0.99999776  1
  Mg  Mg22  1  0.39954562  0.99991672  0.99999773  1
  Mg  Mg23  1  0.80125023  0.99999924  0.99999880  1
  Mg  Mg24  1  0.19874868  0.99999271  0.99999881  1
  Mg  Mg25  1  0.06624984  0.13249586  0.16540261  1
  Mg  Mg26  1  0.86750371  0.93375228  0.16540277  1
  Mg  Mg27  1  0.06624955  0.93375405  0.16540016  1
  Mg  Mg28  1  0.66666736  0.33333108  0.16653309  1
  Mg  Mg29  1  0.46654426  0.13324930  0.16659100  1
  Mg  Mg30  1  0.66671257  0.13325306  0.16658939  1
  Mg  Mg31  1  0.46654294  0.33328670  0.16659462  1
  Mg  Mg32  1  0.86674680  0.33328602  0.16658940  1
  Mg  Mg33  1  0.66671320  0.53345614  0.16659502  1
  Mg  Mg34  1  0.86674835  0.53345659  0.16659125  1
  Mg  Mg35  1  0.86672355  0.13327202  0.16656601  1
  Mg  Mg36  1  0.26654464  0.13327384  0.16657156  1
  Mg  Mg37  1  0.86672319  0.73345424  0.16657192  1
  Mg  Mg38  1  0.26643303  0.33308267  0.16659803  1
  Mg  Mg39  1  0.06664956  0.33308511  0.16659625  1
  Mg  Mg40  1  0.06664998  0.73355741  0.16659490  1
  Mg  Mg41  1  0.66691597  0.73356477  0.16659854  1
  Mg  Mg42  1  0.66691825  0.93335344  0.16659664  1
  Mg  Mg43  1  0.26644281  0.93335379  0.16659481  1
  Mg  Mg44  1  0.06666620  0.53333593  0.16664507  1
  Mg  Mg45  1  0.46666706  0.53333534  0.16664987  1
  Mg  Mg46  1  0.46666549  0.93333520  0.16664502  1
  Mg  Mg47  1  0.26663409  0.53326542  0.16674231  1
  Mg  Mg48  1  0.26663629  0.73336218  0.16673851  1
  Mg  Mg49  1  0.46673362  0.73336565  0.16674232  1
  Mg  Mg50  1  0.99999836  0.00000007  0.33270620  1
  Mg  Mg51  1  0.80007872  0.99988534  0.33291340  1
  Mg  Mg52  1  0.19980930  0.99988931  0.33291460  1
  Mg  Mg53  1  0.19981102  0.19992329  0.33291302  1
  Mg  Mg54  1  0.00011361  0.19991989  0.33291283  1
  Mg  Mg55  1  0.80007936  0.80018979  0.33291220  1
  Mg  Mg56  1  0.00010748  0.80019173  0.33291352  1
  Mg  Mg57  1  0.39997071  0.00008986  0.33326894  1
  Mg  Mg58  1  0.60011590  0.00008879  0.33326862  1
  Mg  Mg59  1  0.39996438  0.39987648  0.33326534  1
  Mg  Mg60  1  0.99990997  0.39988320  0.33326804  1
  Mg  Mg61  1  0.99991135  0.60002975  0.33326838  1
  Mg  Mg62  1  0.60012251  0.60003752  0.33326545  1
  Mg  Mg63  1  0.60000039  0.20000521  0.33334606  1
  Mg  Mg64  1  0.60000205  0.39999789  0.33334020  1
  Mg  Mg65  1  0.79999461  0.39999872  0.33334503  1
  Mg  Mg66  1  0.39997741  0.19998928  0.33333926  1
  Mg  Mg67  1  0.80000875  0.19999421  0.33333845  1
  Mg  Mg68  1  0.80001236  0.60002392  0.33333865  1
  Mg  Mg69  1  0.20005095  0.40010000  0.33344871  1
  Mg  Mg70  1  0.20004840  0.79995086  0.33345122  1
  Mg  Mg71  1  0.59990245  0.79995002  0.33344826  1
  Mg  Mg72  1  0.19993509  0.59996908  0.33357794  1
  Mg  Mg73  1  0.40002992  0.59996845  0.33357605  1
  Mg  Mg74  1  0.40003010  0.80006535  0.33357861  1
  Mg  Mg75  1  0.06663439  0.13326306  0.50000287  1
  Mg  Mg76  1  0.26663000  0.13331489  0.50000156  1
  Mg  Mg77  1  0.86668256  0.13331266  0.50000260  1
  Mg  Mg78  1  0.66672154  0.13350271  0.50000177  1
  Mg  Mg79  1  0.46678419  0.13349718  0.50000156  1
  Mg  Mg80  1  0.06656239  0.33319867  0.50000192  1
  Mg  Mg81  1  0.26663703  0.33319927  0.50000186  1
  Mg  Mg82  1  0.86649748  0.33327611  0.50000261  1
  Mg  Mg83  1  0.46677877  0.33327915  0.50000149  1
  Mg  Mg84  1  0.66667010  0.33332736  0.50000250  1
  Mg  Mg85  1  0.86650052  0.53321701  0.50000258  1
  Mg  Mg86  1  0.66671974  0.53321948  0.50000121  1
  Mg  Mg87  1  0.06656646  0.53328573  0.50000160  1
  Mg  Mg88  1  0.46671764  0.53328564  0.50000141  1
  Mg  Mg89  1  0.26667009  0.53333289  0.50000158  1
  Mg  Mg90  1  0.26666964  0.73333031  0.50000216  1
  Mg  Mg91  1  0.46666532  0.73332923  0.50000101  1
  Mg  Mg92  1  0.86668287  0.73336925  0.50000227  1
  Mg  Mg93  1  0.66679747  0.73336052  0.50000214  1
  Mg  Mg94  1  0.06656381  0.73335775  0.50000207  1
  Mg  Mg95  1  0.86673614  0.93336769  0.50000235  1
  Mg  Mg96  1  0.06663576  0.93336779  0.50000279  1
  Mg  Mg97  1  0.66680321  0.93344106  0.50000245  1
  Mg  Mg98  1  0.26664199  0.93344075  0.50000148  1
  Mg  Mg99  1  0.46671526  0.93343359  0.50000145  1
  Mg  Mg100  1  0.19993549  0.59996947  0.66642418  1
  Mg  Mg101  1  0.40002962  0.59996811  0.66642701  1
  Mg  Mg102  1  0.40002955  0.80006520  0.66642392  1
  Mg  Mg103  1  0.20005168  0.40010137  0.66655260  1
  Mg  Mg104  1  0.20004925  0.79994989  0.66655081  1
  Mg  Mg105  1  0.59990174  0.79994972  0.66655320  1
  Mg  Mg106  1  0.39997813  0.19998968  0.66666353  1
  Mg  Mg107  1  0.80000919  0.19999516  0.66666406  1
  Mg  Mg108  1  0.80001266  0.60002367  0.66666414  1
  Mg  Mg109  1  0.60000057  0.20000607  0.66665837  1
  Mg  Mg110  1  0.60000218  0.39999723  0.66666416  1
  Mg  Mg111  1  0.79999489  0.39999876  0.66665859  1
  Mg  Mg112  1  0.39997022  0.00008994  0.66673309  1
  Mg  Mg113  1  0.60011690  0.00008899  0.66673380  1
  Mg  Mg114  1  0.39996396  0.39987620  0.66673662  1
  Mg  Mg115  1  0.99990915  0.39988244  0.66673383  1
  Mg  Mg116  1  0.99991059  0.60002973  0.66673352  1
  Mg  Mg117  1  0.60012256  0.60003799  0.66673673  1
  Mg  Mg118  1  0.80007888  0.99988474  0.66708787  1
  Mg  Mg119  1  0.19980801  0.99988866  0.66708699  1
  Mg  Mg120  1  0.19980962  0.19992304  0.66708891  1
  Mg  Mg121  1  0.00011394  0.19992004  0.66708801  1
  Mg  Mg122  1  0.80007969  0.80019047  0.66708926  1
  Mg  Mg123  1  0.00010775  0.80019255  0.66708733  1
  Mg  Mg124  1  0.99999851  0.00000017  0.66729605  1
  Mg  Mg125  1  0.26663477  0.53326617  0.83325612  1
  Mg  Mg126  1  0.26663637  0.73336210  0.83325998  1
  Mg  Mg127  1  0.46673312  0.73336517  0.83325690  1
  Mg  Mg128  1  0.06666660  0.53333598  0.83335400  1
  Mg  Mg129  1  0.46666658  0.53333571  0.83334946  1
  Mg  Mg130  1  0.46666529  0.93333450  0.83335423  1
  Mg  Mg131  1  0.26643426  0.33308290  0.83340017  1
  Mg  Mg132  1  0.06664880  0.33308557  0.83340131  1
  Mg  Mg133  1  0.06664895  0.73355615  0.83340313  1
  Mg  Mg134  1  0.66691527  0.73356331  0.83339919  1
  Mg  Mg135  1  0.66691746  0.93335411  0.83340096  1
  Mg  Mg136  1  0.26644385  0.93335465  0.83340362  1
  Mg  Mg137  1  0.86672273  0.13327206  0.83343090  1
  Mg  Mg138  1  0.26654531  0.13327454  0.83342665  1
  Mg  Mg139  1  0.86672244  0.73345353  0.83342555  1
  Mg  Mg140  1  0.46654490  0.13325044  0.83340727  1
  Mg  Mg141  1  0.66671200  0.13325396  0.83340934  1
  Mg  Mg142  1  0.46654425  0.33328669  0.83340435  1
  Mg  Mg143  1  0.86674592  0.33328606  0.83340828  1
  Mg  Mg144  1  0.66671310  0.53345529  0.83340397  1
  Mg  Mg145  1  0.86674751  0.53345606  0.83340637  1
  Mg  Mg146  1  0.66666646  0.33333090  0.83346425  1
  Mg  Mg147  1  0.06624994  0.13249574  0.83459466  1
  Mg  Mg148  1  0.86750385  0.93375188  0.83459469  1
  Mg  Mg149  1  0.06624994  0.93375492  0.83459652  1
