# generated using pymatgen
data_Er2S3
_symmetry_space_group_name_H-M   'P 1'
_cell_length_a   3.90827548
_cell_length_b   10.94221470
_cell_length_c   11.20508464
_cell_angle_alpha   108.78652981
_cell_angle_beta   90.00000000
_cell_angle_gamma   90.00000000
_symmetry_Int_Tables_number   1
_chemical_formula_structural   Er2S3
_chemical_formula_sum   'Er8 S12'
_cell_volume   453.65884865
_cell_formula_units_Z   4
loop_
 _symmetry_equiv_pos_site_id
 _symmetry_equiv_pos_as_xyz
  1  'x, y, z'
loop_
 _atom_site_type_symbol
 _atom_site_label
 _atom_site_symmetry_multiplicity
 _atom_site_fract_x
 _atom_site_fract_y
 _atom_site_fract_z
 _atom_site_occupancy
  S  S0  1  0.25000000  0.38970725  0.53713219  1
  S  S1  1  0.75000000  0.61029275  0.46286781  1
  S  S2  1  0.25000000  0.69075648  0.24948915  1
  S  S3  1  0.75000000  0.30924352  0.75051085  1
  S  S4  1  0.25000000  0.02277851  0.38704216  1
  S  S5  1  0.75000000  0.97722149  0.61295784  1
  S  S6  1  0.25000000  0.58184523  0.90159545  1
  S  S7  1  0.75000000  0.41815477  0.09840455  1
  S  S8  1  0.75000000  0.24609108  0.27695213  1
  S  S9  1  0.25000000  0.75390892  0.72304787  1
  S  S10  1  0.75000000  0.89813540  0.06359735  1
  S  S11  1  0.25000000  0.10186460  0.93640265  1
  Er  Er12  1  0.25000000  0.33941035  0.91637026  1
  Er  Er13  1  0.75000000  0.66058965  0.08362974  1
  Er  Er14  1  0.25000000  0.45627900  0.30986761  1
  Er  Er15  1  0.75000000  0.54372100  0.69013239  1
  Er  Er16  1  0.25000000  0.81732839  0.49692310  1
  Er  Er17  1  0.75000000  0.18267161  0.50307690  1
  Er  Er18  1  0.25000000  0.06767584  0.16843123  1
  Er  Er19  1  0.75000000  0.93232416  0.83156877  1
