# generated using pymatgen
data_HoLuRu2
_symmetry_space_group_name_H-M   'P 1'
_cell_length_a   4.75791996
_cell_length_b   4.75783423
_cell_length_c   4.75792072
_cell_angle_alpha   59.99985850
_cell_angle_beta   59.99909576
_cell_angle_gamma   59.99927765
_symmetry_Int_Tables_number   1
_chemical_formula_structural   HoLuRu2
_chemical_formula_sum   'Ho1 Lu1 Ru2'
_cell_volume   76.15928153
_cell_formula_units_Z   1
loop_
 _symmetry_equiv_pos_site_id
 _symmetry_equiv_pos_as_xyz
  1  'x, y, z'
loop_
 _atom_site_type_symbol
 _atom_site_label
 _atom_site_symmetry_multiplicity
 _atom_site_fract_x
 _atom_site_fract_y
 _atom_site_fract_z
 _atom_site_occupancy
  Ho  Ho0  1  0.24999290  0.25000080  0.25000351  1
  Lu  Lu1  1  0.75000744  0.75000239  0.74999465  1
  Ru  Ru2  1  0.00000051  0.99999637  0.00000029  1
  Ru  Ru3  1  0.49999815  0.49999944  0.50000056  1
