# generated using pymatgen
data_LiMg2
_symmetry_space_group_name_H-M   'P 1'
_cell_length_a   3.41987893
_cell_length_b   5.72618715
_cell_length_c   7.13494895
_cell_angle_alpha   71.75042861
_cell_angle_beta   90.03851177
_cell_angle_gamma   107.19729986
_symmetry_Int_Tables_number   1
_chemical_formula_structural   LiMg2
_chemical_formula_sum   'Li2 Mg4'
_cell_volume   126.11015995
_cell_formula_units_Z   2
loop_
 _symmetry_equiv_pos_site_id
 _symmetry_equiv_pos_as_xyz
  1  'x, y, z'
loop_
 _atom_site_type_symbol
 _atom_site_label
 _atom_site_symmetry_multiplicity
 _atom_site_fract_x
 _atom_site_fract_y
 _atom_site_fract_z
 _atom_site_occupancy
  Li  Li0  1  0.69706157  0.39407560  0.63015768  1
  Li  Li1  1  0.35860566  0.71722168  0.75910942  1
  Mg  Mg2  1  0.01530585  0.03055048  0.93187411  1
  Mg  Mg3  1  0.69805123  0.39625775  0.08926512  1
  Mg  Mg4  1  0.35725914  0.71444051  0.29891894  1
  Mg  Mg5  1  0.04038555  0.08078799  0.45734073  1
