# generated using pymatgen
data_ScCuPd2
_symmetry_space_group_name_H-M   'P 1'
_cell_length_a   4.46159544
_cell_length_b   4.46161279
_cell_length_c   4.46158055
_cell_angle_alpha   59.99925627
_cell_angle_beta   59.99982342
_cell_angle_gamma   59.99929129
_symmetry_Int_Tables_number   1
_chemical_formula_structural   ScCuPd2
_chemical_formula_sum   'Sc1 Cu1 Pd2'
_cell_volume   62.79867167
_cell_formula_units_Z   1
loop_
 _symmetry_equiv_pos_site_id
 _symmetry_equiv_pos_as_xyz
  1  'x, y, z'
loop_
 _atom_site_type_symbol
 _atom_site_label
 _atom_site_symmetry_multiplicity
 _atom_site_fract_x
 _atom_site_fract_y
 _atom_site_fract_z
 _atom_site_occupancy
  Sc  Sc0  1  0.74999893  0.75000021  0.74999975  1
  Cu  Cu1  1  0.25000243  0.25000039  0.24999628  1
  Pd  Pd2  1  0.00000013  0.99999648  0.00000080  1
  Pd  Pd3  1  0.49999851  0.50000292  0.50000317  1
