# generated using pymatgen
data_KCe(PO3)4
_symmetry_space_group_name_H-M   'P 1'
_cell_length_a   7.26018536
_cell_length_b   8.47540667
_cell_length_c   8.19760087
_cell_angle_alpha   90.01494566
_cell_angle_beta   92.27119946
_cell_angle_gamma   90.00351749
_symmetry_Int_Tables_number   1
_chemical_formula_structural   KCe(PO3)4
_chemical_formula_sum   'K2 Ce2 P8 O24'
_cell_volume   504.02689376
_cell_formula_units_Z   2
loop_
 _symmetry_equiv_pos_site_id
 _symmetry_equiv_pos_as_xyz
  1  'x, y, z'
loop_
 _atom_site_type_symbol
 _atom_site_label
 _atom_site_symmetry_multiplicity
 _atom_site_fract_x
 _atom_site_fract_y
 _atom_site_fract_z
 _atom_site_occupancy
  K  K0  1  0.20496164  0.24943373  0.27537636  1
  K  K1  1  0.79506832  0.74938698  0.72459134  1
  Ce  Ce2  1  0.73036499  0.50167746  0.24749823  1
  Ce  Ce3  1  0.26957379  0.00174101  0.75252408  1
  P  P4  1  0.94863769  0.87535304  0.10259330  1
  P  P5  1  0.05140277  0.37533903  0.89740131  1
  P  P6  1  0.86556186  0.23670145  0.60466330  1
  P  P7  1  0.13441185  0.73673227  0.39529813  1
  P  P8  1  0.49515611  0.36391195  0.62496401  1
  P  P9  1  0.50487276  0.86390158  0.37500352  1
  P  P10  1  0.61099614  0.07764109  0.09826793  1
  P  P11  1  0.38904197  0.57769180  0.90175655  1
  O  O12  1  0.87799327  0.28966942  0.43047948  1
  O  O13  1  0.12196299  0.78971557  0.56954853  1
  O  O14  1  0.49863377  0.94547008  0.19703188  1
  O  O15  1  0.50139918  0.44550251  0.80295950  1
  O  O16  1  0.94382440  0.38000047  0.72123087  1
  O  O17  1  0.05622642  0.87999659  0.27876436  1
  O  O18  1  0.31549141  0.27768998  0.59848260  1
  O  O19  1  0.68450605  0.77771311  0.40149680  1
  O  O20  1  0.91460661  0.40387544  0.02748796  1
  O  O21  1  0.08536758  0.90387126  0.97250924  1
  O  O22  1  0.82540978  0.73379242  0.07978760  1
  O  O23  1  0.17454013  0.23382663  0.92022416  1
  O  O24  1  0.55815419  0.48042519  0.50050370  1
  O  O25  1  0.44185882  0.98046829  0.49953183  1
  O  O26  1  0.65332025  0.23166573  0.65450574  1
  O  O27  1  0.34666322  0.73164248  0.34551107  1
  O  O28  1  0.45011248  0.55250844  0.07692261  1
  O  O29  1  0.54988586  0.05251509  0.92306833  1
  O  O30  1  0.04726378  0.58296476  0.34393179  1
  O  O31  1  0.95264676  0.08296243  0.65603920  1
  O  O32  1  0.82756302  0.03412858  0.12530096  1
  O  O33  1  0.17245999  0.53413151  0.87469664  1
  O  O34  1  0.58344428  0.23576840  0.17693894  1
  O  O35  1  0.41661988  0.73576529  0.82311216  1
