# generated using pymatgen
data_MnZn3
_symmetry_space_group_name_H-M   'P 1'
_cell_length_a   5.47261785
_cell_length_b   5.47265243
_cell_length_c   4.35060704
_cell_angle_alpha   89.99300016
_cell_angle_beta   90.00649673
_cell_angle_gamma   119.99960309
_symmetry_Int_Tables_number   1
_chemical_formula_structural   MnZn3
_chemical_formula_sum   'Mn2 Zn6'
_cell_volume   112.84315289
_cell_formula_units_Z   2
loop_
 _symmetry_equiv_pos_site_id
 _symmetry_equiv_pos_as_xyz
  1  'x, y, z'
loop_
 _atom_site_type_symbol
 _atom_site_label
 _atom_site_symmetry_multiplicity
 _atom_site_fract_x
 _atom_site_fract_y
 _atom_site_fract_z
 _atom_site_occupancy
  Mn  Mn0  1  0.66667503  0.33334507  0.24999749  1
  Mn  Mn1  1  0.33333029  0.66665668  0.75001201  1
  Zn  Zn2  1  0.83161651  0.16838251  0.75001095  1
  Zn  Zn3  1  0.33675851  0.16838306  0.74999038  1
  Zn  Zn4  1  0.83161863  0.66323919  0.74999202  1
  Zn  Zn5  1  0.16837757  0.83162209  0.24998503  1
  Zn  Zn6  1  0.66324414  0.83161738  0.25000384  1
  Zn  Zn7  1  0.16838131  0.33675203  0.25000829  1
