# generated using pymatgen
data_GdEr3
_symmetry_space_group_name_H-M   'P 1'
_cell_length_a   7.17212048
_cell_length_b   7.16651175
_cell_length_c   5.65020214
_cell_angle_alpha   90.00248107
_cell_angle_beta   89.98250670
_cell_angle_gamma   119.99196105
_symmetry_Int_Tables_number   1
_chemical_formula_structural   GdEr3
_chemical_formula_sum   'Gd2 Er6'
_cell_volume   251.52731882
_cell_formula_units_Z   2
loop_
 _symmetry_equiv_pos_site_id
 _symmetry_equiv_pos_as_xyz
  1  'x, y, z'
loop_
 _atom_site_type_symbol
 _atom_site_label
 _atom_site_symmetry_multiplicity
 _atom_site_fract_x
 _atom_site_fract_y
 _atom_site_fract_z
 _atom_site_occupancy
  Gd  Gd0  1  0.33333791  0.66662637  0.74992025  1
  Gd  Gd1  1  0.66651657  0.33334087  0.24996717  1
  Er  Er2  1  0.16610812  0.33202365  0.25003851  1
  Er  Er3  1  0.66800084  0.83397718  0.24996041  1
  Er  Er4  1  0.16600197  0.83403323  0.24989344  1
  Er  Er5  1  0.83400374  0.66804702  0.75006746  1
  Er  Er6  1  0.33197427  0.16591516  0.75012611  1
  Er  Er7  1  0.83405658  0.16603653  0.75003065  1
