# generated using pymatgen
data_Re3Ru
_symmetry_space_group_name_H-M   'P 1'
_cell_length_a   5.55285229
_cell_length_b   5.55358704
_cell_length_c   4.42644708
_cell_angle_alpha   90.00987775
_cell_angle_beta   89.99470932
_cell_angle_gamma   120.00635349
_symmetry_Int_Tables_number   1
_chemical_formula_structural   Re3Ru
_chemical_formula_sum   'Re6 Ru2'
_cell_volume   118.20825260
_cell_formula_units_Z   2
loop_
 _symmetry_equiv_pos_site_id
 _symmetry_equiv_pos_as_xyz
  1  'x, y, z'
loop_
 _atom_site_type_symbol
 _atom_site_label
 _atom_site_symmetry_multiplicity
 _atom_site_fract_x
 _atom_site_fract_y
 _atom_site_fract_z
 _atom_site_occupancy
  Re  Re0  1  0.16431936  0.32864864  0.24997750  1
  Re  Re1  1  0.67136510  0.83569026  0.24998240  1
  Re  Re2  1  0.16435085  0.83565502  0.25003265  1
  Re  Re3  1  0.83563627  0.67123444  0.75001951  1
  Re  Re4  1  0.32872922  0.16436095  0.75001542  1
  Re  Re5  1  0.83562248  0.16441668  0.74996751  1
  Ru  Ru6  1  0.33329298  0.66666777  0.74999325  1
  Ru  Ru7  1  0.66668776  0.33333123  0.25000376  1
