# generated using pymatgen
data_Li2Mg
_symmetry_space_group_name_H-M   'P 1'
_cell_length_a   3.18984591
_cell_length_b   7.77939794
_cell_length_c   5.00927442
_cell_angle_alpha   90.00000000
_cell_angle_beta   90.00000000
_cell_angle_gamma   78.16939952
_symmetry_Int_Tables_number   1
_chemical_formula_structural   Li2Mg
_chemical_formula_sum   'Li4 Mg2'
_cell_volume   121.66505453
_cell_formula_units_Z   2
loop_
 _symmetry_equiv_pos_site_id
 _symmetry_equiv_pos_as_xyz
  1  'x, y, z'
loop_
 _atom_site_type_symbol
 _atom_site_label
 _atom_site_symmetry_multiplicity
 _atom_site_fract_x
 _atom_site_fract_y
 _atom_site_fract_z
 _atom_site_occupancy
  Li  Li0  1  0.98964669  0.02070962  0.00000000  1
  Li  Li1  1  0.65204604  0.69591091  0.00000000  1
  Li  Li2  1  0.78813331  0.42373538  0.50000100  1
  Li  Li3  1  0.12573396  0.74853409  0.50000100  1
  Mg  Mg4  1  0.32097084  0.35805931  0.00000000  1
  Mg  Mg5  1  0.45680816  0.08638569  0.50000100  1
