# generated using pymatgen
data_Ca(BH4)2
_symmetry_space_group_name_H-M   'P 1'
_cell_length_a   6.80596959
_cell_length_b   6.80596959
_cell_length_c   4.36131880
_cell_angle_alpha   90.00000000
_cell_angle_beta   90.00000000
_cell_angle_gamma   90.00000000
_symmetry_Int_Tables_number   1
_chemical_formula_structural   Ca(BH4)2
_chemical_formula_sum   'Ca2 B4 H16'
_cell_volume   202.02161661
_cell_formula_units_Z   2
loop_
 _symmetry_equiv_pos_site_id
 _symmetry_equiv_pos_as_xyz
  1  'x, y, z'
loop_
 _atom_site_type_symbol
 _atom_site_label
 _atom_site_symmetry_multiplicity
 _atom_site_fract_x
 _atom_site_fract_y
 _atom_site_fract_z
 _atom_site_occupancy
  Ca  Ca0  1  0.00000000  0.50000000  0.01721975  1
  Ca  Ca1  1  0.50000000  0.00000000  0.51721975  1
  B  B2  1  0.31173178  0.21355047  0.02332612  1
  B  B3  1  0.68826822  0.78645153  0.02332612  1
  B  B4  1  0.78645153  0.31173178  0.52332812  1
  B  B5  1  0.21355047  0.68826822  0.52332812  1
  H  H6  1  0.48550139  0.16637840  0.02412168  1
  H  H7  1  0.51449661  0.83361960  0.02412168  1
  H  H8  1  0.31844865  0.39168143  0.05637187  1
  H  H9  1  0.68155235  0.60831757  0.05637187  1
  H  H10  1  0.22002442  0.13421066  0.23127732  1
  H  H11  1  0.77997458  0.86578934  0.23127732  1
  H  H12  1  0.83080849  0.23302415  0.28029463  1
  H  H13  1  0.16919051  0.76697585  0.28029463  1
  H  H14  1  0.83361960  0.48550139  0.52412068  1
  H  H15  1  0.16637840  0.51449661  0.52412068  1
  H  H16  1  0.60831757  0.31844865  0.55637087  1
  H  H17  1  0.39168143  0.68155235  0.55637087  1
  H  H18  1  0.86578934  0.22002442  0.73127432  1
  H  H19  1  0.13421066  0.77997458  0.73127432  1
  H  H20  1  0.23302415  0.16919051  0.78029463  1
  H  H21  1  0.76697585  0.83080849  0.78029463  1
