# generated using pymatgen
data_Tb2S2O
_symmetry_space_group_name_H-M   'P 1'
_cell_length_a   8.31807651
_cell_length_b   6.96443765
_cell_length_c   6.91507881
_cell_angle_alpha   90.00000000
_cell_angle_beta   99.36441966
_cell_angle_gamma   90.00000000
_symmetry_Int_Tables_number   1
_chemical_formula_structural   Tb2S2O
_chemical_formula_sum   'Tb8 S8 O4'
_cell_volume   395.25695272
_cell_formula_units_Z   4
loop_
 _symmetry_equiv_pos_site_id
 _symmetry_equiv_pos_as_xyz
  1  'x, y, z'
loop_
 _atom_site_type_symbol
 _atom_site_label
 _atom_site_symmetry_multiplicity
 _atom_site_fract_x
 _atom_site_fract_y
 _atom_site_fract_z
 _atom_site_occupancy
  Tb  Tb0  1  0.57673464  0.64176332  0.81946778  1
  Tb  Tb1  1  0.42326436  0.14176432  0.68053222  1
  Tb  Tb2  1  0.42326536  0.35823568  0.18053322  1
  Tb  Tb3  1  0.57673364  0.85823568  0.31946678  1
  Tb  Tb4  1  0.13728704  0.55396520  0.75016069  1
  Tb  Tb5  1  0.86271296  0.05396620  0.74983931  1
  Tb  Tb6  1  0.86271296  0.44603380  0.24983931  1
  Tb  Tb7  1  0.13728704  0.94603380  0.25015969  1
  S  S8  1  0.07677726  0.27733140  0.02989642  1
  S  S9  1  0.92322174  0.77733140  0.47010158  1
  S  S10  1  0.92322274  0.72266960  0.97010158  1
  S  S11  1  0.07677626  0.22267060  0.52989742  1
  S  S12  1  0.68060947  0.13584631  0.07383849  1
  S  S13  1  0.31939153  0.63584631  0.42616151  1
  S  S14  1  0.31939053  0.86415369  0.92616051  1
  S  S15  1  0.68060847  0.36415369  0.57383949  1
  O  O16  1  0.38289568  0.08750556  0.35049108  1
  O  O17  1  0.61710532  0.58750556  0.14950892  1
  O  O18  1  0.61710532  0.91249444  0.64950892  1
  O  O19  1  0.38289468  0.41249444  0.85049008  1
