# generated using pymatgen
data_CsTi2I7
_symmetry_space_group_name_H-M   'P 1'
_cell_length_a   12.62468078
_cell_length_b   12.62468078
_cell_length_c   12.62468078
_cell_angle_alpha   90.03861420
_cell_angle_beta   90.03861424
_cell_angle_gamma   90.03861423
_symmetry_Int_Tables_number   1
_chemical_formula_structural   CsTi2I7
_chemical_formula_sum   'Cs4 Ti8 I28'
_cell_volume   2012.15262987
_cell_formula_units_Z   4
loop_
 _symmetry_equiv_pos_site_id
 _symmetry_equiv_pos_as_xyz
  1  'x, y, z'
loop_
 _atom_site_type_symbol
 _atom_site_label
 _atom_site_symmetry_multiplicity
 _atom_site_fract_x
 _atom_site_fract_y
 _atom_site_fract_z
 _atom_site_occupancy
  Ti  Ti0  1  0.37793171  0.37793171  0.37793171  1
  Ti  Ti1  1  0.12197107  0.87808073  0.37802340  1
  Ti  Ti2  1  0.87808073  0.37802340  0.12197107  1
  Ti  Ti3  1  0.37802340  0.12197107  0.87808073  1
  Ti  Ti4  1  0.87802893  0.12191927  0.62197660  1
  Ti  Ti5  1  0.62206829  0.62206829  0.62206829  1
  Ti  Ti6  1  0.62197660  0.87802893  0.12191927  1
  Ti  Ti7  1  0.12191927  0.62197660  0.87802893  1
  I  I8  1  0.00000000  0.00000000  0.50000000  1
  I  I9  1  0.23722166  0.00040478  0.25646191  1
  I  I10  1  0.50000000  0.00000000  0.00000000  1
  I  I11  1  0.00000000  0.50000000  0.00000000  1
  I  I12  1  0.26252169  0.50023952  0.25654116  1
  I  I13  1  0.25654116  0.26252169  0.50023952  1
  I  I14  1  0.50023952  0.25654116  0.26252169  1
  I  I15  1  0.73747831  0.49976048  0.74345884  1
  I  I16  1  0.74345884  0.73747831  0.49976048  1
  I  I17  1  0.49976048  0.74345884  0.73747831  1
  I  I18  1  0.50000000  0.50000000  0.50000000  1
  I  I19  1  0.73732531  0.00054323  0.24356666  1
  I  I20  1  0.24356666  0.73732531  0.00054323  1
  I  I21  1  0.00054323  0.24356666  0.73732531  1
  I  I22  1  0.26267469  0.99945677  0.75643334  1
  I  I23  1  0.75643334  0.26267469  0.99945677  1
  I  I24  1  0.99945677  0.75643334  0.26267469  1
  I  I25  1  0.49967742  0.75643463  0.23718909  1
  I  I26  1  0.23718909  0.49967742  0.75643463  1
  I  I27  1  0.75643463  0.23718909  0.49967742  1
  I  I28  1  0.50032258  0.24356537  0.76281091  1
  I  I29  1  0.76281091  0.50032258  0.24356537  1
  I  I30  1  0.24356537  0.76281091  0.50032258  1
  I  I31  1  0.74353809  0.76277834  0.99959522  1
  I  I32  1  0.99959522  0.74353809  0.76277834  1
  I  I33  1  0.76277834  0.99959522  0.74353809  1
  I  I34  1  0.25646191  0.23722166  0.00040478  1
  I  I35  1  0.00040478  0.25646191  0.23722166  1
  Cs  Cs36  1  0.50000000  0.00000000  0.50000000  1
  Cs  Cs37  1  0.00000000  0.50000000  0.50000000  1
  Cs  Cs38  1  0.50000000  0.50000000  0.00000000  1
  Cs  Cs39  1  0.00000000  0.00000000  0.00000000  1
