# generated using pymatgen
data_K(WO3)3
_symmetry_space_group_name_H-M   'P 1'
_cell_length_a   7.52727163
_cell_length_b   32.78131773
_cell_length_c   3.88268603
_cell_angle_alpha   90.04742376
_cell_angle_beta   90.05010610
_cell_angle_gamma   83.43064815
_symmetry_Int_Tables_number   1
_chemical_formula_structural   K(WO3)3
_chemical_formula_sum   'K5 W15 O45'
_cell_volume   951.77666156
_cell_formula_units_Z   5
loop_
 _symmetry_equiv_pos_site_id
 _symmetry_equiv_pos_as_xyz
  1  'x, y, z'
loop_
 _atom_site_type_symbol
 _atom_site_label
 _atom_site_symmetry_multiplicity
 _atom_site_fract_x
 _atom_site_fract_y
 _atom_site_fract_z
 _atom_site_occupancy
  K  K0  1  0.79719552  0.89951016  0.88936351  1
  K  K1  1  0.40459038  0.70089104  0.90743986  1
  K  K2  1  0.00598187  0.49914350  0.90467037  1
  K  K3  1  0.60588070  0.29944000  0.90043333  1
  K  K4  1  0.19660899  0.09935960  0.09042763  1
  W  W5  1  0.29686220  0.90014196  0.49135010  1
  W  W6  1  0.59992951  0.80003877  0.49872136  1
  W  W7  1  0.90041378  0.70028328  0.49917729  1
  W  W8  1  0.10064548  0.80006684  0.49946556  1
  W  W9  1  0.69838598  0.60024849  0.50342779  1
  W  W10  1  0.19817412  0.59969955  0.49999282  1
  W  W11  1  0.49940655  0.49982229  0.50196072  1
  W  W12  1  0.80032138  0.40017629  0.49922576  1
  W  W13  1  0.30176909  0.39975969  0.50377933  1
  W  W14  1  0.10122793  0.30004109  0.50297027  1
  W  W15  1  0.90137082  0.19948365  0.49682162  1
  W  W16  1  0.40112473  0.19997340  0.50379640  1
  W  W17  1  0.70012214  0.09997131  0.50554152  1
  W  W18  1  0.49909663  0.00012167  0.50039599  1
  W  W19  1  -0.00169592  0.00006786  0.49690094  1
  O  O20  1  0.75955847  0.98345263  0.49877525  1
  O  O21  1  0.46237758  0.94195439  0.49780719  1
  O  O22  1  0.09462167  0.94131459  0.49591959  1
  O  O23  1  0.30034690  0.90017818  0.99551197  1
  O  O24  1  0.50447204  0.85824128  0.49744047  1
  O  O25  1  0.84449606  0.81613094  0.50143663  1
  O  O26  1  0.59762589  0.80087225  -0.00103768  1
  O  O27  1  0.13586475  0.85872903  0.49697326  1
  O  O28  1  0.35503940  0.78334585  0.49850704  1
  O  O29  1  0.69174878  0.74271326  0.49881137  1
  O  O30  1  0.89676243  0.69945899  0.00028388  1
  O  O31  1  0.10131967  0.80014856  0.99961931  1
  O  O32  1  0.06141509  0.74114933  0.50104965  1
  O  O33  1  0.73201657  0.65797947  0.50017960  1
  O  O34  1  0.95527422  0.58429450  0.50309363  1
  O  O35  1  0.69834203  0.60049166  0.00323602  1
  O  O36  1  0.10641131  0.65723718  0.50170496  1
  O  O37  1  0.44083663  0.61540231  0.50367676  1
  O  O38  1  0.19775398  0.59981861  0.00197279  1
  O  O39  1  0.66452668  0.54250987  0.50565481  1
  O  O40  1  0.29028211  0.54228746  0.50329626  1
  O  O41  1  0.50200176  0.50074110  0.00308853  1
  O  O42  1  0.70784599  0.45725648  0.50072553  1
  O  O43  1  0.80194168  0.39946198  0.00041489  1
  O  O44  1  0.33812699  0.45873832  0.50390154  1
  O  O45  1  0.89331232  0.34157769  0.50005718  1
  O  O46  1  0.55635451  0.38339112  0.50466932  1
  O  O47  1  0.30078341  0.40003230  0.00381700  1
  O  O48  1  0.04583385  0.41569705  0.50228522  1
  O  O49  1  0.93679644  0.25776430  0.50432731  1
  O  O50  1  0.26334107  0.34107364  0.50606882  1
  O  O51  1  0.90162690  0.19983517  -0.00098185  1
  O  O52  1  0.09665774  0.30013749  0.00396388  1
  O  O53  1  0.64261045  0.21584004  0.50220262  1
  O  O54  1  0.30392687  0.25863440  0.50577508  1
  O  O55  1  0.40043762  0.20004108  0.00297422  1
  O  O56  1  0.86657537  0.14230111  0.49887540  1
  O  O57  1  0.49566227  0.14153341  0.50405660  1
  O  O58  1  0.15942876  0.18400313  0.49723206  1
  O  O59  1  0.70034030  0.09976737  0.00350712  1
  O  O60  1  0.90502387  0.05868784  0.49979738  1
  O  O61  1  0.53476325  0.05740627  0.50359655  1
  O  O62  1  0.49936578  -0.00005806  0.00015667  1
  O  O63  1  0.23843068  0.01573928  0.49895975  1
  O  O64  1  0.99850502  -0.00016530  -0.00214578  1
