# generated using pymatgen
data_Ca6Al2NF
_symmetry_space_group_name_H-M   'P 1'
_cell_length_a   6.96882791
_cell_length_b   6.96881597
_cell_length_c   6.96881792
_cell_angle_alpha   60.00012104
_cell_angle_beta   60.00009532
_cell_angle_gamma   59.99996529
_symmetry_Int_Tables_number   1
_chemical_formula_structural   Ca6Al2NF
_chemical_formula_sum   'Ca6 Al2 N1 F1'
_cell_volume   239.31143557
_cell_formula_units_Z   1
loop_
 _symmetry_equiv_pos_site_id
 _symmetry_equiv_pos_as_xyz
  1  'x, y, z'
loop_
 _atom_site_type_symbol
 _atom_site_label
 _atom_site_symmetry_multiplicity
 _atom_site_fract_x
 _atom_site_fract_y
 _atom_site_fract_z
 _atom_site_occupancy
  Ca  Ca0  1  0.24070458  0.75929549  0.75929582  1
  Ca  Ca1  1  0.24070398  0.75929617  0.24070394  1
  Ca  Ca2  1  0.75929562  0.24070387  0.75929640  1
  Ca  Ca3  1  0.75929542  0.75929543  0.24070420  1
  Ca  Ca4  1  0.24070448  0.24070441  0.75929599  1
  Ca  Ca5  1  0.75929548  0.24070444  0.24070392  1
  Al  Al6  1  0.25000029  0.24999986  0.24999991  1
  Al  Al7  1  0.74999993  0.75000021  0.74999998  1
  N  N8  1  0.00000050  -0.00000019  -0.00000011  1
  F  F9  1  0.49999971  0.50000031  0.49999995  1
