# generated using pymatgen
data_KAgBr3
_symmetry_space_group_name_H-M   'P 1'
_cell_length_a   5.41634151
_cell_length_b   5.41708632
_cell_length_c   5.42011560
_cell_angle_alpha   90.14374929
_cell_angle_beta   90.01498965
_cell_angle_gamma   90.07024186
_symmetry_Int_Tables_number   1
_chemical_formula_structural   KAgBr3
_chemical_formula_sum   'K1 Ag1 Br3'
_cell_volume   159.02984528
_cell_formula_units_Z   1
loop_
 _symmetry_equiv_pos_site_id
 _symmetry_equiv_pos_as_xyz
  1  'x, y, z'
loop_
 _atom_site_type_symbol
 _atom_site_label
 _atom_site_symmetry_multiplicity
 _atom_site_fract_x
 _atom_site_fract_y
 _atom_site_fract_z
 _atom_site_occupancy
  K  K0  1  0.00070141  0.00139623  0.00003719  1
  Ag  Ag1  1  0.50039680  0.51468716  0.50360510  1
  Br  Br2  1  0.00029359  0.51567711  0.50717226  1
  Br  Br3  1  0.49571931  0.01471141  0.49570763  1
  Br  Br4  1  0.50288789  0.51353009  0.00347781  1
