# generated using pymatgen
data_SnPOF7
_symmetry_space_group_name_H-M   'P 1'
_cell_length_a   11.20784856
_cell_length_b   10.05736930
_cell_length_c   12.48672598
_cell_angle_alpha   90.00000000
_cell_angle_beta   90.00000000
_cell_angle_gamma   90.00000000
_symmetry_Int_Tables_number   1
_chemical_formula_structural   SnPOF7
_chemical_formula_sum   'Sn8 P8 O8 F56'
_cell_volume   1407.52213326
_cell_formula_units_Z   8
loop_
 _symmetry_equiv_pos_site_id
 _symmetry_equiv_pos_as_xyz
  1  'x, y, z'
loop_
 _atom_site_type_symbol
 _atom_site_label
 _atom_site_symmetry_multiplicity
 _atom_site_fract_x
 _atom_site_fract_y
 _atom_site_fract_z
 _atom_site_occupancy
  Sn  Sn0  1  0.55965578  0.34211854  0.00033430  1
  Sn  Sn1  1  0.05965578  0.15788146  -0.00033430  1
  Sn  Sn2  1  0.44034422  0.84211854  0.49966570  1
  Sn  Sn3  1  0.94034422  0.65788146  0.50033430  1
  Sn  Sn4  1  0.44034422  0.65788146  -0.00033430  1
  Sn  Sn5  1  0.94034422  0.84211854  0.00033430  1
  Sn  Sn6  1  0.55965578  0.15788146  0.50033430  1
  Sn  Sn7  1  0.05965578  0.34211854  0.49966570  1
  P  P8  1  0.69858654  0.43289470  0.24012335  1
  P  P9  1  0.19858654  0.06710530  0.75987665  1
  P  P10  1  0.30141346  0.93289470  0.25987665  1
  P  P11  1  0.80141346  0.56710530  0.74012335  1
  P  P12  1  0.30141346  0.56710530  0.75987665  1
  P  P13  1  0.80141346  0.93289470  0.24012335  1
  P  P14  1  0.69858654  0.06710530  0.74012335  1
  P  P15  1  0.19858654  0.43289470  0.25987665  1
  O  O16  1  0.60254413  0.40233561  0.16392934  1
  O  O17  1  0.10254413  0.09766439  0.83607066  1
  O  O18  1  0.39745587  0.90233561  0.33607066  1
  O  O19  1  0.89745587  0.59766439  0.66392934  1
  O  O20  1  0.39745587  0.59766439  0.83607066  1
  O  O21  1  0.89745587  0.90233561  0.16392934  1
  O  O22  1  0.60254413  0.09766439  0.66392934  1
  O  O23  1  0.10254413  0.40233561  0.33607066  1
  F  F24  1  0.59568179  0.54789465  0.96651155  1
  F  F25  1  0.09568179  0.95210535  0.03348845  1
  F  F26  1  0.40431821  0.04789465  0.53348845  1
  F  F27  1  0.90431821  0.45210535  0.46651155  1
  F  F28  1  0.40431821  0.45210535  0.03348845  1
  F  F29  1  0.90431821  0.04789465  0.96651155  1
  F  F30  1  0.59568179  0.95210535  0.46651155  1
  F  F31  1  0.09568179  0.54789465  0.53348845  1
  F  F32  1  0.72914969  0.30897396  0.98254100  1
  F  F33  1  0.22914969  0.19102604  0.01745900  1
  F  F34  1  0.27085031  0.80897396  0.51745900  1
  F  F35  1  0.77085031  0.69102604  0.48254100  1
  F  F36  1  0.27085031  0.69102604  0.01745900  1
  F  F37  1  0.77085031  0.80897396  0.98254100  1
  F  F38  1  0.72914969  0.19102604  0.48254100  1
  F  F39  1  0.22914969  0.30897396  0.51745900  1
  F  F40  1  0.50286644  0.17786271  0.06107815  1
  F  F41  1  0.00286644  0.32213729  0.93892185  1
  F  F42  1  0.49713356  0.67786271  0.43892185  1
  F  F43  1  0.99713356  0.82213729  0.56107815  1
  F  F44  1  0.49713356  0.82213729  0.93892185  1
  F  F45  1  0.99713356  0.67786271  0.06107815  1
  F  F46  1  0.50286644  0.32213729  0.56107815  1
  F  F47  1  0.00286644  0.17786271  0.43892185  1
  F  F48  1  0.51145429  0.31629464  0.85186185  1
  F  F49  1  0.01145429  0.18370536  0.14813815  1
  F  F50  1  0.48854571  0.81629464  0.64813815  1
  F  F51  1  0.98854571  0.68370536  0.35186185  1
  F  F52  1  0.48854571  0.68370536  0.14813815  1
  F  F53  1  0.98854571  0.81629464  0.85186185  1
  F  F54  1  0.51145429  0.18370536  0.35186185  1
  F  F55  1  0.01145429  0.31629464  0.64813815  1
  F  F56  1  0.78009862  0.54835578  0.20761252  1
  F  F57  1  0.28009862  0.95164422  0.79238748  1
  F  F58  1  0.21990138  0.04835578  0.29238748  1
  F  F59  1  0.71990138  0.45164422  0.70761252  1
  F  F60  1  0.21990138  0.45164422  0.79238748  1
  F  F61  1  0.71990138  0.04835578  0.20761252  1
  F  F62  1  0.78009862  0.95164422  0.70761252  1
  F  F63  1  0.28009862  0.54835578  0.29238748  1
  F  F64  1  0.78591619  0.31906136  0.26185233  1
  F  F65  1  0.28591619  0.18093864  0.73814767  1
  F  F66  1  0.21408381  0.81906136  0.23814767  1
  F  F67  1  0.71408381  0.68093864  0.76185233  1
  F  F68  1  0.21408381  0.68093864  0.73814767  1
  F  F69  1  0.71408381  0.81906136  0.26185233  1
  F  F70  1  0.78591619  0.18093864  0.76185233  1
  F  F71  1  0.28591619  0.31906136  0.23814767  1
  F  F72  1  0.65202438  0.47197730  0.35041946  1
  F  F73  1  0.15202438  0.02802270  0.64958054  1
  F  F74  1  0.34797562  0.97197730  0.14958054  1
  F  F75  1  0.84797562  0.52802270  0.85041946  1
  F  F76  1  0.34797562  0.52802270  0.64958054  1
  F  F77  1  0.84797562  0.97197730  0.35041946  1
  F  F78  1  0.65202438  0.02802270  0.85041946  1
  F  F79  1  0.15202438  0.47197730  0.14958054  1
