# generated using pymatgen
data_Li5B(SO4)4
_symmetry_space_group_name_H-M   'P 1'
_cell_length_a   8.15903871
_cell_length_b   10.35804332
_cell_length_c   15.47569485
_cell_angle_alpha   90.00000000
_cell_angle_beta   106.23395138
_cell_angle_gamma   90.00000000
_symmetry_Int_Tables_number   1
_chemical_formula_structural   Li5B(SO4)4
_chemical_formula_sum   'Li20 B4 S16 O64'
_cell_volume   1255.72950456
_cell_formula_units_Z   4
loop_
 _symmetry_equiv_pos_site_id
 _symmetry_equiv_pos_as_xyz
  1  'x, y, z'
loop_
 _atom_site_type_symbol
 _atom_site_label
 _atom_site_symmetry_multiplicity
 _atom_site_fract_x
 _atom_site_fract_y
 _atom_site_fract_z
 _atom_site_occupancy
  Li  Li0  1  0.00055888  0.33603501  0.90612336  1
  Li  Li1  1  0.99944112  0.83603501  0.59387664  1
  Li  Li2  1  0.99944112  0.66396499  0.09387664  1
  Li  Li3  1  0.00055888  0.16396499  0.40612336  1
  Li  Li4  1  0.10392595  0.68351955  0.79659544  1
  Li  Li5  1  0.89607405  0.18351955  0.70340456  1
  Li  Li6  1  0.89607405  0.31648045  0.20340456  1
  Li  Li7  1  0.10392595  0.81648045  0.29659544  1
  Li  Li8  1  0.10311392  0.38001929  0.68355900  1
  Li  Li9  1  0.89688608  0.88001929  0.81644100  1
  Li  Li10  1  0.89688608  0.61998071  0.31644100  1
  Li  Li11  1  0.10311392  0.11998071  0.18355900  1
  Li  Li12  1  0.30685658  0.36714151  0.51928249  1
  Li  Li13  1  0.69314342  0.86714151  0.98071751  1
  Li  Li14  1  0.69314342  0.63285849  0.48071751  1
  Li  Li15  1  0.30685658  0.13285849  0.01928249  1
  Li  Li16  1  0.62437413  0.20377973  0.51470712  1
  Li  Li17  1  0.37562587  0.70377973  0.98529288  1
  Li  Li18  1  0.37562587  0.79622027  0.48529288  1
  Li  Li19  1  0.62437413  0.29622027  0.01470712  1
  B  B20  1  0.48330924  0.04019984  0.74366182  1
  B  B21  1  0.51669076  0.54019984  0.75633818  1
  B  B22  1  0.51669076  0.95980016  0.25633818  1
  B  B23  1  0.48330924  0.45980016  0.24366182  1
  S  S24  1  0.19865330  0.11972685  0.61326211  1
  S  S25  1  0.80134670  0.61972685  0.88673789  1
  S  S26  1  0.80134670  0.88027315  0.38673789  1
  S  S27  1  0.19865330  0.38027315  0.11326211  1
  S  S28  1  0.23823185  0.87930539  0.12355937  1
  S  S29  1  0.76176815  0.37930539  0.37644063  1
  S  S30  1  0.76176815  0.12069461  0.87644063  1
  S  S31  1  0.23823185  0.62069461  0.62355937  1
  S  S32  1  0.31764948  0.44930815  0.86213874  1
  S  S33  1  0.68235052  0.94930815  0.63786126  1
  S  S34  1  0.68235052  0.55069185  0.13786126  1
  S  S35  1  0.31764948  0.05069185  0.36213874  1
  S  S36  1  0.68869012  0.44129717  0.63770041  1
  S  S37  1  0.31130988  0.94129717  0.86229959  1
  S  S38  1  0.31130988  0.55870283  0.36229959  1
  S  S39  1  0.68869012  0.05870283  0.13770041  1
  O  O40  1  0.11369076  0.18624996  0.67343003  1
  O  O41  1  0.88630924  0.68624996  0.82656997  1
  O  O42  1  0.88630924  0.81375004  0.32656997  1
  O  O43  1  0.11369076  0.31375004  0.17343003  1
  O  O44  1  0.18945023  0.19864913  0.53246073  1
  O  O45  1  0.81054977  0.69864913  0.96753927  1
  O  O46  1  0.81054977  0.80135087  0.46753927  1
  O  O47  1  0.18945023  0.30135087  0.03246073  1
  O  O48  1  0.13865305  0.98873202  0.59114219  1
  O  O49  1  0.86134695  0.48873202  0.90885781  1
  O  O50  1  0.86134695  0.01126798  0.40885781  1
  O  O51  1  0.13865305  0.51126798  0.09114219  1
  O  O52  1  0.11919254  0.66376317  0.67435428  1
  O  O53  1  0.88080746  0.16376317  0.82564572  1
  O  O54  1  0.88080746  0.33623683  0.32564572  1
  O  O55  1  0.11919254  0.83623683  0.17435428  1
  O  O56  1  0.20489510  0.48403538  0.59631598  1
  O  O57  1  0.79510490  0.98403538  0.90368402  1
  O  O58  1  0.79510490  0.51596462  0.40368402  1
  O  O59  1  0.20489510  0.01596462  0.09631598  1
  O  O60  1  0.22938965  0.70799302  0.54872751  1
  O  O61  1  0.77061035  0.20799302  0.95127249  1
  O  O62  1  0.77061035  0.29200698  0.45127249  1
  O  O63  1  0.22938965  0.79200698  0.04872751  1
  O  O64  1  0.43928367  0.38474067  0.93526952  1
  O  O65  1  0.56071633  0.88474067  0.56473048  1
  O  O66  1  0.56071633  0.61525933  0.06473048  1
  O  O67  1  0.43928367  0.11525933  0.43526952  1
  O  O68  1  0.15596439  0.37873645  0.82603677  1
  O  O69  1  0.84403561  0.87873645  0.67396323  1
  O  O70  1  0.84403561  0.62126355  0.17396323  1
  O  O71  1  0.15596439  0.12126355  0.32603677  1
  O  O72  1  0.71698400  0.08410471  0.61677547  1
  O  O73  1  0.28301600  0.58410471  0.88322453  1
  O  O74  1  0.28301600  0.91589529  0.38322453  1
  O  O75  1  0.71698400  0.41589529  0.11677547  1
  O  O76  1  0.15077751  0.86745615  0.83361758  1
  O  O77  1  0.84922249  0.36745615  0.66638242  1
  O  O78  1  0.84922249  0.13254385  0.16638242  1
  O  O79  1  0.15077751  0.63254385  0.33361758  1
  O  O80  1  0.28928329  0.06729120  0.89872786  1
  O  O81  1  0.71071671  0.56729120  0.60127214  1
  O  O82  1  0.71071671  0.93270880  0.10127214  1
  O  O83  1  0.28928329  0.43270880  0.39872786  1
  O  O84  1  0.55397342  0.36224814  0.57685450  1
  O  O85  1  0.44602658  0.86224814  0.92314550  1
  O  O86  1  0.44602658  0.63775186  0.42314550  1
  O  O87  1  0.55397342  0.13775186  0.07685450  1
  O  O88  1  0.39389960  0.11720509  0.66383988  1
  O  O89  1  0.60610040  0.61720509  0.83616012  1
  O  O90  1  0.60610040  0.88279491  0.33616012  1
  O  O91  1  0.39389960  0.38279491  0.16383988  1
  O  O92  1  0.57524596  0.13244327  0.81433147  1
  O  O93  1  0.42475404  0.63244327  0.68566853  1
  O  O94  1  0.42475404  0.86755673  0.18566853  1
  O  O95  1  0.57524596  0.36755673  0.31433147  1
  O  O96  1  0.39022664  0.45135262  0.77827113  1
  O  O97  1  0.60977336  0.95135262  0.72172887  1
  O  O98  1  0.60977336  0.54864738  0.22172887  1
  O  O99  1  0.39022664  0.04864738  0.27827113  1
  O  O100  1  0.63828949  0.45857873  0.72689207  1
  O  O101  1  0.36171051  0.95857873  0.77310793  1
  O  O102  1  0.36171051  0.54142127  0.27310793  1
  O  O103  1  0.63828949  0.04142127  0.22689207  1
