# generated using pymatgen
data_CsY(PO3)4
_symmetry_space_group_name_H-M   'P 1'
_cell_length_a   10.45860410
_cell_length_b   8.98454203
_cell_length_c   11.33608175
_cell_angle_alpha   90.00000000
_cell_angle_beta   106.82969664
_cell_angle_gamma   90.00000000
_symmetry_Int_Tables_number   1
_chemical_formula_structural   CsY(PO3)4
_chemical_formula_sum   'Cs4 Y4 P16 O48'
_cell_volume   1019.58049101
_cell_formula_units_Z   4
loop_
 _symmetry_equiv_pos_site_id
 _symmetry_equiv_pos_as_xyz
  1  'x, y, z'
loop_
 _atom_site_type_symbol
 _atom_site_label
 _atom_site_symmetry_multiplicity
 _atom_site_fract_x
 _atom_site_fract_y
 _atom_site_fract_z
 _atom_site_occupancy
  Cs  Cs0  1  0.31905829  0.56577450  0.03874999  1
  Cs  Cs1  1  0.81905829  0.93422550  0.53874999  1
  Cs  Cs2  1  0.68094171  0.43422550  0.96125001  1
  Cs  Cs3  1  0.18094171  0.06577450  0.46125001  1
  Y  Y4  1  0.49684912  0.72563379  0.68118635  1
  Y  Y5  1  0.99684912  0.77436621  0.18118635  1
  Y  Y6  1  0.50315088  0.27436621  0.31881365  1
  Y  Y7  1  0.00315088  0.22563379  0.81881365  1
  P  P8  1  0.14692627  0.41043713  0.25657110  1
  P  P9  1  0.64692627  0.08956287  0.75657110  1
  P  P10  1  0.85307373  0.58956287  0.74342890  1
  P  P11  1  0.35307373  0.91043713  0.24342890  1
  P  P12  1  0.53973886  0.67308358  0.36897706  1
  P  P13  1  0.03973886  0.82691642  0.86897706  1
  P  P14  1  0.46026114  0.32691642  0.63102294  1
  P  P15  1  0.96026114  0.17308358  0.13102294  1
  P  P16  1  0.24543348  0.47146957  0.71216286  1
  P  P17  1  0.74543348  0.02853043  0.21216286  1
  P  P18  1  0.75456652  0.52853043  0.28783714  1
  P  P19  1  0.25456652  0.97146957  0.78783714  1
  P  P20  1  0.32603331  0.10963793  0.02736670  1
  P  P21  1  0.82603331  0.39036207  0.52736670  1
  P  P22  1  0.67396669  0.89036207  0.97263330  1
  P  P23  1  0.17396669  0.60963793  0.47263330  1
  O  O24  1  0.13730862  0.54358409  0.59224527  1
  O  O25  1  0.63730862  0.95641591  0.09224527  1
  O  O26  1  0.86269138  0.45641591  0.40775473  1
  O  O27  1  0.36269138  0.04358409  0.90775473  1
  O  O28  1  0.35206852  0.58300856  0.77210459  1
  O  O29  1  0.85206852  0.91699144  0.27210459  1
  O  O30  1  0.64793148  0.41699144  0.22789541  1
  O  O31  1  0.14793148  0.08300856  0.72789541  1
  O  O32  1  0.47538642  0.79282586  0.25978308  1
  O  O33  1  0.97538642  0.70717414  0.75978308  1
  O  O34  1  0.52461358  0.20717414  0.74021692  1
  O  O35  1  0.02461358  0.29282586  0.24021692  1
  O  O36  1  0.09857716  0.54379556  0.17643698  1
  O  O37  1  0.59857716  0.95620444  0.67643698  1
  O  O38  1  0.90142284  0.45620444  0.82356302  1
  O  O39  1  0.40142284  0.04379556  0.32356302  1
  O  O40  1  0.55983077  0.74312845  0.49270321  1
  O  O41  1  0.05983077  0.75687155  0.99270321  1
  O  O42  1  0.44016923  0.25687155  0.50729679  1
  O  O43  1  0.94016923  0.24312845  0.00729679  1
  O  O44  1  0.16872821  0.40314395  0.79105888  1
  O  O45  1  0.66872821  0.09685605  0.29105888  1
  O  O46  1  0.83127179  0.59685605  0.20894112  1
  O  O47  1  0.33127179  0.90314395  0.70894112  1
  O  O48  1  0.26662254  0.32733307  0.24482795  1
  O  O49  1  0.76662254  0.17266693  0.74482795  1
  O  O50  1  0.73337746  0.67266693  0.75517205  1
  O  O51  1  0.23337746  0.82733307  0.25517205  1
  O  O52  1  0.43369940  0.21272005  0.09909769  1
  O  O53  1  0.93369940  0.28727995  0.59909769  1
  O  O54  1  0.56630060  0.78727995  0.90090231  1
  O  O55  1  0.06630060  0.71272005  0.40090231  1
  O  O56  1  0.18616888  0.16884464  0.98389063  1
  O  O57  1  0.68616888  0.33115536  0.48389063  1
  O  O58  1  0.81383112  0.83115536  0.01610937  1
  O  O59  1  0.31383112  0.66884464  0.51610937  1
  O  O60  1  0.46502664  0.52967991  0.33565849  1
  O  O61  1  0.96502664  0.97032009  0.83565849  1
  O  O62  1  0.53497336  0.47032009  0.66434151  1
  O  O63  1  0.03497336  0.02967991  0.16434151  1
  O  O64  1  0.18731506  0.83955486  0.84855071  1
  O  O65  1  0.68731506  0.66044514  0.34855071  1
  O  O66  1  0.81268494  0.16044514  0.15144929  1
  O  O67  1  0.31268494  0.33955486  0.65144929  1
  O  O68  1  0.33055563  0.95336465  0.10077408  1
  O  O69  1  0.83055563  0.54663535  0.60077408  1
  O  O70  1  0.66944437  0.04663535  0.89922592  1
  O  O71  1  0.16944437  0.45336465  0.39922592  1
