# generated using pymatgen
data_Sr2H3I
_symmetry_space_group_name_H-M   'P 1'
_cell_length_a   4.24828250
_cell_length_b   4.24821367
_cell_length_c   7.71592469
_cell_angle_alpha   90.00000004
_cell_angle_beta   90.00109842
_cell_angle_gamma   119.99946958
_symmetry_Int_Tables_number   1
_chemical_formula_structural   Sr2H3I
_chemical_formula_sum   'Sr2 H3 I1'
_cell_volume   120.59815781
_cell_formula_units_Z   1
loop_
 _symmetry_equiv_pos_site_id
 _symmetry_equiv_pos_as_xyz
  1  'x, y, z'
loop_
 _atom_site_type_symbol
 _atom_site_label
 _atom_site_symmetry_multiplicity
 _atom_site_fract_x
 _atom_site_fract_y
 _atom_site_fract_z
 _atom_site_occupancy
  Sr  Sr0  1  0.66667406  0.33333703  0.67867808  1
  Sr  Sr1  1  0.33332594  0.66666297  0.32132192  1
  H  H2  1  0.00000000  0.00000000  0.50000000  1
  H  H3  1  0.66667289  0.33333644  0.35853000  1
  H  H4  1  0.33332711  0.66666356  0.64147000  1
  I  I5  1  0.00000000  0.00000000  0.00000000  1
