# generated using pymatgen
data_CaCuF5
_symmetry_space_group_name_H-M   'P 1'
_cell_length_a   5.48834600
_cell_length_b   7.72751810
_cell_length_c   10.02269927
_cell_angle_alpha   90.00000000
_cell_angle_beta   90.00000000
_cell_angle_gamma   110.32522698
_symmetry_Int_Tables_number   1
_chemical_formula_structural   CaCuF5
_chemical_formula_sum   'Ca4 Cu4 F20'
_cell_volume   398.60876531
_cell_formula_units_Z   4
loop_
 _symmetry_equiv_pos_site_id
 _symmetry_equiv_pos_as_xyz
  1  'x, y, z'
loop_
 _atom_site_type_symbol
 _atom_site_label
 _atom_site_symmetry_multiplicity
 _atom_site_fract_x
 _atom_site_fract_y
 _atom_site_fract_z
 _atom_site_occupancy
  Ca  Ca0  1  0.47025950  0.74448200  0.02075447  1
  Ca  Ca1  1  0.52974050  0.75551800  0.52075447  1
  Ca  Ca2  1  0.52974050  0.25551800  0.97924553  1
  Ca  Ca3  1  0.47025950  0.24448200  0.47924553  1
  Cu  Cu4  1  0.89075258  0.59874249  0.75377303  1
  Cu  Cu5  1  0.10924742  0.90125751  0.25377303  1
  Cu  Cu6  1  0.10924742  0.40125751  0.24622697  1
  Cu  Cu7  1  0.89075258  0.09874249  0.74622697  1
  F  F8  1  0.61231037  0.55464906  0.88174881  1
  F  F9  1  0.38768963  0.94535094  0.38174881  1
  F  F10  1  0.38768963  0.44535094  0.11825119  1
  F  F11  1  0.61231037  0.05464906  0.61825119  1
  F  F12  1  0.64454440  0.50758318  0.61239389  1
  F  F13  1  0.35545560  0.99241682  0.11239389  1
  F  F14  1  0.35545560  0.49241682  0.38760611  1
  F  F15  1  0.64454440  0.00758318  0.88760611  1
  F  F16  1  0.88170827  0.81160550  0.39406517  1
  F  F17  1  0.11829173  0.68839450  0.89406517  1
  F  F18  1  0.11829173  0.18839450  0.60593483  1
  F  F19  1  0.88170827  0.31160550  0.10593483  1
  F  F20  1  0.83364624  0.86061252  0.13756071  1
  F  F21  1  0.16635376  0.63938748  0.63756071  1
  F  F22  1  0.16635376  0.13938748  0.86243929  1
  F  F23  1  0.83364624  0.36061252  0.36243929  1
  F  F24  1  0.84760321  0.83728834  0.70261561  1
  F  F25  1  0.15239679  0.66271166  0.20261561  1
  F  F26  1  0.15239679  0.16271166  0.29738439  1
  F  F27  1  0.84760321  0.33728834  0.79738439  1
