# generated using pymatgen
data_Ca9Mn4Bi9
_symmetry_space_group_name_H-M   'P 1'
_cell_length_a   4.76785151
_cell_length_b   12.60849475
_cell_length_c   22.42838917
_cell_angle_alpha   90.00000000
_cell_angle_beta   90.00000000
_cell_angle_gamma   90.00000000
_symmetry_Int_Tables_number   1
_chemical_formula_structural   Ca9Mn4Bi9
_chemical_formula_sum   'Ca18 Mn8 Bi18'
_cell_volume   1348.29227559
_cell_formula_units_Z   2
loop_
 _symmetry_equiv_pos_site_id
 _symmetry_equiv_pos_as_xyz
  1  'x, y, z'
loop_
 _atom_site_type_symbol
 _atom_site_label
 _atom_site_symmetry_multiplicity
 _atom_site_fract_x
 _atom_site_fract_y
 _atom_site_fract_z
 _atom_site_occupancy
  Ca  Ca0  1  0.50000000  0.50000000  0.50000000  1
  Ca  Ca1  1  0.50000000  0.00000000  0.00000000  1
  Ca  Ca2  1  0.00000000  0.88107333  0.23542193  1
  Ca  Ca3  1  0.00000000  0.11892667  0.76457807  1
  Ca  Ca4  1  0.00000000  0.38107333  0.26457807  1
  Ca  Ca5  1  0.00000000  0.61892667  0.73542193  1
  Ca  Ca6  1  0.50000000  0.71563383  0.10354484  1
  Ca  Ca7  1  0.50000000  0.28436617  0.89645516  1
  Ca  Ca8  1  0.50000000  0.21563383  0.39645516  1
  Ca  Ca9  1  0.50000000  0.78436617  0.60354484  1
  Ca  Ca10  1  0.00000000  0.93839646  0.40912423  1
  Ca  Ca11  1  0.00000000  0.06160354  0.59087577  1
  Ca  Ca12  1  0.00000000  0.43839646  0.09087577  1
  Ca  Ca13  1  0.00000000  0.56160354  0.90912423  1
  Ca  Ca14  1  0.00000000  0.63719638  0.36236196  1
  Ca  Ca15  1  0.00000000  0.36280362  0.63763804  1
  Ca  Ca16  1  0.00000000  0.13719638  0.13763804  1
  Ca  Ca17  1  0.00000000  0.86280362  0.86236196  1
  Mn  Mn18  1  0.50000000  0.72074419  0.95493944  1
  Mn  Mn19  1  0.50000000  0.27925581  0.04506056  1
  Mn  Mn20  1  0.50000000  0.22074419  0.54506056  1
  Mn  Mn21  1  0.50000000  0.77925581  0.45493944  1
  Mn  Mn22  1  0.50000000  0.88354952  0.76075001  1
  Mn  Mn23  1  0.50000000  0.11645048  0.23924999  1
  Mn  Mn24  1  0.50000000  0.38354952  0.73924999  1
  Mn  Mn25  1  0.50000000  0.61645048  0.26075001  1
  Bi  Bi26  1  0.50000000  0.00000000  0.50000000  1
  Bi  Bi27  1  0.50000000  0.50000000  0.00000000  1
  Bi  Bi28  1  0.00000000  0.62431499  0.19368756  1
  Bi  Bi29  1  0.00000000  0.37568501  0.80631244  1
  Bi  Bi30  1  0.00000000  0.12431499  0.30631244  1
  Bi  Bi31  1  0.00000000  0.87568501  0.69368756  1
  Bi  Bi32  1  0.50000000  0.81426457  0.33071440  1
  Bi  Bi33  1  0.50000000  0.18573543  0.66928560  1
  Bi  Bi34  1  0.50000000  0.31426457  0.16928560  1
  Bi  Bi35  1  0.50000000  0.68573543  0.83071440  1
  Bi  Bi36  1  0.50000000  0.96255533  0.14678183  1
  Bi  Bi37  1  0.50000000  0.03744467  0.85321817  1
  Bi  Bi38  1  0.50000000  0.46255533  0.35321817  1
  Bi  Bi39  1  0.50000000  0.53744467  0.64678183  1
  Bi  Bi40  1  0.00000000  0.80336341  0.00548855  1
  Bi  Bi41  1  0.00000000  0.19663659  0.99451145  1
  Bi  Bi42  1  0.00000000  0.30336341  0.49451145  1
  Bi  Bi43  1  0.00000000  0.69663659  0.50548855  1
