# generated using pymatgen
data_LiMg30MnO32
_symmetry_space_group_name_H-M   'P 1'
_cell_length_a   8.56160034
_cell_length_b   8.49710754
_cell_length_c   8.49710754
_cell_angle_alpha   90.00000000
_cell_angle_beta   90.00000000
_cell_angle_gamma   90.00000000
_symmetry_Int_Tables_number   1
_chemical_formula_structural   LiMg30MnO32
_chemical_formula_sum   'Li1 Mg30 Mn1 O32'
_cell_volume   618.15470672
_cell_formula_units_Z   1
loop_
 _symmetry_equiv_pos_site_id
 _symmetry_equiv_pos_as_xyz
  1  'x, y, z'
loop_
 _atom_site_type_symbol
 _atom_site_label
 _atom_site_symmetry_multiplicity
 _atom_site_fract_x
 _atom_site_fract_y
 _atom_site_fract_z
 _atom_site_occupancy
  Li  Li0  1  -0.00000000  0.50000000  0.50000000  1
  Mg  Mg1  1  -0.00000000  -0.00000000  0.50000000  1
  Mg  Mg2  1  -0.00000000  0.50000000  -0.00000000  1
  Mg  Mg3  1  0.50000000  -0.00000000  -0.00000000  1
  Mg  Mg4  1  0.50000000  -0.00000000  0.50000000  1
  Mg  Mg5  1  0.50000000  0.50000000  -0.00000000  1
  Mg  Mg6  1  0.50000000  0.50000000  0.50000000  1
  Mg  Mg7  1  -0.00000000  0.25559610  0.25559610  1
  Mg  Mg8  1  -0.00000000  0.25559610  0.74440390  1
  Mg  Mg9  1  -0.00000000  0.74440390  0.25559610  1
  Mg  Mg10  1  -0.00000000  0.74440390  0.74440390  1
  Mg  Mg11  1  0.50000000  0.25148110  0.25148110  1
  Mg  Mg12  1  0.50000000  0.25148110  0.74851890  1
  Mg  Mg13  1  0.50000000  0.74851890  0.25148110  1
  Mg  Mg14  1  0.50000000  0.74851890  0.74851890  1
  Mg  Mg15  1  0.25336260  -0.00000000  0.25071894  1
  Mg  Mg16  1  0.25336260  -0.00000000  0.74928106  1
  Mg  Mg17  1  0.24747288  0.50000000  0.25340622  1
  Mg  Mg18  1  0.24747288  0.50000000  0.74659378  1
  Mg  Mg19  1  0.74663740  -0.00000000  0.25071894  1
  Mg  Mg20  1  0.74663740  -0.00000000  0.74928106  1
  Mg  Mg21  1  0.75252712  0.50000000  0.25340622  1
  Mg  Mg22  1  0.75252712  0.50000000  0.74659378  1
  Mg  Mg23  1  0.25336260  0.25071894  -0.00000000  1
  Mg  Mg24  1  0.24747288  0.25340622  0.50000000  1
  Mg  Mg25  1  0.25336260  0.74928106  -0.00000000  1
  Mg  Mg26  1  0.24747288  0.74659378  0.50000000  1
  Mg  Mg27  1  0.74663740  0.25071894  -0.00000000  1
  Mg  Mg28  1  0.75252712  0.25340622  0.50000000  1
  Mg  Mg29  1  0.74663740  0.74928106  -0.00000000  1
  Mg  Mg30  1  0.75252712  0.74659378  0.50000000  1
  Mn  Mn31  1  -0.00000000  -0.00000000  -0.00000000  1
  O  O32  1  0.25697520  -0.00000000  -0.00000000  1
  O  O33  1  0.24802283  -0.00000000  0.50000000  1
  O  O34  1  0.24802283  0.50000000  -0.00000000  1
  O  O35  1  0.25587400  0.50000000  0.50000000  1
  O  O36  1  0.74302480  -0.00000000  -0.00000000  1
  O  O37  1  0.75197717  -0.00000000  0.50000000  1
  O  O38  1  0.75197717  0.50000000  -0.00000000  1
  O  O39  1  0.74412600  0.50000000  0.50000000  1
  O  O40  1  0.24900345  0.24917976  0.24917976  1
  O  O41  1  0.24900345  0.24917976  0.75082024  1
  O  O42  1  0.24900345  0.75082024  0.24917976  1
  O  O43  1  0.24900345  0.75082024  0.75082024  1
  O  O44  1  0.75099655  0.24917976  0.24917976  1
  O  O45  1  0.75099655  0.24917976  0.75082024  1
  O  O46  1  0.75099655  0.75082024  0.24917976  1
  O  O47  1  0.75099655  0.75082024  0.75082024  1
  O  O48  1  -0.00000000  -0.00000000  0.23700718  1
  O  O49  1  -0.00000000  -0.00000000  0.76299282  1
  O  O50  1  -0.00000000  0.50000000  0.24076065  1
  O  O51  1  -0.00000000  0.50000000  0.75923935  1
  O  O52  1  0.50000000  -0.00000000  0.25067310  1
  O  O53  1  0.50000000  -0.00000000  0.74932690  1
  O  O54  1  0.50000000  0.50000000  0.24831992  1
  O  O55  1  0.50000000  0.50000000  0.75168008  1
  O  O56  1  -0.00000000  0.23700718  -0.00000000  1
  O  O57  1  -0.00000000  0.24076065  0.50000000  1
  O  O58  1  -0.00000000  0.76299282  -0.00000000  1
  O  O59  1  -0.00000000  0.75923935  0.50000000  1
  O  O60  1  0.50000000  0.25067310  -0.00000000  1
  O  O61  1  0.50000000  0.24831992  0.50000000  1
  O  O62  1  0.50000000  0.74932690  -0.00000000  1
  O  O63  1  0.50000000  0.75168008  0.50000000  1
