# generated using pymatgen
data_Mg30MnZnO32
_symmetry_space_group_name_H-M   'P 1'
_cell_length_a   8.55135655
_cell_length_b   8.54077342
_cell_length_c   8.54077342
_cell_angle_alpha   90.00000000
_cell_angle_beta   90.00000000
_cell_angle_gamma   90.00000000
_symmetry_Int_Tables_number   1
_chemical_formula_structural   Mg30MnZnO32
_chemical_formula_sum   'Mg30 Mn1 Zn1 O32'
_cell_volume   623.77708401
_cell_formula_units_Z   1
loop_
 _symmetry_equiv_pos_site_id
 _symmetry_equiv_pos_as_xyz
  1  'x, y, z'
loop_
 _atom_site_type_symbol
 _atom_site_label
 _atom_site_symmetry_multiplicity
 _atom_site_fract_x
 _atom_site_fract_y
 _atom_site_fract_z
 _atom_site_occupancy
  Mg  Mg0  1  0.00000000  0.00000000  0.50000000  1
  Mg  Mg1  1  0.00000000  0.50000000  0.00000000  1
  Mg  Mg2  1  0.50000000  0.00000000  -0.00000000  1
  Mg  Mg3  1  0.50000000  0.00000000  0.50000000  1
  Mg  Mg4  1  0.50000000  0.50000000  -0.00000000  1
  Mg  Mg5  1  0.50000000  0.50000000  0.50000000  1
  Mg  Mg6  1  0.00000000  0.25029215  0.25029215  1
  Mg  Mg7  1  0.00000000  0.25029215  0.74970785  1
  Mg  Mg8  1  0.00000000  0.74970785  0.25029215  1
  Mg  Mg9  1  0.00000000  0.74970785  0.74970785  1
  Mg  Mg10  1  0.50000000  0.24998842  0.24998842  1
  Mg  Mg11  1  0.50000000  0.24998842  0.75001158  1
  Mg  Mg12  1  0.50000000  0.75001158  0.24998842  1
  Mg  Mg13  1  0.50000000  0.75001158  0.75001158  1
  Mg  Mg14  1  0.25001024  -0.00000000  0.24956624  1
  Mg  Mg15  1  0.25001024  -0.00000000  0.75043376  1
  Mg  Mg16  1  0.25004408  0.50000000  0.24989888  1
  Mg  Mg17  1  0.25004408  0.50000000  0.75010112  1
  Mg  Mg18  1  0.74998976  0.00000000  0.24956624  1
  Mg  Mg19  1  0.74998976  0.00000000  0.75043376  1
  Mg  Mg20  1  0.74995592  0.50000000  0.24989888  1
  Mg  Mg21  1  0.74995592  0.50000000  0.75010112  1
  Mg  Mg22  1  0.25001024  0.24956624  -0.00000000  1
  Mg  Mg23  1  0.25004408  0.24989888  0.50000000  1
  Mg  Mg24  1  0.25001024  0.75043376  -0.00000000  1
  Mg  Mg25  1  0.25004408  0.75010112  0.50000000  1
  Mg  Mg26  1  0.74998976  0.24956624  0.00000000  1
  Mg  Mg27  1  0.74995592  0.24989888  0.50000000  1
  Mg  Mg28  1  0.74998976  0.75043376  0.00000000  1
  Mg  Mg29  1  0.74995592  0.75010112  0.50000000  1
  Mn  Mn30  1  0.00000000  0.00000000  -0.00000000  1
  Zn  Zn31  1  0.00000000  0.50000000  0.50000000  1
  O  O32  1  0.25637143  0.00000000  0.00000000  1
  O  O33  1  0.25000013  0.00000000  0.50000000  1
  O  O34  1  0.25000013  0.50000000  0.00000000  1
  O  O35  1  0.25323416  0.50000000  0.50000000  1
  O  O36  1  0.74362857  -0.00000000  0.00000000  1
  O  O37  1  0.74999987  0.00000000  0.50000000  1
  O  O38  1  0.74999987  0.50000000  0.00000000  1
  O  O39  1  0.74676584  0.50000000  0.50000000  1
  O  O40  1  0.24946362  0.25008742  0.25008742  1
  O  O41  1  0.24946362  0.25008742  0.74991258  1
  O  O42  1  0.24946362  0.74991258  0.25008742  1
  O  O43  1  0.24946362  0.74991258  0.74991258  1
  O  O44  1  0.75053638  0.25008742  0.25008742  1
  O  O45  1  0.75053638  0.25008742  0.74991258  1
  O  O46  1  0.75053638  0.74991258  0.25008742  1
  O  O47  1  0.75053638  0.74991258  0.74991258  1
  O  O48  1  0.00000000  0.00000000  0.25324203  1
  O  O49  1  0.00000000  0.00000000  0.74675797  1
  O  O50  1  0.00000000  0.50000000  0.24668626  1
  O  O51  1  0.00000000  0.50000000  0.75331374  1
  O  O52  1  0.50000000  -0.00000000  0.25044322  1
  O  O53  1  0.50000000  0.00000000  0.74955678  1
  O  O54  1  0.50000000  0.50000000  0.24995085  1
  O  O55  1  0.50000000  0.50000000  0.75004915  1
  O  O56  1  0.00000000  0.25324203  0.00000000  1
  O  O57  1  0.00000000  0.24668626  0.50000000  1
  O  O58  1  0.00000000  0.74675797  0.00000000  1
  O  O59  1  0.00000000  0.75331374  0.50000000  1
  O  O60  1  0.50000000  0.25044322  -0.00000000  1
  O  O61  1  0.50000000  0.24995085  0.50000000  1
  O  O62  1  0.50000000  0.74955678  0.00000000  1
  O  O63  1  0.50000000  0.75004915  0.50000000  1
