# generated using pymatgen
data_Ca3V6(FeO6)4
_symmetry_space_group_name_H-M   'P 1'
_cell_length_a   6.87977960
_cell_length_b   8.63086966
_cell_length_c   10.10202154
_cell_angle_alpha   105.79233879
_cell_angle_beta   106.08965425
_cell_angle_gamma   103.93796669
_symmetry_Int_Tables_number   1
_chemical_formula_structural   Ca3V6(FeO6)4
_chemical_formula_sum   'Ca3 V6 Fe4 O24'
_cell_volume   521.12909693
_cell_formula_units_Z   1
loop_
 _symmetry_equiv_pos_site_id
 _symmetry_equiv_pos_as_xyz
  1  'x, y, z'
loop_
 _atom_site_type_symbol
 _atom_site_label
 _atom_site_symmetry_multiplicity
 _atom_site_fract_x
 _atom_site_fract_y
 _atom_site_fract_z
 _atom_site_occupancy
  Ca  Ca0  1  -0.00000000  0.50000000  0.50000000  1
  Ca  Ca1  1  0.29123762  0.30642764  0.79573401  1
  Ca  Ca2  1  0.70876238  0.69357236  0.20426599  1
  V  V3  1  0.78699025  0.33644422  0.73871265  1
  V  V4  1  0.21300975  0.66355578  0.26128735  1
  V  V5  1  0.88804720  0.90521137  0.66636562  1
  V  V6  1  0.39701525  0.74422631  0.86362897  1
  V  V7  1  0.11195280  0.09478863  0.33363438  1
  V  V8  1  0.60298475  0.25577369  0.13637103  1
  Fe  Fe9  1  0.37473080  0.95592010  0.60127178  1
  Fe  Fe10  1  0.62526920  0.04407990  0.39872822  1
  Fe  Fe11  1  0.04670162  0.21047566  0.02804347  1
  Fe  Fe12  1  0.95329838  0.78952434  0.97195653  1
  O  O13  1  0.84174093  0.69854050  0.58081538  1
  O  O14  1  0.15825907  0.30145950  0.41918462  1
  O  O15  1  0.25252688  0.53706454  0.73695264  1
  O  O16  1  0.74747312  0.46293546  0.26304736  1
  O  O17  1  0.79251989  0.28410436  0.55794382  1
  O  O18  1  0.20748011  0.71589564  0.44205618  1
  O  O19  1  0.66514153  0.96059444  0.57530133  1
  O  O20  1  0.33485847  0.03940556  0.42469867  1
  O  O21  1  0.64449889  0.74380006  0.98113609  1
  O  O22  1  0.35550111  0.25619994  0.01886391  1
  O  O23  1  0.46219674  0.78660874  0.27285182  1
  O  O24  1  0.53780326  0.21339126  0.72714818  1
  O  O25  1  0.12484476  0.01723446  0.64870938  1
  O  O26  1  0.07207157  0.05424045  0.14346189  1
  O  O27  1  0.92792843  0.94575955  0.85653811  1
  O  O28  1  0.56819354  0.12875486  0.23987309  1
  O  O29  1  0.43180646  0.87124514  0.76012691  1
  O  O30  1  0.17811555  0.45261821  0.18131528  1
  O  O31  1  0.82188445  0.54738179  0.81868472  1
  O  O32  1  0.98571886  0.28054256  0.85030963  1
  O  O33  1  0.01428114  0.71945744  0.14969037  1
  O  O34  1  0.23720681  0.79715000  0.96129048  1
  O  O35  1  0.76279319  0.20285000  0.03870952  1
  O  O36  1  0.87515524  0.98276554  0.35129062  1
