# generated using pymatgen
data_LiDyO2
_symmetry_space_group_name_H-M   'P 1'
_cell_length_a   6.15780506
_cell_length_b   6.26878879
_cell_length_c   6.35684201
_cell_angle_alpha   119.88120544
_cell_angle_beta   90.00000000
_cell_angle_gamma   90.00000000
_symmetry_Int_Tables_number   1
_chemical_formula_structural   LiDyO2
_chemical_formula_sum   'Li4 Dy4 O8'
_cell_volume   212.76503208
_cell_formula_units_Z   4
loop_
 _symmetry_equiv_pos_site_id
 _symmetry_equiv_pos_as_xyz
  1  'x, y, z'
loop_
 _atom_site_type_symbol
 _atom_site_label
 _atom_site_symmetry_multiplicity
 _atom_site_fract_x
 _atom_site_fract_y
 _atom_site_fract_z
 _atom_site_occupancy
  Li  Li0  1  0.34283455  0.70445329  0.92982173  1
  Li  Li1  1  0.84283455  0.29554671  0.57017827  1
  Li  Li2  1  0.65716545  0.29554671  0.07017827  1
  Li  Li3  1  0.15716545  0.70445329  0.42982173  1
  O  O4  1  0.60801876  0.54916833  0.73572746  1
  O  O5  1  0.82513207  0.01262303  0.85159057  1
  O  O6  1  0.10801876  0.45083167  0.76427254  1
  O  O7  1  0.39198124  0.45083167  0.26427254  1
  O  O8  1  0.17486793  0.98737697  0.14840943  1
  O  O9  1  0.32513207  0.98737697  0.64840943  1
  O  O10  1  0.67486793  0.01262303  0.35159057  1
  O  O11  1  0.89198124  0.54916833  0.23572746  1
  Dy  Dy12  1  0.86885395  0.76878399  0.02448397  1
  Dy  Dy13  1  0.63114605  0.76878399  0.52448397  1
  Dy  Dy14  1  0.13114605  0.23121601  0.97551603  1
  Dy  Dy15  1  0.36885395  0.23121601  0.47551603  1
