# generated using pymatgen
data_MnZnP2O7
_symmetry_space_group_name_H-M   'P 1'
_cell_length_a   7.12649917
_cell_length_b   8.57307288
_cell_length_c   9.24641678
_cell_angle_alpha   90.00000000
_cell_angle_beta   112.73886458
_cell_angle_gamma   90.00000000
_symmetry_Int_Tables_number   1
_chemical_formula_structural   MnZnP2O7
_chemical_formula_sum   'Mn4 Zn4 P8 O28'
_cell_volume   521.01134429
_cell_formula_units_Z   4
loop_
 _symmetry_equiv_pos_site_id
 _symmetry_equiv_pos_as_xyz
  1  'x, y, z'
loop_
 _atom_site_type_symbol
 _atom_site_label
 _atom_site_symmetry_multiplicity
 _atom_site_fract_x
 _atom_site_fract_y
 _atom_site_fract_z
 _atom_site_occupancy
  Mn  Mn0  1  0.37223559  0.06947646  0.60879563  1
  Mn  Mn1  1  0.62776441  0.93052354  0.39120437  1
  Mn  Mn2  1  0.12776441  0.56947646  0.89120437  1
  Mn  Mn3  1  0.87223559  0.43052354  0.10879563  1
  Zn  Zn4  1  0.11785697  0.94122984  0.81679422  1
  Zn  Zn5  1  0.38214303  0.44122984  0.68320578  1
  Zn  Zn6  1  0.61785697  0.55877016  0.31679422  1
  Zn  Zn7  1  0.88214303  0.05877016  0.18320578  1
  P  P8  1  0.18037943  0.73501276  0.24283736  1
  P  P9  1  0.43655086  0.22328790  0.96958755  1
  P  P10  1  0.68037943  0.76498724  0.74283736  1
  P  P11  1  0.93655086  0.27671210  0.46958755  1
  P  P12  1  0.31962057  0.23501276  0.25716264  1
  P  P13  1  0.06344914  0.72328790  0.53041245  1
  P  P14  1  0.56344914  0.77671210  0.03041245  1
  P  P15  1  0.81962057  0.26498724  0.75716264  1
  O  O16  1  0.35210399  0.17821888  0.10094646  1
  O  O17  1  0.57849943  0.60915316  0.69016167  1
  O  O18  1  0.07849943  0.89084684  0.19016167  1
  O  O19  1  0.35202234  0.38388088  0.89772949  1
  O  O20  1  0.64789601  0.82178112  0.89905354  1
  O  O21  1  0.40711378  0.10294954  0.37720039  1
  O  O22  1  0.64797766  0.61612012  0.10227051  1
  O  O23  1  0.35786500  0.09035236  0.84974676  1
  O  O24  1  0.17078437  0.27127522  0.54804913  1
  O  O25  1  0.59288622  0.89705046  0.62279961  1
  O  O26  1  0.90711378  0.39705046  0.87720039  1
  O  O27  1  0.91430657  0.76026914  0.79679243  1
  O  O28  1  0.58569343  0.26026914  0.70320757  1
  O  O29  1  0.85210399  0.32178112  0.60094646  1
  O  O30  1  0.09288622  0.60294954  0.12279961  1
  O  O31  1  0.92150057  0.10915316  0.80983833  1
  O  O32  1  0.08569343  0.23973086  0.20320757  1
  O  O33  1  0.64213500  0.90964764  0.15025324  1
  O  O34  1  0.67078437  0.22872478  0.04804913  1
  O  O35  1  0.32921563  0.77127522  0.95195087  1
  O  O36  1  0.14797766  0.88387988  0.60227051  1
  O  O37  1  0.85786500  0.40964764  0.34974676  1
  O  O38  1  0.14213500  0.59035236  0.65025324  1
  O  O39  1  0.42150057  0.39084684  0.30983833  1
  O  O40  1  0.41430657  0.73973086  0.29679243  1
  O  O41  1  0.85202234  0.11612012  0.39772949  1
  O  O42  1  0.82921563  0.72872478  0.45195087  1
  O  O43  1  0.14789601  0.67821888  0.39905354  1
