# generated using pymatgen
data_CrPO4
_symmetry_space_group_name_H-M   'P 1'
_cell_length_a   7.75396368
_cell_length_b   11.16116152
_cell_length_c   6.00613469
_cell_angle_alpha   90.00000000
_cell_angle_beta   90.00000000
_cell_angle_gamma   90.00000000
_symmetry_Int_Tables_number   1
_chemical_formula_structural   CrPO4
_chemical_formula_sum   'Cr8 P8 O32'
_cell_volume   519.79036227
_cell_formula_units_Z   8
loop_
 _symmetry_equiv_pos_site_id
 _symmetry_equiv_pos_as_xyz
  1  'x, y, z'
loop_
 _atom_site_type_symbol
 _atom_site_label
 _atom_site_symmetry_multiplicity
 _atom_site_fract_x
 _atom_site_fract_y
 _atom_site_fract_z
 _atom_site_occupancy
  O  O0  1  0.53611952  0.55828168  0.82145913  1
  O  O1  1  0.96388000  0.05828128  0.82145913  1
  O  O2  1  0.90137671  0.26793873  0.68000355  1
  O  O3  1  0.90137671  0.23206167  0.18000369  1
  O  O4  1  0.87891740  0.85519366  0.51131851  1
  O  O5  1  0.87891740  0.64480662  0.01131865  1
  O  O6  1  0.79836671  0.42064488  0.96948330  1
  O  O7  1  0.79836671  0.07935461  0.46948177  1
  O  O8  1  0.03612011  0.55828168  0.67854211  1
  O  O9  1  0.03612011  0.94171860  0.17854058  1
  O  O10  1  0.09862340  0.73206206  0.31999616  1
  O  O11  1  0.09862340  0.76793822  0.81999602  1
  O  O12  1  0.12108271  0.14480623  0.48868120  1
  O  O13  1  0.12108271  0.35519327  0.98868106  1
  O  O14  1  0.20163340  0.57935500  0.03051808  1
  O  O15  1  0.20163340  0.92064528  0.53051794  1
  O  O16  1  0.29836600  0.07935461  0.03051808  1
  O  O17  1  0.29836600  0.42064488  0.53051794  1
  O  O18  1  0.37891670  0.64480662  0.48868120  1
  O  O19  1  0.70163411  0.92064528  0.96948330  1
  O  O20  1  0.40137731  0.23206167  0.31999616  1
  O  O21  1  0.40137731  0.26793873  0.81999602  1
  O  O22  1  0.46387930  0.05828128  0.67854211  1
  O  O23  1  0.46387930  0.44171911  0.17854058  1
  O  O24  1  0.96388000  0.44171911  0.32145927  1
  O  O25  1  0.53611952  0.94171860  0.32145927  1
  O  O26  1  0.59862280  0.73206206  0.18000369  1
  O  O27  1  0.59862280  0.76793822  0.68000355  1
  O  O28  1  0.62108342  0.14480623  0.01131865  1
  O  O29  1  0.62108342  0.35519327  0.51131851  1
  O  O30  1  0.70163411  0.57935500  0.46948177  1
  O  O31  1  0.37891670  0.85519366  0.98868106  1
  P  P32  1  0.05160242  0.64301142  0.89287713  1
  P  P33  1  0.05160242  0.85698886  0.39287728  1
  P  P34  1  0.44839699  0.14301103  0.89287713  1
  P  P35  1  0.44839699  0.35698937  0.39287728  1
  P  P36  1  0.55160312  0.64301142  0.60712243  1
  P  P37  1  0.55160312  0.85698886  0.10712258  1
  P  P38  1  0.94839769  0.14301103  0.60712243  1
  P  P39  1  0.94839769  0.35698937  0.10712258  1
  Cr  Cr40  1  0.82946747  0.43349850  0.60970062  1
  Cr  Cr41  1  0.82946747  0.06650099  0.10970076  1
  Cr  Cr42  1  0.67053335  0.93349889  0.60970062  1
  Cr  Cr43  1  0.67053335  0.56650138  0.10970076  1
  Cr  Cr44  1  0.32946677  0.43349850  0.89030062  1
  Cr  Cr45  1  0.32946677  0.06650099  0.39029910  1
  Cr  Cr46  1  0.17053264  0.93349889  0.89030062  1
  Cr  Cr47  1  0.17053264  0.56650138  0.39029910  1
