# generated using pymatgen
data_Ba3Sr5Ti8O24
_symmetry_space_group_name_H-M   'P 1'
_cell_length_a   7.95834037
_cell_length_b   7.95588092
_cell_length_c   7.95834037
_cell_angle_alpha   90.00000000
_cell_angle_beta   90.00000000
_cell_angle_gamma   90.00000000
_symmetry_Int_Tables_number   1
_chemical_formula_structural   Ba3Sr5Ti8O24
_chemical_formula_sum   'Ba3 Sr5 Ti8 O24'
_cell_volume   503.88716162
_cell_formula_units_Z   1
loop_
 _symmetry_equiv_pos_site_id
 _symmetry_equiv_pos_as_xyz
  1  'x, y, z'
loop_
 _atom_site_type_symbol
 _atom_site_label
 _atom_site_symmetry_multiplicity
 _atom_site_fract_x
 _atom_site_fract_y
 _atom_site_fract_z
 _atom_site_occupancy
  Ba  Ba0  1  0.25000000  0.75000000  0.25000000  1
  Ba  Ba1  1  0.25000000  0.75000000  0.75000000  1
  Ba  Ba2  1  0.75000000  0.75000000  0.75000000  1
  Sr  Sr3  1  0.25000000  0.25000000  0.25000000  1
  Sr  Sr4  1  0.25000000  0.25000000  0.75000000  1
  Sr  Sr5  1  0.75000000  0.25000000  0.25000000  1
  Sr  Sr6  1  0.75000000  0.25000000  0.75000000  1
  Sr  Sr7  1  0.75000000  0.75000000  0.25000000  1
  Ti  Ti8  1  0.99864308  0.00402973  0.00135692  1
  Ti  Ti9  1  0.99864308  0.00402973  0.49864308  1
  Ti  Ti10  1  0.99864308  0.49597027  0.00135692  1
  Ti  Ti11  1  0.99864308  0.49597027  0.49864308  1
  Ti  Ti12  1  0.50135692  0.00402973  0.00135692  1
  Ti  Ti13  1  0.50135692  0.00402973  0.49864308  1
  Ti  Ti14  1  0.50135692  0.49597027  0.00135692  1
  Ti  Ti15  1  0.50135692  0.49597027  0.49864308  1
  O  O16  1  0.25000000  0.00796777  0.00112196  1
  O  O17  1  0.25000000  0.00796777  0.49887804  1
  O  O18  1  0.25000000  0.49203223  0.00112196  1
  O  O19  1  0.25000000  0.49203223  0.49887804  1
  O  O20  1  0.75000000  0.00566077  0.00321107  1
  O  O21  1  0.75000000  0.00566077  0.49678893  1
  O  O22  1  0.75000000  0.49433923  0.00321107  1
  O  O23  1  0.75000000  0.49433923  0.49678893  1
  O  O24  1  0.99873868  0.25000000  0.00126132  1
  O  O25  1  0.99873868  0.25000000  0.49873868  1
  O  O26  1  0.99639122  0.75000000  0.00360878  1
  O  O27  1  0.99639122  0.75000000  0.49639122  1
  O  O28  1  0.50126132  0.25000000  0.00126132  1
  O  O29  1  0.50126132  0.25000000  0.49873868  1
  O  O30  1  0.50360878  0.75000000  0.00360878  1
  O  O31  1  0.50360878  0.75000000  0.49639122  1
  O  O32  1  0.99678893  0.00566077  0.25000000  1
  O  O33  1  0.99887804  0.00796777  0.75000000  1
  O  O34  1  0.99678893  0.49433923  0.25000000  1
  O  O35  1  0.99887804  0.49203223  0.75000000  1
  O  O36  1  0.50321107  0.00566077  0.25000000  1
  O  O37  1  0.50112196  0.00796777  0.75000000  1
  O  O38  1  0.50321107  0.49433923  0.25000000  1
  O  O39  1  0.50112196  0.49203223  0.75000000  1
