# generated using pymatgen
data_ZrSb
_symmetry_space_group_name_H-M   'P 1'
_cell_length_a   3.81734060
_cell_length_b   5.60776333
_cell_length_c   14.21265781
_cell_angle_alpha   90.00000000
_cell_angle_beta   90.00000000
_cell_angle_gamma   109.89893882
_symmetry_Int_Tables_number   1
_chemical_formula_structural   ZrSb
_chemical_formula_sum   'Zr6 Sb6'
_cell_volume   286.08148511
_cell_formula_units_Z   6
loop_
 _symmetry_equiv_pos_site_id
 _symmetry_equiv_pos_as_xyz
  1  'x, y, z'
loop_
 _atom_site_type_symbol
 _atom_site_label
 _atom_site_symmetry_multiplicity
 _atom_site_fract_x
 _atom_site_fract_y
 _atom_site_fract_z
 _atom_site_occupancy
  Zr  Zr0  1  0.38093251  0.76186502  0.75000000  1
  Zr  Zr1  1  0.61906749  0.23813498  0.25000000  1
  Zr  Zr2  1  0.07124809  0.14249617  0.89177797  1
  Zr  Zr3  1  0.92875191  0.85750383  0.10822203  1
  Zr  Zr4  1  0.92875191  0.85750383  0.39177797  1
  Zr  Zr5  1  0.07124809  0.14249617  0.60822203  1
  Sb  Sb6  1  0.66909266  0.33818533  0.75000000  1
  Sb  Sb7  1  0.33090734  0.66181467  0.25000000  1
  Sb  Sb8  1  0.64269428  0.28538855  0.45088240  1
  Sb  Sb9  1  0.35730572  0.71461145  0.54911760  1
  Sb  Sb10  1  0.35730572  0.71461145  0.95088240  1
  Sb  Sb11  1  0.64269428  0.28538855  0.04911760  1
