# generated using pymatgen
data_Sm(CrB3)2
_symmetry_space_group_name_H-M   'P 1'
_cell_length_a   3.09818162
_cell_length_b   5.51799110
_cell_length_c   5.51799110
_cell_angle_alpha   72.54341287
_cell_angle_beta   73.69595277
_cell_angle_gamma   73.69595277
_symmetry_Int_Tables_number   1
_chemical_formula_structural   Sm(CrB3)2
_chemical_formula_sum   'Sm1 Cr2 B6'
_cell_volume   84.35765588
_cell_formula_units_Z   1
loop_
 _symmetry_equiv_pos_site_id
 _symmetry_equiv_pos_as_xyz
  1  'x, y, z'
loop_
 _atom_site_type_symbol
 _atom_site_label
 _atom_site_symmetry_multiplicity
 _atom_site_fract_x
 _atom_site_fract_y
 _atom_site_fract_z
 _atom_site_occupancy
  Sm  Sm0  1  0.00000000  0.50000000  0.50000000  1
  Cr  Cr1  1  0.84648216  0.15351784  0.15351784  1
  Cr  Cr2  1  0.15351784  0.84648216  0.84648216  1
  B  B3  1  0.50000000  0.14085619  0.85914381  1
  B  B4  1  0.50000000  0.85914381  0.14085619  1
  B  B5  1  0.69700650  0.03973487  0.56625213  1
  B  B6  1  0.30299350  0.43374787  0.96026513  1
  B  B7  1  0.69700650  0.56625213  0.03973487  1
  B  B8  1  0.30299350  0.96026513  0.43374787  1
