# generated using pymatgen
data_NdNiGe3
_symmetry_space_group_name_H-M   'P 1'
_cell_length_a   4.16018042
_cell_length_b   4.19506183
_cell_length_c   11.10566776
_cell_angle_alpha   90.00000000
_cell_angle_beta   100.79524989
_cell_angle_gamma   90.00000000
_symmetry_Int_Tables_number   1
_chemical_formula_structural   NdNiGe3
_chemical_formula_sum   'Nd2 Ni2 Ge6'
_cell_volume   190.38844328
_cell_formula_units_Z   2
loop_
 _symmetry_equiv_pos_site_id
 _symmetry_equiv_pos_as_xyz
  1  'x, y, z'
loop_
 _atom_site_type_symbol
 _atom_site_label
 _atom_site_symmetry_multiplicity
 _atom_site_fract_x
 _atom_site_fract_y
 _atom_site_fract_z
 _atom_site_occupancy
  Nd  Nd0  1  0.16883611  0.50000000  0.33767222  1
  Nd  Nd1  1  0.83116389  0.50000000  0.66232778  1
  Ni  Ni2  1  0.39129181  -0.00000000  0.78258362  1
  Ni  Ni3  1  0.60870819  -0.00000000  0.21741638  1
  Ge  Ge4  1  0.28448803  -0.00000000  0.56897607  1
  Ge  Ge5  1  0.71551197  -0.00000000  0.43102393  1
  Ge  Ge6  1  0.44352503  0.50000000  0.88705007  1
  Ge  Ge7  1  0.55647497  0.50000000  0.11294993  1
  Ge  Ge8  1  0.05627457  -0.00000000  0.11254915  1
  Ge  Ge9  1  0.94372543  -0.00000000  0.88745085  1
