# generated using pymatgen
data_Ba2Mn2F11
_symmetry_space_group_name_H-M   'P 1'
_cell_length_a   7.73605952
_cell_length_b   7.73605958
_cell_length_c   14.08752258
_cell_angle_alpha   90.00000000
_cell_angle_beta   90.00000000
_cell_angle_gamma   119.99999867
_symmetry_Int_Tables_number   1
_chemical_formula_structural   Ba2Mn2F11
_chemical_formula_sum   'Ba6 Mn6 F33'
_cell_volume   730.13786446
_cell_formula_units_Z   3
loop_
 _symmetry_equiv_pos_site_id
 _symmetry_equiv_pos_as_xyz
  1  'x, y, z'
loop_
 _atom_site_type_symbol
 _atom_site_label
 _atom_site_symmetry_multiplicity
 _atom_site_fract_x
 _atom_site_fract_y
 _atom_site_fract_z
 _atom_site_occupancy
  Ba  Ba0  1  0.53848519  0.16395566  0.66284575  1
  Ba  Ba1  1  0.14944764  0.41349570  0.81548251  1
  Ba  Ba2  1  0.62547047  0.46151481  0.99617875  1
  Ba  Ba3  1  0.58650430  0.73595095  0.48214851  1
  Ba  Ba4  1  0.26404905  0.85055236  0.14881551  1
  Ba  Ba5  1  0.83604434  0.37452953  0.32951175  1
  Mn  Mn6  1  0.54024568  0.96091098  0.90689311  1
  Mn  Mn7  1  0.85008039  0.80434210  0.72207506  1
  Mn  Mn8  1  0.19565790  0.04573829  0.38874106  1
  Mn  Mn9  1  0.42066630  0.45975432  0.24022611  1
  Mn  Mn10  1  0.95426171  0.14991961  0.05540806  1
  Mn  Mn11  1  0.03908902  0.57933370  0.57355911  1
  F  F12  1  0.67752305  0.04613483  0.03113052  1
  F  F13  1  0.44059844  0.69722610  0.94559696  1
  F  F14  1  0.36861178  0.32247695  0.36446352  1
  F  F15  1  0.13503313  0.51591820  0.46713934  1
  F  F16  1  0.52193643  0.30076318  0.19134842  1
  F  F17  1  0.92590316  0.57739288  0.17617337  1
  F  F18  1  0.48408180  0.61911493  0.13380634  1
  F  F19  1  0.42260712  0.34851128  0.84284037  1
  F  F20  1  0.77882675  0.47806357  0.52468142  1
  F  F21  1  0.21926336  0.25588893  0.07939814  1
  F  F22  1  0.38088507  0.86496687  0.80047334  1
  F  F23  1  0.95386517  0.63138822  0.69779752  1
  F  F24  1  0.35958549  0.02409224  0.98458093  1
  F  F25  1  0.99642563  0.39997479  0.01430100  1
  F  F26  1  0.66450675  0.64041451  0.31791393  1
  F  F27  1  0.30277390  0.74337333  0.61226296  1
  F  F28  1  0.97568121  0.10122662  0.92993509  1
  F  F29  1  0.03662557  0.78073664  0.41273114  1
  F  F30  1  0.99099545  0.09170705  0.41447598  1
  F  F31  1  0.97590776  0.33549325  0.65124693  1
  F  F32  1  0.10071161  0.00900455  0.74780998  1
  F  F33  1  0.60002421  0.59645084  0.68096800  1
  F  F34  1  0.40354916  0.00357437  0.34763400  1
  F  F35  1  0.12554541  0.02431879  0.26326809  1
  F  F36  1  0.74411107  0.96337443  0.74606514  1
  F  F37  1  0.69923582  0.22117325  0.85801542  1
  F  F38  1  0.25662667  0.55940156  0.27892996  1
  F  F39  1  0.81142992  0.71106776  0.84469282  1
  F  F40  1  0.89963684  0.18857008  0.17802582  1
  F  F41  1  0.90829295  0.89928839  0.08114298  1
  F  F42  1  0.65148872  0.07409684  0.50950637  1
  F  F43  1  0.89877338  0.87445459  0.59660109  1
  F  F44  1  0.28893224  0.10036316  0.51135882  1
