# generated using pymatgen
data_V(HO)2
_symmetry_space_group_name_H-M   'P 1'
_cell_length_a   3.32437266
_cell_length_b   5.41033392
_cell_length_c   4.92531373
_cell_angle_alpha   90.05419712
_cell_angle_beta   90.00000840
_cell_angle_gamma   90.00001227
_symmetry_Int_Tables_number   1
_chemical_formula_structural   V(HO)2
_chemical_formula_sum   'V2 H4 O4'
_cell_volume   88.58648641
_cell_formula_units_Z   2
loop_
 _symmetry_equiv_pos_site_id
 _symmetry_equiv_pos_as_xyz
  1  'x, y, z'
loop_
 _atom_site_type_symbol
 _atom_site_label
 _atom_site_symmetry_multiplicity
 _atom_site_fract_x
 _atom_site_fract_y
 _atom_site_fract_z
 _atom_site_occupancy
  V  V0  1  0.49998284  0.49999734  0.50000591  1
  V  V1  1  0.00000290  0.00000858  0.99999450  1
  H  H2  1  0.50000321  0.33365860  0.00614439  1
  H  H3  1  0.50000303  0.66640572  0.99392169  1
  H  H4  1  0.00000262  0.83333304  0.49391532  1
  H  H5  1  0.00000101  0.16661605  0.50607974  1
  O  O6  1  0.50000252  0.76862596  0.15772078  1
  O  O7  1  0.00000210  0.26859720  0.34247112  1
  O  O8  1  0.00000127  0.73139798  0.65752103  1
  O  O9  1  0.50000350  0.23135953  0.84222652  1
