# generated using pymatgen
data_LiAsSe2
_symmetry_space_group_name_H-M   'P 1'
_cell_length_a   5.70363911
_cell_length_b   5.83103920
_cell_length_c   5.48330144
_cell_angle_alpha   90.01242936
_cell_angle_beta   90.07952290
_cell_angle_gamma   85.78642573
_symmetry_Int_Tables_number   1
_chemical_formula_structural   LiAsSe2
_chemical_formula_sum   'Li2 As2 Se4'
_cell_volume   181.87133527
_cell_formula_units_Z   2
loop_
 _symmetry_equiv_pos_site_id
 _symmetry_equiv_pos_as_xyz
  1  'x, y, z'
loop_
 _atom_site_type_symbol
 _atom_site_label
 _atom_site_symmetry_multiplicity
 _atom_site_fract_x
 _atom_site_fract_y
 _atom_site_fract_z
 _atom_site_occupancy
  Li  Li0  1  0.73938367  0.99547859  0.24997928  1
  Li  Li1  1  0.26061633  0.00452141  0.75002072  1
  As  As2  1  0.80273194  0.58706293  0.75216210  1
  As  As3  1  0.19726806  0.41293707  0.24783790  1
  Se  Se4  1  0.76887033  0.49809539  0.24978066  1
  Se  Se5  1  0.23112967  0.50190461  0.75021934  1
  Se  Se6  1  0.75095254  0.99162935  0.75157951  1
  Se  Se7  1  0.24904746  0.00837065  0.24842049  1
