# generated using pymatgen
data_Ni3Sn
_symmetry_space_group_name_H-M   'P 1'
_cell_length_a   4.24566072
_cell_length_b   4.56261066
_cell_length_c   5.31332895
_cell_angle_alpha   90.00000000
_cell_angle_beta   90.00000000
_cell_angle_gamma   90.00000000
_symmetry_Int_Tables_number   1
_chemical_formula_structural   Ni3Sn
_chemical_formula_sum   'Ni6 Sn2'
_cell_volume   102.92607240
_cell_formula_units_Z   2
loop_
 _symmetry_equiv_pos_site_id
 _symmetry_equiv_pos_as_xyz
  1  'x, y, z'
loop_
 _atom_site_type_symbol
 _atom_site_label
 _atom_site_symmetry_multiplicity
 _atom_site_fract_x
 _atom_site_fract_y
 _atom_site_fract_z
 _atom_site_occupancy
  Ni  Ni0  1  0.75000000  0.83547156  0.99688113  1
  Ni  Ni1  1  0.75000000  0.83547156  0.50311887  1
  Ni  Ni2  1  0.25000000  0.16452844  0.00311887  1
  Ni  Ni3  1  0.25000000  0.16452844  0.49688113  1
  Ni  Ni4  1  0.25000000  0.69215090  0.75000000  1
  Ni  Ni5  1  0.75000000  0.30784910  0.25000000  1
  Sn  Sn6  1  0.75000000  0.33375888  0.75000000  1
  Sn  Sn7  1  0.25000000  0.66624112  0.25000000  1
