# generated using pymatgen
data_YMg2
_symmetry_space_group_name_H-M   'P 1'
_cell_length_a   6.04327752
_cell_length_b   6.04327722
_cell_length_c   14.77487506
_cell_angle_alpha   90.00000000
_cell_angle_beta   90.00000000
_cell_angle_gamma   120.00000163
_symmetry_Int_Tables_number   1
_chemical_formula_structural   YMg2
_chemical_formula_sum   'Y6 Mg12'
_cell_volume   467.30399843
_cell_formula_units_Z   6
loop_
 _symmetry_equiv_pos_site_id
 _symmetry_equiv_pos_as_xyz
  1  'x, y, z'
loop_
 _atom_site_type_symbol
 _atom_site_label
 _atom_site_symmetry_multiplicity
 _atom_site_fract_x
 _atom_site_fract_y
 _atom_site_fract_z
 _atom_site_occupancy
  Y  Y0  1  0.66666700  0.33333300  0.21174932  1
  Y  Y1  1  0.00000000  -0.00000000  0.12158468  1
  Y  Y2  1  0.33333300  0.66666700  0.54508232  1
  Y  Y3  1  0.66666700  0.33333300  0.45491768  1
  Y  Y4  1  0.00000000  -0.00000000  0.87841532  1
  Y  Y5  1  0.33333300  0.66666700  0.78825068  1
  Mg  Mg6  1  0.50069739  0.50069739  -0.00000000  1
  Mg  Mg7  1  0.49930261  -0.00000000  0.00000000  1
  Mg  Mg8  1  0.33333300  0.66666700  0.16666700  1
  Mg  Mg9  1  0.00000000  0.49930261  -0.00000000  1
  Mg  Mg10  1  0.16736339  0.83403039  0.33333300  1
  Mg  Mg11  1  0.16596961  0.33333300  0.33333300  1
  Mg  Mg12  1  0.00000000  -0.00000000  0.50000000  1
  Mg  Mg13  1  0.66666700  0.83263661  0.33333300  1
  Mg  Mg14  1  0.83403039  0.16736339  0.66666700  1
  Mg  Mg15  1  0.83263661  0.66666700  0.66666700  1
  Mg  Mg16  1  0.66666700  0.33333300  0.83333300  1
  Mg  Mg17  1  0.33333300  0.16596961  0.66666700  1
