# generated using pymatgen
data_GeP
_symmetry_space_group_name_H-M   'P 1'
_cell_length_a   3.68331575
_cell_length_b   7.97471303
_cell_length_c   9.39562506
_cell_angle_alpha   102.13937609
_cell_angle_beta   90.00000000
_cell_angle_gamma   103.35225469
_symmetry_Int_Tables_number   1
_chemical_formula_structural   GeP
_chemical_formula_sum   'Ge6 P6'
_cell_volume   262.17440138
_cell_formula_units_Z   6
loop_
 _symmetry_equiv_pos_site_id
 _symmetry_equiv_pos_as_xyz
  1  'x, y, z'
loop_
 _atom_site_type_symbol
 _atom_site_label
 _atom_site_symmetry_multiplicity
 _atom_site_fract_x
 _atom_site_fract_y
 _atom_site_fract_z
 _atom_site_occupancy
  Ge  Ge0  1  0.37298644  0.74597288  0.07378931  1
  Ge  Ge1  1  0.62701356  0.25402712  0.92621069  1
  Ge  Ge2  1  0.25338919  0.50677838  0.21280999  1
  Ge  Ge3  1  0.74661081  0.49322162  0.78719001  1
  Ge  Ge4  1  0.92954690  0.85909380  0.40644058  1
  Ge  Ge5  1  0.07045310  0.14090620  0.59355942  1
  P  P6  1  0.96429867  0.92859734  0.16743709  1
  P  P7  1  0.03570133  0.07140266  0.83256291  1
  P  P8  1  0.65492934  0.30985868  0.18390783  1
  P  P9  1  0.34507066  0.69014132  0.81609217  1
  P  P10  1  0.34163965  0.68327929  0.45111191  1
  P  P11  1  0.65836035  0.31672071  0.54888809  1
