# generated using pymatgen
data_NdAgAs2
_symmetry_space_group_name_H-M   'P 1'
_cell_length_a   4.06583975
_cell_length_b   4.06599143
_cell_length_c   10.65990587
_cell_angle_alpha   90.00000000
_cell_angle_beta   90.00000000
_cell_angle_gamma   90.00000000
_symmetry_Int_Tables_number   1
_chemical_formula_structural   NdAgAs2
_chemical_formula_sum   'Nd2 Ag2 As4'
_cell_volume   176.22604159
_cell_formula_units_Z   2
loop_
 _symmetry_equiv_pos_site_id
 _symmetry_equiv_pos_as_xyz
  1  'x, y, z'
loop_
 _atom_site_type_symbol
 _atom_site_label
 _atom_site_symmetry_multiplicity
 _atom_site_fract_x
 _atom_site_fract_y
 _atom_site_fract_z
 _atom_site_occupancy
  As  As0  1  0.75000000  0.75000000  0.82119097  1
  As  As1  1  0.25000000  0.25000000  0.17880903  1
  As  As2  1  0.25000000  0.75000000  0.49997667  1
  As  As3  1  0.75000000  0.25000000  0.50002333  1
  Ag  Ag4  1  0.25000000  0.75000000  0.00000308  1
  Ag  Ag5  1  0.75000000  0.25000000  0.99999692  1
  Nd  Nd6  1  0.75000000  0.75000000  0.27061183  1
  Nd  Nd7  1  0.25000000  0.25000000  0.72938817  1
