# generated using pymatgen
data_Li2Mg
_symmetry_space_group_name_H-M   'P 1'
_cell_length_a   9.14176608
_cell_length_b   5.26491690
_cell_length_c   4.99747432
_cell_angle_alpha   90.00000000
_cell_angle_beta   90.00000000
_cell_angle_gamma   90.00000000
_symmetry_Int_Tables_number   1
_chemical_formula_structural   Li2Mg
_chemical_formula_sum   'Li8 Mg4'
_cell_volume   240.53163106
_cell_formula_units_Z   4
loop_
 _symmetry_equiv_pos_site_id
 _symmetry_equiv_pos_as_xyz
  1  'x, y, z'
loop_
 _atom_site_type_symbol
 _atom_site_label
 _atom_site_symmetry_multiplicity
 _atom_site_fract_x
 _atom_site_fract_y
 _atom_site_fract_z
 _atom_site_occupancy
  Li  Li0  1  0.16706323  0.16625935  0.75000000  1
  Li  Li1  1  0.33293677  0.66625935  0.75000000  1
  Li  Li2  1  0.16706323  0.83374065  0.25000000  1
  Li  Li3  1  0.33293677  0.33374065  0.25000000  1
  Li  Li4  1  0.66706323  0.66625935  0.75000000  1
  Li  Li5  1  0.83293677  0.16625935  0.75000000  1
  Li  Li6  1  0.66706323  0.33374065  0.25000000  1
  Li  Li7  1  0.83293677  0.83374065  0.25000000  1
  Mg  Mg8  1  0.00000000  0.66925003  0.75000000  1
  Mg  Mg9  1  0.00000000  0.33074997  0.25000000  1
  Mg  Mg10  1  0.50000000  0.16925003  0.75000000  1
  Mg  Mg11  1  0.50000000  0.83074997  0.25000000  1
