# generated using pymatgen
data_NbReSi
_symmetry_space_group_name_H-M   'P 1'
_cell_length_a   3.33240798
_cell_length_b   6.88445003
_cell_length_c   6.88340502
_cell_angle_alpha   120.00502601
_cell_angle_beta   90.00000000
_cell_angle_gamma   90.00000000
_symmetry_Int_Tables_number   1
_chemical_formula_structural   NbReSi
_chemical_formula_sum   'Nb3 Re3 Si3'
_cell_volume   136.75379156
_cell_formula_units_Z   3
loop_
 _symmetry_equiv_pos_site_id
 _symmetry_equiv_pos_as_xyz
  1  'x, y, z'
loop_
 _atom_site_type_symbol
 _atom_site_label
 _atom_site_symmetry_multiplicity
 _atom_site_fract_x
 _atom_site_fract_y
 _atom_site_fract_z
 _atom_site_occupancy
  Nb  Nb0  1  0.50000000  0.59626880  0.00000000  1
  Nb  Nb1  1  0.50000000  0.40395989  0.40429231  1
  Nb  Nb2  1  0.50000000  0.99966757  0.59570769  1
  Re  Re3  1  0.00000000  0.25693591  0.00000000  1
  Re  Re4  1  0.00000000  0.74323980  0.74332991  1
  Re  Re5  1  0.00000000  0.99990989  0.25667009  1
  Si  Si6  1  0.00000000  0.33309414  0.66656094  1
  Si  Si7  1  0.00000000  0.66653320  0.33343906  1
  Si  Si8  1  0.50000000  0.00029080  1.00000000  1
