# generated using pymatgen
data_SiIr2
_symmetry_space_group_name_H-M   'P 1'
_cell_length_a   4.01758383
_cell_length_b   5.32718896
_cell_length_c   7.73702953
_cell_angle_alpha   90.00000000
_cell_angle_beta   90.00000000
_cell_angle_gamma   90.00000000
_symmetry_Int_Tables_number   1
_chemical_formula_structural   SiIr2
_chemical_formula_sum   'Si4 Ir8'
_cell_volume   165.59121919
_cell_formula_units_Z   4
loop_
 _symmetry_equiv_pos_site_id
 _symmetry_equiv_pos_as_xyz
  1  'x, y, z'
loop_
 _atom_site_type_symbol
 _atom_site_label
 _atom_site_symmetry_multiplicity
 _atom_site_fract_x
 _atom_site_fract_y
 _atom_site_fract_z
 _atom_site_occupancy
  Si  Si0  1  0.75000000  0.20759917  0.60108011  1
  Si  Si1  1  0.75000000  0.70759917  0.89891989  1
  Si  Si2  1  0.25000000  0.79240083  0.39891989  1
  Si  Si3  1  0.25000000  0.29240083  0.10108011  1
  Ir  Ir4  1  0.75000000  0.65936492  0.57571513  1
  Ir  Ir5  1  0.75000000  0.15936492  0.92428487  1
  Ir  Ir6  1  0.25000000  0.34063508  0.42428487  1
  Ir  Ir7  1  0.25000000  0.84063508  0.07571513  1
  Ir  Ir8  1  0.75000000  0.52189181  0.19937834  1
  Ir  Ir9  1  0.75000000  0.02189181  0.30062166  1
  Ir  Ir10  1  0.25000000  0.47810819  0.80062166  1
  Ir  Ir11  1  0.25000000  0.97810819  0.69937834  1
