# generated using pymatgen
data_TiPb15O17
_symmetry_space_group_name_H-M   'P 1'
_cell_length_a   4.11027536
_cell_length_b   31.70373853
_cell_length_c   5.29425053
_cell_angle_alpha   90.00000000
_cell_angle_beta   90.00000000
_cell_angle_gamma   90.00000000
_symmetry_Int_Tables_number   1
_chemical_formula_structural   TiPb15O17
_chemical_formula_sum   'Ti1 Pb15 O17'
_cell_volume   689.89958536
_cell_formula_units_Z   1
loop_
 _symmetry_equiv_pos_site_id
 _symmetry_equiv_pos_as_xyz
  1  'x, y, z'
loop_
 _atom_site_type_symbol
 _atom_site_label
 _atom_site_symmetry_multiplicity
 _atom_site_fract_x
 _atom_site_fract_y
 _atom_site_fract_z
 _atom_site_occupancy
  Ti  Ti0  1  0.50000000  0.87500000  0.86502531  1
  Pb  Pb1  1  -0.00000000  0.06162398  0.22192417  1
  Pb  Pb2  1  -0.00000000  0.18734060  0.22536580  1
  Pb  Pb3  1  -0.00000000  0.31247248  0.22575426  1
  Pb  Pb4  1  0.00000000  0.56265940  0.22536580  1
  Pb  Pb5  1  -0.00000000  0.68837602  0.22192417  1
  Pb  Pb6  1  0.00000000  0.93476358  0.24074219  1
  Pb  Pb7  1  0.50000000  0.12476829  0.77324572  1
  Pb  Pb8  1  0.50000000  0.24997236  0.77389001  1
  Pb  Pb9  1  0.50000000  0.37500000  0.77392800  1
  Pb  Pb10  1  0.50000000  0.50002764  0.77389001  1
  Pb  Pb11  1  0.50000000  0.62523171  0.77324572  1
  Pb  Pb12  1  0.50000000  0.75219831  0.77676247  1
  Pb  Pb13  1  0.50000000  0.99780169  0.77676247  1
  Pb  Pb14  1  0.00000000  0.43752752  0.22575426  1
  Pb  Pb15  1  -0.00000000  0.81523642  0.24074219  1
  O  O16  1  -0.00000000  0.99832414  0.99443872  1
  O  O17  1  -0.00000000  0.12466477  0.99083498  1
  O  O18  1  -0.00000000  0.24995885  0.99128196  1
  O  O19  1  -0.00000000  0.50004115  0.99128196  1
  O  O20  1  0.00000000  0.62533523  0.99083498  1
  O  O21  1  -0.00000000  0.87500000  0.97103388  1
  O  O22  1  0.50000000  0.06157573  0.00385764  1
  O  O23  1  0.50000000  0.18740079  0.00819046  1
  O  O24  1  0.50000000  0.31248135  0.00831626  1
  O  O25  1  0.50000000  0.43751865  0.00831626  1
  O  O26  1  0.50000000  0.56259921  0.00819046  1
  O  O27  1  0.50000000  0.81749444  0.00209871  1
  O  O28  1  0.50000000  0.68842427  0.00385764  1
  O  O29  1  0.50000000  0.87500000  0.54151597  1
  O  O30  1  0.50000000  0.93250556  0.00209871  1
  O  O31  1  0.00000000  0.37500000  0.99139012  1
  O  O32  1  -0.00000000  0.75167586  0.99443872  1
