# generated using pymatgen
data_Tb2Cu(GeO3)4
_symmetry_space_group_name_H-M   'P 1'
_cell_length_a   4.99112481
_cell_length_b   7.31600602
_cell_length_c   8.04406384
_cell_angle_alpha   66.26618202
_cell_angle_beta   86.83751703
_cell_angle_gamma   76.78532797
_symmetry_Int_Tables_number   1
_chemical_formula_structural   Tb2Cu(GeO3)4
_chemical_formula_sum   'Tb2 Cu1 Ge4 O12'
_cell_volume   261.54383934
_cell_formula_units_Z   1
loop_
 _symmetry_equiv_pos_site_id
 _symmetry_equiv_pos_as_xyz
  1  'x, y, z'
loop_
 _atom_site_type_symbol
 _atom_site_label
 _atom_site_symmetry_multiplicity
 _atom_site_fract_x
 _atom_site_fract_y
 _atom_site_fract_z
 _atom_site_occupancy
  O  O0  1  0.77279859  0.93314129  0.61261378  1
  O  O1  1  0.22720141  0.06685871  0.38738622  1
  O  O2  1  0.79184665  0.57644576  0.38668870  1
  O  O3  1  0.20815335  0.42355424  0.61331130  1
  O  O4  1  0.41902160  0.65612294  0.70761040  1
  O  O5  1  0.58097840  0.34387706  0.29238960  1
  O  O6  1  0.73285462  0.68714796  0.98811140  1
  O  O7  1  0.74330546  0.22339554  0.80785357  1
  O  O8  1  0.25669454  0.77660446  0.19214643  1
  O  O9  1  0.75263497  0.99509150  0.20243077  1
  O  O10  1  0.24736503  0.00490850  0.79756923  1
  O  O11  1  0.26714538  0.31285204  0.01188860  1
  Cu  Cu12  1  0.00000000  0.00000000  0.00000000  1
  Ge  Ge13  1  0.53982917  0.83045786  0.77649104  1
  Ge  Ge14  1  0.46017083  0.16954214  0.22350896  1
  Ge  Ge15  1  0.58131040  0.61609147  0.20317199  1
  Ge  Ge16  1  0.41868960  0.38390853  0.79682801  1
  Tb  Tb17  1  0.04647626  0.76951994  0.45162374  1
  Tb  Tb18  1  0.95352374  0.23048006  0.54837626  1
