# generated using pymatgen
data_CeAsS
_symmetry_space_group_name_H-M   'P 1'
_cell_length_a   3.94304375
_cell_length_b   3.93946897
_cell_length_c   16.98916338
_cell_angle_alpha   90.00000000
_cell_angle_beta   90.00000000
_cell_angle_gamma   90.02513145
_symmetry_Int_Tables_number   1
_chemical_formula_structural   CeAsS
_chemical_formula_sum   'Ce4 As4 S4'
_cell_volume   263.90111850
_cell_formula_units_Z   4
loop_
 _symmetry_equiv_pos_site_id
 _symmetry_equiv_pos_as_xyz
  1  'x, y, z'
loop_
 _atom_site_type_symbol
 _atom_site_label
 _atom_site_symmetry_multiplicity
 _atom_site_fract_x
 _atom_site_fract_y
 _atom_site_fract_z
 _atom_site_occupancy
  Ce  Ce0  1  0.25040813  0.76861548  0.85478059  1
  Ce  Ce1  1  0.24959187  0.73138452  0.35478059  1
  Ce  Ce2  1  0.74959187  0.23138452  0.14521941  1
  Ce  Ce3  1  0.75040813  0.26861548  0.64521941  1
  As  As4  1  0.74990260  0.76886895  0.50060595  1
  As  As5  1  0.75009740  0.73113105  0.00060595  1
  As  As6  1  0.25009740  0.23113105  0.49939405  1
  As  As7  1  0.24990260  0.26886895  0.99939405  1
  S  S8  1  0.25036539  0.76876003  0.68361703  1
  S  S9  1  0.24963461  0.73123997  0.18361703  1
  S  S10  1  0.74963461  0.23123997  0.31638297  1
  S  S11  1  0.75036539  0.26876003  0.81638297  1
