# generated using pymatgen
data_Zn11Fe25O48
_symmetry_space_group_name_H-M   'P 1'
_cell_length_a   10.48962817
_cell_length_b   10.48579870
_cell_length_c   10.46984385
_cell_angle_alpha   119.94967653
_cell_angle_beta   109.47095192
_cell_angle_gamma   80.42079297
_symmetry_Int_Tables_number   1
_chemical_formula_structural   Zn11Fe25O48
_chemical_formula_sum   'Zn11 Fe25 O48'
_cell_volume   940.75581055
_cell_formula_units_Z   1
loop_
 _symmetry_equiv_pos_site_id
 _symmetry_equiv_pos_as_xyz
  1  'x, y, z'
loop_
 _atom_site_type_symbol
 _atom_site_label
 _atom_site_symmetry_multiplicity
 _atom_site_fract_x
 _atom_site_fract_y
 _atom_site_fract_z
 _atom_site_occupancy
  Zn  Zn0  1  0.56154643  0.66666700  0.02044319  1
  Zn  Zn1  1  0.93809094  0.33410631  0.47925749  1
  Zn  Zn2  1  0.56159069  0.33395941  0.35391805  1
  Zn  Zn3  1  0.43577369  0.99863176  0.31222221  1
  Zn  Zn4  1  0.43479686  0.66666700  0.64415815  1
  Zn  Zn5  1  0.93809094  0.99922669  0.81181718  1
  Zn  Zn6  1  0.06434547  -0.00016061  0.18739149  1
  Zn  Zn7  1  0.06406035  0.66666700  0.52084914  1
  Zn  Zn8  1  0.56159069  0.99937359  0.68662463  1
  Zn  Zn9  1  0.43577369  0.33470124  0.98025645  1
  Zn  Zn10  1  0.06434547  0.33349361  0.85421910  1
  Fe  Fe11  1  0.93743073  0.66666700  0.14676989  1
  Fe  Fe12  1  0.74805870  0.83196106  0.41786773  1
  Fe  Fe13  1  0.75146458  0.16800220  0.08436601  1
  Fe  Fe14  1  0.74805870  0.50137194  0.25257367  1
  Fe  Fe15  1  0.25449057  0.66666700  0.08425327  1
  Fe  Fe16  1  0.74944390  0.00129969  0.24955020  1
  Fe  Fe17  1  0.49928835  0.99993817  0.00018529  1
  Fe  Fe18  1  0.49854884  0.66666700  0.33404928  1
  Fe  Fe19  1  0.74799300  0.66666700  0.58192207  1
  Fe  Fe20  1  0.74922825  0.83507550  0.91588278  1
  Fe  Fe21  1  0.75146458  0.16533080  0.58303080  1
  Fe  Fe22  1  0.25017965  0.83372917  0.41723818  1
  Fe  Fe23  1  0.24922231  0.16700155  0.08297023  1
  Fe  Fe24  1  0.25017965  0.49960483  0.25017601  1
  Fe  Fe25  1  0.74922825  0.49825850  0.74747428  1
  Fe  Fe26  1  0.74944390  0.33203431  0.91491751  1
  Fe  Fe27  1  0.24937093  0.33519931  0.41756811  1
  Fe  Fe28  1  0.49928835  0.33339483  0.66691312  1
  Fe  Fe29  1  0.00145226  0.33305038  0.16702623  1
  Fe  Fe30  1  0.25002937  0.49984987  0.75019396  1
  Fe  Fe31  1  0.25002937  0.83348313  0.91701009  1
  Fe  Fe32  1  0.24922231  0.16633245  0.58263568  1
  Fe  Fe33  1  0.24937093  0.99813369  0.74903580  1
  Fe  Fe34  1  0.00145226  0.00028262  0.50064286  1
  Fe  Fe35  1  0.00271308  0.66666700  0.83215764  1
  O  O36  1  0.63109738  0.84755748  0.04353212  1
  O  O37  1  0.87355996  0.49101968  0.12352241  1
  O  O38  1  0.87355996  0.84231332  0.29916873  1
  O  O39  1  0.64160835  0.33384175  0.04669629  1
  O  O40  1  0.87179201  0.33379081  0.27553847  1
  O  O41  1  0.85991962  0.00003233  0.11972084  1
  O  O42  1  0.63725218  0.66666700  0.22224322  1
  O  O43  1  0.86110585  0.66666700  0.45373225  1
  O  O44  1  0.63069254  0.15248690  0.19628130  1
  O  O45  1  0.63786381  0.82468989  0.53691633  1
  O  O46  1  0.13023899  0.81894551  0.02837293  1
  O  O47  1  0.63786381  0.50864411  0.37889345  1
  O  O48  1  0.35971607  0.50906304  0.13048576  1
  O  O49  1  0.35971607  0.82427096  0.28808972  1
  O  O50  1  0.87084181  0.15152445  0.45529505  1
  O  O51  1  0.87139064  0.51450359  0.64033226  1
  O  O52  1  0.87139064  0.81882941  0.79249567  1
  O  O53  1  0.35949138  0.66666700  0.44371963  1
  O  O54  1  0.36926240  0.00049369  0.10970474  1
  O  O55  1  0.64048673  0.66666700  0.71535831  1
  O  O56  1  0.64160835  0.99949125  0.37952055  1
  O  O57  1  0.13228253  0.66666700  0.21086051  1
  O  O58  1  0.87179201  0.99954319  0.60841467  1
  O  O59  1  0.87361263  0.66666700  0.95014374  1
  O  O60  1  0.12887089  0.33273865  0.05626666  1
  O  O61  1  0.35849413  0.33378627  0.28663127  1
  O  O62  1  0.85991962  0.33330167  0.78635551  1
  O  O63  1  0.63027798  0.33236363  0.55733333  1
  O  O64  1  0.12861924  0.84734414  0.54315534  1
  O  O65  1  0.13037394  0.18121440  0.21070690  1
  O  O66  1  0.63069254  0.18084710  0.71046140  1
  O  O67  1  0.12861924  0.48598986  0.36247720  1
  O  O68  1  0.63109738  0.48577552  0.86264064  1
  O  O69  1  0.36883517  0.18166020  0.47062062  1
  O  O70  1  0.36967599  0.84705031  0.80414617  1
  O  O71  1  0.36967599  0.48628269  0.62376286  1
  O  O72  1  0.87084181  0.18180855  0.97043760  1
  O  O73  1  0.36926240  0.33283931  0.77587805  1
  O  O74  1  0.14056424  0.33374645  0.54718659  1
  O  O75  1  0.12887089  0.00059435  0.39019501  1
  O  O76  1  0.35849413  0.99954773  0.61951200  1
  O  O77  1  0.63027798  0.00096937  0.89163570  1
  O  O78  1  0.36021632  0.66666700  0.95310576  1
  O  O79  1  0.13150499  0.66666700  0.72289917  1
  O  O80  1  0.13037394  0.15211860  0.69615850  1
  O  O81  1  0.13023899  0.51438749  0.87609342  1
  O  O82  1  0.36883517  0.15167380  0.95562742  1
  O  O83  1  0.14056424  0.99958655  0.88010713  1
