# generated using pymatgen
data_Pr3Al11
_symmetry_space_group_name_H-M   'P 1'
_cell_length_a   4.37536780
_cell_length_b   8.54243584
_cell_length_c   8.54243584
_cell_angle_alpha   72.61134709
_cell_angle_beta   75.16146026
_cell_angle_gamma   75.16146026
_symmetry_Int_Tables_number   1
_chemical_formula_structural   Pr3Al11
_chemical_formula_sum   'Pr3 Al11'
_cell_volume   288.89838835
_cell_formula_units_Z   1
loop_
 _symmetry_equiv_pos_site_id
 _symmetry_equiv_pos_as_xyz
  1  'x, y, z'
loop_
 _atom_site_type_symbol
 _atom_site_label
 _atom_site_symmetry_multiplicity
 _atom_site_fract_x
 _atom_site_fract_y
 _atom_site_fract_z
 _atom_site_occupancy
  Pr  Pr0  1  -0.00000000  -0.00000000  0.00000000  1
  Pr  Pr1  1  0.31745048  0.68254952  0.68254952  1
  Pr  Pr2  1  0.68254952  0.31745048  0.31745048  1
  Al  Al3  1  -0.00000000  0.50000000  0.50000000  1
  Al  Al4  1  0.50000000  0.28366231  0.71633769  1
  Al  Al5  1  0.50000000  0.71633769  0.28366231  1
  Al  Al6  1  0.33417121  0.29640565  0.03525192  1
  Al  Al7  1  0.66582879  0.70359435  0.96474808  1
  Al  Al8  1  0.33417121  0.03525192  0.29640565  1
  Al  Al9  1  0.66582879  0.96474808  0.70359435  1
  Al  Al10  1  0.13727994  0.58863184  0.13680828  1
  Al  Al11  1  0.86272006  0.41136816  0.86319172  1
  Al  Al12  1  0.13727994  0.13680828  0.58863184  1
  Al  Al13  1  0.86272006  0.86319172  0.41136816  1
