# generated using pymatgen
data_Ce2CdS4
_symmetry_space_group_name_H-M   'P 1'
_cell_length_a   7.42815473
_cell_length_b   7.42815425
_cell_length_c   7.42815474
_cell_angle_alpha   110.80503569
_cell_angle_beta   110.80503484
_cell_angle_gamma   106.83531558
_symmetry_Int_Tables_number   1
_chemical_formula_structural   Ce2CdS4
_chemical_formula_sum   'Ce4 Cd2 S8'
_cell_volume   315.01770637
_cell_formula_units_Z   2
loop_
 _symmetry_equiv_pos_site_id
 _symmetry_equiv_pos_as_xyz
  1  'x, y, z'
loop_
 _atom_site_type_symbol
 _atom_site_label
 _atom_site_symmetry_multiplicity
 _atom_site_fract_x
 _atom_site_fract_y
 _atom_site_fract_z
 _atom_site_occupancy
  Cd  Cd0  1  0.62500000  0.37500000  0.25000000  1
  Cd  Cd1  1  0.87500000  0.12500000  0.75000000  1
  Ce  Ce2  1  0.11095893  0.75000000  0.86095893  1
  Ce  Ce3  1  0.25000000  0.61095893  0.36095893  1
  Ce  Ce4  1  0.38904107  0.25000000  0.63904107  1
  Ce  Ce5  1  0.75000000  0.88904107  0.13904107  1
  S  S6  1  0.00751541  0.87902257  0.51288338  1
  S  S7  1  0.99463203  0.36613919  0.48711662  1
  S  S8  1  0.12097743  0.13386081  0.12849284  1
  S  S9  1  0.37902257  0.50751541  0.01288338  1
  S  S10  1  0.63386081  0.62097743  0.62849284  1
  S  S11  1  0.49248459  0.00536797  0.87150716  1
  S  S12  1  0.50536797  0.99248459  0.37150716  1
  S  S13  1  0.86613919  0.49463203  0.98711662  1
