# generated using pymatgen
data_CaPdPb
_symmetry_space_group_name_H-M   'P 1'
_cell_length_a   4.79228843
_cell_length_b   7.36131661
_cell_length_c   8.33398370
_cell_angle_alpha   90.00000000
_cell_angle_beta   90.00000000
_cell_angle_gamma   90.00000000
_symmetry_Int_Tables_number   1
_chemical_formula_structural   CaPdPb
_chemical_formula_sum   'Ca4 Pd4 Pb4'
_cell_volume   294.00254684
_cell_formula_units_Z   4
loop_
 _symmetry_equiv_pos_site_id
 _symmetry_equiv_pos_as_xyz
  1  'x, y, z'
loop_
 _atom_site_type_symbol
 _atom_site_label
 _atom_site_symmetry_multiplicity
 _atom_site_fract_x
 _atom_site_fract_y
 _atom_site_fract_z
 _atom_site_occupancy
  Ca  Ca0  1  0.75000000  0.51910821  0.19514059  1
  Ca  Ca1  1  0.75000000  0.01910821  0.30485941  1
  Ca  Ca2  1  0.25000000  0.48089179  0.80485941  1
  Ca  Ca3  1  0.25000000  0.98089179  0.69514059  1
  Pd  Pd4  1  0.75000000  0.28273533  0.59633002  1
  Pd  Pd5  1  0.75000000  0.78273533  0.90366998  1
  Pd  Pd6  1  0.25000000  0.71726467  0.40366998  1
  Pd  Pd7  1  0.25000000  0.21726467  0.09633002  1
  Pb  Pb8  1  0.75000000  0.17803323  0.92066364  1
  Pb  Pb9  1  0.75000000  0.67803323  0.57933636  1
  Pb  Pb10  1  0.25000000  0.82196677  0.07933636  1
  Pb  Pb11  1  0.25000000  0.32196677  0.42066364  1
