# generated using pymatgen
data_FeCuS2
_symmetry_space_group_name_H-M   'P 1'
_cell_length_a   5.26362509
_cell_length_b   5.26362509
_cell_length_c   6.32576382
_cell_angle_alpha   114.58524331
_cell_angle_beta   114.58524336
_cell_angle_gamma   89.99999994
_symmetry_Int_Tables_number   1
_chemical_formula_structural   FeCuS2
_chemical_formula_sum   'Fe2 Cu2 S4'
_cell_volume   141.71270819
_cell_formula_units_Z   2
loop_
 _symmetry_equiv_pos_site_id
 _symmetry_equiv_pos_as_xyz
  1  'x, y, z'
loop_
 _atom_site_type_symbol
 _atom_site_label
 _atom_site_symmetry_multiplicity
 _atom_site_fract_x
 _atom_site_fract_y
 _atom_site_fract_z
 _atom_site_occupancy
  S  S0  1  0.88305506  0.87500000  0.25000000  1
  S  S1  1  0.62500000  0.11694494  0.75000000  1
  S  S2  1  0.36694494  0.37500000  0.25000000  1
  S  S3  1  0.12500000  0.63305506  0.75000000  1
  Fe  Fe4  1  0.00000000  0.00000000  0.00000000  1
  Fe  Fe5  1  0.25000000  0.75000000  0.50000000  1
  Cu  Cu6  1  0.75000000  0.25000000  0.50000000  1
  Cu  Cu7  1  0.50000000  0.50000000  0.00000000  1
