# generated using pymatgen
data_Ho(Al2Cr)4
_symmetry_space_group_name_H-M   'P 1'
_cell_length_a   5.06283468
_cell_length_b   6.78804860
_cell_length_c   6.78804860
_cell_angle_alpha   82.00588818
_cell_angle_beta   68.10401959
_cell_angle_gamma   68.10401959
_symmetry_Int_Tables_number   1
_chemical_formula_structural   Ho(Al2Cr)4
_chemical_formula_sum   'Ho1 Al8 Cr4'
_cell_volume   200.84027264
_cell_formula_units_Z   1
loop_
 _symmetry_equiv_pos_site_id
 _symmetry_equiv_pos_as_xyz
  1  'x, y, z'
loop_
 _atom_site_type_symbol
 _atom_site_label
 _atom_site_symmetry_multiplicity
 _atom_site_fract_x
 _atom_site_fract_y
 _atom_site_fract_z
 _atom_site_occupancy
  Ho  Ho0  1  0.00000000  0.00000000  0.00000000  1
  Al  Al1  1  0.00000000  0.33539505  0.66460495  1
  Al  Al2  1  0.00000000  0.66460495  0.33539505  1
  Al  Al3  1  0.66460495  0.33539505  0.33539505  1
  Al  Al4  1  0.33539505  0.66460495  0.66460495  1
  Al  Al5  1  0.50000000  0.77766743  0.22233257  1
  Al  Al6  1  0.50000000  0.22233257  0.77766743  1
  Al  Al7  1  0.72233257  0.77766743  0.77766743  1
  Al  Al8  1  0.27766743  0.22233257  0.22233257  1
  Cr  Cr9  1  0.00000000  0.00000000  0.50000000  1
  Cr  Cr10  1  0.50000000  0.00000000  0.50000000  1
  Cr  Cr11  1  0.50000000  0.50000000  0.00000000  1
  Cr  Cr12  1  0.00000000  0.50000000  0.00000000  1
