# generated using pymatgen
data_TbGa6
_symmetry_space_group_name_H-M   'P 1'
_cell_length_a   6.01778434
_cell_length_b   6.01778434
_cell_length_c   7.57096537
_cell_angle_alpha   90.00000000
_cell_angle_beta   90.00000000
_cell_angle_gamma   90.00000000
_symmetry_Int_Tables_number   1
_chemical_formula_structural   TbGa6
_chemical_formula_sum   'Tb2 Ga12'
_cell_volume   274.17288335
_cell_formula_units_Z   2
loop_
 _symmetry_equiv_pos_site_id
 _symmetry_equiv_pos_as_xyz
  1  'x, y, z'
loop_
 _atom_site_type_symbol
 _atom_site_label
 _atom_site_symmetry_multiplicity
 _atom_site_fract_x
 _atom_site_fract_y
 _atom_site_fract_z
 _atom_site_occupancy
  Tb  Tb0  1  0.75000000  0.25000000  -0.00000000  1
  Tb  Tb1  1  0.25000000  0.75000000  -0.00000000  1
  Ga  Ga2  1  0.75000000  0.75000000  0.16071556  1
  Ga  Ga3  1  0.25000000  0.25000000  0.16071556  1
  Ga  Ga4  1  0.25000000  0.25000000  0.83928444  1
  Ga  Ga5  1  0.75000000  0.75000000  0.83928444  1
  Ga  Ga6  1  0.05535439  0.94464561  0.34741023  1
  Ga  Ga7  1  0.55535439  0.05535439  0.34741023  1
  Ga  Ga8  1  0.94464561  0.44464561  0.34741023  1
  Ga  Ga9  1  0.44464561  0.55535439  0.34741023  1
  Ga  Ga10  1  0.94464561  0.05535439  0.65258977  1
  Ga  Ga11  1  0.44464561  0.94464561  0.65258977  1
  Ga  Ga12  1  0.05535439  0.55535439  0.65258977  1
  Ga  Ga13  1  0.55535439  0.44464561  0.65258977  1
