# generated using pymatgen
data_BH6N
_symmetry_space_group_name_H-M   'P 1'
_cell_length_a   4.44200578
_cell_length_b   4.44200578
_cell_length_c   6.05561850
_cell_angle_alpha   90.00000000
_cell_angle_beta   90.00000000
_cell_angle_gamma   94.33137382
_symmetry_Int_Tables_number   1
_chemical_formula_structural   BH6N
_chemical_formula_sum   'B2 H12 N2'
_cell_volume   119.14466361
_cell_formula_units_Z   2
loop_
 _symmetry_equiv_pos_site_id
 _symmetry_equiv_pos_as_xyz
  1  'x, y, z'
loop_
 _atom_site_type_symbol
 _atom_site_label
 _atom_site_symmetry_multiplicity
 _atom_site_fract_x
 _atom_site_fract_y
 _atom_site_fract_z
 _atom_site_occupancy
  B  B0  1  0.15261886  0.84738114  0.79060621  1
  B  B1  1  0.84738114  0.15261886  0.29060621  1
  H  H2  1  0.18639567  0.81360433  0.43329479  1
  H  H3  1  0.81360433  0.18639567  0.93329479  1
  H  H4  1  0.23782035  0.48740450  0.55172433  1
  H  H5  1  0.51259550  0.76217965  0.55172433  1
  H  H6  1  0.76217965  0.51259550  0.05172433  1
  H  H7  1  0.48740450  0.23782035  0.05172433  1
  H  H8  1  0.26698146  0.73301854  0.95015405  1
  H  H9  1  0.73301854  0.26698146  0.45015405  1
  H  H10  1  0.87833848  0.79029704  0.79051483  1
  H  H11  1  0.20970296  0.12166152  0.79051483  1
  H  H12  1  0.12166152  0.20970296  0.29051483  1
  H  H13  1  0.79029704  0.87833848  0.29051483  1
  N  N14  1  0.28338661  0.71661339  0.56836664  1
  N  N15  1  0.71661339  0.28338661  0.06836664  1
