# generated using pymatgen
data_Eu(InS2)2
_symmetry_space_group_name_H-M   'P 1'
_cell_length_a   6.19158329
_cell_length_b   6.19162732
_cell_length_c   10.49770789
_cell_angle_alpha   90.00098131
_cell_angle_beta   89.99966031
_cell_angle_gamma   115.29557074
_symmetry_Int_Tables_number   1
_chemical_formula_structural   Eu(InS2)2
_chemical_formula_sum   'Eu2 In4 S8'
_cell_volume   363.85216729
_cell_formula_units_Z   2
loop_
 _symmetry_equiv_pos_site_id
 _symmetry_equiv_pos_as_xyz
  1  'x, y, z'
loop_
 _atom_site_type_symbol
 _atom_site_label
 _atom_site_symmetry_multiplicity
 _atom_site_fract_x
 _atom_site_fract_y
 _atom_site_fract_z
 _atom_site_occupancy
  Eu  Eu0  1  0.49999889  0.49999884  0.25000020  1
  Eu  Eu1  1  0.49999982  0.50000063  0.75000017  1
  In  In2  1  0.77052456  0.22634687  0.49997024  1
  In  In3  1  0.22947443  0.77365146  0.49997082  1
  In  In4  1  0.77365782  0.22947509  0.00003294  1
  In  In5  1  0.22634798  0.77052645  0.00002832  1
  S  S6  1  0.79203848  0.64887959  0.49999352  1
  S  S7  1  0.20795985  0.35111818  0.49999218  1
  S  S8  1  0.35111893  0.20796023  0.00000633  1
  S  S9  1  0.64887961  0.79203982  0.00000662  1
  S  S10  1  -0.00000002  0.49999987  0.18005783  1
  S  S11  1  0.49999998  0.00000113  0.31994210  1
  S  S12  1  0.00000139  0.50000258  0.81999189  1
  S  S13  1  0.49999830  0.99999926  0.68000686  1
