# generated using pymatgen
data_NbBRu
_symmetry_space_group_name_H-M   'P 1'
_cell_length_a   3.17466430
_cell_length_b   6.41130917
_cell_length_c   10.96051203
_cell_angle_alpha   90.00000000
_cell_angle_beta   90.00000000
_cell_angle_gamma   90.00000000
_symmetry_Int_Tables_number   1
_chemical_formula_structural   NbBRu
_chemical_formula_sum   'Nb6 B6 Ru6'
_cell_volume   223.08756928
_cell_formula_units_Z   6
loop_
 _symmetry_equiv_pos_site_id
 _symmetry_equiv_pos_as_xyz
  1  'x, y, z'
loop_
 _atom_site_type_symbol
 _atom_site_label
 _atom_site_symmetry_multiplicity
 _atom_site_fract_x
 _atom_site_fract_y
 _atom_site_fract_z
 _atom_site_occupancy
  Nb  Nb0  1  -0.00000000  0.27801091  0.95629675  1
  Nb  Nb1  1  0.00000000  0.72198909  0.04370325  1
  Nb  Nb2  1  0.00000000  0.27801091  0.54370325  1
  Nb  Nb3  1  0.00000000  0.72198909  0.45629675  1
  Nb  Nb4  1  -0.00000000  0.35670174  0.25000000  1
  Nb  Nb5  1  -0.00000000  0.64329826  0.75000000  1
  B  B6  1  0.00000000  0.95140345  0.25000000  1
  B  B7  1  -0.00000000  0.04859655  0.75000000  1
  B  B8  1  0.50000000  0.45119894  0.08255306  1
  B  B9  1  0.50000000  0.54880106  0.91744694  1
  B  B10  1  0.50000000  0.45119894  0.41744694  1
  B  B11  1  0.50000000  0.54880106  0.58255306  1
  Ru  Ru12  1  0.50000000  0.07209144  0.12545011  1
  Ru  Ru13  1  0.50000000  0.92790856  0.87454989  1
  Ru  Ru14  1  0.50000000  0.07209144  0.37454989  1
  Ru  Ru15  1  0.50000000  0.92790856  0.62545011  1
  Ru  Ru16  1  0.50000000  0.70385313  0.25000000  1
  Ru  Ru17  1  0.50000000  0.29614687  0.75000000  1
