# generated using pymatgen
data_Sr2NiClO3
_symmetry_space_group_name_H-M   'P 1'
_cell_length_a   3.90696702
_cell_length_b   3.90696702
_cell_length_c   14.64928176
_cell_angle_alpha   90.00000000
_cell_angle_beta   90.00000000
_cell_angle_gamma   90.00000000
_symmetry_Int_Tables_number   1
_chemical_formula_structural   Sr2NiClO3
_chemical_formula_sum   'Sr4 Ni2 Cl2 O6'
_cell_volume   223.61236898
_cell_formula_units_Z   2
loop_
 _symmetry_equiv_pos_site_id
 _symmetry_equiv_pos_as_xyz
  1  'x, y, z'
loop_
 _atom_site_type_symbol
 _atom_site_label
 _atom_site_symmetry_multiplicity
 _atom_site_fract_x
 _atom_site_fract_y
 _atom_site_fract_z
 _atom_site_occupancy
  Sr  Sr0  1  0.25000000  0.25000000  0.90448821  1
  Sr  Sr1  1  0.75000000  0.75000000  0.09551179  1
  Sr  Sr2  1  0.25000000  0.25000000  0.65921027  1
  Sr  Sr3  1  0.75000000  0.75000000  0.34078973  1
  Ni  Ni4  1  0.75000000  0.75000000  0.79251876  1
  Ni  Ni5  1  0.25000000  0.25000000  0.20748124  1
  Cl  Cl6  1  0.75000000  0.75000000  0.57789511  1
  Cl  Cl7  1  0.25000000  0.25000000  0.42210489  1
  O  O8  1  0.25000000  0.75000000  0.77259389  1
  O  O9  1  0.75000000  0.25000000  0.77259389  1
  O  O10  1  0.75000000  0.25000000  0.22740611  1
  O  O11  1  0.25000000  0.75000000  0.22740611  1
  O  O12  1  0.75000000  0.75000000  0.92591848  1
  O  O13  1  0.25000000  0.25000000  0.07408152  1
