# generated using pymatgen
data_Ho3Ni2
_symmetry_space_group_name_H-M   'P 1'
_cell_length_a   7.15090248
_cell_length_b   7.15090248
_cell_length_c   7.15090214
_cell_angle_alpha   72.63971697
_cell_angle_beta   72.63971697
_cell_angle_gamma   72.63971683
_symmetry_Int_Tables_number   1
_chemical_formula_structural   Ho3Ni2
_chemical_formula_sum   'Ho9 Ni6'
_cell_volume   324.19371317
_cell_formula_units_Z   3
loop_
 _symmetry_equiv_pos_site_id
 _symmetry_equiv_pos_as_xyz
  1  'x, y, z'
loop_
 _atom_site_type_symbol
 _atom_site_label
 _atom_site_symmetry_multiplicity
 _atom_site_fract_x
 _atom_site_fract_y
 _atom_site_fract_z
 _atom_site_occupancy
  Ho  Ho0  1  -0.00000000  -0.00000000  -0.00000000  1
  Ho  Ho1  1  0.79261407  0.79261407  0.79261407  1
  Ho  Ho2  1  0.20738593  0.20738593  0.20738593  1
  Ho  Ho3  1  0.61229309  0.33703436  0.82891811  1
  Ho  Ho4  1  0.33703436  0.82891811  0.61229309  1
  Ho  Ho5  1  0.82891811  0.61229309  0.33703436  1
  Ho  Ho6  1  0.38770691  0.66296564  0.17108189  1
  Ho  Ho7  1  0.66296564  0.17108189  0.38770691  1
  Ho  Ho8  1  0.17108189  0.38770691  0.66296564  1
  Ni  Ni9  1  0.95929877  0.14270430  0.58640124  1
  Ni  Ni10  1  0.14270430  0.58640124  0.95929877  1
  Ni  Ni11  1  0.58640124  0.95929877  0.14270430  1
  Ni  Ni12  1  0.04070123  0.85729570  0.41359876  1
  Ni  Ni13  1  0.85729570  0.41359876  0.04070123  1
  Ni  Ni14  1  0.41359876  0.04070123  0.85729570  1
