# generated using pymatgen
data_NiSb3
_symmetry_space_group_name_H-M   'P 1'
_cell_length_a   8.01286558
_cell_length_b   8.01286558
_cell_length_c   8.01286558
_cell_angle_alpha   109.47122063
_cell_angle_beta   109.47122063
_cell_angle_gamma   109.47122063
_symmetry_Int_Tables_number   1
_chemical_formula_structural   NiSb3
_chemical_formula_sum   'Ni4 Sb12'
_cell_volume   396.04239778
_cell_formula_units_Z   4
loop_
 _symmetry_equiv_pos_site_id
 _symmetry_equiv_pos_as_xyz
  1  'x, y, z'
loop_
 _atom_site_type_symbol
 _atom_site_label
 _atom_site_symmetry_multiplicity
 _atom_site_fract_x
 _atom_site_fract_y
 _atom_site_fract_z
 _atom_site_occupancy
  Ni  Ni0  1  -0.00000000  -0.00000000  0.50000000  1
  Ni  Ni1  1  0.50000000  -0.00000000  -0.00000000  1
  Ni  Ni2  1  -0.00000000  0.50000000  -0.00000000  1
  Ni  Ni3  1  0.50000000  0.50000000  0.50000000  1
  Sb  Sb4  1  0.15963252  0.82155983  0.66192732  1
  Sb  Sb5  1  0.84036748  0.17844017  0.33807268  1
  Sb  Sb6  1  0.84036748  0.50229480  0.66192732  1
  Sb  Sb7  1  0.15963252  0.49770520  0.33807268  1
  Sb  Sb8  1  0.82155983  0.66192732  0.15963252  1
  Sb  Sb9  1  0.17844017  0.33807268  0.84036748  1
  Sb  Sb10  1  0.50229480  0.66192732  0.84036748  1
  Sb  Sb11  1  0.49770520  0.33807268  0.15963252  1
  Sb  Sb12  1  0.66192732  0.15963252  0.82155983  1
  Sb  Sb13  1  0.33807268  0.84036748  0.17844017  1
  Sb  Sb14  1  0.66192732  0.84036748  0.50229480  1
  Sb  Sb15  1  0.33807268  0.15963252  0.49770520  1
