# generated using pymatgen
data_Pr9Ga4
_symmetry_space_group_name_H-M   'P 1'
_cell_length_a   5.24386404
_cell_length_b   9.00219847
_cell_length_c   9.00219847
_cell_angle_alpha   85.13379502
_cell_angle_beta   73.06691926
_cell_angle_gamma   73.06691926
_symmetry_Int_Tables_number   1
_chemical_formula_structural   Pr9Ga4
_chemical_formula_sum   'Pr9 Ga4'
_cell_volume   388.91145083
_cell_formula_units_Z   1
loop_
 _symmetry_equiv_pos_site_id
 _symmetry_equiv_pos_as_xyz
  1  'x, y, z'
loop_
 _atom_site_type_symbol
 _atom_site_label
 _atom_site_symmetry_multiplicity
 _atom_site_fract_x
 _atom_site_fract_y
 _atom_site_fract_z
 _atom_site_occupancy
  Pr  Pr0  1  0.50000000  -0.00000000  0.00000000  1
  Pr  Pr1  1  0.59627752  0.52908721  0.27835774  1
  Pr  Pr2  1  0.40372248  0.47091279  0.72164226  1
  Pr  Pr3  1  0.12536473  0.27835774  0.47091279  1
  Pr  Pr4  1  0.87463527  0.72164226  0.52908721  1
  Pr  Pr5  1  0.88998008  0.29502425  0.92501560  1
  Pr  Pr6  1  0.11001992  0.70497575  0.07498440  1
  Pr  Pr7  1  0.18500433  0.92501560  0.70497575  1
  Pr  Pr8  1  0.81499567  0.07498440  0.29502425  1
  Ga  Ga9  1  0.73328073  0.65388176  0.87955678  1
  Ga  Ga10  1  0.26671927  0.34611824  0.12044322  1
  Ga  Ga11  1  0.38716249  0.87955678  0.34611824  1
  Ga  Ga12  1  0.61283751  0.12044322  0.65388176  1
