# generated using pymatgen
data_PrAl
_symmetry_space_group_name_H-M   'P 1'
_cell_length_a   5.81625463
_cell_length_b   6.03047920
_cell_length_c   11.84445616
_cell_angle_alpha   90.00000000
_cell_angle_beta   90.00000000
_cell_angle_gamma   90.00000000
_symmetry_Int_Tables_number   1
_chemical_formula_structural   PrAl
_chemical_formula_sum   'Pr8 Al8'
_cell_volume   415.44196134
_cell_formula_units_Z   8
loop_
 _symmetry_equiv_pos_site_id
 _symmetry_equiv_pos_as_xyz
  1  'x, y, z'
loop_
 _atom_site_type_symbol
 _atom_site_label
 _atom_site_symmetry_multiplicity
 _atom_site_fract_x
 _atom_site_fract_y
 _atom_site_fract_z
 _atom_site_occupancy
  Pr  Pr0  1  0.75000000  0.16561111  0.48809157  1
  Pr  Pr1  1  0.25000000  0.83438889  0.51190843  1
  Pr  Pr2  1  0.25000000  0.16561111  0.01190843  1
  Pr  Pr3  1  0.75000000  0.83438889  0.98809157  1
  Pr  Pr4  1  0.75000000  0.40386318  0.16535214  1
  Pr  Pr5  1  0.25000000  0.59613682  0.83464786  1
  Pr  Pr6  1  0.25000000  0.40386318  0.33464786  1
  Pr  Pr7  1  0.75000000  0.59613682  0.66535214  1
  Al  Al8  1  0.50000000  0.92723313  0.25000000  1
  Al  Al9  1  0.00000000  0.07276687  0.75000000  1
  Al  Al10  1  0.50000000  0.07276687  0.75000000  1
  Al  Al11  1  -0.00000000  0.92723313  0.25000000  1
  Al  Al12  1  0.75000000  0.66760027  0.39727385  1
  Al  Al13  1  0.25000000  0.33239973  0.60272615  1
  Al  Al14  1  0.25000000  0.66760027  0.10272615  1
  Al  Al15  1  0.75000000  0.33239973  0.89727385  1
