# generated using pymatgen
data_InAgSe2
_symmetry_space_group_name_H-M   'P 1'
_cell_length_a   8.01675566
_cell_length_b   10.67807970
_cell_length_c   7.04314658
_cell_angle_alpha   29.10497069
_cell_angle_beta   55.27945716
_cell_angle_gamma   41.23743664
_symmetry_Int_Tables_number   1
_chemical_formula_structural   InAgSe2
_chemical_formula_sum   'In2 Ag2 Se4'
_cell_volume   185.98519750
_cell_formula_units_Z   2
loop_
 _symmetry_equiv_pos_site_id
 _symmetry_equiv_pos_as_xyz
  1  'x, y, z'
loop_
 _atom_site_type_symbol
 _atom_site_label
 _atom_site_symmetry_multiplicity
 _atom_site_fract_x
 _atom_site_fract_y
 _atom_site_fract_z
 _atom_site_occupancy
  Ag  Ag0  1  0.25063585  0.50013235  0.99831876  1
  Ag  Ag1  1  0.49936415  0.99986765  0.00168124  1
  In  In2  1  0.00031555  0.00000824  0.99943102  1
  In  In3  1  0.74968445  0.49999176  0.00056898  1
  Se  Se4  1  0.24137579  0.00007008  0.51714472  1
  Se  Se5  1  0.99086605  0.49987192  0.51873720  1
  Se  Se6  1  0.75913395  0.00012808  0.48126280  1
  Se  Se7  1  0.50862421  0.49992992  0.48285528  1
