# generated using pymatgen
data_YbAl3(BO3)4
_symmetry_space_group_name_H-M   'P 1'
_cell_length_a   5.92428573
_cell_length_b   5.92428572
_cell_length_c   5.92428572
_cell_angle_alpha   103.94222580
_cell_angle_beta   103.94222577
_cell_angle_gamma   103.94222585
_symmetry_Int_Tables_number   1
_chemical_formula_structural   YbAl3(BO3)4
_chemical_formula_sum   'Yb1 Al3 B4 O12'
_cell_volume   185.72582773
_cell_formula_units_Z   1
loop_
 _symmetry_equiv_pos_site_id
 _symmetry_equiv_pos_as_xyz
  1  'x, y, z'
loop_
 _atom_site_type_symbol
 _atom_site_label
 _atom_site_symmetry_multiplicity
 _atom_site_fract_x
 _atom_site_fract_y
 _atom_site_fract_z
 _atom_site_occupancy
  B  B0  1  0.94143156  0.50000000  0.05856844  1
  B  B1  1  0.50000000  0.05856844  0.94143156  1
  B  B2  1  0.05856844  0.94143156  0.50000000  1
  B  B3  1  0.50000000  0.50000000  0.50000000  1
  O  O4  1  0.64816430  0.35183570  0.50000000  1
  O  O5  1  0.50000000  0.90925909  0.09074091  1
  O  O6  1  0.09074091  0.50000000  0.90925909  1
  O  O7  1  0.90925909  0.09074091  0.50000000  1
  O  O8  1  0.02890453  0.77389371  0.62319258  1
  O  O9  1  0.62319258  0.02890453  0.77389371  1
  O  O10  1  0.77389371  0.62319258  0.02890453  1
  O  O11  1  0.22610629  0.97109547  0.37680742  1
  O  O12  1  0.37680742  0.22610629  0.97109547  1
  O  O13  1  0.97109547  0.37680742  0.22610629  1
  O  O14  1  0.50000000  0.64816430  0.35183570  1
  O  O15  1  0.35183570  0.50000000  0.64816430  1
  Al  Al16  1  0.55692491  0.00000000  0.44307509  1
  Al  Al17  1  0.00000000  0.44307509  0.55692491  1
  Al  Al18  1  0.44307509  0.55692491  0.00000000  1
  Yb  Yb19  1  0.00000000  0.00000000  0.00000000  1
