# generated using pymatgen
data_Ho2Sb5
_symmetry_space_group_name_H-M   'P 1'
_cell_length_a   4.22632885
_cell_length_b   13.16906581
_cell_length_c   14.64216472
_cell_angle_alpha   102.05661305
_cell_angle_beta   90.00000000
_cell_angle_gamma   90.00000000
_symmetry_Int_Tables_number   1
_chemical_formula_structural   Ho2Sb5
_chemical_formula_sum   'Ho8 Sb20'
_cell_volume   796.95996026
_cell_formula_units_Z   4
loop_
 _symmetry_equiv_pos_site_id
 _symmetry_equiv_pos_as_xyz
  1  'x, y, z'
loop_
 _atom_site_type_symbol
 _atom_site_label
 _atom_site_symmetry_multiplicity
 _atom_site_fract_x
 _atom_site_fract_y
 _atom_site_fract_z
 _atom_site_occupancy
  Sb  Sb0  1  0.25000000  0.85822428  0.77924648  1
  Sb  Sb1  1  0.75000000  0.14177572  0.22075352  1
  Sb  Sb2  1  0.25000000  0.85665968  0.48217131  1
  Sb  Sb3  1  0.75000000  0.14334032  0.51782869  1
  Sb  Sb4  1  0.25000000  0.84759283  0.17168335  1
  Sb  Sb5  1  0.75000000  0.15240717  0.82831665  1
  Sb  Sb6  1  0.25000000  0.58018435  0.97526976  1
  Sb  Sb7  1  0.75000000  0.41981565  0.02473024  1
  Sb  Sb8  1  0.75000000  0.96968221  0.90829140  1
  Sb  Sb9  1  0.25000000  0.03031779  0.09170860  1
  Sb  Sb10  1  0.75000000  0.86159937  0.32229341  1
  Sb  Sb11  1  0.25000000  0.13840063  0.67770659  1
  Sb  Sb12  1  0.75000000  0.72144323  0.93765943  1
  Sb  Sb13  1  0.25000000  0.27855677  0.06234057  1
  Sb  Sb14  1  0.75000000  0.71557655  0.65331529  1
  Sb  Sb15  1  0.25000000  0.28442345  0.34668471  1
  Sb  Sb16  1  0.75000000  0.42452630  0.73445130  1
  Sb  Sb17  1  0.25000000  0.57547370  0.26554870  1
  Sb  Sb18  1  0.75000000  0.42559332  0.44932702  1
  Sb  Sb19  1  0.25000000  0.57440668  0.55067298  1
  Ho  Ho20  1  0.25000000  0.60666520  0.77023013  1
  Ho  Ho21  1  0.75000000  0.39333480  0.22976987  1
  Ho  Ho22  1  0.25000000  0.33783675  0.85501413  1
  Ho  Ho23  1  0.75000000  0.66216325  0.14498587  1
  Ho  Ho24  1  0.25000000  0.33086104  0.57766052  1
  Ho  Ho25  1  0.75000000  0.66913896  0.42233948  1
  Ho  Ho26  1  0.25000000  0.04706918  0.36154050  1
  Ho  Ho27  1  0.75000000  0.95293082  0.63845950  1
