# generated using pymatgen
data_Li6Zn3(PS4)4
_symmetry_space_group_name_H-M   'P 1'
_cell_length_a   9.28960218
_cell_length_b   11.59157589
_cell_length_c   11.59637556
_cell_angle_alpha   89.92715884
_cell_angle_beta   90.00000000
_cell_angle_gamma   90.00000000
_symmetry_Int_Tables_number   1
_chemical_formula_structural   Li6Zn3(PS4)4
_chemical_formula_sum   'Li12 Zn6 P8 S32'
_cell_volume   1248.70980000
_cell_formula_units_Z   2
loop_
 _symmetry_equiv_pos_site_id
 _symmetry_equiv_pos_as_xyz
  1  'x, y, z'
loop_
 _atom_site_type_symbol
 _atom_site_label
 _atom_site_symmetry_multiplicity
 _atom_site_fract_x
 _atom_site_fract_y
 _atom_site_fract_z
 _atom_site_occupancy
  Li  Li0  1  0.24857515  0.74725167  0.99487239  1
  Li  Li1  1  0.74857515  0.50274833  0.75512761  1
  Li  Li2  1  0.49953824  0.00158298  0.99933724  1
  Li  Li3  1  0.50158342  0.99885995  0.50156101  1
  Li  Li4  1  0.50137248  0.49835598  0.00158404  1
  Li  Li5  1  0.49742535  0.50184271  0.49780182  1
  Li  Li6  1  0.00158342  0.25114005  0.24843899  1
  Li  Li7  1  0.99953824  0.24841702  0.75066276  1
  Li  Li8  1  0.99742535  0.74815729  0.25219818  1
  Li  Li9  1  0.00137248  0.75164402  0.74841596  1
  Li  Li10  1  0.99968211  0.49840366  0.00221637  1
  Li  Li11  1  0.49968211  0.75159634  0.74778363  1
  Zn  Zn12  1  0.99342110  0.00154510  0.99728375  1
  Zn  Zn13  1  0.99997874  0.99850913  0.50095730  1
  Zn  Zn14  1  0.00605238  0.49959302  0.49855787  1
  Zn  Zn15  1  0.49997874  0.25149087  0.24904270  1
  Zn  Zn16  1  0.49342110  0.24845490  0.75271625  1
  Zn  Zn17  1  0.50605238  0.75040698  0.25144213  1
  P  P18  1  0.25263433  0.99924381  0.25017170  1
  P  P19  1  0.24667186  0.00055640  0.75463943  1
  P  P20  1  0.24760821  0.49606825  0.24993156  1
  P  P21  1  0.25327609  0.50383246  0.74593822  1
  P  P22  1  0.74667186  0.24944360  0.99536057  1
  P  P23  1  0.75263433  0.25075619  0.49982830  1
  P  P24  1  0.75327609  0.74616754  0.00406178  1
  P  P25  1  0.74760821  0.75393175  0.50006844  1
  S  S26  1  0.13768350  0.39426326  0.14112067  1
  S  S27  1  0.12905170  0.39628867  0.64279662  1
  S  S28  1  0.12995611  0.89622906  0.13875836  1
  S  S29  1  0.13526233  0.89641762  0.64091543  1
  S  S30  1  0.13414126  0.10191949  0.35933605  1
  S  S31  1  0.13095670  0.10697430  0.86244258  1
  S  S32  1  0.13860925  0.60451340  0.36130112  1
  S  S33  1  0.13045464  0.60408661  0.85593072  1
  S  S34  1  0.86281496  0.14057097  0.10173089  1
  S  S35  1  0.86548059  0.13936186  0.60424048  1
  S  S36  1  0.87145053  0.64277928  0.10704775  1
  S  S37  1  0.86907519  0.63915898  0.60299966  1
  S  S38  1  0.86489108  0.36267785  0.39566319  1
  S  S39  1  0.86661735  0.35777585  0.89361146  1
  S  S40  1  0.87094335  0.85880443  0.39547784  1
  S  S41  1  0.86479301  0.85881225  0.89609692  1
  S  S42  1  0.63414126  0.14808151  0.39066395  1
  S  S43  1  0.63095670  0.14302670  0.88755742  1
  S  S44  1  0.63860925  0.64548560  0.38869888  1
  S  S45  1  0.63045464  0.64591239  0.89406928  1
  S  S46  1  0.63526233  0.35358338  0.10908457  1
  S  S47  1  0.62995611  0.35377194  0.61124164  1
  S  S48  1  0.62905170  0.85371233  0.10720338  1
  S  S49  1  0.63768350  0.85573774  0.60887933  1
  S  S50  1  0.37094335  0.39119557  0.35452316  1
  S  S51  1  0.36479301  0.39118775  0.85390408  1
  S  S52  1  0.36489108  0.88732215  0.35433781  1
  S  S53  1  0.36661735  0.89222415  0.85638954  1
  S  S54  1  0.36548059  0.11063814  0.14576052  1
  S  S55  1  0.36281496  0.10942903  0.64826911  1
  S  S56  1  0.36907519  0.61084102  0.14700134  1
  S  S57  1  0.37145053  0.60722072  0.64295225  1
