# generated using pymatgen
data_RbGeBr3
_symmetry_space_group_name_H-M   'P 1'
_cell_length_a   6.24474828
_cell_length_b   7.65949317
_cell_length_c   8.76131689
_cell_angle_alpha   90.00000000
_cell_angle_beta   107.32542122
_cell_angle_gamma   90.00000000
_symmetry_Int_Tables_number   1
_chemical_formula_structural   RbGeBr3
_chemical_formula_sum   'Rb2 Ge2 Br6'
_cell_volume   400.05423826
_cell_formula_units_Z   2
loop_
 _symmetry_equiv_pos_site_id
 _symmetry_equiv_pos_as_xyz
  1  'x, y, z'
loop_
 _atom_site_type_symbol
 _atom_site_label
 _atom_site_symmetry_multiplicity
 _atom_site_fract_x
 _atom_site_fract_y
 _atom_site_fract_z
 _atom_site_occupancy
  Rb  Rb0  1  0.32754462  0.25000000  0.70069931  1
  Rb  Rb1  1  0.67245538  0.75000000  0.29930069  1
  Ge  Ge2  1  0.07175820  0.25000000  0.12581627  1
  Ge  Ge3  1  0.92824180  0.75000000  0.87418373  1
  Br  Br4  1  0.66473183  0.25000000  0.11596323  1
  Br  Br5  1  0.33526817  0.75000000  0.88403677  1
  Br  Br6  1  0.81528688  0.50444260  0.67545479  1
  Br  Br7  1  0.18471312  0.00444260  0.32454521  1
  Br  Br8  1  0.81528688  0.99555740  0.67545479  1
  Br  Br9  1  0.18471312  0.49555740  0.32454521  1
