# generated using pymatgen
data_Li10Zn(PS4)4
_symmetry_space_group_name_H-M   'P 1'
_cell_length_a   7.92156959
_cell_length_b   12.39913591
_cell_length_c   12.94749398
_cell_angle_alpha   90.03221324
_cell_angle_beta   89.99999111
_cell_angle_gamma   90.00000000
_symmetry_Int_Tables_number   1
_chemical_formula_structural   Li10Zn(PS4)4
_chemical_formula_sum   'Li20 Zn2 P8 S32'
_cell_volume   1271.71065929
_cell_formula_units_Z   2
loop_
 _symmetry_equiv_pos_site_id
 _symmetry_equiv_pos_as_xyz
  1  'x, y, z'
loop_
 _atom_site_type_symbol
 _atom_site_label
 _atom_site_symmetry_multiplicity
 _atom_site_fract_x
 _atom_site_fract_y
 _atom_site_fract_z
 _atom_site_occupancy
  Li  Li0  1  0.75603268  0.50262390  0.83861882  1
  Li  Li1  1  0.74769305  0.99826954  0.84845983  1
  Li  Li2  1  0.75274399  0.50165302  0.35271495  1
  Li  Li3  1  0.75369934  0.00492673  0.33904682  1
  Li  Li4  1  0.75239491  0.74376194  0.65338905  1
  Li  Li5  1  0.74405699  0.25408010  0.65686389  1
  Li  Li6  1  0.72445994  0.24840018  0.15574765  1
  Li  Li7  1  0.27554006  0.74840018  0.65574765  1
  Li  Li8  1  0.25594301  0.75408010  0.15686389  1
  Li  Li9  1  0.24760509  0.24376194  0.15338905  1
  Li  Li10  1  0.24630066  0.50492673  0.83904682  1
  Li  Li11  1  0.24725601  0.00165302  0.85271495  1
  Li  Li12  1  0.25230695  0.49826954  0.34845983  1
  Li  Li13  1  0.24396732  0.00262390  0.33861882  1
  Li  Li14  1  0.00427974  0.75511396  0.92267503  1
  Li  Li15  1  0.98636414  0.25330561  0.92763090  1
  Li  Li16  1  0.01363586  0.75330561  0.42763090  1
  Li  Li17  1  0.99572026  0.25511396  0.42267503  1
  Li  Li18  1  0.51086071  0.00737602  0.57581161  1
  Li  Li19  1  0.48913929  0.50737602  0.07581161  1
  Zn  Zn20  1  0.74331793  0.75287444  0.15463036  1
  Zn  Zn21  1  0.25668207  0.25287444  0.65463036  1
  P  P22  1  0.00926637  0.50506029  0.59372848  1
  P  P23  1  0.00156031  0.00313491  0.59102153  1
  P  P24  1  0.99843969  0.50313491  0.09102153  1
  P  P25  1  0.99073363  0.00506029  0.09372848  1
  P  P26  1  0.50780997  0.74707976  0.91077001  1
  P  P27  1  0.49856976  0.24906309  0.90583765  1
  P  P28  1  0.50143024  0.74906309  0.40583765  1
  P  P29  1  0.49219003  0.24707976  0.41077001  1
  S  S30  1  0.99955260  0.55512443  0.94085428  1
  S  S31  1  0.99374206  0.05309569  0.94070639  1
  S  S32  1  0.00625794  0.55309569  0.44070639  1
  S  S33  1  0.00044740  0.05512443  0.44085428  1
  S  S34  1  0.01298017  0.83764361  0.60123457  1
  S  S35  1  0.00523663  0.33211217  0.59627746  1
  S  S36  1  0.99476337  0.83211217  0.09627746  1
  S  S37  1  0.98701983  0.33764361  0.10123457  1
  S  S38  1  0.78858529  0.54949899  0.65870854  1
  S  S39  1  0.79063256  0.05795623  0.66637947  1
  S  S40  1  0.77843709  0.56005470  0.16486982  1
  S  S41  1  0.77306883  0.05348683  0.15958174  1
  S  S42  1  0.72049365  0.80162104  0.83609579  1
  S  S43  1  0.71236614  0.30838533  0.83575450  1
  S  S44  1  0.72176817  0.80699156  0.33144576  1
  S  S45  1  0.70718524  0.30506365  0.34018158  1
  S  S46  1  0.50345461  0.58152811  0.90495789  1
  S  S47  1  0.49843173  0.08719364  0.90635418  1
  S  S48  1  0.50156827  0.58719364  0.40635418  1
  S  S49  1  0.49654539  0.08152811  0.40495789  1
  S  S50  1  0.51560269  0.81075092  0.55361756  1
  S  S51  1  0.49490279  0.30753062  0.56036090  1
  S  S52  1  0.50509721  0.80753062  0.06036090  1
  S  S53  1  0.48439731  0.31075092  0.05361756  1
  S  S54  1  0.29281376  0.80506365  0.84018158  1
  S  S55  1  0.27823083  0.30699156  0.83144576  1
  S  S56  1  0.28763286  0.80838533  0.33575450  1
  S  S57  1  0.27950535  0.30162104  0.33609579  1
  S  S58  1  0.22693117  0.55348683  0.65958174  1
  S  S59  1  0.22156291  0.06005470  0.66486982  1
  S  S60  1  0.20936744  0.55795623  0.16637947  1
  S  S61  1  0.21141471  0.04949899  0.15870854  1
