# generated using pymatgen
data_NbO2F
_symmetry_space_group_name_H-M   'P 1'
_cell_length_a   5.63179171
_cell_length_b   5.51052299
_cell_length_c   5.63179135
_cell_angle_alpha   59.20714488
_cell_angle_beta   56.34655951
_cell_angle_gamma   59.20714493
_symmetry_Int_Tables_number   1
_chemical_formula_structural   NbO2F
_chemical_formula_sum   'Nb2 O4 F2'
_cell_volume   118.43841327
_cell_formula_units_Z   2
loop_
 _symmetry_equiv_pos_site_id
 _symmetry_equiv_pos_as_xyz
  1  'x, y, z'
loop_
 _atom_site_type_symbol
 _atom_site_label
 _atom_site_symmetry_multiplicity
 _atom_site_fract_x
 _atom_site_fract_y
 _atom_site_fract_z
 _atom_site_occupancy
  F  F0  1  0.15269325  0.75000000  0.34730675  1
  F  F1  1  0.84730675  0.25000000  0.65269325  1
  Nb  Nb2  1  0.00000000  0.00000000  0.00000000  1
  Nb  Nb3  1  0.50000000  0.50000000  0.50000000  1
  O  O4  1  0.32138150  0.17828992  0.76181970  1
  O  O5  1  0.73818030  0.32171008  0.17861850  1
  O  O6  1  0.26181970  0.67828992  0.82138150  1
  O  O7  1  0.67861850  0.82171008  0.23818030  1
