# generated using pymatgen
data_Li10Zn(PS4)4
_symmetry_space_group_name_H-M   'P 1'
_cell_length_a   7.90147639
_cell_length_b   12.41924817
_cell_length_c   12.97211783
_cell_angle_alpha   90.05993547
_cell_angle_beta   89.99999108
_cell_angle_gamma   90.00000000
_symmetry_Int_Tables_number   1
_chemical_formula_structural   Li10Zn(PS4)4
_chemical_formula_sum   'Li20 Zn2 P8 S32'
_cell_volume   1272.95836622
_cell_formula_units_Z   2
loop_
 _symmetry_equiv_pos_site_id
 _symmetry_equiv_pos_as_xyz
  1  'x, y, z'
loop_
 _atom_site_type_symbol
 _atom_site_label
 _atom_site_symmetry_multiplicity
 _atom_site_fract_x
 _atom_site_fract_y
 _atom_site_fract_z
 _atom_site_occupancy
  Li  Li0  1  0.76141629  0.49586871  0.84575239  1
  Li  Li1  1  0.75435828  0.00171243  0.84327743  1
  Li  Li2  1  0.75931820  0.50416580  0.34625806  1
  Li  Li3  1  0.75965016  0.00042359  0.34517978  1
  Li  Li4  1  0.76416366  0.74781322  0.64849878  1
  Li  Li5  1  0.74557198  0.25133608  0.66377704  1
  Li  Li6  1  0.73769041  0.25317017  0.15144936  1
  Li  Li7  1  0.26230959  0.75317017  0.65144936  1
  Li  Li8  1  0.25442802  0.75133608  0.16377704  1
  Li  Li9  1  0.23583634  0.24781322  0.14849878  1
  Li  Li10  1  0.24034984  0.50042359  0.84517978  1
  Li  Li11  1  0.24068180  0.00416580  0.84625806  1
  Li  Li12  1  0.24564172  0.50171243  0.34327743  1
  Li  Li13  1  0.23858371  0.99586871  0.34575239  1
  Li  Li14  1  0.00234083  0.76128708  0.92521839  1
  Li  Li15  1  0.99765917  0.26128708  0.42521839  1
  Li  Li16  1  0.50258737  0.51014753  0.57324520  1
  Li  Li17  1  0.51103139  0.00148349  0.57461233  1
  Li  Li18  1  0.48896861  0.50148349  0.07461233  1
  Li  Li19  1  0.49741263  0.01014753  0.07324520  1
  Zn  Zn20  1  0.74278598  0.75015237  0.16187868  1
  Zn  Zn21  1  0.25721402  0.25015237  0.66187868  1
  P  P22  1  0.00809791  0.50023759  0.59027796  1
  P  P23  1  0.00070460  0.00382445  0.58931533  1
  P  P24  1  0.99929540  0.50382445  0.08931533  1
  P  P25  1  0.99190209  0.00023759  0.09027796  1
  P  P26  1  0.50711900  0.74836471  0.90759920  1
  P  P27  1  0.50151337  0.25072620  0.90438854  1
  P  P28  1  0.49848663  0.75072620  0.40438854  1
  P  P29  1  0.49288100  0.24836471  0.40759920  1
  S  S30  1  0.99898477  0.56439231  0.94200164  1
  S  S31  1  0.99475376  0.05154823  0.94353592  1
  S  S32  1  0.00524624  0.55154823  0.44353592  1
  S  S33  1  0.00101523  0.06439231  0.44200164  1
  S  S34  1  0.01246010  0.84209655  0.59040479  1
  S  S35  1  0.00586826  0.32937171  0.60052540  1
  S  S36  1  0.99413174  0.82937171  0.10052540  1
  S  S37  1  0.98753990  0.34209655  0.09040479  1
  S  S38  1  0.79144029  0.55038200  0.66444604  1
  S  S39  1  0.78753521  0.05821485  0.66434690  1
  S  S40  1  0.77644451  0.55988201  0.16347197  1
  S  S41  1  0.77833922  0.05479304  0.16469568  1
  S  S42  1  0.71995026  0.80420502  0.83509931  1
  S  S43  1  0.71873193  0.30285767  0.84117492  1
  S  S44  1  0.72128266  0.80414327  0.33525742  1
  S  S45  1  0.70849867  0.30690293  0.33926348  1
  S  S46  1  0.50343194  0.58313101  0.90380165  1
  S  S47  1  0.49781898  0.08411414  0.89988862  1
  S  S48  1  0.50218102  0.58411414  0.39988862  1
  S  S49  1  0.49656806  0.08313101  0.40380165  1
  S  S50  1  0.51442013  0.80306577  0.55557168  1
  S  S51  1  0.49572217  0.30494903  0.56146214  1
  S  S52  1  0.50427783  0.80494903  0.06146214  1
  S  S53  1  0.48557987  0.30306577  0.05557168  1
  S  S54  1  0.29150033  0.80690293  0.83926348  1
  S  S55  1  0.27871634  0.30414327  0.83525742  1
  S  S56  1  0.28126707  0.80285767  0.34117492  1
  S  S57  1  0.28004874  0.30420502  0.33509931  1
  S  S58  1  0.22166078  0.55479304  0.66469568  1
  S  S59  1  0.22355549  0.05988201  0.66347197  1
  S  S60  1  0.21246479  0.55821485  0.16434690  1
  S  S61  1  0.20855971  0.05038200  0.16444604  1
