# generated using pymatgen
data_Li10Zn(PS4)4
_symmetry_space_group_name_H-M   'P 1'
_cell_length_a   7.90896106
_cell_length_b   12.33501699
_cell_length_c   12.98753428
_cell_angle_alpha   90.02127344
_cell_angle_beta   89.99999554
_cell_angle_gamma   90.00000000
_symmetry_Int_Tables_number   1
_chemical_formula_structural   Li10Zn(PS4)4
_chemical_formula_sum   'Li20 Zn2 P8 S32'
_cell_volume   1267.02698969
_cell_formula_units_Z   2
loop_
 _symmetry_equiv_pos_site_id
 _symmetry_equiv_pos_as_xyz
  1  'x, y, z'
loop_
 _atom_site_type_symbol
 _atom_site_label
 _atom_site_symmetry_multiplicity
 _atom_site_fract_x
 _atom_site_fract_y
 _atom_site_fract_z
 _atom_site_occupancy
  Li  Li0  1  0.76066686  0.50517542  0.84600782  1
  Li  Li1  1  0.75744523  0.99435631  0.84474230  1
  Li  Li2  1  0.76369012  0.49739379  0.34598391  1
  Li  Li3  1  0.75782596  0.00870896  0.34458884  1
  Li  Li4  1  0.75948693  0.74957525  0.66169883  1
  Li  Li5  1  0.75414766  0.25017101  0.65275264  1
  Li  Li6  1  0.72853700  0.25385319  0.16291013  1
  Li  Li7  1  0.27146300  0.75385319  0.66291013  1
  Li  Li8  1  0.24585134  0.75017101  0.15275264  1
  Li  Li9  1  0.24051307  0.24957525  0.16169883  1
  Li  Li10  1  0.24217404  0.50870896  0.84458884  1
  Li  Li11  1  0.23630988  0.99739379  0.84598391  1
  Li  Li12  1  0.24255477  0.49435631  0.34474230  1
  Li  Li13  1  0.23933314  0.00517542  0.34600782  1
  Li  Li14  1  0.98682382  0.25974692  0.92877513  1
  Li  Li15  1  0.01317618  0.75974692  0.42877513  1
  Li  Li16  1  0.50879508  0.50628691  0.57285959  1
  Li  Li17  1  0.51167711  0.00582495  0.57459168  1
  Li  Li18  1  0.48832289  0.50582495  0.07459168  1
  Li  Li19  1  0.49120492  0.00628691  0.07285959  1
  Zn  Zn20  1  0.74880433  0.75183874  0.15200098  1
  Zn  Zn21  1  0.25119567  0.25183874  0.65200098  1
  P  P22  1  0.01117690  0.50130444  0.59055952  1
  P  P23  1  0.00110086  0.00241588  0.58808276  1
  P  P24  1  0.99889914  0.50241588  0.08808276  1
  P  P25  1  0.98882310  0.00130444  0.09055952  1
  P  P26  1  0.50724261  0.74973618  0.90583873  1
  P  P27  1  0.49666774  0.24881347  0.90514177  1
  P  P28  1  0.50333226  0.74881347  0.40514177  1
  P  P29  1  0.49275739  0.24973618  0.40583873  1
  S  S30  1  0.00053155  0.56096577  0.94387079  1
  S  S31  1  0.99391011  0.06022657  0.94241987  1
  S  S32  1  0.00608989  0.56022657  0.44241987  1
  S  S33  1  0.99946845  0.06096577  0.44387079  1
  S  S34  1  0.01465026  0.83587711  0.60047782  1
  S  S35  1  0.00786402  0.33282128  0.58534693  1
  S  S36  1  0.99213598  0.83282128  0.08534693  1
  S  S37  1  0.98534974  0.33587711  0.10047782  1
  S  S38  1  0.79398204  0.55187237  0.66363894  1
  S  S39  1  0.78966016  0.05467557  0.66637737  1
  S  S40  1  0.77862699  0.55923207  0.16390095  1
  S  S41  1  0.77348259  0.05548700  0.16260345  1
  S  S42  1  0.72579439  0.80013561  0.84199342  1
  S  S43  1  0.70934376  0.30750538  0.83415944  1
  S  S44  1  0.72249205  0.80646702  0.33086954  1
  S  S45  1  0.71227605  0.30346850  0.34439156  1
  S  S46  1  0.50314863  0.58194529  0.90422491  1
  S  S47  1  0.49650804  0.08248463  0.89821243  1
  S  S48  1  0.50349196  0.58248463  0.39821243  1
  S  S49  1  0.49685137  0.08194529  0.40422491  1
  S  S50  1  0.51633187  0.80351964  0.55440379  1
  S  S51  1  0.49779264  0.30286976  0.56224515  1
  S  S52  1  0.50220736  0.80286976  0.06224515  1
  S  S53  1  0.48366813  0.30351964  0.05440379  1
  S  S54  1  0.28772295  0.80346850  0.84439156  1
  S  S55  1  0.27750695  0.30646602  0.83086954  1
  S  S56  1  0.29065524  0.80750538  0.33415944  1
  S  S57  1  0.27420461  0.30013561  0.34199342  1
  S  S58  1  0.22651741  0.55548700  0.66260345  1
  S  S59  1  0.22137301  0.05923207  0.66390095  1
  S  S60  1  0.21033984  0.55467557  0.16637737  1
  S  S61  1  0.20601796  0.05187237  0.16363894  1
