# generated using pymatgen
data_Li9Co7O16
_symmetry_space_group_name_H-M   'P 1'
_cell_length_a   6.40684010
_cell_length_b   6.41974501
_cell_length_c   7.56198606
_cell_angle_alpha   89.03881057
_cell_angle_beta   115.48999432
_cell_angle_gamma   108.37475043
_symmetry_Int_Tables_number   1
_chemical_formula_structural   Li9Co7O16
_chemical_formula_sum   'Li9 Co7 O16'
_cell_volume   263.85900141
_cell_formula_units_Z   1
loop_
 _symmetry_equiv_pos_site_id
 _symmetry_equiv_pos_as_xyz
  1  'x, y, z'
loop_
 _atom_site_type_symbol
 _atom_site_label
 _atom_site_symmetry_multiplicity
 _atom_site_fract_x
 _atom_site_fract_y
 _atom_site_fract_z
 _atom_site_occupancy
  Li  Li0  1  0.87344600  0.06184619  0.31018522  1
  Li  Li1  1  0.88524912  0.56173761  0.81322402  1
  Li  Li2  1  0.12980831  0.94094863  0.69634594  1
  Li  Li3  1  0.12632494  0.43552398  0.18414999  1
  Li  Li4  1  0.37019169  0.80905137  0.05365406  1
  Li  Li5  1  0.37367506  0.31447602  0.56585001  1
  Li  Li6  1  0.62655400  0.68815381  0.43981478  1
  Li  Li7  1  0.61475088  0.18826239  0.93677598  1
  Li  Li8  1  0.25000000  0.37500000  0.87500000  1
  Co  Co9  1  0.00080104  0.00105094  0.99946508  1
  Co  Co10  1  0.49919896  0.74894906  0.75053492  1
  Co  Co11  1  0.00051152  0.49929684  0.50088489  1
  Co  Co12  1  0.25000000  0.87500000  0.37500000  1
  Co  Co13  1  0.49948848  0.25070316  0.24911511  1
  Co  Co14  1  0.74314977  0.62096721  0.12113758  1
  Co  Co15  1  0.75685023  0.12903279  0.62886242  1
  O  O16  1  0.69346590  0.88875908  0.02337195  1
  O  O17  1  0.69720976  0.39234416  0.52558758  1
  O  O18  1  0.94340362  0.76416297  0.39217410  1
  O  O19  1  0.92238467  0.25376294  0.89156915  1
  O  O20  1  0.19244644  0.65447065  0.76428416  1
  O  O21  1  0.19531663  0.14257648  0.27282628  1
  O  O22  1  0.46557590  0.52668486  0.16294771  1
  O  O23  1  0.44793532  0.01834144  0.64532489  1
  O  O24  1  0.03442410  0.22331514  0.58705129  1
  O  O25  1  0.05206468  0.73165956  0.10467511  1
  O  O26  1  0.30755356  0.09552935  0.98571584  1
  O  O27  1  0.30468337  0.60742452  0.47717372  1
  O  O28  1  0.55659638  0.98583803  0.35782690  1
  O  O29  1  0.57761533  0.49623806  0.85843085  1
  O  O30  1  0.80653410  0.86124192  0.72662905  1
  O  O31  1  0.80279024  0.35765684  0.22441342  1
