# generated using pymatgen
data_Na2Cu4H5(SO5)4
_symmetry_space_group_name_H-M   'P 1'
_cell_length_a   11.17354719
_cell_length_b   6.38860146
_cell_length_c   7.74511834
_cell_angle_alpha   87.74603424
_cell_angle_beta   63.30573605
_cell_angle_gamma   53.92804289
_symmetry_Int_Tables_number   1
_chemical_formula_structural   Na2Cu4H5(SO5)4
_chemical_formula_sum   'Na2 Cu4 H5 S4 O20'
_cell_volume   379.33864661
_cell_formula_units_Z   1
loop_
 _symmetry_equiv_pos_site_id
 _symmetry_equiv_pos_as_xyz
  1  'x, y, z'
loop_
 _atom_site_type_symbol
 _atom_site_label
 _atom_site_symmetry_multiplicity
 _atom_site_fract_x
 _atom_site_fract_y
 _atom_site_fract_z
 _atom_site_occupancy
  Na  Na0  1  0.00000000  0.50000000  0.50000000  1
  Na  Na1  1  0.50000000  0.50000000  0.50000000  1
  Cu  Cu2  1  0.25455605  0.99649554  0.99853420  1
  Cu  Cu3  1  0.25108214  0.49643476  0.99697440  1
  Cu  Cu4  1  0.74544395  0.00350446  0.00146580  1
  Cu  Cu5  1  0.74891786  0.50356524  0.00302560  1
  H  H6  1  0.20158794  0.30117262  0.80523836  1
  H  H7  1  0.28380053  0.70864704  0.21563838  1
  H  H8  1  0.50000000  0.50000000  0.00000000  1
  H  H9  1  0.71619947  0.29135296  0.78436162  1
  H  H10  1  0.79841206  0.69882738  0.19476164  1
  S  S11  1  0.40504071  0.08965396  0.30928233  1
  S  S12  1  0.09139184  0.91261960  0.69542225  1
  S  S13  1  0.90860816  0.08738040  0.30457775  1
  S  S14  1  0.59495929  0.91034604  0.69071767  1
  O  O15  1  0.02213183  0.16793020  0.24223058  1
  O  O16  1  0.02168297  0.78113670  0.25069531  1
  O  O17  1  0.30715751  0.19059491  0.20366481  1
  O  O18  1  0.28494972  0.21002428  0.52864892  1
  O  O19  1  0.16526251  0.33374843  0.95072000  1
  O  O20  1  0.34405054  0.65206550  0.06393717  1
  O  O21  1  0.21261184  0.79168465  0.47476688  1
  O  O22  1  0.51781900  0.17365935  0.24563329  1
  O  O23  1  0.19187856  0.80885841  0.79834455  1
  O  O24  1  0.48119285  0.21734377  0.74588224  1
  O  O25  1  0.51880715  0.78265623  0.25411776  1
  O  O26  1  0.80812144  0.19114159  0.20165545  1
  O  O27  1  0.48218100  0.82634065  0.75436671  1
  O  O28  1  0.78738816  0.20831535  0.52523312  1
  O  O29  1  0.65594946  0.34793450  0.93606283  1
  O  O30  1  0.83473749  0.66625157  0.04928000  1
  O  O31  1  0.71505028  0.78997572  0.47135108  1
  O  O32  1  0.69284249  0.80940509  0.79633519  1
  O  O33  1  0.97831703  0.21886330  0.74930469  1
  O  O34  1  0.97786817  0.83206980  0.75776942  1
