# generated using pymatgen
data_Ta2FeO6
_symmetry_space_group_name_H-M   'P 1'
_cell_length_a   4.82003736
_cell_length_b   14.43860284
_cell_length_c   9.32685878
_cell_angle_alpha   90.00000000
_cell_angle_beta   90.00000000
_cell_angle_gamma   89.96686855
_symmetry_Int_Tables_number   1
_chemical_formula_structural   Ta2FeO6
_chemical_formula_sum   'Ta12 Fe6 O36'
_cell_volume   649.09894516
_cell_formula_units_Z   6
loop_
 _symmetry_equiv_pos_site_id
 _symmetry_equiv_pos_as_xyz
  1  'x, y, z'
loop_
 _atom_site_type_symbol
 _atom_site_label
 _atom_site_symmetry_multiplicity
 _atom_site_fract_x
 _atom_site_fract_y
 _atom_site_fract_z
 _atom_site_occupancy
  Ta  Ta0  1  -0.00000000  -0.00000000  0.32916413  1
  Ta  Ta1  1  0.00429599  0.33320277  0.00391291  1
  Ta  Ta2  1  0.99570401  0.66679723  0.00391291  1
  Ta  Ta3  1  0.50487001  0.16861652  0.50400005  1
  Ta  Ta4  1  0.50000000  0.50000000  0.50062709  1
  Ta  Ta5  1  0.49512999  0.83138348  0.50400005  1
  Ta  Ta6  1  0.49580851  0.16496209  0.15566318  1
  Ta  Ta7  1  0.50000000  0.50000000  0.16484953  1
  Ta  Ta8  1  0.50419149  0.83503791  0.15566318  1
  Ta  Ta9  1  0.00302608  0.33435131  0.66532587  1
  Ta  Ta10  1  0.99697392  0.66564869  0.66532587  1
  Ta  Ta11  1  -0.00000000  -0.00000000  0.68368199  1
  Fe  Fe12  1  -0.00000000  -0.00000000  0.99882546  1
  Fe  Fe13  1  0.99336750  0.33095538  0.33411712  1
  Fe  Fe14  1  0.49493731  0.16511979  0.83194217  1
  Fe  Fe15  1  0.50000000  0.50000000  0.83298960  1
  Fe  Fe16  1  0.50506269  0.83488021  0.83194217  1
  Fe  Fe17  1  0.00663250  0.66904462  0.33411712  1
  O  O18  1  0.18962200  0.27131572  0.83371418  1
  O  O19  1  0.18826178  0.60514287  0.83388752  1
  O  O20  1  0.19881096  0.93072848  0.81733159  1
  O  O21  1  0.20645499  0.26552314  0.15507427  1
  O  O22  1  0.20737216  0.59784109  0.15209781  1
  O  O23  1  0.20549528  0.93088138  0.18574154  1
  O  O24  1  0.20479143  0.26400148  0.51471622  1
  O  O25  1  0.20861634  0.59798801  0.51538149  1
  O  O26  1  0.19662883  0.93463001  0.49347448  1
  O  O27  1  0.30588060  0.09734022  0.01627133  1
  O  O28  1  0.29415300  0.43141817  0.01378241  1
  O  O29  1  0.28642962  0.76607884  0.01579525  1
  O  O30  1  0.29721191  0.10186607  0.33317942  1
  O  O31  1  0.29517595  0.09539264  0.64542146  1
  O  O32  1  0.31083758  0.43785300  0.33351376  1
  O  O33  1  0.32475778  0.77009549  0.33679722  1
  O  O34  1  0.29303618  0.43129576  0.65273435  1
  O  O35  1  0.29069426  0.76558779  0.65105551  1
  O  O36  1  0.67524222  0.22990451  0.33679722  1
  O  O37  1  0.70930574  0.23441221  0.65105551  1
  O  O38  1  0.68916242  0.56214700  0.33351376  1
  O  O39  1  0.70696382  0.56870424  0.65273435  1
  O  O40  1  0.70278809  0.89813393  0.33317942  1
  O  O41  1  0.70482405  0.90460736  0.64542146  1
  O  O42  1  0.71357038  0.23392116  0.01579525  1
  O  O43  1  0.70584700  0.56858183  0.01378241  1
  O  O44  1  0.69411940  0.90265978  0.01627133  1
  O  O45  1  0.80337117  0.06536999  0.49347448  1
  O  O46  1  0.79138366  0.40201199  0.51538149  1
  O  O47  1  0.79520857  0.73599852  0.51471622  1
  O  O48  1  0.79450472  0.06911862  0.18574154  1
  O  O49  1  0.79262784  0.40215891  0.15209781  1
  O  O50  1  0.79354501  0.73447686  0.15507427  1
  O  O51  1  0.80118904  0.06927152  0.81733159  1
  O  O52  1  0.81173822  0.39485713  0.83388752  1
  O  O53  1  0.81037800  0.72868428  0.83371418  1
