# generated using pymatgen
data_Na3GdTi2Nb2O12
_symmetry_space_group_name_H-M   'P 1'
_cell_length_a   5.48389802
_cell_length_b   5.60767715
_cell_length_c   15.59572939
_cell_angle_alpha   90.00711576
_cell_angle_beta   90.02069194
_cell_angle_gamma   90.02107073
_symmetry_Int_Tables_number   1
_chemical_formula_structural   Na3GdTi2Nb2O12
_chemical_formula_sum   'Na6 Gd2 Ti4 Nb4 O24'
_cell_volume   479.59870550
_cell_formula_units_Z   2
loop_
 _symmetry_equiv_pos_site_id
 _symmetry_equiv_pos_as_xyz
  1  'x, y, z'
loop_
 _atom_site_type_symbol
 _atom_site_label
 _atom_site_symmetry_multiplicity
 _atom_site_fract_x
 _atom_site_fract_y
 _atom_site_fract_z
 _atom_site_occupancy
  Na  Na0  1  0.00377557  0.97657026  0.37218317  1
  Na  Na1  1  0.00347500  0.97668736  0.87788811  1
  Na  Na2  1  0.49596247  0.47660385  0.87814577  1
  Na  Na3  1  0.49637526  0.47675093  0.37193382  1
  Na  Na4  1  0.50530384  0.52611760  0.62497910  1
  Na  Na5  1  0.99497992  0.02608668  0.62499669  1
  Gd  Gd6  1  0.50855009  0.55434743  0.12507809  1
  Gd  Gd7  1  0.99107961  0.05468782  0.12498691  1
  Ti  Ti8  1  0.00949092  0.52266539  0.99791444  1
  Ti  Ti9  1  0.48974688  0.02238060  0.99774594  1
  Ti  Ti10  1  0.48984816  0.02233926  0.25224270  1
  Ti  Ti11  1  0.00942117  0.52247079  0.25232461  1
  Nb  Nb12  1  0.00116213  0.49727819  0.49794980  1
  Nb  Nb13  1  0.49984360  0.99637261  0.75215975  1
  Nb  Nb14  1  0.50200758  0.99792135  0.49802626  1
  Nb  Nb15  1  0.99831093  0.49677783  0.75215187  1
  O  O16  1  0.08614731  0.46587441  0.12491603  1
  O  O17  1  0.06919184  0.48670158  0.62495977  1
  O  O18  1  0.20899095  0.21250258  0.48025208  1
  O  O19  1  0.20561251  0.19578310  0.26004354  1
  O  O20  1  0.21018664  0.21324025  0.76971315  1
  O  O21  1  0.20557657  0.19577305  0.98985481  1
  O  O22  1  0.28978835  0.71278527  0.48020024  1
  O  O23  1  0.29078178  0.71296303  0.76976271  1
  O  O24  1  0.29460101  0.69578620  0.25993055  1
  O  O25  1  0.29446692  0.69582074  0.99002138  1
  O  O26  1  0.41418952  0.96623645  0.12498719  1
  O  O27  1  0.43085157  0.98664380  0.62499322  1
  O  O28  1  0.56777844  0.01350090  0.87917347  1
  O  O29  1  0.56750580  0.01340291  0.37082488  1
  O  O30  1  0.70967975  0.27383152  0.02959527  1
  O  O31  1  0.70979774  0.27386151  0.22036782  1
  O  O32  1  0.70813984  0.29112609  0.51592539  1
  O  O33  1  0.70899392  0.29129163  0.73395853  1
  O  O34  1  0.79054659  0.77378897  0.02963382  1
  O  O35  1  0.79044771  0.77364529  0.22030716  1
  O  O36  1  0.79076754  0.79087906  0.51597492  1
  O  O37  1  0.79181500  0.79143963  0.73400193  1
  O  O38  1  0.93233610  0.51348407  0.37075323  1
  O  O39  1  0.93247347  0.51358003  0.87914187  1
