# generated using pymatgen
data_Li10Zn(PS4)4
_symmetry_space_group_name_H-M   'P 1'
_cell_length_a   7.91054313
_cell_length_b   12.35572187
_cell_length_c   12.99232618
_cell_angle_alpha   89.84227347
_cell_angle_beta   90.01126164
_cell_angle_gamma   90.16264453
_symmetry_Int_Tables_number   1
_chemical_formula_structural   Li10Zn(PS4)4
_chemical_formula_sum   'Li20 Zn2 P8 S32'
_cell_volume   1269.86612635
_cell_formula_units_Z   2
loop_
 _symmetry_equiv_pos_site_id
 _symmetry_equiv_pos_as_xyz
  1  'x, y, z'
loop_
 _atom_site_type_symbol
 _atom_site_label
 _atom_site_symmetry_multiplicity
 _atom_site_fract_x
 _atom_site_fract_y
 _atom_site_fract_z
 _atom_site_occupancy
  Li  Li0  1  0.76024565  0.50596874  0.84345988  1
  Li  Li1  1  0.75744905  0.99656439  0.84191831  1
  Li  Li2  1  0.76019314  0.50056337  0.34188709  1
  Li  Li3  1  0.74753581  0.00246817  0.35142543  1
  Li  Li4  1  0.75682408  0.75816845  0.65901896  1
  Li  Li5  1  0.73988973  0.24586319  0.65727430  1
  Li  Li6  1  0.72828313  0.25061615  0.15996287  1
  Li  Li7  1  0.27522510  0.76247285  0.65995937  1
  Li  Li8  1  0.24709682  0.74981242  0.15123034  1
  Li  Li9  1  0.24297783  0.24670873  0.15744721  1
  Li  Li10  1  0.24461832  0.50942348  0.84286924  1
  Li  Li11  1  0.23690200  0.99872079  0.84354261  1
  Li  Li12  1  0.24585153  0.49707951  0.34111385  1
  Li  Li13  1  0.24993980  0.99923899  0.35100431  1
  Li  Li14  1  0.98690820  0.25867060  0.92986903  1
  Li  Li15  1  0.01422118  0.75779320  0.42781575  1
  Li  Li16  1  0.99518631  0.25257957  0.42462863  1
  Li  Li17  1  0.50612937  0.51465184  0.56993049  1
  Li  Li18  1  0.48981075  0.50773608  0.07209170  1
  Li  Li19  1  0.49239512  0.00406079  0.07532861  1
  Zn  Zn20  1  0.74934723  0.75178039  0.15168197  1
  Zn  Zn21  1  0.25668682  0.24616461  0.65608837  1
  P  P22  1  0.00902991  0.50355089  0.59048695  1
  P  P23  1  0.00179437  0.00591299  0.59275661  1
  P  P24  1  0.99945720  0.50142154  0.08650323  1
  P  P25  1  0.98977978  0.00095878  0.09311171  1
  P  P26  1  0.50906113  0.75074209  0.90439608  1
  P  P27  1  0.49771303  0.24896038  0.90708577  1
  P  P28  1  0.50338200  0.74604151  0.40506894  1
  P  P29  1  0.49214769  0.24585380  0.41144476  1
  S  S30  1  0.00152908  0.55811200  0.94150678  1
  S  S31  1  0.99414812  0.06033750  0.94494453  1
  S  S32  1  0.00591792  0.55358788  0.43966665  1
  S  S33  1  0.00098364  0.05598886  0.44108528  1
  S  S34  1  0.01561925  0.83879336  0.59858814  1
  S  S35  1  0.00401788  0.33214923  0.59862738  1
  S  S36  1  0.99333245  0.83306201  0.08630700  1
  S  S37  1  0.98627530  0.33483638  0.10195074  1
  S  S38  1  0.79277703  0.55564972  0.66122554  1
  S  S39  1  0.78779337  0.05440791  0.66339272  1
  S  S40  1  0.77944634  0.55866469  0.16109077  1
  S  S41  1  0.77494180  0.05418782  0.16699705  1
  S  S42  1  0.72852116  0.80139601  0.84164207  1
  S  S43  1  0.71063937  0.30777443  0.83581398  1
  S  S44  1  0.72348036  0.80281889  0.32929394  1
  S  S45  1  0.70848215  0.30591083  0.34210144  1
  S  S46  1  0.50467428  0.58291848  0.90201377  1
  S  S47  1  0.49680990  0.08327705  0.90199062  1
  S  S48  1  0.50323119  0.57936412  0.39438828  1
  S  S49  1  0.49659978  0.08363859  0.41988699  1
  S  S50  1  0.51653826  0.80412209  0.54958692  1
  S  S51  1  0.49303861  0.31156320  0.56231446  1
  S  S52  1  0.50355442  0.80173554  0.06130920  1
  S  S53  1  0.48499633  0.30578291  0.05552899  1
  S  S54  1  0.28885996  0.80406965  0.84368827  1
  S  S55  1  0.27952734  0.30687981  0.83221739  1
  S  S56  1  0.29056120  0.80337586  0.33163128  1
  S  S57  1  0.27860274  0.30251455  0.33800167  1
  S  S58  1  0.22355893  0.55896626  0.66096349  1
  S  S59  1  0.22699643  0.05746290  0.66086483  1
  S  S60  1  0.21116038  0.55459631  0.16384179  1
  S  S61  1  0.20729398  0.05103083  0.16713465  1
