# generated using pymatgen
data_Li10Zn(PS4)4
_symmetry_space_group_name_H-M   'P 1'
_cell_length_a   6.18418338
_cell_length_b   10.23461009
_cell_length_c   10.27875081
_cell_angle_alpha   78.84645125
_cell_angle_beta   90.24984306
_cell_angle_gamma   90.07582929
_symmetry_Int_Tables_number   1
_chemical_formula_structural   Li10Zn(PS4)4
_chemical_formula_sum   'Li10 Zn1 P4 S16'
_cell_volume   638.27603759
_cell_formula_units_Z   1
loop_
 _symmetry_equiv_pos_site_id
 _symmetry_equiv_pos_as_xyz
  1  'x, y, z'
loop_
 _atom_site_type_symbol
 _atom_site_label
 _atom_site_symmetry_multiplicity
 _atom_site_fract_x
 _atom_site_fract_y
 _atom_site_fract_z
 _atom_site_occupancy
  Li  Li0  1  0.00553880  0.46404243  0.77928388  1
  Li  Li1  1  0.49513065  0.78686880  0.46661040  1
  Li  Li2  1  0.49818147  0.27944174  0.97135414  1
  Li  Li3  1  0.49314260  0.02045885  0.73342329  1
  Li  Li4  1  0.49810940  0.53748303  0.20551056  1
  Li  Li5  1  0.99579411  0.21864511  0.54462418  1
  Li  Li6  1  0.99573400  0.72993312  0.02757779  1
  Li  Li7  1  0.48902571  0.42924653  0.56945271  1
  Li  Li8  1  0.99475871  0.82936204  0.68501377  1
  Li  Li9  1  0.98749160  0.32466007  0.17607320  1
  Zn  Zn10  1  0.99467036  0.96643278  0.26965033  1
  P  P11  1  0.00342026  0.59293915  0.40032868  1
  P  P12  1  0.00802466  0.09261053  0.91877781  1
  P  P13  1  0.48554753  0.15967937  0.34524043  1
  P  P14  1  0.49812411  0.65279776  0.83528335  1
  S  S15  1  0.89085217  0.44917192  0.55241104  1
  S  S16  1  0.86610114  0.94501650  0.06280404  1
  S  S17  1  0.33474401  0.59967208  0.39610422  1
  S  S18  1  0.33310416  0.08366894  0.92307814  1
  S  S19  1  0.89202078  0.77675236  0.43716151  1
  S  S20  1  0.89530447  0.27409666  0.95016099  1
  S  S21  1  0.37757900  0.98174901  0.30401801  1
  S  S22  1  0.39855074  0.47159240  0.79467480  1
  S  S23  1  0.82779913  0.14613023  0.35234343  1
  S  S24  1  0.83308917  0.65091768  0.84361607  1
  S  S25  1  0.39355098  0.80533922  0.68519634  1
  S  S26  1  0.39092833  0.31088889  0.19572193  1
  S  S27  1  0.39269099  0.19443676  0.52679427  1
  S  S28  1  0.38292236  0.68779539  0.00876633  1
  S  S29  1  0.88737125  0.05526681  0.74074976  1
  S  S30  1  0.89118135  0.55857584  0.22252259  1
