# generated using pymatgen
data_Li10Zn(PS4)4
_symmetry_space_group_name_H-M   'P 1'
_cell_length_a   7.91196521
_cell_length_b   12.37896817
_cell_length_c   13.01576421
_cell_angle_alpha   89.66755370
_cell_angle_beta   89.99999104
_cell_angle_gamma   90.00000000
_symmetry_Int_Tables_number   1
_chemical_formula_structural   Li10Zn(PS4)4
_chemical_formula_sum   'Li20 Zn2 P8 S32'
_cell_volume   1274.76807039
_cell_formula_units_Z   2
loop_
 _symmetry_equiv_pos_site_id
 _symmetry_equiv_pos_as_xyz
  1  'x, y, z'
loop_
 _atom_site_type_symbol
 _atom_site_label
 _atom_site_symmetry_multiplicity
 _atom_site_fract_x
 _atom_site_fract_y
 _atom_site_fract_z
 _atom_site_occupancy
  Li  Li0  1  0.74811576  0.50075580  0.84841481  1
  Li  Li1  1  0.75398874  0.99915399  0.83786932  1
  Li  Li2  1  0.76000015  0.50265985  0.33962455  1
  Li  Li3  1  0.74726287  0.00306797  0.34982355  1
  Li  Li4  1  0.75429404  0.75374658  0.65428209  1
  Li  Li5  1  0.73952017  0.24635143  0.65552014  1
  Li  Li6  1  0.72447986  0.25830332  0.15766884  1
  Li  Li7  1  0.27552014  0.75830332  0.65766884  1
  Li  Li8  1  0.26047983  0.74635143  0.15552014  1
  Li  Li9  1  0.24570596  0.25374658  0.15428209  1
  Li  Li10  1  0.25273713  0.50306797  0.84982355  1
  Li  Li11  1  0.23999985  0.00265985  0.83962455  1
  Li  Li12  1  0.24601126  0.49915399  0.33786932  1
  Li  Li13  1  0.25188424  0.00075580  0.34841481  1
  Li  Li14  1  0.00434565  0.75219188  0.92314685  1
  Li  Li15  1  0.98542788  0.25807392  0.92841100  1
  Li  Li16  1  0.01457212  0.75807392  0.42841100  1
  Li  Li17  1  0.99565435  0.25219188  0.42314685  1
  Li  Li18  1  0.50391813  0.51296292  0.57302896  1
  Li  Li19  1  0.49608187  0.01296292  0.07302896  1
  Zn  Zn20  1  0.74333484  0.74579790  0.15536689  1
  Zn  Zn21  1  0.25666516  0.24579790  0.65536689  1
  P  P22  1  0.00816418  0.50322275  0.59268785  1
  P  P23  1  0.00171240  0.00512362  0.59159389  1
  P  P24  1  0.99828760  0.50512362  0.09159389  1
  P  P25  1  0.99183582  0.00322275  0.09268785  1
  P  P26  1  0.50778223  0.74644829  0.90992618  1
  P  P27  1  0.49769879  0.24673473  0.90722919  1
  P  P28  1  0.50230121  0.74673473  0.40722919  1
  P  P29  1  0.49221777  0.24644829  0.40992618  1
  S  S30  1  0.99852798  0.55372177  0.93988861  1
  S  S31  1  0.99375110  0.05441305  0.94257680  1
  S  S32  1  0.00624890  0.55441305  0.44257680  1
  S  S33  1  0.00147202  0.05372177  0.43988861  1
  S  S34  1  0.01481365  0.83814202  0.60053228  1
  S  S35  1  0.00366735  0.33189956  0.59789185  1
  S  S36  1  0.99633265  0.83189956  0.09789185  1
  S  S37  1  0.98518635  0.33814202  0.10053228  1
  S  S38  1  0.79174850  0.55381853  0.66404887  1
  S  S39  1  0.78839541  0.05433293  0.66023310  1
  S  S40  1  0.77216982  0.55635065  0.15767528  1
  S  S41  1  0.77865806  0.05694239  0.16520422  1
  S  S42  1  0.72148927  0.80298153  0.83732322  1
  S  S43  1  0.70950472  0.30417699  0.83342345  1
  S  S44  1  0.72220582  0.80305426  0.33083801  1
  S  S45  1  0.70878046  0.30646502  0.34202090  1
  S  S46  1  0.50283536  0.58503609  0.91884699  1
  S  S47  1  0.49742281  0.08086404  0.89826584  1
  S  S48  1  0.50257719  0.58086404  0.39826584  1
  S  S49  1  0.49716464  0.08503609  0.41884699  1
  S  S50  1  0.51509053  0.80702721  0.54988650  1
  S  S51  1  0.49221110  0.31094002  0.56107899  1
  S  S52  1  0.50778890  0.81094002  0.06107899  1
  S  S53  1  0.48490947  0.30702721  0.04988650  1
  S  S54  1  0.29121854  0.80646502  0.84202090  1
  S  S55  1  0.27779318  0.30305426  0.83083801  1
  S  S56  1  0.29049428  0.80417699  0.33342345  1
  S  S57  1  0.27850973  0.30298153  0.33732322  1
  S  S58  1  0.22134194  0.55694239  0.66520422  1
  S  S59  1  0.22783018  0.05634965  0.65767528  1
  S  S60  1  0.21160459  0.55433293  0.16023310  1
  S  S61  1  0.20825150  0.05381853  0.16404887  1
