# generated using pymatgen
data_Li9Co7O16
_symmetry_space_group_name_H-M   'P 1'
_cell_length_a   5.68867100
_cell_length_b   6.41409705
_cell_length_c   7.55193981
_cell_angle_alpha   88.97583458
_cell_angle_beta   79.02254729
_cell_angle_gamma   77.13564706
_symmetry_Int_Tables_number   1
_chemical_formula_structural   Li9Co7O16
_chemical_formula_sum   'Li9 Co7 O16'
_cell_volume   263.63438090
_cell_formula_units_Z   1
loop_
 _symmetry_equiv_pos_site_id
 _symmetry_equiv_pos_as_xyz
  1  'x, y, z'
loop_
 _atom_site_type_symbol
 _atom_site_label
 _atom_site_symmetry_multiplicity
 _atom_site_fract_x
 _atom_site_fract_y
 _atom_site_fract_z
 _atom_site_occupancy
  Li  Li0  1  0.87110751  0.12104571  0.37201778  1
  Li  Li1  1  0.87491799  0.62649458  0.88019376  1
  Li  Li2  1  0.12744100  0.87205653  0.62436335  1
  Li  Li3  1  0.11607296  0.38262997  0.12880200  1
  Li  Li4  1  0.37255900  0.62794347  0.87563665  1
  Li  Li5  1  0.38392704  0.11737003  0.37119800  1
  Li  Li6  1  0.62889249  0.37895429  0.12798222  1
  Li  Li7  1  0.62508201  0.87350542  0.61980624  1
  Li  Li8  1  0.75000000  0.75000000  0.25000000  1
  Co  Co9  1  0.99729261  0.99926359  0.00301734  1
  Co  Co10  1  0.25000000  0.75000000  0.25000000  1
  Co  Co11  1  0.99820020  0.50108789  0.49726485  1
  Co  Co12  1  0.25000000  0.25000000  0.75000000  1
  Co  Co13  1  0.50270739  0.50073641  0.49698266  1
  Co  Co14  1  0.50179980  0.99891211  0.00273515  1
  Co  Co15  1  0.75000000  0.25000000  0.75000000  1
  O  O16  1  0.69143653  0.06020384  0.16659961  1
  O  O17  1  0.69478560  0.54463335  0.67275029  1
  O  O18  1  0.96097502  0.79298758  0.42993358  1
  O  O19  1  0.94489038  0.29461863  0.92419610  1
  O  O20  1  0.19516896  0.54270419  0.67348528  1
  O  O21  1  0.19479070  0.04375596  0.17591375  1
  O  O22  1  0.44490825  0.29213086  0.92336232  1
  O  O23  1  0.42804502  0.79281791  0.42863778  1
  O  O24  1  0.05509175  0.20786914  0.57663768  1
  O  O25  1  0.07195498  0.70718209  0.07136222  1
  O  O26  1  0.30483104  0.95729581  0.82651472  1
  O  O27  1  0.30520930  0.45624404  0.32408625  1
  O  O28  1  0.53902498  0.70701242  0.07006642  1
  O  O29  1  0.55510962  0.20538137  0.57580390  1
  O  O30  1  0.80856347  0.43979616  0.33340039  1
  O  O31  1  0.80521440  0.95536665  0.82724971  1
