# generated using pymatgen
data_Li2TiV3O8
_symmetry_space_group_name_H-M   'P 1'
_cell_length_a   8.46239477
_cell_length_b   8.44736116
_cell_length_c   8.48189263
_cell_angle_alpha   89.99898153
_cell_angle_beta   90.00078537
_cell_angle_gamma   90.00751982
_symmetry_Int_Tables_number   1
_chemical_formula_structural   Li2TiV3O8
_chemical_formula_sum   'Li8 Ti4 V12 O32'
_cell_volume   606.32728248
_cell_formula_units_Z   4
loop_
 _symmetry_equiv_pos_site_id
 _symmetry_equiv_pos_as_xyz
  1  'x, y, z'
loop_
 _atom_site_type_symbol
 _atom_site_label
 _atom_site_symmetry_multiplicity
 _atom_site_fract_x
 _atom_site_fract_y
 _atom_site_fract_z
 _atom_site_occupancy
  Li  Li0  1  0.00111450  0.00024356  0.99864086  1
  Li  Li1  1  0.24659297  0.24845707  0.25093769  1
  Li  Li2  1  0.25341160  0.75157921  0.75087748  1
  Li  Li3  1  0.49879395  0.99972180  0.49863457  1
  Li  Li4  1  0.50143509  0.49966685  0.00117414  1
  Li  Li5  1  0.74694019  0.25146372  0.74917301  1
  Li  Li6  1  0.75302047  0.74860613  0.24910553  1
  Li  Li7  1  0.99870128  0.50031347  0.50121129  1
  Ti  Ti8  1  0.12330742  0.86990308  0.37410933  1
  Ti  Ti9  1  0.37660296  0.13000727  0.87404200  1
  Ti  Ti10  1  0.62401397  0.63040868  0.62443575  1
  Ti  Ti11  1  0.87604249  0.36958822  0.12449414  1
  V  V12  1  0.12372338  0.12268609  0.62468532  1
  V  V13  1  0.12119930  0.37473384  0.87442958  1
  V  V14  1  0.12454179  0.62764198  0.12391054  1
  V  V15  1  0.37544512  0.37242167  0.62391403  1
  V  V16  1  0.37882906  0.62527578  0.37444815  1
  V  V17  1  0.37619551  0.87742611  0.12479203  1
  V  V18  1  0.62389765  0.37685973  0.37479774  1
  V  V19  1  0.62157962  0.12437989  0.12595581  1
  V  V20  1  0.62560291  0.87299227  0.87646191  1
  V  V21  1  0.87434421  0.12696638  0.37640875  1
  V  V22  1  0.87849526  0.87554269  0.62599244  1
  V  V23  1  0.87611159  0.62311657  0.87483201  1
  O  O24  1  0.11351579  0.11295424  0.39060470  1
  O  O25  1  0.12522344  0.89219113  0.61002451  1
  O  O26  1  0.10552343  0.61572477  0.88097493  1
  O  O27  1  0.13710314  0.13437636  0.86057834  1
  O  O28  1  0.10618539  0.38443278  0.11430812  1
  O  O29  1  0.13488368  0.35523033  0.63418345  1
  O  O30  1  0.13432305  0.64217171  0.36610672  1
  O  O31  1  0.14119736  0.87192637  0.14122651  1
  O  O32  1  0.35863670  0.12810513  0.64112683  1
  O  O33  1  0.36572682  0.35776896  0.86610182  1
  O  O34  1  0.36514703  0.64500534  0.13414960  1
  O  O35  1  0.39386324  0.61559684  0.61431828  1
  O  O36  1  0.36287759  0.86564849  0.36064303  1
  O  O37  1  0.39445825  0.38431322  0.38093791  1
  O  O38  1  0.37478328  0.10776253  0.11007661  1
  O  O39  1  0.38644637  0.88708935  0.89065099  1
  O  O40  1  0.61400829  0.38706139  0.60934732  1
  O  O41  1  0.62466046  0.60997612  0.39098193  1
  O  O42  1  0.60752054  0.88455014  0.11810595  1
  O  O43  1  0.63692124  0.36522769  0.13930533  1
  O  O44  1  0.60591131  0.11673074  0.88607129  1
  O  O45  1  0.63465517  0.14288065  0.36530144  1
  O  O46  1  0.63354709  0.85764710  0.63455389  1
  O  O47  1  0.64371298  0.62770853  0.85962945  1
  O  O48  1  0.85631598  0.37226879  0.35963355  1
  O  O49  1  0.86649571  0.14231991  0.13454582  1
  O  O50  1  0.86531630  0.85711175  0.86529703  1
  O  O51  1  0.89404318  0.88321694  0.38610400  1
  O  O52  1  0.86310773  0.63473890  0.63932591  1
  O  O53  1  0.89257976  0.11549727  0.61807654  1
  O  O54  1  0.87536873  0.39000467  0.89100474  1
  O  O55  1  0.88599968  0.61289983  0.10937738  1
