# generated using pymatgen
data_Li4V3CrO8
_symmetry_space_group_name_H-M   'P 1'
_cell_length_a   10.32773700
_cell_length_b   10.32209866
_cell_length_c   14.59578804
_cell_angle_alpha   19.58047124
_cell_angle_beta   19.57694794
_cell_angle_gamma   33.74335062
_symmetry_Int_Tables_number   1
_chemical_formula_structural   Li4V3CrO8
_chemical_formula_sum   'Li4 V3 Cr1 O8'
_cell_volume   151.29199937
_cell_formula_units_Z   1
loop_
 _symmetry_equiv_pos_site_id
 _symmetry_equiv_pos_as_xyz
  1  'x, y, z'
loop_
 _atom_site_type_symbol
 _atom_site_label
 _atom_site_symmetry_multiplicity
 _atom_site_fract_x
 _atom_site_fract_y
 _atom_site_fract_z
 _atom_site_occupancy
  Li  Li0  1  0.00001133  0.00001862  0.49998236  1
  Li  Li1  1  0.00000540  0.50000786  0.49999112  1
  Li  Li2  1  0.50000025  -0.00000425  0.50000530  1
  Li  Li3  1  0.50001831  0.50000831  0.49998566  1
  V  V4  1  0.00002962  0.50001435  -0.00002527  1
  V  V5  1  0.50006242  0.00009501  -0.00010540  1
  V  V6  1  0.49996100  0.50002714  0.00000565  1
  Cr  Cr7  1  -0.00020041  -0.00029018  0.00030264  1
  O  O8  1  0.00078698  0.00076960  0.25648579  1
  O  O9  1  0.00593204  0.50728864  0.24871585  1
  O  O10  1  0.50217957  0.99393375  0.26022848  1
  O  O11  1  -0.00076641  0.99923330  0.74350068  1
  O  O12  1  0.49186289  0.49758733  0.26442692  1
  O  O13  1  0.99409747  0.49274366  0.75125243  1
  O  O14  1  0.49785158  0.00611037  0.73972535  1
  O  O15  1  0.50816797  0.50245750  0.73552343  1
