# generated using pymatgen
data_Li4MnNi3O8
_symmetry_space_group_name_H-M   'P 1'
_cell_length_a   10.15465647
_cell_length_b   10.15465647
_cell_length_c   14.36834243
_cell_angle_alpha   19.38652024
_cell_angle_beta   19.38652024
_cell_angle_gamma   33.41283230
_symmetry_Int_Tables_number   1
_chemical_formula_structural   Li4MnNi3O8
_chemical_formula_sum   'Li4 Mn1 Ni3 O8'
_cell_volume   141.37901088
_cell_formula_units_Z   1
loop_
 _symmetry_equiv_pos_site_id
 _symmetry_equiv_pos_as_xyz
  1  'x, y, z'
loop_
 _atom_site_type_symbol
 _atom_site_label
 _atom_site_symmetry_multiplicity
 _atom_site_fract_x
 _atom_site_fract_y
 _atom_site_fract_z
 _atom_site_occupancy
  Li  Li0  1  -0.00000000  0.50000000  0.50000000  1
  Li  Li1  1  -0.00000000  -0.00000000  0.50000000  1
  Li  Li2  1  0.50000000  0.50000000  0.50000000  1
  Li  Li3  1  0.50000000  -0.00000000  0.50000000  1
  Mn  Mn4  1  0.50000000  0.50000000  0.00000000  1
  Ni  Ni5  1  -0.00000000  0.50000000  0.00000000  1
  Ni  Ni6  1  -0.00000000  -0.00000000  0.00000000  1
  Ni  Ni7  1  0.50000000  -0.00000000  0.00000000  1
  O  O8  1  0.02602166  0.50000000  0.23868501  1
  O  O9  1  0.97397834  0.50000000  0.76131499  1
  O  O10  1  0.97397834  0.97397834  0.29072834  1
  O  O11  1  0.02602166  0.02602166  0.70927166  1
  O  O12  1  0.50000000  0.50000000  0.73687674  1
  O  O13  1  0.50000000  0.50000000  0.26312326  1
  O  O14  1  0.50000000  0.02602166  0.23868501  1
  O  O15  1  0.50000000  0.97397834  0.76131499  1
