# generated using pymatgen
data_Na5Mn2P2(CO7)2
_symmetry_space_group_name_H-M   'P 1'
_cell_length_a   9.05787886
_cell_length_b   8.46864187
_cell_length_c   8.51089517
_cell_angle_alpha   103.41835552
_cell_angle_beta   89.79840385
_cell_angle_gamma   89.35180954
_symmetry_Int_Tables_number   1
_chemical_formula_structural   Na5Mn2P2(CO7)2
_chemical_formula_sum   'Na10 Mn4 P4 C4 O28'
_cell_volume   634.97800788
_cell_formula_units_Z   2
loop_
 _symmetry_equiv_pos_site_id
 _symmetry_equiv_pos_as_xyz
  1  'x, y, z'
loop_
 _atom_site_type_symbol
 _atom_site_label
 _atom_site_symmetry_multiplicity
 _atom_site_fract_x
 _atom_site_fract_y
 _atom_site_fract_z
 _atom_site_occupancy
  Na  Na0  1  0.92899266  0.74766763  0.48744722  1
  Na  Na1  1  0.74493903  0.37316533  0.36507758  1
  Na  Na2  1  0.74758399  0.13660003  0.64541360  1
  Na  Na3  1  0.74290355  0.60550074  0.11436003  1
  Na  Na4  1  0.74571034  0.88829271  0.87905355  1
  Na  Na5  1  0.25459648  0.11891848  0.12888727  1
  Na  Na6  1  0.24897049  0.37723145  0.88017177  1
  Na  Na7  1  0.25875422  0.62168859  0.62185471  1
  Na  Na8  1  0.08392510  0.75979966  0.02122291  1
  Na  Na9  1  0.08504200  0.24322290  0.50505702  1
  Mn  Mn10  1  0.64590900  0.48944502  0.73570017  1
  Mn  Mn11  1  0.63926335  0.98362958  0.23657129  1
  Mn  Mn12  1  0.35368305  0.52441551  0.26632491  1
  Mn  Mn13  1  0.35229892  0.01142389  0.75632894  1
  P  P14  1  0.57498459  0.27077849  0.02549094  1
  P  P15  1  0.58264655  0.77643901  0.52317465  1
  P  P16  1  0.42299375  0.22704723  0.47572071  1
  P  P17  1  0.41573879  0.72529023  0.97204659  1
  C  C18  1  0.92814203  0.01390935  0.25997720  1
  C  C19  1  0.94081350  0.51061403  0.76005443  1
  C  C20  1  0.06579914  0.48898894  0.24364204  1
  C  C21  1  0.06675572  0.98348922  0.73618395  1
  O  O22  1  0.92385875  0.49855974  0.24779604  1
  O  O23  1  0.92519578  0.98263514  0.73223183  1
  O  O24  1  0.87871757  0.39911456  0.64872947  1
  O  O25  1  0.85094915  0.90379890  0.15605982  1
  O  O26  1  0.85266209  0.11555772  0.36940138  1
  O  O27  1  0.85593185  0.61197215  0.86206037  1
  O  O28  1  0.66375340  0.13751632  0.08789642  1
  O  O29  1  0.68847014  0.65336023  0.57658053  1
  O  O30  1  0.66923182  0.32446411  0.89638467  1
  O  O31  1  0.67294539  0.83778613  0.39114896  1
  O  O32  1  0.55161112  0.42102567  0.17285344  1
  O  O33  1  0.57397866  0.29492186  0.54040757  1
  O  O34  1  0.56868116  0.78659526  0.04098224  1
  O  O35  1  0.55528688  0.92454567  0.67154197  1
  O  O36  1  0.45128581  0.08033846  0.32672335  1
  O  O37  1  0.42324349  0.20604855  0.95913243  1
  O  O38  1  0.43523267  0.70251340  0.46034946  1
  O  O39  1  0.43877925  0.58404304  0.81939062  1
  O  O40  1  0.32863402  0.17290334  0.60658042  1
  O  O41  1  0.32373289  0.35361808  0.41828845  1
  O  O42  1  0.31960358  0.66200424  0.09522110  1
  O  O43  1  0.32281814  0.86332742  0.92481003  1
  O  O44  1  0.14274303  0.38631441  0.13857503  1
  O  O45  1  0.14549620  0.87340314  0.63961957  1
  O  O46  1  0.13988684  0.09730615  0.83663674  1
  O  O47  1  0.13941918  0.59378594  0.35426554  1
  O  O48  1  0.06817425  0.01274398  0.25101716  1
  O  O49  1  0.08250566  0.52261534  0.76802893  1
