# generated using pymatgen
data_Na3Mn2P2(CO7)2
_symmetry_space_group_name_H-M   'P 1'
_cell_length_a   10.39041258
_cell_length_b   6.58609111
_cell_length_c   10.52290610
_cell_angle_alpha   90.00000000
_cell_angle_beta   121.10248434
_cell_angle_gamma   90.00000000
_symmetry_Int_Tables_number   1
_chemical_formula_structural   Na3Mn2P2(CO7)2
_chemical_formula_sum   'Na6 Mn4 P4 C4 O28'
_cell_volume   616.58664220
_cell_formula_units_Z   2
loop_
 _symmetry_equiv_pos_site_id
 _symmetry_equiv_pos_as_xyz
  1  'x, y, z'
loop_
 _atom_site_type_symbol
 _atom_site_label
 _atom_site_symmetry_multiplicity
 _atom_site_fract_x
 _atom_site_fract_y
 _atom_site_fract_z
 _atom_site_occupancy
  Na  Na0  1  0.99518886  0.01181447  0.24031542  1
  Na  Na1  1  0.99901737  0.49249278  0.23805344  1
  Na  Na2  1  0.49936868  0.47110741  0.24186258  1
  Na  Na3  1  0.50481114  0.51181447  0.75968458  1
  Na  Na4  1  0.50098263  0.99249278  0.76194656  1
  Na  Na5  1  0.00063132  0.97110741  0.75813742  1
  Mn  Mn6  1  0.28619719  0.75714740  0.34857641  1
  Mn  Mn7  1  0.77779119  0.75612348  0.34870803  1
  Mn  Mn8  1  0.21380281  0.25714740  0.65142359  1
  Mn  Mn9  1  0.72220881  0.25612348  0.65129197  1
  P  P10  1  0.35746243  0.25406109  0.42864734  1
  P  P11  1  0.85550406  0.25060959  0.42308930  1
  P  P12  1  0.14253757  0.75406109  0.57135266  1
  P  P13  1  0.64449594  0.75060959  0.57691070  1
  C  C14  1  0.17572629  0.74709708  0.07775667  1
  C  C15  1  0.67246417  0.74747497  0.07827726  1
  C  C16  1  0.32427371  0.24709708  0.92224333  1
  C  C17  1  0.82753583  0.24747497  0.92172274  1
  O  O18  1  0.38219598  0.24583874  0.05786737  1
  O  O19  1  0.88363174  0.24949550  0.05906973  1
  O  O20  1  0.09820807  0.75529323  0.14682740  1
  O  O21  1  0.59500957  0.74462282  0.14446615  1
  O  O22  1  0.32119122  0.74133489  0.17613529  1
  O  O23  1  0.81886044  0.74914141  0.17513778  1
  O  O24  1  0.26982460  0.06787423  0.33390415  1
  O  O25  1  0.27102990  0.44116978  0.33315742  1
  O  O26  1  0.78075579  0.06430746  0.32296575  1
  O  O27  1  0.77139036  0.43923555  0.32990698  1
  O  O28  1  0.02354246  0.25958454  0.45952485  1
  O  O29  1  0.13749967  0.75413556  0.42079422  1
  O  O30  1  0.52350971  0.25979341  0.46503893  1
  O  O31  1  0.64158076  0.73814661  0.42886801  1
  O  O32  1  0.36250033  0.25413556  0.57920578  1
  O  O33  1  0.47645754  0.75958454  0.54047515  1
  O  O34  1  0.85841924  0.23814661  0.57113199  1
  O  O35  1  0.97649029  0.75979341  0.53496107  1
  O  O36  1  0.23017540  0.56787423  0.66609585  1
  O  O37  1  0.22897010  0.94116978  0.66684258  1
  O  O38  1  0.71924421  0.56430746  0.67703425  1
  O  O39  1  0.72860964  0.93923555  0.67009302  1
  O  O40  1  0.17880878  0.24133489  0.82386471  1
  O  O41  1  0.68113956  0.24914141  0.82486222  1
  O  O42  1  0.40179193  0.25529323  0.85317260  1
  O  O43  1  0.90499043  0.24462282  0.85553385  1
  O  O44  1  0.11780402  0.74583874  0.94213263  1
  O  O45  1  0.61636826  0.74949550  0.94093027  1
