# generated using pymatgen
data_Na3Mn2P2(CO7)2
_symmetry_space_group_name_H-M   'P 1'
_cell_length_a   10.40371449
_cell_length_b   6.59112025
_cell_length_c   10.55097574
_cell_angle_alpha   90.85799024
_cell_angle_beta   121.12717893
_cell_angle_gamma   90.42138058
_symmetry_Int_Tables_number   1
_chemical_formula_structural   Na3Mn2P2(CO7)2
_chemical_formula_sum   'Na6 Mn4 P4 C4 O28'
_cell_volume   619.16863430
_cell_formula_units_Z   2
loop_
 _symmetry_equiv_pos_site_id
 _symmetry_equiv_pos_as_xyz
  1  'x, y, z'
loop_
 _atom_site_type_symbol
 _atom_site_label
 _atom_site_symmetry_multiplicity
 _atom_site_fract_x
 _atom_site_fract_y
 _atom_site_fract_z
 _atom_site_occupancy
  Na  Na0  1  0.99904573  0.00491025  0.23837161  1
  Na  Na1  1  0.99493659  0.48498874  0.23839982  1
  Na  Na2  1  0.50039543  0.02924212  0.24193716  1
  Na  Na3  1  0.50506341  0.51501126  0.76160018  1
  Na  Na4  1  0.50095427  0.99508975  0.76162839  1
  Na  Na5  1  0.99960457  0.97075788  0.75806284  1
  Mn  Mn6  1  0.28608366  0.74463513  0.34890786  1
  Mn  Mn7  1  0.77738468  0.74045675  0.34868794  1
  Mn  Mn8  1  0.21391634  0.25536487  0.65109214  1
  Mn  Mn9  1  0.72261532  0.25954325  0.65131206  1
  P  P10  1  0.35738785  0.24806192  0.42949473  1
  P  P11  1  0.85521452  0.24524395  0.42382123  1
  P  P12  1  0.14261215  0.75193808  0.57050527  1
  P  P13  1  0.64478548  0.75475605  0.57617877  1
  C  C14  1  0.17769727  0.74773270  0.08005362  1
  C  C15  1  0.67347533  0.75132009  0.07999646  1
  C  C16  1  0.32230273  0.25226730  0.91994638  1
  C  C17  1  0.82652467  0.24867991  0.92000354  1
  O  O18  1  0.37941507  0.24542110  0.05525071  1
  O  O19  1  0.88097704  0.23998342  0.05661667  1
  O  O20  1  0.09934696  0.73664457  0.14788309  1
  O  O21  1  0.59521072  0.74856518  0.14493118  1
  O  O22  1  0.32293059  0.75273825  0.17894265  1
  O  O23  1  0.81951411  0.74380324  0.17753490  1
  O  O24  1  0.26955241  0.06013015  0.33166474  1
  O  O25  1  0.27123448  0.43339010  0.33761856  1
  O  O26  1  0.76997088  0.05800979  0.32433256  1
  O  O27  1  0.78105571  0.43315563  0.33042120  1
  O  O28  1  0.02289068  0.23971160  0.45993356  1
  O  O29  1  0.13759700  0.75084563  0.42028794  1
  O  O30  1  0.52317693  0.24229507  0.46574068  1
  O  O31  1  0.64221586  0.75821508  0.42850471  1
  O  O32  1  0.36240300  0.24915437  0.57971206  1
  O  O33  1  0.47710832  0.76028840  0.54006644  1
  O  O34  1  0.85778414  0.24178492  0.57149529  1
  O  O35  1  0.97682307  0.75770493  0.53425932  1
  O  O36  1  0.22876552  0.56660990  0.66238144  1
  O  O37  1  0.23044759  0.93986985  0.66833526  1
  O  O38  1  0.71894429  0.56684437  0.66957880  1
  O  O39  1  0.73002912  0.94199021  0.67566744  1
  O  O40  1  0.17706941  0.24726175  0.82105735  1
  O  O41  1  0.68048589  0.25619676  0.82246510  1
  O  O42  1  0.40065304  0.26335543  0.85211691  1
  O  O43  1  0.90478928  0.25143482  0.85506882  1
  O  O44  1  0.12058493  0.75457890  0.94474929  1
  O  O45  1  0.61902296  0.76001658  0.94338333  1
