# generated using pymatgen
data_WO3
_symmetry_space_group_name_H-M   'P 1'
_cell_length_a   3.88025661
_cell_length_b   7.67593289
_cell_length_c   7.78839186
_cell_angle_alpha   90.00000000
_cell_angle_beta   89.91663693
_cell_angle_gamma   90.00000000
_symmetry_Int_Tables_number   1
_chemical_formula_structural   WO3
_chemical_formula_sum   'W4 O12'
_cell_volume   231.97380747
_cell_formula_units_Z   4
loop_
 _symmetry_equiv_pos_site_id
 _symmetry_equiv_pos_as_xyz
  1  'x, y, z'
loop_
 _atom_site_type_symbol
 _atom_site_label
 _atom_site_symmetry_multiplicity
 _atom_site_fract_x
 _atom_site_fract_y
 _atom_site_fract_z
 _atom_site_occupancy
  W  W0  1  0.02998285  0.25000000  0.02086879  1
  W  W1  1  0.97001715  0.75000000  0.97913121  1
  W  W2  1  0.96766100  0.75000000  0.47896610  1
  W  W3  1  0.03233900  0.25000000  0.52103390  1
  O  O4  1  0.49217863  0.75000000  0.99198916  1
  O  O5  1  0.50782137  0.25000000  0.00801084  1
  O  O6  1  0.50952805  0.25000000  0.50775548  1
  O  O7  1  0.49047195  0.75000000  0.49224452  1
  O  O8  1  0.00000000  0.50000000  0.50000000  1
  O  O9  1  0.00000000  0.00000000  0.50000000  1
  O  O10  1  0.00000000  -0.00000000  -0.00000000  1
  O  O11  1  0.00000000  0.50000000  -0.00000000  1
  O  O12  1  0.99395398  0.75000000  0.24284856  1
  O  O13  1  0.00604602  0.25000000  0.75715144  1
  O  O14  1  0.00362075  0.25000000  0.25742146  1
  O  O15  1  0.99637925  0.75000000  0.74257854  1
