# generated using pymatgen
data_Li32Mn11Cr5O48
_symmetry_space_group_name_H-M   'P 1'
_cell_length_a   5.01676115
_cell_length_b   5.01676110
_cell_length_c   38.47794361
_cell_angle_alpha   88.93666609
_cell_angle_beta   91.06333436
_cell_angle_gamma   60.21046810
_symmetry_Int_Tables_number   1
_chemical_formula_structural   Li32Mn11Cr5O48
_chemical_formula_sum   'Li32 Mn11 Cr5 O48'
_cell_volume   839.86415845
_cell_formula_units_Z   1
loop_
 _symmetry_equiv_pos_site_id
 _symmetry_equiv_pos_as_xyz
  1  'x, y, z'
loop_
 _atom_site_type_symbol
 _atom_site_label
 _atom_site_symmetry_multiplicity
 _atom_site_fract_x
 _atom_site_fract_y
 _atom_site_fract_z
 _atom_site_occupancy
  Li  Li0  1  0.08821460  0.08903068  0.24995614  1
  Li  Li1  1  0.99991257  0.49894180  0.99986274  1
  Li  Li2  1  0.06721457  0.43443873  0.18754643  1
  Li  Li3  1  0.12857641  0.37470471  0.37490377  1
  Li  Li4  1  0.18496334  0.30988827  0.56249192  1
  Li  Li5  1  0.25001872  0.24871136  0.74994860  1
  Li  Li6  1  0.31255455  0.18759152  0.93750175  1
  Li  Li7  1  0.03981450  0.78503566  0.12492036  1
  Li  Li8  1  0.37210426  0.12811663  0.12499197  1
  Li  Li9  1  0.16003566  0.66481450  0.50007964  1
  Li  Li10  1  0.28946944  0.53415510  0.87498662  1
  Li  Li11  1  0.43742165  0.06242165  0.31250000  1
  Li  Li12  1  0.50311663  0.99710426  0.50000803  1
  Li  Li13  1  0.41182841  0.40827423  0.25026410  1
  Li  Li14  1  0.53937621  0.28416578  0.62508092  1
  Li  Li15  1  0.21263718  0.96600861  0.62523728  1
  Li  Li16  1  0.34100861  0.83763718  0.99976272  1
  Li  Li17  1  0.65916578  0.16437621  0.99991908  1
  Li  Li18  1  0.78327423  0.03682841  0.37473590  1
  Li  Li19  1  0.46403068  0.71321460  0.37504386  1
  Li  Li20  1  0.59090925  0.58778008  0.74985394  1
  Li  Li21  1  0.56259152  0.93755455  0.68749825  1
  Li  Li22  1  0.71316060  0.46232260  0.12508679  1
  Li  Li23  1  0.83732260  0.33816060  0.49991321  1
  Li  Li24  1  0.62371136  0.87501872  0.87505140  1
  Li  Li25  1  0.96278008  0.21590925  0.87514606  1
  Li  Li26  1  0.68488827  0.80996334  0.06250808  1
  Li  Li27  1  0.74970471  0.75357641  0.25009623  1
  Li  Li28  1  0.80943873  0.69221457  0.43745357  1
  Li  Li29  1  0.87394180  0.62491257  0.62513726  1
  Li  Li30  1  0.93489854  0.55989854  0.81250000  1
  Li  Li31  1  0.90915510  0.91446944  0.75001338  1
  Mn  Mn32  1  0.10481846  0.72981846  0.31250000  1
  Mn  Mn33  1  0.22956005  0.60452542  0.68748299  1
  Mn  Mn34  1  0.35497331  0.48003202  0.06252491  1
  Mn  Mn35  1  0.47916685  0.35406342  0.43753134  1
  Mn  Mn36  1  0.60501107  0.23001107  0.81250000  1
  Mn  Mn37  1  0.72906342  0.10416685  0.18746866  1
  Mn  Mn38  1  0.64530738  0.52033342  0.93751664  1
  Mn  Mn39  1  0.77060655  0.39560655  0.31250000  1
  Mn  Mn40  1  0.89533342  0.27030738  0.68748336  1
  Mn  Mn41  1  0.85503202  0.97997331  0.56247509  1
  Mn  Mn42  1  0.97952542  0.85456005  0.93751701  1
  Cr  Cr43  1  0.01725115  0.14227525  0.06251258  1
  Cr  Cr44  1  0.14072324  0.02591079  0.43747342  1
  Cr  Cr45  1  0.26723924  0.89223924  0.81250000  1
  Cr  Cr46  1  0.40091079  0.76572324  0.18752658  1
  Cr  Cr47  1  0.51727525  0.64225115  0.56248742  1
  O  O48  1  0.08835723  0.05439998  0.34046801  1
  O  O49  1  0.05230563  0.08905696  0.15945090  1
  O  O50  1  0.07085113  0.42941164  0.28404227  1
  O  O51  1  0.19609674  0.30401420  0.65904465  1
  O  O52  1  0.05508412  0.44544860  0.09092197  1
  O  O53  1  0.18132616  0.31536325  0.46588177  1
  O  O54  1  0.30546281  0.19523958  0.84094652  1
  O  O55  1  0.32010833  0.18068067  0.03405964  1
  O  O56  1  0.45136484  0.05524561  0.40859079  1
  O  O57  1  0.07111217  0.78899701  0.21539090  1
  O  O58  1  0.43024561  0.07636484  0.21640921  1
  O  O59  1  0.19879501  0.66363769  0.59040666  1
  O  O60  1  0.32035131  0.53666560  0.96539208  1
  O  O61  1  0.03863769  0.82379501  0.03459334  1
  O  O62  1  0.16399701  0.69611217  0.40960910  1
  O  O63  1  0.28829182  0.57381487  0.78458817  1
  O  O64  1  0.21342090  0.92912844  0.71548239  1
  O  O65  1  0.17179909  0.96990656  0.53406438  1
  O  O66  1  0.30412844  0.83842090  0.90951761  1
  O  O67  1  0.44605865  0.41176667  0.34039739  1
  O  O68  1  0.57037613  0.28669211  0.71538852  1
  O  O69  1  0.41248485  0.43856959  0.15925380  1
  O  O70  1  0.53786566  0.32385593  0.53466051  1
  O  O71  1  0.66169211  0.19537613  0.90961148  1
  O  O72  1  0.34490656  0.79679909  0.09093562  1
  O  O73  1  0.46405696  0.67730563  0.46554910  1
  O  O74  1  0.59509651  0.54658795  0.84091746  1
  O  O75  1  0.42939998  0.71335723  0.28453199  1
  O  O76  1  0.55417613  0.58842219  0.65951676  1
  O  O77  1  0.69885593  0.16286566  0.09033949  1
  O  O78  1  0.81356959  0.03748485  0.46574620  1
  O  O79  1  0.78676667  0.07105865  0.28460261  1
  O  O80  1  0.71022045  0.43125406  0.21534507  1
  O  O81  1  0.84479158  0.29690742  0.59089332  1
  O  O82  1  0.96342219  0.17917613  0.96548324  1
  O  O83  1  0.67190742  0.46979158  0.03410668  1
  O  O84  1  0.80625406  0.33522045  0.40965493  1
  O  O85  1  0.57023958  0.93046281  0.78405348  1
  O  O86  1  0.92158795  0.22009651  0.78408254  1
  O  O87  1  0.55568067  0.94510833  0.59094036  1
  O  O88  1  0.67901420  0.82109674  0.96595535  1
  O  O89  1  0.69036325  0.80632616  0.15911823  1
  O  O90  1  0.82044860  0.68008412  0.53407803  1
  O  O91  1  0.94598875  0.55411128  0.90905534  1
  O  O92  1  0.80441164  0.69585113  0.34095773  1
  O  O93  1  0.92911128  0.57098875  0.71594466  1
  O  O94  1  0.94881487  0.91329182  0.84041183  1
  O  O95  1  0.91166560  0.94535131  0.65960792  1
