# generated using pymatgen
data_LiLuO2
_symmetry_space_group_name_H-M   'P 1'
_cell_length_a   5.99263757
_cell_length_b   6.12554815
_cell_length_c   6.04219374
_cell_angle_alpha   90.00000000
_cell_angle_beta   118.17287418
_cell_angle_gamma   90.00000000
_symmetry_Int_Tables_number   1
_chemical_formula_structural   LiLuO2
_chemical_formula_sum   'Li4 Lu4 O8'
_cell_volume   195.52093861
_cell_formula_units_Z   4
loop_
 _symmetry_equiv_pos_site_id
 _symmetry_equiv_pos_as_xyz
  1  'x, y, z'
loop_
 _atom_site_type_symbol
 _atom_site_label
 _atom_site_symmetry_multiplicity
 _atom_site_fract_x
 _atom_site_fract_y
 _atom_site_fract_z
 _atom_site_occupancy
  Li  Li0  1  0.27845310  0.85253651  0.54557934  1
  Li  Li1  1  0.72154690  0.35253651  0.95442066  1
  Li  Li2  1  0.27845310  0.64746349  0.04557934  1
  Li  Li3  1  0.72154690  0.14746349  0.45442066  1
  Lu  Lu4  1  0.23888086  0.12853924  0.98594007  1
  Lu  Lu5  1  0.23888086  0.37146076  0.48594007  1
  Lu  Lu6  1  0.76111914  0.62853924  0.51405993  1
  Lu  Lu7  1  0.76111914  0.87146076  0.01405993  1
  O  O8  1  0.99945832  0.84286463  0.82161153  1
  O  O9  1  0.99945832  0.65713537  0.32161153  1
  O  O10  1  0.45844227  0.11247052  0.76559471  1
  O  O11  1  0.54155773  0.61247052  0.73440529  1
  O  O12  1  0.45844227  0.38752948  0.26559471  1
  O  O13  1  0.54155773  0.88752948  0.23440529  1
  O  O14  1  0.00054168  0.34286463  0.67838847  1
  O  O15  1  0.00054168  0.15713537  0.17838847  1
