# generated using pymatgen
data_Ta2TlO6
_symmetry_space_group_name_H-M   'P 1'
_cell_length_a   7.54396607
_cell_length_b   7.54396564
_cell_length_c   7.53478770
_cell_angle_alpha   60.04024147
_cell_angle_beta   60.04024337
_cell_angle_gamma   60.03389028
_symmetry_Int_Tables_number   1
_chemical_formula_structural   Ta2TlO6
_chemical_formula_sum   'Ta4 Tl2 O12'
_cell_volume   303.48036246
_cell_formula_units_Z   2
loop_
 _symmetry_equiv_pos_site_id
 _symmetry_equiv_pos_as_xyz
  1  'x, y, z'
loop_
 _atom_site_type_symbol
 _atom_site_label
 _atom_site_symmetry_multiplicity
 _atom_site_fract_x
 _atom_site_fract_y
 _atom_site_fract_z
 _atom_site_occupancy
  Ta  Ta0  1  -0.00000000  0.00000000  0.00000000  1
  Ta  Ta1  1  -0.00000000  0.50000000  0.00000000  1
  Ta  Ta2  1  0.50000000  0.00000000  0.00000000  1
  Ta  Ta3  1  -0.00000000  0.00000000  0.50000000  1
  Tl  Tl4  1  0.50000000  0.50000000  0.50000000  1
  Tl  Tl5  1  0.50000000  0.50000000  0.00000000  1
  O  O6  1  0.05726694  0.05726694  0.69273306  1
  O  O7  1  0.06591143  0.68743000  0.05812322  1
  O  O8  1  0.68743000  0.06591143  0.05812322  1
  O  O9  1  0.06591143  0.68743000  0.68853535  1
  O  O10  1  0.31380308  0.31380308  0.93619692  1
  O  O11  1  0.31257000  0.93408857  0.31146465  1
  O  O12  1  0.68743000  0.06591143  0.68853535  1
  O  O13  1  0.68619692  0.68619692  0.06380308  1
  O  O14  1  0.93408857  0.31257000  0.31146465  1
  O  O15  1  0.31257000  0.93408857  0.94187678  1
  O  O16  1  0.94273306  0.94273306  0.30726694  1
  O  O17  1  0.93408857  0.31257000  0.94187678  1
