# generated using pymatgen
data_Na5Mn2P2(CO7)2
_symmetry_space_group_name_H-M   'P 1'
_cell_length_a   9.00593520
_cell_length_b   6.73180501
_cell_length_c   15.68195627
_cell_angle_alpha   89.87714807
_cell_angle_beta   89.31076788
_cell_angle_gamma   90.20423355
_symmetry_Int_Tables_number   1
_chemical_formula_structural   Na5Mn2P2(CO7)2
_chemical_formula_sum   'Na15 Mn6 P6 C6 O42'
_cell_volume   950.66031113
_cell_formula_units_Z   3
loop_
 _symmetry_equiv_pos_site_id
 _symmetry_equiv_pos_as_xyz
  1  'x, y, z'
loop_
 _atom_site_type_symbol
 _atom_site_label
 _atom_site_symmetry_multiplicity
 _atom_site_fract_x
 _atom_site_fract_y
 _atom_site_fract_z
 _atom_site_occupancy
  Na  Na0  1  0.07236360  0.25965890  0.25431602  1
  Na  Na1  1  0.25021405  0.00953857  0.74926296  1
  Na  Na2  1  0.25014324  0.49058590  0.74944703  1
  Na  Na3  1  0.25661466  0.00514879  0.42141644  1
  Na  Na4  1  0.25667149  0.49377934  0.42277015  1
  Na  Na5  1  0.25249986  0.00583426  0.07540958  1
  Na  Na6  1  0.25338020  0.49348721  0.07437954  1
  Na  Na7  1  0.74929012  0.50261612  0.91916975  1
  Na  Na8  1  0.74952410  0.99871718  0.92063710  1
  Na  Na9  1  0.74827814  0.50222322  0.58000751  1
  Na  Na10  1  0.74945505  0.00090961  0.58094820  1
  Na  Na11  1  0.73588722  0.98567616  0.25143383  1
  Na  Na12  1  0.92130111  0.75038342  0.74619743  1
  Na  Na13  1  0.91521600  0.73981488  0.40658048  1
  Na  Na14  1  0.91647535  0.74005635  0.08398548  1
  Mn  Mn15  1  0.35964108  0.75005495  0.92317626  1
  Mn  Mn16  1  0.35798264  0.75162550  0.59539850  1
  Mn  Mn17  1  0.35749286  0.74741491  0.25990941  1
  Mn  Mn18  1  0.64621573  0.25044642  0.73898438  1
  Mn  Mn19  1  0.64688000  0.25816257  0.40189558  1
  Mn  Mn20  1  0.64802134  0.25535248  0.07751300  1
  P  P21  1  0.42401603  0.25005422  0.90086986  1
  P  P22  1  0.42113608  0.25107420  0.56878095  1
  P  P23  1  0.41589839  0.24713948  0.23420991  1
  P  P24  1  0.58602407  0.75038971  0.76595211  1
  P  P25  1  0.58460972  0.75198262  0.43546959  1
  P  P26  1  0.58028042  0.75205270  0.09838211  1
  C  C27  1  0.06145521  0.75006674  0.91054558  1
  C  C28  1  0.06316248  0.75022046  0.57683565  1
  C  C29  1  0.06556039  0.75374638  0.24306562  1
  C  C30  1  0.92472932  0.25019393  0.75739892  1
  C  C31  1  0.93486211  0.24651287  0.42255511  1
  C  C32  1  0.93403917  0.24588530  0.09310114  1
  O  O33  1  0.06392107  0.24930274  0.75742783  1
  O  O34  1  0.07664257  0.24874243  0.41941224  1
  O  O35  1  0.07580956  0.25078854  0.09517181  1
  O  O36  1  0.12334221  0.74924216  0.98521477  1
  O  O37  1  0.13096927  0.74979031  0.65066425  1
  O  O38  1  0.13501604  0.74639961  0.31672439  1
  O  O39  1  0.14660355  0.74986894  0.84243079  1
  O  O40  1  0.14423173  0.74980556  0.50789995  1
  O  O41  1  0.14688701  0.74479678  0.17371416  1
  O  O42  1  0.33266545  0.06314644  0.92288280  1
  O  O43  1  0.33311459  0.43650457  0.92262818  1
  O  O44  1  0.33019807  0.06347021  0.59376617  1
  O  O45  1  0.33193642  0.43962936  0.59308925  1
  O  O46  1  0.31583360  0.06423120  0.25633408  1
  O  O47  1  0.32213324  0.43229095  0.25912496  1
  O  O48  1  0.45408978  0.25006859  0.79980969  1
  O  O49  1  0.42907334  0.75005867  0.72698498  1
  O  O50  1  0.44912584  0.25068033  0.46946316  1
  O  O51  1  0.43141902  0.74802778  0.39196799  1
  O  O52  1  0.44463450  0.25064068  0.13436078  1
  O  O53  1  0.42742777  0.75119339  0.05466771  1
  O  O54  1  0.57661055  0.25042441  0.94511276  1
  O  O55  1  0.57244738  0.75027011  0.86488315  1
  O  O56  1  0.57525587  0.25104546  0.61304815  1
  O  O57  1  0.56112136  0.76024708  0.53501035  1
  O  O58  1  0.56603257  0.23864042  0.27868918  1
  O  O59  1  0.55509496  0.75792746  0.19655215  1
  O  O60  1  0.67905244  0.56611082  0.73724245  1
  O  O61  1  0.67931519  0.93518913  0.73691533  1
  O  O62  1  0.67993731  0.56543431  0.41629545  1
  O  O63  1  0.67930449  0.93522480  0.40766600  1
  O  O64  1  0.67504495  0.56810542  0.07150052  1
  O  O65  1  0.67721504  0.93631732  0.07210422  1
  O  O66  1  0.83866919  0.25018343  0.82474165  1
  O  O67  1  0.85546076  0.25065738  0.49153092  1
  O  O68  1  0.85340117  0.23205111  0.16174746  1
  O  O69  1  0.84874350  0.25126060  0.68507736  1
  O  O70  1  0.86200280  0.24205486  0.35035828  1
  O  O71  1  0.86050392  0.25736631  0.02089034  1
  O  O72  1  0.91922546  0.75101413  0.90348279  1
  O  O73  1  0.92064443  0.75098002  0.57408004  1
  O  O74  1  0.92482580  0.76791378  0.24123230  1
