# generated using pymatgen
data_Sc5Ga3
_symmetry_space_group_name_H-M   'P 1'
_cell_length_a   8.11987984
_cell_length_b   8.11987984
_cell_length_c   5.96473057
_cell_angle_alpha   89.34915483
_cell_angle_beta   90.65084517
_cell_angle_gamma   59.77313108
_symmetry_Int_Tables_number   1
_chemical_formula_structural   Sc5Ga3
_chemical_formula_sum   'Sc10 Ga6'
_cell_volume   339.71162770
_cell_formula_units_Z   2
loop_
 _symmetry_equiv_pos_site_id
 _symmetry_equiv_pos_as_xyz
  1  'x, y, z'
loop_
 _atom_site_type_symbol
 _atom_site_label
 _atom_site_symmetry_multiplicity
 _atom_site_fract_x
 _atom_site_fract_y
 _atom_site_fract_z
 _atom_site_occupancy
  Sc  Sc0  1  0.17855832  0.17855832  0.50000000  1
  Sc  Sc1  1  0.82144168  0.82144168  0.50000000  1
  Sc  Sc2  1  0.74196109  0.49894506  0.24481588  1
  Sc  Sc3  1  0.50105494  0.25803891  0.24481588  1
  Sc  Sc4  1  0.25803891  0.50105494  0.75518412  1
  Sc  Sc5  1  0.49894506  0.74196109  0.75518412  1
  Sc  Sc6  1  0.73671850  0.26328150  0.74225395  1
  Sc  Sc7  1  0.26328150  0.73671850  0.25774605  1
  Sc  Sc8  1  0.15476509  0.15476509  0.00000000  1
  Sc  Sc9  1  0.84523491  0.84523491  0.00000000  1
  Ga  Ga10  1  0.90340167  0.09659833  0.29252106  1
  Ga  Ga11  1  0.09659833  0.90340167  0.70747894  1
  Ga  Ga12  1  0.09954163  0.49981911  0.22754301  1
  Ga  Ga13  1  0.50018089  0.90045837  0.22754301  1
  Ga  Ga14  1  0.90045837  0.50018089  0.77245699  1
  Ga  Ga15  1  0.49981911  0.09954163  0.77245699  1
