# generated using pymatgen
data_Ga2(TeO3)3
_symmetry_space_group_name_H-M   'P 1'
_cell_length_a   9.24146018
_cell_length_b   9.24178924
_cell_length_c   7.58527821
_cell_angle_alpha   90.00000000
_cell_angle_beta   90.00000000
_cell_angle_gamma   120.00088833
_symmetry_Int_Tables_number   1
_chemical_formula_structural   Ga2(TeO3)3
_chemical_formula_sum   'Ga4 Te6 O18'
_cell_volume   561.04140735
_cell_formula_units_Z   2
loop_
 _symmetry_equiv_pos_site_id
 _symmetry_equiv_pos_as_xyz
  1  'x, y, z'
loop_
 _atom_site_type_symbol
 _atom_site_label
 _atom_site_symmetry_multiplicity
 _atom_site_fract_x
 _atom_site_fract_y
 _atom_site_fract_z
 _atom_site_occupancy
  Ga  Ga0  1  0.33334097  0.66667241  0.43858318  1
  Ga  Ga1  1  0.66665903  0.33332759  0.93858318  1
  Ga  Ga2  1  0.66665903  0.33332759  0.56141682  1
  Ga  Ga3  1  0.33334097  0.66667241  0.06141682  1
  Te  Te4  1  0.49085055  0.04110218  0.25000000  1
  Te  Te5  1  0.55025789  0.50913940  0.25000000  1
  Te  Te6  1  0.95889036  0.44974587  0.25000000  1
  Te  Te7  1  0.50914945  0.95889782  0.75000000  1
  Te  Te8  1  0.44974211  0.49086060  0.75000000  1
  Te  Te9  1  0.04110964  0.55025413  0.75000000  1
  O  O10  1  0.49440945  0.83335244  0.25000000  1
  O  O11  1  0.33895285  0.50560878  0.25000000  1
  O  O12  1  0.16665769  0.66105503  0.25000000  1
  O  O13  1  0.50559055  0.16664756  0.75000000  1
  O  O14  1  0.66104715  0.49439122  0.75000000  1
  O  O15  1  0.83334231  0.33894497  0.75000000  1
  O  O16  1  0.65505061  0.14473357  0.43232366  1
  O  O17  1  0.48966475  0.34494186  0.43232120  1
  O  O18  1  0.85526428  0.51031890  0.43232097  1
  O  O19  1  0.34494939  0.85526643  0.93232366  1
  O  O20  1  0.51033525  0.65505814  0.93232120  1
  O  O21  1  0.14473572  0.48968110  0.93232097  1
  O  O22  1  0.34494939  0.85526643  0.56767634  1
  O  O23  1  0.51033525  0.65505814  0.56767880  1
  O  O24  1  0.14473572  0.48968110  0.56767903  1
  O  O25  1  0.65505061  0.14473357  0.06767634  1
  O  O26  1  0.48966475  0.34494186  0.06767880  1
  O  O27  1  0.85526428  0.51031890  0.06767903  1
