# generated using pymatgen
data_VH10SO10
_symmetry_space_group_name_H-M   'P 1'
_cell_length_a   7.28461832
_cell_length_b   9.40816851
_cell_length_c   6.36692537
_cell_angle_alpha   90.00000000
_cell_angle_beta   90.00000000
_cell_angle_gamma   90.00000000
_symmetry_Int_Tables_number   1
_chemical_formula_structural   VH10SO10
_chemical_formula_sum   'V2 H20 S2 O20'
_cell_volume   436.35669978
_cell_formula_units_Z   2
loop_
 _symmetry_equiv_pos_site_id
 _symmetry_equiv_pos_as_xyz
  1  'x, y, z'
loop_
 _atom_site_type_symbol
 _atom_site_label
 _atom_site_symmetry_multiplicity
 _atom_site_fract_x
 _atom_site_fract_y
 _atom_site_fract_z
 _atom_site_occupancy
  V  V0  1  0.50000000  0.71700087  0.50155137  1
  V  V1  1  -0.00000000  0.28299913  0.00155137  1
  H  H2  1  0.60937608  0.82671908  0.89826665  1
  H  H3  1  0.39062392  0.82671908  0.89826665  1
  H  H4  1  0.89062392  0.17328092  0.39826665  1
  H  H5  1  0.10937608  0.17328092  0.39826665  1
  H  H6  1  0.67983504  0.96651890  0.47182166  1
  H  H7  1  0.32016496  0.96651890  0.47182166  1
  H  H8  1  0.82016496  0.03348110  0.97182166  1
  H  H9  1  0.17983504  0.03348110  0.97182166  1
  H  H10  1  0.76456615  0.85123659  0.31163722  1
  H  H11  1  0.23543385  0.85123659  0.31163722  1
  H  H12  1  0.73543385  0.14876341  0.81163722  1
  H  H13  1  0.26456615  0.14876341  0.81163722  1
  H  H14  1  0.66498715  0.50003185  0.69038026  1
  H  H15  1  0.33501285  0.50003185  0.69038026  1
  H  H16  1  0.83501285  0.49996815  0.19038026  1
  H  H17  1  0.16498715  0.49996815  0.19038026  1
  H  H18  1  0.81216162  0.63377475  0.70642759  1
  H  H19  1  0.18783838  0.63377475  0.70642759  1
  H  H20  1  0.68783838  0.36622525  0.20642759  1
  H  H21  1  0.31216162  0.36622525  0.20642759  1
  S  S22  1  0.50000000  0.23587753  0.51889169  1
  S  S23  1  -0.00000000  0.76412247  0.01889169  1
  O  O24  1  0.50000000  0.65298039  0.26341316  1
  O  O25  1  -0.00000000  0.34701961  0.76341316  1
  O  O26  1  0.50000000  0.83623590  0.80780890  1
  O  O27  1  -0.00000000  0.16376410  0.30780890  1
  O  O28  1  0.70686554  0.86334843  0.45199375  1
  O  O29  1  0.29313446  0.86334843  0.45199375  1
  O  O30  1  0.79313446  0.13665157  0.95199375  1
  O  O31  1  0.20686554  0.13665157  0.95199375  1
  O  O32  1  0.69687946  0.59545210  0.63915190  1
  O  O33  1  0.30312054  0.59545210  0.63915190  1
  O  O34  1  0.80312054  0.40454790  0.13915190  1
  O  O35  1  0.19687946  0.40454790  0.13915190  1
  O  O36  1  0.66809510  0.14360292  0.53953393  1
  O  O37  1  0.33190490  0.14360292  0.53953393  1
  O  O38  1  0.83190490  0.85639708  0.03953393  1
  O  O39  1  0.16809510  0.85639708  0.03953393  1
  O  O40  1  0.50000000  0.34348109  0.68802416  1
  O  O41  1  -0.00000000  0.65651891  0.18802416  1
  O  O42  1  0.50000000  0.30306690  0.30638480  1
  O  O43  1  -0.00000000  0.69693310  0.80638480  1
