# generated using pymatgen
data_AgPd
_symmetry_space_group_name_H-M   'P 1'
_cell_length_a   2.85900694
_cell_length_b   2.85907151
_cell_length_c   4.70011438
_cell_angle_alpha   89.99552737
_cell_angle_beta   90.00431959
_cell_angle_gamma   119.99930930
_symmetry_Int_Tables_number   1
_chemical_formula_structural   AgPd
_chemical_formula_sum   'Ag1 Pd1'
_cell_volume   33.27226049
_cell_formula_units_Z   1
loop_
 _symmetry_equiv_pos_site_id
 _symmetry_equiv_pos_as_xyz
  1  'x, y, z'
loop_
 _atom_site_type_symbol
 _atom_site_label
 _atom_site_symmetry_multiplicity
 _atom_site_fract_x
 _atom_site_fract_y
 _atom_site_fract_z
 _atom_site_occupancy
  Ag  Ag0  1  0.66666322  0.33333084  0.75000184  1
  Pd  Pd1  1  0.33333678  0.66667016  0.24999716  1
