# generated using pymatgen
data_Na2H18SO9
_symmetry_space_group_name_H-M   'P 1'
_cell_length_a   9.38767881
_cell_length_b   9.38767881
_cell_length_c   12.85283228
_cell_angle_alpha   90.00000000
_cell_angle_beta   90.00000000
_cell_angle_gamma   90.00000000
_symmetry_Int_Tables_number   1
_chemical_formula_structural   Na2H18SO9
_chemical_formula_sum   'Na8 H72 S4 O36'
_cell_volume   1132.70100233
_cell_formula_units_Z   4
loop_
 _symmetry_equiv_pos_site_id
 _symmetry_equiv_pos_as_xyz
  1  'x, y, z'
loop_
 _atom_site_type_symbol
 _atom_site_label
 _atom_site_symmetry_multiplicity
 _atom_site_fract_x
 _atom_site_fract_y
 _atom_site_fract_z
 _atom_site_occupancy
  Na  Na0  1  0.69428777  0.50000000  0.75000000  1
  Na  Na1  1  0.30571223  0.50000000  0.25000000  1
  Na  Na2  1  0.50000000  0.69428777  0.50000000  1
  Na  Na3  1  0.50000000  0.30571223  -0.00000000  1
  Na  Na4  1  -0.00000000  0.85305774  -0.00000000  1
  Na  Na5  1  0.00000000  0.14694226  0.50000000  1
  Na  Na6  1  0.14694226  -0.00000000  0.75000000  1
  Na  Na7  1  0.85305774  -0.00000000  0.25000000  1
  H  H8  1  0.40870949  0.50234079  0.66225508  1
  H  H9  1  0.59129051  0.49765921  0.16225508  1
  H  H10  1  0.49765921  0.40870949  0.41225508  1
  H  H11  1  0.50234079  0.59129051  0.91225508  1
  H  H12  1  0.59129051  0.50234079  0.33774492  1
  H  H13  1  0.40870949  0.49765921  0.83774492  1
  H  H14  1  0.50234079  0.40870949  0.58774492  1
  H  H15  1  0.49765921  0.59129051  0.08774492  1
  H  H16  1  0.11259195  0.79548814  0.21327814  1
  H  H17  1  0.88740805  0.20451186  0.71327814  1
  H  H18  1  0.20451186  0.11259195  0.96327814  1
  H  H19  1  0.79548814  0.88740805  0.46327814  1
  H  H20  1  0.88740805  0.79548814  0.78672186  1
  H  H21  1  0.11259195  0.20451186  0.28672186  1
  H  H22  1  0.79548814  0.11259195  0.03672186  1
  H  H23  1  0.20451186  0.88740805  0.53672186  1
  H  H24  1  0.96175977  0.72249643  0.21820922  1
  H  H25  1  0.03824023  0.27750357  0.71820922  1
  H  H26  1  0.27750357  0.96175977  0.96820922  1
  H  H27  1  0.72249643  0.03824023  0.46820922  1
  H  H28  1  0.03824023  0.72249643  0.78179078  1
  H  H29  1  0.96175977  0.27750357  0.28179078  1
  H  H30  1  0.72249643  0.96175977  0.03179078  1
  H  H31  1  0.27750357  0.03824023  0.53179078  1
  H  H32  1  0.97806637  0.52861901  0.65817349  1
  H  H33  1  0.02193363  0.47138099  0.15817349  1
  H  H34  1  0.47138099  0.97806637  0.40817349  1
  H  H35  1  0.52861901  0.02193363  0.90817349  1
  H  H36  1  0.02193363  0.52861901  0.34182651  1
  H  H37  1  0.97806637  0.47138099  0.84182651  1
  H  H38  1  0.52861901  0.97806637  0.59182651  1
  H  H39  1  0.47138099  0.02193363  0.09182651  1
  H  H40  1  0.87282601  0.45229914  0.57830065  1
  H  H41  1  0.12717399  0.54770086  0.07830065  1
  H  H42  1  0.54770086  0.87282601  0.32830065  1
  H  H43  1  0.45229914  0.12717399  0.82830065  1
  H  H44  1  0.12717399  0.45229914  0.42169935  1
  H  H45  1  0.87282601  0.54770086  0.92169935  1
  H  H46  1  0.45229914  0.87282601  0.67169935  1
  H  H47  1  0.54770086  0.12717399  0.17169935  1
  H  H48  1  0.72116474  0.70790326  0.01121172  1
  H  H49  1  0.27883526  0.29209674  0.51121172  1
  H  H50  1  0.29209674  0.72116474  0.76121172  1
  H  H51  1  0.70790326  0.27883526  0.26121172  1
  H  H52  1  0.27883526  0.70790326  0.98878828  1
  H  H53  1  0.72116474  0.29209674  0.48878828  1
  H  H54  1  0.70790326  0.72116474  0.23878828  1
  H  H55  1  0.29209674  0.27883526  0.73878828  1
  H  H56  1  0.81691228  0.61937722  0.08822151  1
  H  H57  1  0.18308772  0.38062278  0.58822151  1
  H  H58  1  0.38062278  0.81691228  0.83822151  1
  H  H59  1  0.61937722  0.18308772  0.33822151  1
  H  H60  1  0.18308772  0.61937722  0.91177849  1
  H  H61  1  0.81691228  0.38062278  0.41177849  1
  H  H62  1  0.61937722  0.81691228  0.16177849  1
  H  H63  1  0.38062278  0.18308772  0.66177849  1
  H  H64  1  0.81521056  0.65495290  0.52618275  1
  H  H65  1  0.18478944  0.34504710  0.02618275  1
  H  H66  1  0.34504710  0.81521056  0.27618275  1
  H  H67  1  0.65495290  0.18478944  0.77618275  1
  H  H68  1  0.18478944  0.65495290  0.47381725  1
  H  H69  1  0.81521056  0.34504710  0.97381725  1
  H  H70  1  0.65495290  0.81521056  0.72381725  1
  H  H71  1  0.34504710  0.18478944  0.22381725  1
  H  H72  1  0.78655901  0.64610649  0.40601219  1
  H  H73  1  0.21344099  0.35389351  0.90601219  1
  H  H74  1  0.35389351  0.78655901  0.15601219  1
  H  H75  1  0.64610649  0.21344099  0.65601219  1
  H  H76  1  0.21344099  0.64610649  0.59398781  1
  H  H77  1  0.78655901  0.35389351  0.09398781  1
  H  H78  1  0.64610649  0.78655901  0.84398781  1
  H  H79  1  0.35389351  0.21344099  0.34398781  1
  S  S80  1  0.81068180  0.50000000  0.25000000  1
  S  S81  1  0.18931820  0.50000000  0.75000000  1
  S  S82  1  0.50000000  0.81068180  -0.00000000  1
  S  S83  1  0.50000000  0.18931820  0.50000000  1
  O  O84  1  0.50134169  0.50134169  0.62500000  1
  O  O85  1  0.49865831  0.49865831  0.12500000  1
  O  O86  1  0.49865831  0.50134169  0.37500000  1
  O  O87  1  0.50134169  0.49865831  0.87500000  1
  O  O88  1  0.00958543  0.81212411  0.19970338  1
  O  O89  1  0.99041457  0.18787589  0.69970338  1
  O  O90  1  0.18787589  0.00958543  0.94970338  1
  O  O91  1  0.81212411  0.99041457  0.44970338  1
  O  O92  1  0.99041457  0.81212411  0.80029662  1
  O  O93  1  0.00958543  0.18787589  0.30029662  1
  O  O94  1  0.81212411  0.00958543  0.05029662  1
  O  O95  1  0.18787589  0.99041457  0.55029662  1
  O  O96  1  0.88205122  0.53524187  0.62565404  1
  O  O97  1  0.11794878  0.46475813  0.12565404  1
  O  O98  1  0.46475813  0.88205122  0.37565404  1
  O  O99  1  0.53524187  0.11794878  0.87565404  1
  O  O100  1  0.11794878  0.53524187  0.37434596  1
  O  O101  1  0.88205122  0.46475813  0.87434596  1
  O  O102  1  0.53524187  0.88205122  0.62434596  1
  O  O103  1  0.46475813  0.11794878  0.12434596  1
  O  O104  1  0.81942744  0.66925055  0.02006837  1
  O  O105  1  0.18057256  0.33074945  0.52006837  1
  O  O106  1  0.33074945  0.81942744  0.77006837  1
  O  O107  1  0.66925055  0.18057256  0.27006837  1
  O  O108  1  0.18057256  0.66925055  0.97993163  1
  O  O109  1  0.81942744  0.33074945  0.47993163  1
  O  O110  1  0.66925055  0.81942744  0.22993163  1
  O  O111  1  0.33074945  0.18057256  0.72993163  1
  O  O112  1  0.76193928  0.70173563  0.46904034  1
  O  O113  1  0.23806072  0.29826437  0.96904034  1
  O  O114  1  0.29826437  0.76193928  0.21904034  1
  O  O115  1  0.70173563  0.23806072  0.71904034  1
  O  O116  1  0.23806072  0.70173563  0.53095966  1
  O  O117  1  0.76193928  0.29826437  0.03095966  1
  O  O118  1  0.70173563  0.76193928  0.78095966  1
  O  O119  1  0.29826437  0.23806072  0.28095966  1
