# generated using pymatgen
data_BaYbCo4O7
_symmetry_space_group_name_H-M   'P 1'
_cell_length_a   6.36269046
_cell_length_b   6.45368626
_cell_length_c   10.26863169
_cell_angle_alpha   89.67586035
_cell_angle_beta   90.01118040
_cell_angle_gamma   120.75784744
_symmetry_Int_Tables_number   1
_chemical_formula_structural   BaYbCo4O7
_chemical_formula_sum   'Ba2 Yb2 Co8 O14'
_cell_volume   362.33920449
_cell_formula_units_Z   2
loop_
 _symmetry_equiv_pos_site_id
 _symmetry_equiv_pos_as_xyz
  1  'x, y, z'
loop_
 _atom_site_type_symbol
 _atom_site_label
 _atom_site_symmetry_multiplicity
 _atom_site_fract_x
 _atom_site_fract_y
 _atom_site_fract_z
 _atom_site_occupancy
  Ba  Ba0  1  0.69131903  0.33484614  0.50004598  1
  Ba  Ba1  1  0.31954963  0.64675797  0.99918560  1
  Yb  Yb2  1  0.66920440  0.33423359  0.86885085  1
  Yb  Yb3  1  0.33517171  0.66951838  0.36741175  1
  Co  Co4  1  0.15138888  0.81501242  0.68097121  1
  Co  Co5  1  0.84565403  0.66279314  0.18319294  1
  Co  Co6  1  0.82194969  0.15905735  0.18321400  1
  Co  Co7  1  0.99348123  0.99077954  0.94259536  1
  Co  Co8  1  0.64760958  0.83731654  0.68591900  1
  Co  Co9  1  0.17441471  0.33466372  0.68178395  1
  Co  Co10  1  0.34774997  0.18730629  0.18342366  1
  Co  Co11  1  0.01624015  0.00765912  0.44362846  1
  O  O12  1  0.68598475  0.89648356  0.50006668  1
  O  O13  1  0.51089681  0.52887417  0.74866915  1
  O  O14  1  0.90787607  0.68275793  0.99239480  1
  O  O15  1  0.49360627  0.50996588  0.22272070  1
  O  O16  1  0.11017538  0.79279326  0.48975224  1
  O  O17  1  0.98802415  0.47985273  0.72594921  1
  O  O18  1  0.99052199  0.99161936  0.75058755  1
  O  O19  1  0.49134554  0.99914446  0.73627844  1
  O  O20  1  0.47098147  0.99553157  0.22773069  1
  O  O21  1  0.32170658  0.20412087  0.99758777  1
  O  O22  1  0.97432206  0.47486250  0.25457405  1
  O  O23  1  0.21013988  0.32353679  0.49196871  1
  O  O24  1  0.00721787  0.00366870  0.25115251  1
  O  O25  1  0.82346917  0.13684201  0.99174873  1
