# generated using pymatgen
data_MnCoH18(CN2)6
_symmetry_space_group_name_H-M   'P 1'
_cell_length_a   7.39763939
_cell_length_b   7.39764000
_cell_length_c   7.39763981
_cell_angle_alpha   97.21283179
_cell_angle_beta   97.21283250
_cell_angle_gamma   97.21282508
_symmetry_Int_Tables_number   1
_chemical_formula_structural   MnCoH18(CN2)6
_chemical_formula_sum   'Mn1 Co1 H18 C6 N12'
_cell_volume   394.32580097
_cell_formula_units_Z   1
loop_
 _symmetry_equiv_pos_site_id
 _symmetry_equiv_pos_as_xyz
  1  'x, y, z'
loop_
 _atom_site_type_symbol
 _atom_site_label
 _atom_site_symmetry_multiplicity
 _atom_site_fract_x
 _atom_site_fract_y
 _atom_site_fract_z
 _atom_site_occupancy
  Co  Co0  1  0.00000000  0.00000000  0.00000000  1
  Mn  Mn1  1  0.50000000  0.50000000  0.50000000  1
  N  N2  1  0.87040339  0.05209950  0.76454124  1
  N  N3  1  0.76454124  0.87040339  0.05209950  1
  N  N4  1  0.05209950  0.76454124  0.87040339  1
  N  N5  1  0.12959661  0.94790050  0.23545876  1
  N  N6  1  0.23545876  0.12959661  0.94790050  1
  N  N7  1  0.94790050  0.23545876  0.12959661  1
  H  H8  1  0.95508775  0.13237799  0.69469922  1
  H  H9  1  0.69469922  0.95508775  0.13237799  1
  H  H10  1  0.13237799  0.69469922  0.95508775  1
  H  H11  1  0.04491225  0.86762201  0.30530078  1
  H  H12  1  0.30530078  0.04491225  0.86762201  1
  H  H13  1  0.86762201  0.30530078  0.04491225  1
  H  H14  1  0.76232434  0.12325497  0.78483404  1
  H  H15  1  0.78483404  0.76232434  0.12325497  1
  H  H16  1  0.12325497  0.78483404  0.76232434  1
  H  H17  1  0.23767566  0.87674503  0.21516596  1
  H  H18  1  0.21516596  0.23767566  0.87674503  1
  H  H19  1  0.87674503  0.21516596  0.23767566  1
  H  H20  1  0.81751229  0.93500441  0.67428640  1
  H  H21  1  0.67428640  0.81751229  0.93500441  1
  H  H22  1  0.93500441  0.67428640  0.81751230  1
  H  H23  1  0.18248771  0.06499559  0.32571360  1
  H  H24  1  0.32571360  0.18248771  0.06499559  1
  H  H25  1  0.06499559  0.32571360  0.18248770  1
  C  C26  1  0.37092144  0.55083099  0.26708997  1
  C  C27  1  0.26708997  0.37092144  0.55083099  1
  C  C28  1  0.55083099  0.26708997  0.37092144  1
  C  C29  1  0.62907856  0.44916901  0.73291003  1
  C  C30  1  0.73291003  0.62907856  0.44916901  1
  C  C31  1  0.44916901  0.73291003  0.62907856  1
  N  N32  1  0.28861748  0.58015007  0.12944333  1
  N  N33  1  0.12944333  0.28861748  0.58015007  1
  N  N34  1  0.58015007  0.12944333  0.28861748  1
  N  N35  1  0.71138252  0.41984993  0.87055667  1
  N  N36  1  0.87055667  0.71138252  0.41984993  1
  N  N37  1  0.41984993  0.87055667  0.71138252  1
