# generated using pymatgen
data_Co2S3
_symmetry_space_group_name_H-M   'P 1'
_cell_length_a   5.70258243
_cell_length_b   5.70258457
_cell_length_c   6.01189010
_cell_angle_alpha   118.31219320
_cell_angle_beta   61.68781006
_cell_angle_gamma   120.00000047
_symmetry_Int_Tables_number   1
_chemical_formula_structural   Co2S3
_chemical_formula_sum   'Co4 S6'
_cell_volume   141.66413783
_cell_formula_units_Z   2
loop_
 _symmetry_equiv_pos_site_id
 _symmetry_equiv_pos_as_xyz
  1  'x, y, z'
loop_
 _atom_site_type_symbol
 _atom_site_label
 _atom_site_symmetry_multiplicity
 _atom_site_fract_x
 _atom_site_fract_y
 _atom_site_fract_z
 _atom_site_occupancy
  Co  Co0  1  0.64989045  0.35011055  0.05033066  1
  Co  Co1  1  0.85010955  0.14988945  0.44966934  1
  Co  Co2  1  0.14988945  0.85011055  0.55033266  1
  Co  Co3  1  0.35011155  0.64988945  0.94966734  1
  S  S4  1  0.55283082  0.75000000  0.25000000  1
  S  S5  1  0.25000000  0.05282982  0.25000000  1
  S  S6  1  0.94717018  0.44716818  0.25000000  1
  S  S7  1  0.05282982  0.55282982  0.75000000  1
  S  S8  1  0.75000100  0.94717018  0.75000000  1
  S  S9  1  0.44717018  0.25000000  0.75000000  1
