# generated using pymatgen
data_CoBP2HPbO9
_symmetry_space_group_name_H-M   'P 1'
_cell_length_a   5.28189158
_cell_length_b   7.87942436
_cell_length_c   8.48225376
_cell_angle_alpha   89.96251103
_cell_angle_beta   80.22274308
_cell_angle_gamma   87.66071879
_symmetry_Int_Tables_number   1
_chemical_formula_structural   CoBP2HPbO9
_chemical_formula_sum   'Co2 B2 P4 H2 Pb2 O18'
_cell_volume   347.59227618
_cell_formula_units_Z   2
loop_
 _symmetry_equiv_pos_site_id
 _symmetry_equiv_pos_as_xyz
  1  'x, y, z'
loop_
 _atom_site_type_symbol
 _atom_site_label
 _atom_site_symmetry_multiplicity
 _atom_site_fract_x
 _atom_site_fract_y
 _atom_site_fract_z
 _atom_site_occupancy
  Co  Co0  1  0.26681397  0.20154038  0.80088562  1
  Co  Co1  1  0.73316625  0.79855042  0.19919020  1
  B  B2  1  0.11611456  0.24974692  0.45676651  1
  B  B3  1  0.88387251  0.75022383  0.54323487  1
  P  P4  1  0.22876203  0.06558048  0.17765895  1
  P  P5  1  0.77126615  0.93445617  0.82232903  1
  P  P6  1  0.18845810  0.57021598  0.30138889  1
  P  P7  1  0.81158298  0.42978646  0.69858998  1
  H  H8  1  0.46288009  0.14960465  0.50038535  1
  H  H9  1  0.53697909  0.85012267  0.49959288  1
  Pb  Pb10  1  0.72053628  0.30522742  0.08902383  1
  Pb  Pb11  1  0.27942108  0.69480915  0.91103761  1
  O  O12  1  0.50816523  0.02898136  0.20468758  1
  O  O13  1  0.49190039  0.97111285  0.79531811  1
  O  O14  1  0.43332966  0.61850949  0.18723581  1
  O  O15  1  0.56667628  0.38146631  0.81274106  1
  O  O16  1  0.28763189  0.17018340  0.55781218  1
  O  O17  1  0.71219673  0.82975594  0.44219728  1
  O  O18  1  0.25722792  0.39484205  0.37396050  1
  O  O19  1  0.74277672  0.60515036  0.62603093  1
  O  O20  1  0.23337467  0.21325755  0.05392923  1
  O  O21  1  0.76667817  0.78684552  0.94610912  1
  O  O22  1  0.13169163  0.70140016  0.44400986  1
  O  O23  1  0.86831701  0.29861481  0.55596005  1
  O  O24  1  0.09995906  0.90741993  0.12961694  1
  O  O25  1  0.90024260  0.09258189  0.87034613  1
  O  O26  1  0.05110492  0.13375768  0.33526592  1
  O  O27  1  0.94885979  0.86622976  0.66471023  1
  O  O28  1  0.04296568  0.43568118  0.78645345  1
  O  O29  1  0.95704556  0.56434822  0.21353992  1
