# generated using pymatgen
data_HoAl3
_symmetry_space_group_name_H-M   'P 1'
_cell_length_a   6.23658486
_cell_length_b   6.23658420
_cell_length_c   4.62574451
_cell_angle_alpha   90.00000000
_cell_angle_beta   90.00000000
_cell_angle_gamma   119.99999169
_symmetry_Int_Tables_number   1
_chemical_formula_structural   HoAl3
_chemical_formula_sum   'Ho2 Al6'
_cell_volume   155.81380604
_cell_formula_units_Z   2
loop_
 _symmetry_equiv_pos_site_id
 _symmetry_equiv_pos_as_xyz
  1  'x, y, z'
loop_
 _atom_site_type_symbol
 _atom_site_label
 _atom_site_symmetry_multiplicity
 _atom_site_fract_x
 _atom_site_fract_y
 _atom_site_fract_z
 _atom_site_occupancy
  Ho  Ho0  1  0.66666600  0.33333200  0.24999900  1
  Ho  Ho1  1  0.33333300  0.66666700  0.75000000  1
  Al  Al2  1  0.85173460  0.14826740  0.75000000  1
  Al  Al3  1  0.29653280  0.14826740  0.75000000  1
  Al  Al4  1  0.85173260  0.70346720  0.75000000  1
  Al  Al5  1  0.14826540  0.85173360  0.24999900  1
  Al  Al6  1  0.70346720  0.85173360  0.24999900  1
  Al  Al7  1  0.14826740  0.29653380  0.24999900  1
