# generated using pymatgen
data_ErMg2
_symmetry_space_group_name_H-M   'P 1'
_cell_length_a   5.99520209
_cell_length_b   5.99520391
_cell_length_c   6.00952882
_cell_angle_alpha   119.92115752
_cell_angle_beta   60.07883856
_cell_angle_gamma   119.99998832
_symmetry_Int_Tables_number   1
_chemical_formula_structural   ErMg2
_chemical_formula_sum   'Er2 Mg4'
_cell_volume   152.91488423
_cell_formula_units_Z   2
loop_
 _symmetry_equiv_pos_site_id
 _symmetry_equiv_pos_as_xyz
  1  'x, y, z'
loop_
 _atom_site_type_symbol
 _atom_site_label
 _atom_site_symmetry_multiplicity
 _atom_site_fract_x
 _atom_site_fract_y
 _atom_site_fract_z
 _atom_site_occupancy
  Er  Er0  1  0.87496171  0.45837229  0.37511488  1
  Er  Er1  1  0.12503829  0.20829571  0.62488512  1
  Mg  Mg2  1  1.00000000  0.83309469  1.00000000  1
  Mg  Mg3  1  0.49976169  0.33333300  0.00000000  1
  Mg  Mg4  1  0.50023831  0.83357231  0.00000000  1
  Mg  Mg5  1  0.50000000  0.83333300  0.49999900  1
