# generated using pymatgen
data_LuZr3
_symmetry_space_group_name_H-M   'P 1'
_cell_length_a   6.60310882
_cell_length_b   6.60310884
_cell_length_c   5.23346711
_cell_angle_alpha   90.00000000
_cell_angle_beta   90.00000000
_cell_angle_gamma   119.99999988
_symmetry_Int_Tables_number   1
_chemical_formula_structural   LuZr3
_chemical_formula_sum   'Lu2 Zr6'
_cell_volume   197.61369654
_cell_formula_units_Z   2
loop_
 _symmetry_equiv_pos_site_id
 _symmetry_equiv_pos_as_xyz
  1  'x, y, z'
loop_
 _atom_site_type_symbol
 _atom_site_label
 _atom_site_symmetry_multiplicity
 _atom_site_fract_x
 _atom_site_fract_y
 _atom_site_fract_z
 _atom_site_occupancy
  Lu  Lu0  1  0.33333300  0.66666600  0.75000100  1
  Lu  Lu1  1  0.66666600  0.33333200  0.24999800  1
  Zr  Zr2  1  0.16384884  0.32769769  0.24999800  1
  Zr  Zr3  1  0.67230131  0.83614916  0.24999800  1
  Zr  Zr4  1  0.16384884  0.83614916  0.24999800  1
  Zr  Zr5  1  0.83615116  0.67230131  0.75000100  1
  Zr  Zr6  1  0.32769769  0.16384884  0.75000100  1
  Zr  Zr7  1  0.83615016  0.16384884  0.75000100  1
