# generated using pymatgen
data_P
_symmetry_space_group_name_H-M   'P 1'
_cell_length_a   5.47258507
_cell_length_b   2.44826370
_cell_length_c   2.44614568
_cell_angle_alpha   90.01769587
_cell_angle_beta   116.53496547
_cell_angle_gamma   89.98251480
_symmetry_Int_Tables_number   1
_chemical_formula_structural   P
_chemical_formula_sum   P2
_cell_volume   29.32188910
_cell_formula_units_Z   2
loop_
 _symmetry_equiv_pos_site_id
 _symmetry_equiv_pos_as_xyz
  1  'x, y, z'
loop_
 _atom_site_type_symbol
 _atom_site_label
 _atom_site_symmetry_multiplicity
 _atom_site_fract_x
 _atom_site_fract_y
 _atom_site_fract_z
 _atom_site_occupancy
  P  P0  1  0.25188108  0.98570728  0.74994543  1
  P  P1  1  0.75224192  0.98434672  0.25614257  1
