# generated using pymatgen
data_LiAg3
_symmetry_space_group_name_H-M   'P 1'
_cell_length_a   5.78813362
_cell_length_b   5.78863493
_cell_length_c   4.76637005
_cell_angle_alpha   90.00000000
_cell_angle_beta   90.00000000
_cell_angle_gamma   119.96686296
_symmetry_Int_Tables_number   1
_chemical_formula_structural   LiAg3
_chemical_formula_sum   'Li2 Ag6'
_cell_volume   138.34963461
_cell_formula_units_Z   2
loop_
 _symmetry_equiv_pos_site_id
 _symmetry_equiv_pos_as_xyz
  1  'x, y, z'
loop_
 _atom_site_type_symbol
 _atom_site_label
 _atom_site_symmetry_multiplicity
 _atom_site_fract_x
 _atom_site_fract_y
 _atom_site_fract_z
 _atom_site_occupancy
  Li  Li0  1  0.66664749  0.33332291  0.25000200  1
  Li  Li1  1  0.33335295  0.66667666  0.75000200  1
  Ag  Ag2  1  0.83181195  0.16840204  0.75000200  1
  Ag  Ag3  1  0.33667724  0.16834855  0.75000200  1
  Ag  Ag4  1  0.83178607  0.66338184  0.75000200  1
  Ag  Ag5  1  0.16818882  0.83159787  0.25000200  1
  Ag  Ag6  1  0.66332236  0.83165043  0.25000200  1
  Ag  Ag7  1  0.16821312  0.33662271  0.25000200  1
