# generated using pymatgen
data_Li2Ni(PO4)2
_symmetry_space_group_name_H-M   'P 1'
_cell_length_a   4.93857934
_cell_length_b   17.48941689
_cell_length_c   6.69133127
_cell_angle_alpha   90.00000000
_cell_angle_beta   94.08901458
_cell_angle_gamma   90.00000000
_symmetry_Int_Tables_number   1
_chemical_formula_structural   Li2Ni(PO4)2
_chemical_formula_sum   'Li8 Ni4 P8 O32'
_cell_volume   576.47831924
_cell_formula_units_Z   4
loop_
 _symmetry_equiv_pos_site_id
 _symmetry_equiv_pos_as_xyz
  1  'x, y, z'
loop_
 _atom_site_type_symbol
 _atom_site_label
 _atom_site_symmetry_multiplicity
 _atom_site_fract_x
 _atom_site_fract_y
 _atom_site_fract_z
 _atom_site_occupancy
  Li  Li0  1  0.17450643  0.87806262  0.55415317  1
  Li  Li1  1  0.32549357  0.37806262  0.94584683  1
  Li  Li2  1  0.29237196  0.55266955  0.21993685  1
  Li  Li3  1  0.20762804  0.05266955  0.28006315  1
  Li  Li4  1  0.73559315  0.61272872  0.97070729  1
  Li  Li5  1  0.70362065  0.80116179  0.32250383  1
  Li  Li6  1  0.76440685  0.11272872  0.52929271  1
  Li  Li7  1  0.79637935  0.30116179  0.17749617  1
  Ni  Ni8  1  0.19293234  0.87590373  0.00711640  1
  Ni  Ni9  1  0.30706766  0.37590373  0.49288360  1
  Ni  Ni10  1  0.69785908  0.63057362  0.51664494  1
  Ni  Ni11  1  0.80214092  0.13057362  0.98335506  1
  O  O12  1  0.01219015  0.70019350  0.46721773  1
  O  O13  1  0.06791564  0.65237228  0.12638509  1
  O  O14  1  0.10784355  0.44969920  0.28317935  1
  O  O15  1  0.14603235  0.07183353  0.96071805  1
  O  O16  1  0.10917867  0.79685004  0.22160906  1
  O  O17  1  0.13028388  0.06055228  0.57673273  1
  O  O18  1  0.22159007  0.44987606  0.71632176  1
  O  O19  1  0.27840993  0.94987606  0.78367824  1
  O  O20  1  0.36971612  0.56055228  0.92326727  1
  O  O21  1  0.35396765  0.57183353  0.53928195  1
  O  O22  1  0.39082133  0.29685004  0.27839094  1
  O  O23  1  0.39215645  0.94969920  0.21682065  1
  O  O24  1  0.43208436  0.15237228  0.37361491  1
  O  O25  1  0.48780985  0.20019350  0.03278227  1
  O  O26  1  0.51303970  0.31378132  0.71388279  1
  O  O27  1  0.48522899  0.70168503  0.31810411  1
  O  O28  1  0.56269171  0.81859118  0.98176000  1
  O  O29  1  0.53389090  0.82186990  0.59289638  1
  O  O30  1  0.57877398  0.06620807  0.77810924  1
  O  O31  1  0.64944016  0.70171185  0.77644450  1
  O  O32  1  0.67509202  0.43020334  0.46840744  1
  O  O33  1  0.66748107  0.41492718  0.09427071  1
  O  O34  1  0.77830364  0.04708618  0.23474063  1
  O  O35  1  0.72169636  0.54708618  0.26525937  1
  O  O36  1  0.85055984  0.20171185  0.72355550  1
  O  O37  1  0.83251893  0.91492718  0.40572929  1
  O  O38  1  0.82490798  0.93020334  0.03159256  1
  O  O39  1  0.92122602  0.56620807  0.72189076  1
  O  O40  1  0.96610910  0.32186990  0.90710362  1
  O  O41  1  0.93730829  0.31859118  0.51824000  1
  O  O42  1  0.98696030  0.81378132  0.78611721  1
  O  O43  1  0.01477101  0.20168503  0.18189589  1
  P  P44  1  0.22089358  0.53885957  0.72104323  1
  P  P45  1  0.17520037  0.71271322  0.27944062  1
  P  P46  1  0.27910642  0.03885957  0.77895677  1
  P  P47  1  0.32479963  0.21271322  0.22055938  1
  P  P48  1  0.68743086  0.78915533  0.78474123  1
  P  P49  1  0.70345778  0.96114691  0.22837632  1
  P  P50  1  0.81256914  0.28915533  0.71525877  1
  P  P51  1  0.79654222  0.46114691  0.27162368  1
