# generated using pymatgen
data_Tb3In
_symmetry_space_group_name_H-M   'P 1'
_cell_length_a   6.94638418
_cell_length_b   6.94638418
_cell_length_c   5.52701935
_cell_angle_alpha   90.00000000
_cell_angle_beta   90.00000000
_cell_angle_gamma   119.99999514
_symmetry_Int_Tables_number   1
_chemical_formula_structural   Tb3In
_chemical_formula_sum   'Tb6 In2'
_cell_volume   230.96131095
_cell_formula_units_Z   2
loop_
 _symmetry_equiv_pos_site_id
 _symmetry_equiv_pos_as_xyz
  1  'x, y, z'
loop_
 _atom_site_type_symbol
 _atom_site_label
 _atom_site_symmetry_multiplicity
 _atom_site_fract_x
 _atom_site_fract_y
 _atom_site_fract_z
 _atom_site_occupancy
  Tb  Tb0  1  0.82736402  0.17263598  0.75000000  1
  Tb  Tb1  1  0.34527097  0.17263598  0.75000000  1
  Tb  Tb2  1  0.82736502  0.65472803  0.75000000  1
  Tb  Tb3  1  0.17263698  0.82736302  0.25000000  1
  Tb  Tb4  1  0.65472803  0.82736302  0.25000000  1
  Tb  Tb5  1  0.17263598  0.34527197  0.25000000  1
  In  In6  1  0.66666600  0.33333400  0.25000000  1
  In  In7  1  0.33333400  0.66666700  0.75000000  1
