# generated using pymatgen
data_Tm3Al
_symmetry_space_group_name_H-M   'P 1'
_cell_length_a   6.71911501
_cell_length_b   6.71911503
_cell_length_c   5.28659382
_cell_angle_alpha   90.00000000
_cell_angle_beta   90.00000000
_cell_angle_gamma   119.99999502
_symmetry_Int_Tables_number   1
_chemical_formula_structural   Tm3Al
_chemical_formula_sum   'Tm6 Al2'
_cell_volume   206.69537005
_cell_formula_units_Z   2
loop_
 _symmetry_equiv_pos_site_id
 _symmetry_equiv_pos_as_xyz
  1  'x, y, z'
loop_
 _atom_site_type_symbol
 _atom_site_label
 _atom_site_symmetry_multiplicity
 _atom_site_fract_x
 _atom_site_fract_y
 _atom_site_fract_z
 _atom_site_occupancy
  Tm  Tm0  1  0.82704799  0.17295401  0.74999900  1
  Tm  Tm1  1  0.34590702  0.17295401  0.74999900  1
  Tm  Tm2  1  0.82704699  0.65409298  0.74999900  1
  Tm  Tm3  1  0.17295201  0.82704699  0.24999900  1
  Tm  Tm4  1  0.65409398  0.82704699  0.24999900  1
  Tm  Tm5  1  0.17295301  0.34590602  0.24999900  1
  Al  Al6  1  0.66666700  0.33333400  0.24999900  1
  Al  Al7  1  0.33333300  0.66666500  0.74999900  1
