# generated using pymatgen
data_Tl
_symmetry_space_group_name_H-M   'P 1'
_cell_length_a   10.61227265
_cell_length_b   10.61227265
_cell_length_c   10.61227265
_cell_angle_alpha   109.47122063
_cell_angle_beta   109.47122063
_cell_angle_gamma   109.47122063
_symmetry_Int_Tables_number   1
_chemical_formula_structural   Tl
_chemical_formula_sum   Tl29
_cell_volume   920.03279230
_cell_formula_units_Z   29
loop_
 _symmetry_equiv_pos_site_id
 _symmetry_equiv_pos_as_xyz
  1  'x, y, z'
loop_
 _atom_site_type_symbol
 _atom_site_label
 _atom_site_symmetry_multiplicity
 _atom_site_fract_x
 _atom_site_fract_y
 _atom_site_fract_z
 _atom_site_occupancy
  Tl  Tl0  1  0.36342902  -0.00000000  -0.00000000  1
  Tl  Tl1  1  0.00000000  -0.00000000  0.00000000  1
  Tl  Tl2  1  0.59843592  0.31712160  -0.00000000  1
  Tl  Tl3  1  0.00000000  0.36342902  0.00000000  1
  Tl  Tl4  1  0.31712160  0.59843592  0.00000000  1
  Tl  Tl5  1  0.80904077  0.62578357  0.00000000  1
  Tl  Tl6  1  0.62578357  0.80904077  0.00000000  1
  Tl  Tl7  1  0.37421643  0.37421643  0.18325720  1
  Tl  Tl8  1  0.81674280  0.19095923  0.19095923  1
  Tl  Tl9  1  0.19095923  0.81674280  0.19095923  1
  Tl  Tl10  1  0.68287840  0.68287840  0.28131431  1
  Tl  Tl11  1  0.59843592  0.00000000  0.31712160  1
  Tl  Tl12  1  -0.00000000  0.59843592  0.31712160  1
  Tl  Tl13  1  0.00000000  -0.00000000  0.36342902  1
  Tl  Tl14  1  0.37421643  0.18325720  0.37421643  1
  Tl  Tl15  1  0.18325720  0.37421643  0.37421643  1
  Tl  Tl16  1  0.71868569  0.40156408  0.40156408  1
  Tl  Tl17  1  0.40156408  0.71868569  0.40156408  1
  Tl  Tl18  1  0.31712160  -0.00000000  0.59843592  1
  Tl  Tl19  1  -0.00000000  0.31712160  0.59843592  1
  Tl  Tl20  1  0.80904077  0.00000000  0.62578357  1
  Tl  Tl21  1  0.00000000  0.80904077  0.62578357  1
  Tl  Tl22  1  0.63657198  0.63657198  0.63657198  1
  Tl  Tl23  1  0.68287840  0.28131431  0.68287840  1
  Tl  Tl24  1  0.28131431  0.68287840  0.68287840  1
  Tl  Tl25  1  0.40156408  0.40156408  0.71868569  1
  Tl  Tl26  1  0.62578357  0.00000000  0.80904077  1
  Tl  Tl27  1  0.00000000  0.62578357  0.80904077  1
  Tl  Tl28  1  0.19095923  0.19095923  0.81674280  1
