# generated using pymatgen
data_UVSe3
_symmetry_space_group_name_H-M   'P 1'
_cell_length_a   6.37230394
_cell_length_b   7.34728169
_cell_length_c   9.48257820
_cell_angle_alpha   90.00000000
_cell_angle_beta   90.00000000
_cell_angle_gamma   90.00000000
_symmetry_Int_Tables_number   1
_chemical_formula_structural   UVSe3
_chemical_formula_sum   'U4 V4 Se12'
_cell_volume   443.96589138
_cell_formula_units_Z   4
loop_
 _symmetry_equiv_pos_site_id
 _symmetry_equiv_pos_as_xyz
  1  'x, y, z'
loop_
 _atom_site_type_symbol
 _atom_site_label
 _atom_site_symmetry_multiplicity
 _atom_site_fract_x
 _atom_site_fract_y
 _atom_site_fract_z
 _atom_site_occupancy
  U  U0  1  0.56545446  0.12103294  0.75000000  1
  U  U1  1  0.93454554  0.62103294  0.75000000  1
  U  U2  1  0.43454554  0.87896706  0.25000000  1
  U  U3  1  0.06545446  0.37896706  0.25000000  1
  V  V4  1  0.50000000  0.50000000  0.00000000  1
  V  V5  1  -0.00000000  -0.00000000  0.50000000  1
  V  V6  1  0.50000000  0.50000000  0.50000000  1
  V  V7  1  -0.00000000  -0.00000000  0.00000000  1
  Se  Se8  1  0.34253528  0.18055129  0.43904044  1
  Se  Se9  1  0.15746472  0.68055129  0.06095956  1
  Se  Se10  1  0.65746472  0.81944871  0.93904044  1
  Se  Se11  1  0.84253528  0.31944871  0.56095956  1
  Se  Se12  1  0.65746472  0.81944871  0.56095956  1
  Se  Se13  1  0.84253528  0.31944871  0.93904044  1
  Se  Se14  1  0.34253528  0.18055129  0.06095956  1
  Se  Se15  1  0.15746472  0.68055129  0.43904044  1
  Se  Se16  1  0.35032569  0.45937141  0.75000000  1
  Se  Se17  1  0.14967431  0.95937141  0.75000000  1
  Se  Se18  1  0.64967431  0.54062859  0.25000000  1
  Se  Se19  1  0.85032569  0.04062859  0.25000000  1
