# generated using pymatgen
data_Tm3Pt
_symmetry_space_group_name_H-M   'P 1'
_cell_length_a   6.44481822
_cell_length_b   6.94661995
_cell_length_c   9.42644783
_cell_angle_alpha   90.00000000
_cell_angle_beta   90.00000000
_cell_angle_gamma   90.00000000
_symmetry_Int_Tables_number   1
_chemical_formula_structural   Tm3Pt
_chemical_formula_sum   'Tm12 Pt4'
_cell_volume   422.01926801
_cell_formula_units_Z   4
loop_
 _symmetry_equiv_pos_site_id
 _symmetry_equiv_pos_as_xyz
  1  'x, y, z'
loop_
 _atom_site_type_symbol
 _atom_site_label
 _atom_site_symmetry_multiplicity
 _atom_site_fract_x
 _atom_site_fract_y
 _atom_site_fract_z
 _atom_site_occupancy
  Tm  Tm0  1  0.32022549  0.68133113  0.06087240  1
  Tm  Tm1  1  0.17977451  0.18133113  0.43912760  1
  Tm  Tm2  1  0.67977451  0.31866887  0.56087240  1
  Tm  Tm3  1  0.82022549  0.81866887  0.93912760  1
  Tm  Tm4  1  0.67977451  0.31866887  0.93912760  1
  Tm  Tm5  1  0.82022549  0.81866887  0.56087240  1
  Tm  Tm6  1  0.32022549  0.68133113  0.43912760  1
  Tm  Tm7  1  0.17977451  0.18133113  0.06087240  1
  Tm  Tm8  1  0.86899974  0.52645984  0.25000000  1
  Tm  Tm9  1  0.63100026  0.02645984  0.25000000  1
  Tm  Tm10  1  0.13100026  0.47354016  0.75000000  1
  Tm  Tm11  1  0.36899974  0.97354016  0.75000000  1
  Pt  Pt12  1  0.04845486  0.88995766  0.25000000  1
  Pt  Pt13  1  0.45154514  0.38995766  0.25000000  1
  Pt  Pt14  1  0.95154514  0.11004234  0.75000000  1
  Pt  Pt15  1  0.54845486  0.61004234  0.75000000  1
