# generated using pymatgen
data_Y2S3
_symmetry_space_group_name_H-M   'P 1'
_cell_length_a   3.88697006
_cell_length_b   10.51227488
_cell_length_c   10.69305000
_cell_angle_alpha   90.00000000
_cell_angle_beta   90.00000000
_cell_angle_gamma   90.00000000
_symmetry_Int_Tables_number   1
_chemical_formula_structural   Y2S3
_chemical_formula_sum   'Y8 S12'
_cell_volume   436.92762238
_cell_formula_units_Z   4
loop_
 _symmetry_equiv_pos_site_id
 _symmetry_equiv_pos_as_xyz
  1  'x, y, z'
loop_
 _atom_site_type_symbol
 _atom_site_label
 _atom_site_symmetry_multiplicity
 _atom_site_fract_x
 _atom_site_fract_y
 _atom_site_fract_z
 _atom_site_occupancy
  Y  Y0  1  0.25000000  0.18746619  0.49229535  1
  Y  Y1  1  0.25000000  0.31253381  0.99229535  1
  Y  Y2  1  0.75000000  0.81253381  0.50770465  1
  Y  Y3  1  0.75000000  0.68746619  0.00770465  1
  Y  Y4  1  0.75000000  0.49508348  0.69186269  1
  Y  Y5  1  0.75000000  0.00491652  0.19186269  1
  Y  Y6  1  0.25000000  0.50491652  0.30813731  1
  Y  Y7  1  0.25000000  0.99508348  0.80813731  1
  S  S8  1  0.25000000  0.62657996  0.54516016  1
  S  S9  1  0.25000000  0.87342004  0.04516016  1
  S  S10  1  0.75000000  0.37342004  0.45483984  1
  S  S11  1  0.75000000  0.12657996  0.95483984  1
  S  S12  1  0.75000000  0.05417991  0.61952307  1
  S  S13  1  0.75000000  0.44582009  0.11952307  1
  S  S14  1  0.25000000  0.94582009  0.38047693  1
  S  S15  1  0.25000000  0.55417991  0.88047693  1
  S  S16  1  0.25000000  0.30335831  0.72907061  1
  S  S17  1  0.25000000  0.19664169  0.22907061  1
  S  S18  1  0.75000000  0.69664169  0.27092939  1
  S  S19  1  0.75000000  0.80335831  0.77092939  1
