# generated using pymatgen
data_LiNiP2O7
_symmetry_space_group_name_H-M   'P 1'
_cell_length_a   8.74272920
_cell_length_b   8.17327335
_cell_length_c   4.94497607
_cell_angle_alpha   107.38056197
_cell_angle_beta   90.15652224
_cell_angle_gamma   68.10029857
_symmetry_Int_Tables_number   1
_chemical_formula_structural   LiNiP2O7
_chemical_formula_sum   'Li2 Ni2 P4 O14'
_cell_volume   310.51821624
_cell_formula_units_Z   2
loop_
 _symmetry_equiv_pos_site_id
 _symmetry_equiv_pos_as_xyz
  1  'x, y, z'
loop_
 _atom_site_type_symbol
 _atom_site_label
 _atom_site_symmetry_multiplicity
 _atom_site_fract_x
 _atom_site_fract_y
 _atom_site_fract_z
 _atom_site_occupancy
  Li  Li0  1  0.95225186  0.89081043  0.34979436  1
  Li  Li1  1  0.45180390  0.89115184  0.03975027  1
  Ni  Ni2  1  0.50153063  0.49772662  0.99509299  1
  Ni  Ni3  1  0.00045919  0.49747742  0.00013239  1
  P  P4  1  0.18760270  0.69383005  0.73211643  1
  P  P5  1  0.81267330  0.30455790  0.26108709  1
  P  P6  1  0.31212679  0.30162680  0.54369533  1
  P  P7  1  0.68817196  0.69650053  0.46242368  1
  O  O8  1  0.65495472  0.30959474  0.11093275  1
  O  O9  1  0.84424294  0.69937676  0.31793901  1
  O  O10  1  0.24912162  0.49792849  0.46923132  1
  O  O11  1  0.37118550  0.14509898  0.26803609  1
  O  O12  1  0.94602271  0.31158791  0.06737710  1
  O  O13  1  0.06015444  0.68635105  0.94469163  1
  O  O14  1  0.44688141  0.30705775  0.74253829  1
  O  O15  1  0.75094270  0.49876148  0.53113042  1
  O  O16  1  0.55785937  0.69040528  0.24696809  1
  O  O17  1  0.87080013  0.14462648  0.37353015  1
  O  O18  1  0.15542455  0.30257976  0.69003267  1
  O  O19  1  0.61552426  0.84903678  0.73886566  1
  O  O20  1  0.34511630  0.69446177  0.88326093  1
  O  O21  1  0.11662802  0.84849317  0.61088137  1
