# generated using pymatgen
data_U2Si5Rh3
_symmetry_space_group_name_H-M   'P 1'
_cell_length_a   5.75593850
_cell_length_b   8.19919997
_cell_length_c   8.19919997
_cell_angle_alpha   91.23170270
_cell_angle_beta   110.98462171
_cell_angle_gamma   110.98462171
_symmetry_Int_Tables_number   1
_chemical_formula_structural   U2Si5Rh3
_chemical_formula_sum   'U4 Si10 Rh6'
_cell_volume   332.31385552
_cell_formula_units_Z   2
loop_
 _symmetry_equiv_pos_site_id
 _symmetry_equiv_pos_as_xyz
  1  'x, y, z'
loop_
 _atom_site_type_symbol
 _atom_site_label
 _atom_site_symmetry_multiplicity
 _atom_site_fract_x
 _atom_site_fract_y
 _atom_site_fract_z
 _atom_site_occupancy
  U  U0  1  0.22616563  0.59589769  0.86536326  1
  U  U1  1  0.27383437  0.13463674  0.40410231  1
  U  U2  1  0.77383437  0.40410231  0.13463674  1
  U  U3  1  0.72616563  0.86536326  0.59589769  1
  Si  Si4  1  0.15797226  0.26542070  0.05665314  1
  Si  Si5  1  0.34202774  0.94334686  0.73457930  1
  Si  Si6  1  0.84202774  0.73457930  0.94334686  1
  Si  Si7  1  0.65797226  0.05665314  0.26542070  1
  Si  Si8  1  0.75000000  0.78892510  0.21107490  1
  Si  Si9  1  0.25000000  0.21107490  0.78892510  1
  Si  Si10  1  0.75000000  0.48902289  0.51097711  1
  Si  Si11  1  0.25000000  0.51097711  0.48902289  1
  Si  Si12  1  0.75000000  0.22114462  0.77885538  1
  Si  Si13  1  0.25000000  0.77885538  0.22114462  1
  Rh  Rh14  1  0.41780390  0.53878815  0.25539835  1
  Rh  Rh15  1  0.08219610  0.74460165  0.46121185  1
  Rh  Rh16  1  0.58219610  0.46121185  0.74460165  1
  Rh  Rh17  1  0.91780390  0.25539835  0.53878815  1
  Rh  Rh18  1  0.75000000  0.00019554  0.99980446  1
  Rh  Rh19  1  0.25000000  0.99980446  0.00019554  1
