# generated using pymatgen
data_Zn
_symmetry_space_group_name_H-M   'P 1'
_cell_length_a   2.65314456
_cell_length_b   2.65314456
_cell_length_c   7.56691884
_cell_angle_alpha   80.09211585
_cell_angle_beta   99.90788415
_cell_angle_gamma   119.95515695
_symmetry_Int_Tables_number   1
_chemical_formula_structural   Zn
_chemical_formula_sum   Zn3
_cell_volume   45.22909551
_cell_formula_units_Z   3
loop_
 _symmetry_equiv_pos_site_id
 _symmetry_equiv_pos_as_xyz
  1  'x, y, z'
loop_
 _atom_site_type_symbol
 _atom_site_label
 _atom_site_symmetry_multiplicity
 _atom_site_fract_x
 _atom_site_fract_y
 _atom_site_fract_z
 _atom_site_occupancy
  Zn  Zn0  1  -0.00000000  0.00000000  -0.00000000  1
  Zn  Zn1  1  0.77818366  0.22181634  0.33401294  1
  Zn  Zn2  1  0.22181634  0.77818366  0.66598606  1
