# generated using pymatgen
data_LiFe(GeO3)2
_symmetry_space_group_name_H-M   'P 1'
_cell_length_a   5.60433128
_cell_length_b   6.72971492
_cell_length_c   6.72971492
_cell_angle_alpha   81.15766030
_cell_angle_beta   74.88718489
_cell_angle_gamma   74.88718489
_symmetry_Int_Tables_number   1
_chemical_formula_structural   LiFe(GeO3)2
_chemical_formula_sum   'Li2 Fe2 Ge4 O12'
_cell_volume   235.55867437
_cell_formula_units_Z   2
loop_
 _symmetry_equiv_pos_site_id
 _symmetry_equiv_pos_as_xyz
  1  'x, y, z'
loop_
 _atom_site_type_symbol
 _atom_site_label
 _atom_site_symmetry_multiplicity
 _atom_site_fract_x
 _atom_site_fract_y
 _atom_site_fract_z
 _atom_site_occupancy
  Li  Li0  1  0.75000000  0.71983089  0.28016911  1
  Li  Li1  1  0.25000000  0.28016911  0.71983089  1
  Fe  Fe2  1  0.75000000  0.09367293  0.90632707  1
  Fe  Fe3  1  0.25000000  0.90632707  0.09367293  1
  Ge  Ge4  1  0.74816773  0.61723859  0.80393735  1
  Ge  Ge5  1  0.75183227  0.19606265  0.38276141  1
  Ge  Ge6  1  0.25183227  0.38276141  0.19606265  1
  Ge  Ge7  1  0.24816773  0.80393735  0.61723859  1
  O  O8  1  0.64341198  0.80471629  0.98615290  1
  O  O9  1  0.85658802  0.01384710  0.19528371  1
  O  O10  1  0.35658802  0.19528371  0.01384710  1
  O  O11  1  0.14341198  0.98615290  0.80471629  1
  O  O12  1  0.79498991  0.36513737  0.91809305  1
  O  O13  1  0.70501009  0.08190695  0.63486263  1
  O  O14  1  0.20501009  0.63486263  0.08190695  1
  O  O15  1  0.29498991  0.91809305  0.36513737  1
  O  O16  1  0.56636772  0.65914180  0.61420829  1
  O  O17  1  0.93363228  0.38579171  0.34085820  1
  O  O18  1  0.43363228  0.34085820  0.38579171  1
  O  O19  1  0.06636772  0.61420829  0.65914180  1
