# generated using pymatgen
data_DyGa3
_symmetry_space_group_name_H-M   'P 1'
_cell_length_a   6.21652130
_cell_length_b   6.21652130
_cell_length_c   9.97121377
_cell_angle_alpha   71.83687722
_cell_angle_beta   71.83687722
_cell_angle_gamma   59.99999190
_symmetry_Int_Tables_number   1
_chemical_formula_structural   DyGa3
_chemical_formula_sum   'Dy4 Ga12'
_cell_volume   311.34536268
_cell_formula_units_Z   4
loop_
 _symmetry_equiv_pos_site_id
 _symmetry_equiv_pos_as_xyz
  1  'x, y, z'
loop_
 _atom_site_type_symbol
 _atom_site_label
 _atom_site_symmetry_multiplicity
 _atom_site_fract_x
 _atom_site_fract_y
 _atom_site_fract_z
 _atom_site_occupancy
  Dy  Dy0  1  0.12953693  0.12953693  0.61138920  1
  Dy  Dy1  1  0.87046307  0.87046307  0.38861080  1
  Dy  Dy2  1  0.28784899  0.28784899  0.13645304  1
  Dy  Dy3  1  0.71215101  0.71215101  0.86354696  1
  Ga  Ga4  1  0.16874447  0.60234679  0.62656195  1
  Ga  Ga5  1  0.60234679  0.60234679  0.62656195  1
  Ga  Ga6  1  0.60234679  0.16874447  0.62656195  1
  Ga  Ga7  1  0.83125553  0.39765321  0.37343805  1
  Ga  Ga8  1  0.39765321  0.39765321  0.37343805  1
  Ga  Ga9  1  0.39765321  0.83125553  0.37343805  1
  Ga  Ga10  1  0.29006779  0.79226418  0.12540385  1
  Ga  Ga11  1  0.79226418  0.79226418  0.12540385  1
  Ga  Ga12  1  0.79226418  0.29006779  0.12540385  1
  Ga  Ga13  1  0.70993221  0.20773582  0.87459615  1
  Ga  Ga14  1  0.20773582  0.20773582  0.87459615  1
  Ga  Ga15  1  0.20773582  0.70993221  0.87459615  1
