# generated using pymatgen
data_Na2FeSO4F3
_symmetry_space_group_name_H-M   'P 1'
_cell_length_a   5.78058625
_cell_length_b   7.02360432
_cell_length_c   7.47887061
_cell_angle_alpha   90.00000000
_cell_angle_beta   90.00000000
_cell_angle_gamma   109.12752120
_symmetry_Int_Tables_number   1
_chemical_formula_structural   Na2FeSO4F3
_chemical_formula_sum   'Na4 Fe2 S2 O8 F6'
_cell_volume   286.88244855
_cell_formula_units_Z   2
loop_
 _symmetry_equiv_pos_site_id
 _symmetry_equiv_pos_as_xyz
  1  'x, y, z'
loop_
 _atom_site_type_symbol
 _atom_site_label
 _atom_site_symmetry_multiplicity
 _atom_site_fract_x
 _atom_site_fract_y
 _atom_site_fract_z
 _atom_site_occupancy
  Na  Na0  1  0.50000000  0.50000000  0.50000000  1
  Na  Na1  1  0.50000000  0.50000000  0.00000000  1
  Na  Na2  1  0.45636233  0.94047008  0.75000000  1
  Na  Na3  1  0.54363767  0.05952992  0.25000000  1
  Fe  Fe4  1  0.00000000  0.00000000  0.50000000  1
  Fe  Fe5  1  0.00000000  0.00000000  0.00000000  1
  S  S6  1  0.96448062  0.37601418  0.75000000  1
  S  S7  1  0.03551938  0.62398582  0.25000000  1
  O  O8  1  0.91609243  0.23987813  0.58660596  1
  O  O9  1  0.08390757  0.76012187  0.08660596  1
  O  O10  1  0.08390757  0.76012187  0.41339404  1
  O  O11  1  0.91609243  0.23987813  0.91339404  1
  O  O12  1  0.22294042  0.50748008  0.75000000  1
  O  O13  1  0.77705958  0.49251992  0.25000000  1
  O  O14  1  0.78645739  0.48299963  0.75000000  1
  O  O15  1  0.21354261  0.51700037  0.25000000  1
  F  F16  1  0.04545071  0.92070704  0.75000000  1
  F  F17  1  0.95454929  0.07929296  0.25000000  1
  F  F18  1  0.34793766  0.14769370  0.49551182  1
  F  F19  1  0.65206234  0.85230630  0.99551182  1
  F  F20  1  0.65206234  0.85230630  0.50448818  1
  F  F21  1  0.34793766  0.14769370  0.00448818  1
