# generated using pymatgen
data_HfFe2
_symmetry_space_group_name_H-M   'P 1'
_cell_length_a   4.93794792
_cell_length_b   4.93794792
_cell_length_c   16.06903211
_cell_angle_alpha   90.00000000
_cell_angle_beta   90.00000000
_cell_angle_gamma   119.99490323
_symmetry_Int_Tables_number   1
_chemical_formula_structural   HfFe2
_chemical_formula_sum   'Hf8 Fe16'
_cell_volume   339.34047425
_cell_formula_units_Z   8
loop_
 _symmetry_equiv_pos_site_id
 _symmetry_equiv_pos_as_xyz
  1  'x, y, z'
loop_
 _atom_site_type_symbol
 _atom_site_label
 _atom_site_symmetry_multiplicity
 _atom_site_fract_x
 _atom_site_fract_y
 _atom_site_fract_z
 _atom_site_occupancy
  Hf  Hf0  1  0.99998788  0.00001212  0.59415218  1
  Hf  Hf1  1  0.00001212  0.99998788  0.40584782  1
  Hf  Hf2  1  0.00001212  0.99998788  0.09415218  1
  Hf  Hf3  1  0.99998788  0.00001212  0.90584782  1
  Hf  Hf4  1  0.66668252  0.33331748  0.34376345  1
  Hf  Hf5  1  0.33331748  0.66668252  0.65623655  1
  Hf  Hf6  1  0.33331748  0.66668252  0.84376345  1
  Hf  Hf7  1  0.66668252  0.33331748  0.15623655  1
  Fe  Fe8  1  0.66669293  0.33330707  0.62517360  1
  Fe  Fe9  1  0.33330707  0.66669293  0.37482640  1
  Fe  Fe10  1  0.33330707  0.66669293  0.12517360  1
  Fe  Fe11  1  0.66669293  0.33330707  0.87482640  1
  Fe  Fe12  1  0.50000000  0.00000000  0.50000000  1
  Fe  Fe13  1  0.50000000  0.50000000  0.50000000  1
  Fe  Fe14  1  0.00000000  0.50000000  0.50000000  1
  Fe  Fe15  1  0.50000000  0.00000000  0.00000000  1
  Fe  Fe16  1  0.50000000  0.50000000  0.00000000  1
  Fe  Fe17  1  0.00000000  0.50000000  0.00000000  1
  Fe  Fe18  1  0.83498762  0.67000042  0.75000000  1
  Fe  Fe19  1  0.83499898  0.16500102  0.75000000  1
  Fe  Fe20  1  0.32999958  0.16501238  0.75000000  1
  Fe  Fe21  1  0.16501238  0.32999958  0.25000000  1
  Fe  Fe22  1  0.16500102  0.83499898  0.25000000  1
  Fe  Fe23  1  0.67000042  0.83498762  0.25000000  1
