# generated using pymatgen
data_EuHfS3
_symmetry_space_group_name_H-M   'P 1'
_cell_length_a   6.69049459
_cell_length_b   7.09714972
_cell_length_c   9.71806304
_cell_angle_alpha   90.00000000
_cell_angle_beta   90.00000000
_cell_angle_gamma   90.00000000
_symmetry_Int_Tables_number   1
_chemical_formula_structural   EuHfS3
_chemical_formula_sum   'Eu4 Hf4 S12'
_cell_volume   461.44708083
_cell_formula_units_Z   4
loop_
 _symmetry_equiv_pos_site_id
 _symmetry_equiv_pos_as_xyz
  1  'x, y, z'
loop_
 _atom_site_type_symbol
 _atom_site_label
 _atom_site_symmetry_multiplicity
 _atom_site_fract_x
 _atom_site_fract_y
 _atom_site_fract_z
 _atom_site_occupancy
  Eu  Eu0  1  0.47405064  0.58398929  0.25000000  1
  Eu  Eu1  1  0.02594936  0.08398929  0.25000000  1
  Eu  Eu2  1  0.52594936  0.41601071  0.75000000  1
  Eu  Eu3  1  0.97405064  0.91601071  0.75000000  1
  Hf  Hf4  1  0.00000000  0.50000000  0.00000000  1
  Hf  Hf5  1  0.50000000  0.00000000  0.50000000  1
  Hf  Hf6  1  0.00000000  0.50000000  0.50000000  1
  Hf  Hf7  1  0.50000000  0.00000000  -0.00000000  1
  S  S8  1  0.89790182  0.47832623  0.25000000  1
  S  S9  1  0.60209818  0.97832623  0.25000000  1
  S  S10  1  0.10209818  0.52167377  0.75000000  1
  S  S11  1  0.39790182  0.02167377  0.75000000  1
  S  S12  1  0.68902616  0.69435193  0.94796780  1
  S  S13  1  0.81097384  0.19435193  0.55203220  1
  S  S14  1  0.31097384  0.30564807  0.44796780  1
  S  S15  1  0.18902616  0.80564807  0.05203220  1
  S  S16  1  0.31097384  0.30564807  0.05203220  1
  S  S17  1  0.18902616  0.80564807  0.44796780  1
  S  S18  1  0.68902616  0.69435193  0.55203220  1
  S  S19  1  0.81097384  0.19435193  0.94796780  1
