# generated using pymatgen
data_NdMnO3
_symmetry_space_group_name_H-M   'P 1'
_cell_length_a   5.49970390
_cell_length_b   5.65781133
_cell_length_c   7.90017080
_cell_angle_alpha   90.57074876
_cell_angle_beta   90.00000000
_cell_angle_gamma   90.00000000
_symmetry_Int_Tables_number   1
_chemical_formula_structural   NdMnO3
_chemical_formula_sum   'Nd4 Mn4 O12'
_cell_volume   245.81178565
_cell_formula_units_Z   4
loop_
 _symmetry_equiv_pos_site_id
 _symmetry_equiv_pos_as_xyz
  1  'x, y, z'
loop_
 _atom_site_type_symbol
 _atom_site_label
 _atom_site_symmetry_multiplicity
 _atom_site_fract_x
 _atom_site_fract_y
 _atom_site_fract_z
 _atom_site_occupancy
  Nd  Nd0  1  0.51563966  0.44737638  0.24849463  1
  Nd  Nd1  1  0.01563966  0.05262362  0.75150537  1
  Nd  Nd2  1  0.48436034  0.55262362  0.75150537  1
  Nd  Nd3  1  0.98436034  0.94737638  0.24849463  1
  Mn  Mn4  1  0.00000000  0.50000000  -0.00000000  1
  Mn  Mn5  1  0.50000000  -0.00000000  -0.00000000  1
  Mn  Mn6  1  -0.00000000  0.50000000  0.50000000  1
  Mn  Mn7  1  0.50000000  -0.00000000  0.50000000  1
  O  O8  1  0.40551401  0.02700192  0.24001495  1
  O  O9  1  0.90551401  0.47299808  0.75998505  1
  O  O10  1  0.59448599  0.97299808  0.75998505  1
  O  O11  1  0.09448599  0.52700192  0.24001495  1
  O  O12  1  0.78684096  0.20479082  0.05341316  1
  O  O13  1  0.28684096  0.29520918  0.94658684  1
  O  O14  1  0.21315904  0.79520918  0.94658684  1
  O  O15  1  0.71315904  0.70479082  0.05341316  1
  O  O16  1  0.71234617  0.71031937  0.45092881  1
  O  O17  1  0.21234617  0.78968063  0.54907119  1
  O  O18  1  0.28765383  0.28968063  0.54907119  1
  O  O19  1  0.78765383  0.21031937  0.45092881  1
