# generated using pymatgen
data_Sm5Co19
_symmetry_space_group_name_H-M   'P 1'
_cell_length_a   4.97362697
_cell_length_b   4.97362697
_cell_length_c   16.36485826
_cell_angle_alpha   81.25943755
_cell_angle_beta   81.25943755
_cell_angle_gamma   60.00000221
_symmetry_Int_Tables_number   1
_chemical_formula_structural   Sm5Co19
_chemical_formula_sum   'Sm5 Co19'
_cell_volume   345.14246421
_cell_formula_units_Z   1
loop_
 _symmetry_equiv_pos_site_id
 _symmetry_equiv_pos_as_xyz
  1  'x, y, z'
loop_
 _atom_site_type_symbol
 _atom_site_label
 _atom_site_symmetry_multiplicity
 _atom_site_fract_x
 _atom_site_fract_y
 _atom_site_fract_z
 _atom_site_occupancy
  Sm  Sm0  1  -0.00000000  -0.00000000  0.00000000  1
  Sm  Sm1  1  0.07943915  0.07943915  0.76168256  1
  Sm  Sm2  1  0.92056085  0.92056085  0.23831744  1
  Sm  Sm3  1  0.15277005  0.15277005  0.54168986  1
  Sm  Sm4  1  0.84722995  0.84722995  0.45831014  1
  Co  Co5  1  0.50000000  0.50000000  0.50000000  1
  Co  Co6  1  0.25114141  0.25114141  0.24657577  1
  Co  Co7  1  0.74885859  0.74885859  0.75342423  1
  Co  Co8  1  0.33336343  0.33336343  -0.00009030  1
  Co  Co9  1  0.66663657  0.66663657  0.00009030  1
  Co  Co10  1  0.41557787  0.41557787  0.75326639  1
  Co  Co11  1  0.58442213  0.58442213  0.24673361  1
  Co  Co12  1  0.12440742  0.62149143  0.63260972  1
  Co  Co13  1  0.62149143  0.62149143  0.63260972  1
  Co  Co14  1  0.62149143  0.12440742  0.63260972  1
  Co  Co15  1  0.87559258  0.37850857  0.36739028  1
  Co  Co16  1  0.37850857  0.37850857  0.36739028  1
  Co  Co17  1  0.37850857  0.87559258  0.36739028  1
  Co  Co18  1  0.04169299  0.54039445  0.87751812  1
  Co  Co19  1  0.54039445  0.54039445  0.87751812  1
  Co  Co20  1  0.54039445  0.04169299  0.87751812  1
  Co  Co21  1  0.95830701  0.45960555  0.12248188  1
  Co  Co22  1  0.45960555  0.45960555  0.12248188  1
  Co  Co23  1  0.45960555  0.95830701  0.12248188  1
