# generated using pymatgen
data_ZrFe2
_symmetry_space_group_name_H-M   'P 1'
_cell_length_a   4.99719406
_cell_length_b   4.99719406
_cell_length_c   16.25872306
_cell_angle_alpha   90.00000000
_cell_angle_beta   90.00000000
_cell_angle_gamma   120.00163162
_symmetry_Int_Tables_number   1
_chemical_formula_structural   ZrFe2
_chemical_formula_sum   'Zr8 Fe16'
_cell_volume   351.61092040
_cell_formula_units_Z   8
loop_
 _symmetry_equiv_pos_site_id
 _symmetry_equiv_pos_as_xyz
  1  'x, y, z'
loop_
 _atom_site_type_symbol
 _atom_site_label
 _atom_site_symmetry_multiplicity
 _atom_site_fract_x
 _atom_site_fract_y
 _atom_site_fract_z
 _atom_site_occupancy
  Zr  Zr0  1  0.99999063  0.00000937  0.59420275  1
  Zr  Zr1  1  0.00000937  0.99999063  0.40579725  1
  Zr  Zr2  1  0.00000937  0.99999063  0.09420275  1
  Zr  Zr3  1  0.99999063  0.00000937  0.90579725  1
  Zr  Zr4  1  0.66666568  0.33333432  0.34381116  1
  Zr  Zr5  1  0.33333432  0.66666568  0.65618884  1
  Zr  Zr6  1  0.33333432  0.66666568  0.84381116  1
  Zr  Zr7  1  0.66666568  0.33333432  0.15618884  1
  Fe  Fe8  1  0.66667630  0.33332370  0.62512171  1
  Fe  Fe9  1  0.33332370  0.66667630  0.37487829  1
  Fe  Fe10  1  0.33332370  0.66667630  0.12512171  1
  Fe  Fe11  1  0.66667630  0.33332370  0.87487829  1
  Fe  Fe12  1  0.50000000  -0.00000000  0.50000000  1
  Fe  Fe13  1  0.50000000  0.50000000  0.50000000  1
  Fe  Fe14  1  -0.00000000  0.50000000  0.50000000  1
  Fe  Fe15  1  0.50000000  -0.00000000  0.00000000  1
  Fe  Fe16  1  0.50000000  0.50000000  0.00000000  1
  Fe  Fe17  1  -0.00000000  0.50000000  0.00000000  1
  Fe  Fe18  1  0.83552518  0.67104640  0.75000000  1
  Fe  Fe19  1  0.83551661  0.16448339  0.75000000  1
  Fe  Fe20  1  0.32895360  0.16447482  0.75000000  1
  Fe  Fe21  1  0.16447482  0.32895360  0.25000000  1
  Fe  Fe22  1  0.16448339  0.83551661  0.25000000  1
  Fe  Fe23  1  0.67104640  0.83552518  0.25000000  1
