# generated using pymatgen
data_SnSb4S7
_symmetry_space_group_name_H-M   'P 1'
_cell_length_a   3.89935886
_cell_length_b   11.36690758
_cell_length_c   14.77170749
_cell_angle_alpha   104.61457674
_cell_angle_beta   90.00000000
_cell_angle_gamma   90.00000000
_symmetry_Int_Tables_number   1
_chemical_formula_structural   SnSb4S7
_chemical_formula_sum   'Sn2 Sb8 S14'
_cell_volume   633.55204173
_cell_formula_units_Z   2
loop_
 _symmetry_equiv_pos_site_id
 _symmetry_equiv_pos_as_xyz
  1  'x, y, z'
loop_
 _atom_site_type_symbol
 _atom_site_label
 _atom_site_symmetry_multiplicity
 _atom_site_fract_x
 _atom_site_fract_y
 _atom_site_fract_z
 _atom_site_occupancy
  Sn  Sn0  1  0.75000000  0.61903714  0.78584981  1
  Sn  Sn1  1  0.25000000  0.38096286  0.21415019  1
  Sb  Sb2  1  0.75000000  0.33138184  0.52620841  1
  Sb  Sb3  1  0.25000000  0.66861816  0.47379159  1
  Sb  Sb4  1  0.75000000  0.05609080  0.11962618  1
  Sb  Sb5  1  0.25000000  0.94390920  0.88037382  1
  Sb  Sb6  1  0.75000000  0.34442210  0.96038568  1
  Sb  Sb7  1  0.25000000  0.65557790  0.03961432  1
  Sb  Sb8  1  0.75000000  0.92781702  0.38113864  1
  Sb  Sb9  1  0.25000000  0.07218298  0.61886136  1
  S  S10  1  0.75000000  0.24036123  0.66681826  1
  S  S11  1  0.25000000  0.75963877  0.33318174  1
  S  S12  1  0.75000000  0.04746767  0.81952442  1
  S  S13  1  0.25000000  0.95253233  0.18047558  1
  S  S14  1  0.75000000  0.88987277  0.53913020  1
  S  S15  1  0.25000000  0.11012723  0.46086980  1
  S  S16  1  0.75000000  0.23329236  0.25566870  1
  S  S17  1  0.25000000  0.76670764  0.74433130  1
  S  S18  1  0.75000000  0.53099424  0.39921296  1
  S  S19  1  0.25000000  0.46900576  0.60078704  1
  S  S20  1  0.75000000  0.51287626  0.10497291  1
  S  S21  1  0.25000000  0.48712374  0.89502709  1
  S  S22  1  0.75000000  0.76267421  0.96213874  1
  S  S23  1  0.25000000  0.23732579  0.03786126  1
