# generated using pymatgen
data_LiFe2(PO4)3
_symmetry_space_group_name_H-M   'P 1'
_cell_length_a   8.87749030
_cell_length_b   8.87657142
_cell_length_c   6.49376312
_cell_angle_alpha   74.93059217
_cell_angle_beta   105.06797843
_cell_angle_gamma   79.77787614
_symmetry_Int_Tables_number   1
_chemical_formula_structural   LiFe2(PO4)3
_chemical_formula_sum   'Li2 Fe4 P6 O24'
_cell_volume   460.36017391
_cell_formula_units_Z   2
loop_
 _symmetry_equiv_pos_site_id
 _symmetry_equiv_pos_as_xyz
  1  'x, y, z'
loop_
 _atom_site_type_symbol
 _atom_site_label
 _atom_site_symmetry_multiplicity
 _atom_site_fract_x
 _atom_site_fract_y
 _atom_site_fract_z
 _atom_site_occupancy
  Li  Li0  1  0.27509963  0.27502010  0.25002100  1
  Li  Li1  1  0.72490009  0.72498692  0.74997160  1
  O  O2  1  0.17384882  0.83111575  0.08098639  1
  O  O3  1  0.72694117  0.82485667  0.03257456  1
  O  O4  1  0.51832964  0.27347457  0.28939805  1
  O  O5  1  0.98939362  0.32574887  0.11472583  1
  O  O6  1  0.01059763  0.67424884  0.88528514  1
  O  O7  1  0.05530003  0.62853675  0.30436593  1
  O  O8  1  0.27306454  0.17513593  0.96742914  1
  O  O9  1  0.17515440  0.27302008  0.53262335  1
  O  O10  1  0.16884881  0.82616905  0.58094156  1
  O  O11  1  0.24256317  0.46399569  0.75539300  1
  O  O12  1  0.94470107  0.37146842  0.69564784  1
  O  O13  1  0.27343564  0.51825531  0.21057209  1
  O  O14  1  0.37140809  0.94468503  0.80434202  1
  O  O15  1  0.83115342  0.17383187  0.41906858  1
  O  O16  1  0.46397890  0.24257126  0.74459449  1
  O  O17  1  0.48167453  0.72652484  0.71059808  1
  O  O18  1  0.82484351  0.72698389  0.46737974  1
  O  O19  1  0.53602183  0.75742558  0.25540129  1
  O  O20  1  0.67426122  0.01060879  0.61472658  1
  O  O21  1  0.62859485  0.05531484  0.19565099  1
  O  O22  1  0.72656457  0.48174885  0.78942546  1
  O  O23  1  0.82614366  0.16888587  0.91900530  1
  O  O24  1  0.75743637  0.53600464  0.24461373  1
  O  O25  1  0.32573427  0.98938510  0.38526179  1
  P  P26  1  0.28908152  0.28908557  0.75000520  1
  P  P27  1  0.32929324  0.87225851  0.60885773  1
  P  P28  1  0.67071075  0.12773893  0.39114167  1
  P  P29  1  0.71091974  0.71091688  0.24999508  1
  P  P30  1  0.12771935  0.67064368  0.10889362  1
  P  P31  1  0.87228103  0.32935627  0.89112366  1
  Fe  Fe32  1  0.93712779  0.34440532  0.38849621  1
  Fe  Fe33  1  0.65560410  0.06290775  0.88847774  1
  Fe  Fe34  1  0.34439346  0.93707784  0.11149803  1
  Fe  Fe35  1  0.06287056  0.65560576  0.61151352  1
