# generated using pymatgen
data_CO2
_symmetry_space_group_name_H-M   'P 1'
_cell_length_a   7.25563739
_cell_length_b   7.25563674
_cell_length_c   7.25563739
_cell_angle_alpha   89.74807344
_cell_angle_beta   90.25193011
_cell_angle_gamma   90.25192656
_symmetry_Int_Tables_number   1
_chemical_formula_structural   CO2
_chemical_formula_sum   'C8 O16'
_cell_volume   381.95668399
_cell_formula_units_Z   8
loop_
 _symmetry_equiv_pos_site_id
 _symmetry_equiv_pos_as_xyz
  1  'x, y, z'
loop_
 _atom_site_type_symbol
 _atom_site_label
 _atom_site_symmetry_multiplicity
 _atom_site_fract_x
 _atom_site_fract_y
 _atom_site_fract_z
 _atom_site_occupancy
  C  C0  1  0.50000000  0.50000000  0.50000000  1
  C  C1  1  -0.00000000  -0.00000000  0.00000000  1
  C  C2  1  0.00024439  0.50024439  0.25000000  1
  C  C3  1  0.75000000  0.99975561  0.50024439  1
  C  C4  1  0.49975561  0.25000000  0.99975561  1
  C  C5  1  0.50024439  0.75000000  0.00024439  1
  C  C6  1  0.99975561  0.49975561  0.75000000  1
  C  C7  1  0.25000000  0.00024439  0.49975561  1
  O  O8  1  0.59309285  0.40690715  0.40690715  1
  O  O9  1  0.09309285  0.90690715  0.90690715  1
  O  O10  1  0.40690715  0.59309285  0.59309285  1
  O  O11  1  0.90690715  0.09309285  0.09309285  1
  O  O12  1  0.90272854  0.59789161  0.16479834  1
  O  O13  1  0.83520166  0.09727146  0.59789161  1
  O  O14  1  0.40210839  0.16479834  0.09727146  1
  O  O15  1  0.40272854  0.66479834  0.09789161  1
  O  O16  1  0.90210839  0.59727146  0.66479834  1
  O  O17  1  0.33520166  0.09789161  0.59727146  1
  O  O18  1  0.09727146  0.40210839  0.83520166  1
  O  O19  1  0.16479834  0.90272854  0.40210839  1
  O  O20  1  0.59789161  0.83520166  0.90272854  1
  O  O21  1  0.59727146  0.33520166  0.90210839  1
  O  O22  1  0.09789161  0.40272854  0.33520166  1
  O  O23  1  0.66479834  0.90210839  0.40272854  1
