# generated using pymatgen
data_Fe2(AsO4)3
_symmetry_space_group_name_H-M   'P 1'
_cell_length_a   8.69721288
_cell_length_b   12.32730085
_cell_length_c   8.99918226
_cell_angle_alpha   90.00000000
_cell_angle_beta   90.00000000
_cell_angle_gamma   90.72719479
_symmetry_Int_Tables_number   1
_chemical_formula_structural   Fe2(AsO4)3
_chemical_formula_sum   'Fe8 As12 O48'
_cell_volume   964.75305651
_cell_formula_units_Z   4
loop_
 _symmetry_equiv_pos_site_id
 _symmetry_equiv_pos_as_xyz
  1  'x, y, z'
loop_
 _atom_site_type_symbol
 _atom_site_label
 _atom_site_symmetry_multiplicity
 _atom_site_fract_x
 _atom_site_fract_y
 _atom_site_fract_z
 _atom_site_occupancy
  Fe  Fe0  1  0.25008739  0.88490255  0.02498396  1
  Fe  Fe1  1  0.24991261  0.61509745  0.52498396  1
  Fe  Fe2  1  0.25391287  0.38290021  0.97159151  1
  Fe  Fe3  1  0.24608713  0.11709979  0.47159151  1
  Fe  Fe4  1  0.75391287  0.88290021  0.52840849  1
  Fe  Fe5  1  0.74608713  0.61709979  0.02840849  1
  Fe  Fe6  1  0.75008739  0.38490255  0.47501604  1
  Fe  Fe7  1  0.74991261  0.11509745  0.97501604  1
  As  As8  1  0.03696428  0.49126106  0.25060322  1
  As  As9  1  0.11163583  0.84813646  0.37842145  1
  As  As10  1  0.11331176  0.13985082  0.11253792  1
  As  As11  1  0.38836417  0.65186354  0.87842145  1
  As  As12  1  0.38668824  0.36014918  0.61253792  1
  As  As13  1  0.46303572  0.00873894  0.75060322  1
  As  As14  1  0.53696428  0.99126106  0.24939678  1
  As  As15  1  0.61331176  0.63985082  0.38746208  1
  As  As16  1  0.61163583  0.34813646  0.12157855  1
  As  As17  1  0.88668824  0.86014918  0.88746208  1
  As  As18  1  0.88836417  0.15186354  0.62157855  1
  As  As19  1  0.96303572  0.50873894  0.74939678  1
  O  O20  1  0.05983339  0.43937606  0.88489333  1
  O  O21  1  0.07308674  0.90678061  0.88410600  1
  O  O22  1  0.07270584  0.61171590  0.67168586  1
  O  O23  1  0.07192754  0.18963211  0.57415074  1
  O  O24  1  0.09685280  0.59456855  0.36579233  1
  O  O25  1  0.11571142  0.83771987  0.18724918  1
  O  O26  1  0.13814702  0.98237783  0.42290572  1
  O  O27  1  0.12701042  0.24743389  0.99204580  1
  O  O28  1  0.16732445  0.18623852  0.28526653  1
  O  O29  1  0.19429372  0.42990410  0.17552837  1
  O  O30  1  0.24248796  0.77283150  0.47478835  1
  O  O31  1  0.25751204  0.72716850  0.97478835  1
  O  O32  1  0.24484443  0.04424815  0.05666867  1
  O  O33  1  0.25515557  0.45575185  0.55666867  1
  O  O34  1  0.30570628  0.07009590  0.67552837  1
  O  O35  1  0.33267555  0.31376148  0.78526653  1
  O  O36  1  0.36185298  0.51762217  0.92290572  1
  O  O37  1  0.37298958  0.25256611  0.49204580  1
  O  O38  1  0.38428858  0.66228013  0.68724918  1
  O  O39  1  0.40314720  0.90543145  0.86579233  1
  O  O40  1  0.42729416  0.88828410  0.17168586  1
  O  O41  1  0.42691326  0.59321939  0.38410600  1
  O  O42  1  0.42807246  0.31036789  0.07415074  1
  O  O43  1  0.44016661  0.06062394  0.38489333  1
  O  O44  1  0.55983339  0.93937606  0.61510667  1
  O  O45  1  0.57192754  0.68963211  0.92584926  1
  O  O46  1  0.57308674  0.40678061  0.61589400  1
  O  O47  1  0.57270584  0.11171590  0.82831414  1
  O  O48  1  0.59685280  0.09456855  0.13420767  1
  O  O49  1  0.61571142  0.33771987  0.31275082  1
  O  O50  1  0.62701042  0.74743389  0.50795420  1
  O  O51  1  0.63814702  0.48237783  0.07709428  1
  O  O52  1  0.66732445  0.68623852  0.21473347  1
  O  O53  1  0.69429372  0.92990410  0.32447163  1
  O  O54  1  0.74484443  0.54424815  0.44333133  1
  O  O55  1  0.75515557  0.95575185  0.94333133  1
  O  O56  1  0.74248796  0.27283150  0.02521165  1
  O  O57  1  0.75751204  0.22716850  0.52521165  1
  O  O58  1  0.80570628  0.57009590  0.82447163  1
  O  O59  1  0.83267555  0.81376148  0.71473347  1
  O  O60  1  0.87298958  0.75256611  0.00795420  1
  O  O61  1  0.86185298  0.01762217  0.57709428  1
  O  O62  1  0.88428858  0.16228013  0.81275082  1
  O  O63  1  0.90314720  0.40543145  0.63420767  1
  O  O64  1  0.92807246  0.81036789  0.42584926  1
  O  O65  1  0.92729416  0.38828410  0.32831414  1
  O  O66  1  0.92691326  0.09321939  0.11589400  1
  O  O67  1  0.94016661  0.56062394  0.11510667  1
