# generated using pymatgen
data_KHo2Cu3Se5
_symmetry_space_group_name_H-M   'P 1'
_cell_length_a   4.10001168
_cell_length_b   7.48229593
_cell_length_c   16.89655976
_cell_angle_alpha   90.00000000
_cell_angle_beta   90.00000000
_cell_angle_gamma   105.90129270
_symmetry_Int_Tables_number   1
_chemical_formula_structural   KHo2Cu3Se5
_chemical_formula_sum   'K2 Ho4 Cu6 Se10'
_cell_volume   498.50984866
_cell_formula_units_Z   2
loop_
 _symmetry_equiv_pos_site_id
 _symmetry_equiv_pos_as_xyz
  1  'x, y, z'
loop_
 _atom_site_type_symbol
 _atom_site_label
 _atom_site_symmetry_multiplicity
 _atom_site_fract_x
 _atom_site_fract_y
 _atom_site_fract_z
 _atom_site_occupancy
  K  K0  1  0.06239770  0.12479540  0.75000000  1
  K  K1  1  0.93760230  0.87520460  0.25000000  1
  Ho  Ho2  1  0.19195178  0.38390356  0.09307036  1
  Ho  Ho3  1  0.80804822  0.61609644  0.90692964  1
  Ho  Ho4  1  0.19195178  0.38390356  0.40692964  1
  Ho  Ho5  1  0.80804822  0.61609644  0.59307036  1
  Cu  Cu6  1  0.65941557  0.31883113  0.25000000  1
  Cu  Cu7  1  0.34058443  0.68116887  0.75000000  1
  Cu  Cu8  1  0.41610966  0.83221932  0.03064942  1
  Cu  Cu9  1  0.58389034  0.16778068  0.96935058  1
  Cu  Cu10  1  0.41610966  0.83221932  0.46935058  1
  Cu  Cu11  1  0.58389034  0.16778068  0.53064942  1
  Se  Se12  1  0.55880984  0.11761968  0.11916235  1
  Se  Se13  1  0.44119016  0.88238032  0.88083765  1
  Se  Se14  1  0.55880984  0.11761968  0.38083765  1
  Se  Se15  1  0.44119016  0.88238032  0.61916235  1
  Se  Se16  1  0.25087463  0.50174925  0.25000000  1
  Se  Se17  1  0.74912537  0.49825075  0.75000000  1
  Se  Se18  1  0.16596326  0.33192653  0.92769463  1
  Se  Se19  1  0.83403674  0.66807347  0.07230537  1
  Se  Se20  1  0.16596326  0.33192653  0.57230537  1
  Se  Se21  1  0.83403674  0.66807347  0.42769463  1
