# generated using pymatgen
data_Cu3H2(CO4)2
_symmetry_space_group_name_H-M   'P 1'
_cell_length_a   5.08278386
_cell_length_b   5.90694974
_cell_length_c   10.52727559
_cell_angle_alpha   90.00000000
_cell_angle_beta   92.06805857
_cell_angle_gamma   90.00000000
_symmetry_Int_Tables_number   1
_chemical_formula_structural   Cu3H2(CO4)2
_chemical_formula_sum   'Cu6 H4 C4 O16'
_cell_volume   315.86241217
_cell_formula_units_Z   2
loop_
 _symmetry_equiv_pos_site_id
 _symmetry_equiv_pos_as_xyz
  1  'x, y, z'
loop_
 _atom_site_type_symbol
 _atom_site_label
 _atom_site_symmetry_multiplicity
 _atom_site_fract_x
 _atom_site_fract_y
 _atom_site_fract_z
 _atom_site_occupancy
  Cu  Cu0  1  0.00229622  0.50003321  0.74975142  1
  Cu  Cu1  1  0.99770378  0.00003321  0.25024858  1
  Cu  Cu2  1  0.74608390  0.99803443  0.66564052  1
  Cu  Cu3  1  0.25391610  0.49803443  0.33435948  1
  Cu  Cu4  1  0.25157345  0.00134052  0.83399448  1
  Cu  Cu5  1  0.74842655  0.50134052  0.16600552  1
  H  H6  1  0.82322110  0.30271358  0.38028000  1
  H  H7  1  0.17677890  0.80271358  0.61972000  1
  H  H8  1  0.18417466  0.70238189  0.12354327  1
  H  H9  1  0.81582534  0.20238189  0.87645673  1
  C  C10  1  0.66861768  0.80178996  0.43175628  1
  C  C11  1  0.33138232  0.30178996  0.56824372  1
  C  C12  1  0.33047185  0.19745477  0.06883347  1
  C  C13  1  0.66952815  0.69745477  0.93116653  1
  O  O14  1  0.89254092  0.90151886  0.41718906  1
  O  O15  1  0.10745908  0.40151886  0.58281094  1
  O  O16  1  0.10713209  0.09546752  0.08318710  1
  O  O17  1  0.89286791  0.59546752  0.91681290  1
  O  O18  1  0.93177297  0.31399528  0.30469654  1
  O  O19  1  0.06822703  0.81399528  0.69530346  1
  O  O20  1  0.07541267  0.68665750  0.19869350  1
  O  O21  1  0.92458733  0.18665750  0.80130650  1
  O  O22  1  0.54905232  0.70739900  0.33479282  1
  O  O23  1  0.45094768  0.20739900  0.66520718  1
  O  O24  1  0.45205486  0.29009582  0.16576676  1
  O  O25  1  0.54794514  0.79009582  0.83423324  1
  O  O26  1  0.56885437  0.79814099  0.54263207  1
  O  O27  1  0.43114563  0.29814099  0.45736793  1
  O  O28  1  0.42825065  0.20297667  0.95733756  1
  O  O29  1  0.57174935  0.70297667  0.04266244  1
