# generated using pymatgen
data_Eu5Ga9
_symmetry_space_group_name_H-M   'P 1'
_cell_length_a   4.59308744
_cell_length_b   5.85951760
_cell_length_c   25.61244222
_cell_angle_alpha   90.00000000
_cell_angle_beta   90.00000000
_cell_angle_gamma   113.07488173
_symmetry_Int_Tables_number   1
_chemical_formula_structural   Eu5Ga9
_chemical_formula_sum   'Eu10 Ga18'
_cell_volume   634.16502062
_cell_formula_units_Z   2
loop_
 _symmetry_equiv_pos_site_id
 _symmetry_equiv_pos_as_xyz
  1  'x, y, z'
loop_
 _atom_site_type_symbol
 _atom_site_label
 _atom_site_symmetry_multiplicity
 _atom_site_fract_x
 _atom_site_fract_y
 _atom_site_fract_z
 _atom_site_occupancy
  Eu  Eu0  1  0.65061750  0.30123500  0.04144314  1
  Eu  Eu1  1  0.34938250  0.69876500  0.95855686  1
  Eu  Eu2  1  0.65061750  0.30123500  0.45855686  1
  Eu  Eu3  1  0.34938250  0.69876500  0.54144314  1
  Eu  Eu4  1  0.15643437  0.31286874  0.83282189  1
  Eu  Eu5  1  0.84356563  0.68713126  0.16717811  1
  Eu  Eu6  1  0.15643437  0.31286874  0.66717811  1
  Eu  Eu7  1  0.84356563  0.68713126  0.33282189  1
  Eu  Eu8  1  0.12819647  0.25639295  0.25000000  1
  Eu  Eu9  1  0.87180353  0.74360705  0.75000000  1
  Ga  Ga10  1  0.54447044  0.08894088  0.16078049  1
  Ga  Ga11  1  0.45552956  0.91105912  0.83921951  1
  Ga  Ga12  1  0.54447044  0.08894088  0.33921951  1
  Ga  Ga13  1  0.45552956  0.91105912  0.66078049  1
  Ga  Ga14  1  0.04751543  0.09503086  0.95288633  1
  Ga  Ga15  1  0.95248457  0.90496914  0.04711367  1
  Ga  Ga16  1  0.04751543  0.09503086  0.54711367  1
  Ga  Ga17  1  0.95248457  0.90496914  0.45288633  1
  Ga  Ga18  1  0.13419434  0.26838868  0.12310103  1
  Ga  Ga19  1  0.86580566  0.73161132  0.87689897  1
  Ga  Ga20  1  0.13419434  0.26838868  0.37689897  1
  Ga  Ga21  1  0.86580566  0.73161132  0.62310103  1
  Ga  Ga22  1  0.63701758  0.27403516  0.91589560  1
  Ga  Ga23  1  0.36298242  0.72596484  0.08410440  1
  Ga  Ga24  1  0.63701758  0.27403516  0.58410440  1
  Ga  Ga25  1  0.36298242  0.72596484  0.41589560  1
  Ga  Ga26  1  0.57736834  0.15473669  0.75000000  1
  Ga  Ga27  1  0.42263166  0.84526331  0.25000000  1
