# generated using pymatgen
data_Li3V(H6O5)2
_symmetry_space_group_name_H-M   'P 1'
_cell_length_a   6.33824113
_cell_length_b   6.33824113
_cell_length_c   6.33824108
_cell_angle_alpha   100.46944269
_cell_angle_beta   100.46944269
_cell_angle_gamma   100.46944344
_symmetry_Int_Tables_number   1
_chemical_formula_structural   Li3V(H6O5)2
_chemical_formula_sum   'Li3 V1 H12 O10'
_cell_volume   240.07300287
_cell_formula_units_Z   1
loop_
 _symmetry_equiv_pos_site_id
 _symmetry_equiv_pos_as_xyz
  1  'x, y, z'
loop_
 _atom_site_type_symbol
 _atom_site_label
 _atom_site_symmetry_multiplicity
 _atom_site_fract_x
 _atom_site_fract_y
 _atom_site_fract_z
 _atom_site_occupancy
  Li  Li0  1  0.95924911  0.81458219  0.55062611  1
  Li  Li1  1  0.81458219  0.55062611  0.95924911  1
  Li  Li2  1  0.55062611  0.95924911  0.81458219  1
  V  V3  1  0.33992930  0.33992930  0.33992930  1
  H  H4  1  0.55920662  0.78970963  0.43663994  1
  H  H5  1  0.78970963  0.43663994  0.55920662  1
  H  H6  1  0.43663994  0.55920662  0.78970963  1
  H  H7  1  0.65627344  0.04653278  0.48119501  1
  H  H8  1  0.04653278  0.48119501  0.65627344  1
  H  H9  1  0.48119501  0.65627344  0.04653278  1
  H  H10  1  0.05445151  0.89768537  0.20304292  1
  H  H11  1  0.89768537  0.20304292  0.05445151  1
  H  H12  1  0.20304292  0.05445151  0.89768537  1
  H  H13  1  0.14982004  0.69110333  0.25226410  1
  H  H14  1  0.69110333  0.25226410  0.14982004  1
  H  H15  1  0.25226410  0.14982004  0.69110333  1
  O  O16  1  0.26291401  0.37278339  0.59325574  1
  O  O17  1  0.37278339  0.59325574  0.26291401  1
  O  O18  1  0.59325574  0.26291401  0.37278339  1
  O  O19  1  0.14068478  0.14068478  0.14068478  1
  O  O20  1  0.67387365  0.91437984  0.54348641  1
  O  O21  1  0.91437984  0.54348641  0.67387365  1
  O  O22  1  0.54348641  0.67387365  0.91437984  1
  O  O23  1  0.01005139  0.74906993  0.23811949  1
  O  O24  1  0.74906993  0.23811949  0.01005139  1
  O  O25  1  0.23811949  0.01005139  0.74906993  1
