# generated using pymatgen
data_CrP2O7
_symmetry_space_group_name_H-M   'P 1'
_cell_length_a   7.04931786
_cell_length_b   8.26571343
_cell_length_c   8.85306649
_cell_angle_alpha   90.00000000
_cell_angle_beta   111.72917678
_cell_angle_gamma   90.00000000
_symmetry_Int_Tables_number   1
_chemical_formula_structural   CrP2O7
_chemical_formula_sum   'Cr4 P8 O28'
_cell_volume   479.19334217
_cell_formula_units_Z   4
loop_
 _symmetry_equiv_pos_site_id
 _symmetry_equiv_pos_as_xyz
  1  'x, y, z'
loop_
 _atom_site_type_symbol
 _atom_site_label
 _atom_site_symmetry_multiplicity
 _atom_site_fract_x
 _atom_site_fract_y
 _atom_site_fract_z
 _atom_site_occupancy
  O  O0  1  0.61377140  0.92427791  0.63027075  1
  O  O1  1  0.85330925  0.38356355  0.31996534  1
  O  O2  1  0.69631243  0.60049953  0.07598327  1
  O  O3  1  0.65250964  0.26635075  0.01438056  1
  O  O4  1  0.14669075  0.61643545  0.68003466  1
  O  O5  1  0.30368757  0.39950147  0.92401773  1
  O  O6  1  0.34749036  0.73364925  0.98561944  1
  O  O7  1  0.15250864  0.23364925  0.51438056  1
  O  O8  1  0.19631243  0.89950047  0.57598227  1
  O  O9  1  0.12067770  0.64880108  0.39861309  1
  O  O10  1  0.35330925  0.11643545  0.81996634  1
  O  O11  1  0.07297039  0.87456736  0.18420007  1
  O  O12  1  0.08444582  0.24460761  0.17201649  1
  O  O13  1  0.11377140  0.57572209  0.13026975  1
  O  O14  1  0.62067770  0.85119792  0.89861309  1
  O  O15  1  0.38622860  0.07572309  0.36973025  1
  O  O16  1  0.57297039  0.62543264  0.68420107  1
  O  O17  1  0.80368757  0.10049953  0.42401673  1
  O  O18  1  0.41555418  0.74460861  0.32798351  1
  O  O19  1  0.42702961  0.37456736  0.31579893  1
  O  O20  1  0.84749036  0.76635075  0.48562044  1
  O  O21  1  0.37932230  0.14880108  0.10138691  1
  O  O22  1  0.88622860  0.42427791  0.86972925  1
  O  O23  1  0.91555418  0.75539139  0.82798351  1
  O  O24  1  0.92702961  0.12543364  0.81579893  1
  O  O25  1  0.64669075  0.88356355  0.18003466  1
  O  O26  1  0.87932230  0.35119892  0.60138591  1
  O  O27  1  0.58444582  0.25539139  0.67201749  1
  P  P28  1  0.31601912  0.22015228  0.24386025  1
  P  P29  1  0.68398088  0.77984872  0.75614075  1
  P  P30  1  0.81601912  0.27984872  0.74385925  1
  P  P31  1  0.57832432  0.75883235  0.04365180  1
  P  P32  1  0.07832432  0.74116865  0.54365180  1
  P  P33  1  0.42167568  0.24116865  0.95634820  1
  P  P34  1  0.18398088  0.72015228  0.25613975  1
  P  P35  1  0.92167568  0.25883235  0.45634820  1
  Cr  Cr36  1  0.87526214  0.41210495  0.10634903  1
  Cr  Cr37  1  0.62473786  0.91210495  0.39365097  1
  Cr  Cr38  1  0.37526214  0.08789605  0.60635003  1
  Cr  Cr39  1  0.12473786  0.58789605  0.89365097  1
