# generated using pymatgen
data_Eu(HoSe2)2
_symmetry_space_group_name_H-M   'P 1'
_cell_length_a   4.11254696
_cell_length_b   12.52011660
_cell_length_c   14.86455945
_cell_angle_alpha   90.00000000
_cell_angle_beta   90.00000000
_cell_angle_gamma   90.00000000
_symmetry_Int_Tables_number   1
_chemical_formula_structural   Eu(HoSe2)2
_chemical_formula_sum   'Eu4 Ho8 Se16'
_cell_volume   765.36973660
_cell_formula_units_Z   4
loop_
 _symmetry_equiv_pos_site_id
 _symmetry_equiv_pos_as_xyz
  1  'x, y, z'
loop_
 _atom_site_type_symbol
 _atom_site_label
 _atom_site_symmetry_multiplicity
 _atom_site_fract_x
 _atom_site_fract_y
 _atom_site_fract_z
 _atom_site_occupancy
  Eu  Eu0  1  0.75000000  0.74123419  0.16471892  1
  Eu  Eu1  1  0.75000000  0.24123419  0.33528108  1
  Eu  Eu2  1  0.25000000  0.25876581  0.83528108  1
  Eu  Eu3  1  0.25000000  0.75876581  0.66471892  1
  Ho  Ho4  1  0.75000000  0.08215656  0.59815943  1
  Ho  Ho5  1  0.75000000  0.58215656  0.90184057  1
  Ho  Ho6  1  0.25000000  0.91784344  0.40184057  1
  Ho  Ho7  1  0.25000000  0.41784344  0.09815943  1
  Ho  Ho8  1  0.75000000  0.06462650  0.11047312  1
  Ho  Ho9  1  0.75000000  0.56462650  0.38952688  1
  Ho  Ho10  1  0.25000000  0.93537350  0.88952688  1
  Ho  Ho11  1  0.25000000  0.43537350  0.61047312  1
  Se  Se12  1  0.75000000  0.29343080  0.67478245  1
  Se  Se13  1  0.75000000  0.79343080  0.82521755  1
  Se  Se14  1  0.25000000  0.70656920  0.32521755  1
  Se  Se15  1  0.25000000  0.20656920  0.17478245  1
  Se  Se16  1  0.75000000  0.36849162  0.96978102  1
  Se  Se17  1  0.75000000  0.86849162  0.53021898  1
  Se  Se18  1  0.25000000  0.63150838  0.03021898  1
  Se  Se19  1  0.25000000  0.13150838  0.46978102  1
  Se  Se20  1  0.75000000  0.97475607  0.28430764  1
  Se  Se21  1  0.75000000  0.47475607  0.21569236  1
  Se  Se22  1  0.25000000  0.02524393  0.71569236  1
  Se  Se23  1  0.25000000  0.52524393  0.78430764  1
  Se  Se24  1  0.75000000  0.09014645  0.92135006  1
  Se  Se25  1  0.75000000  0.59014645  0.57864994  1
  Se  Se26  1  0.25000000  0.90985355  0.07864994  1
  Se  Se27  1  0.25000000  0.40985355  0.42135006  1
