# generated using pymatgen
data_Li2In2SiSe6
_symmetry_space_group_name_H-M   'P 1'
_cell_length_a   7.45653971
_cell_length_b   7.45653971
_cell_length_c   12.81085118
_cell_angle_alpha   90.29570781
_cell_angle_beta   106.97600668
_cell_angle_gamma   119.30813108
_symmetry_Int_Tables_number   1
_chemical_formula_structural   Li2In2SiSe6
_chemical_formula_sum   'Li4 In4 Si2 Se12'
_cell_volume   584.60812581
_cell_formula_units_Z   2
loop_
 _symmetry_equiv_pos_site_id
 _symmetry_equiv_pos_as_xyz
  1  'x, y, z'
loop_
 _atom_site_type_symbol
 _atom_site_label
 _atom_site_symmetry_multiplicity
 _atom_site_fract_x
 _atom_site_fract_y
 _atom_site_fract_z
 _atom_site_occupancy
  Li  Li0  1  0.13691420  0.39796169  0.15781451  1
  Li  Li1  1  0.25985282  0.02090031  0.65781451  1
  Li  Li2  1  0.89956541  0.40017674  0.49994604  1
  Li  Li3  1  0.59976930  0.60038063  0.99994604  1
  In  In4  1  0.88445820  0.11454431  0.81102940  1
  In  In5  1  0.19648509  0.92657119  0.31102940  1
  In  In6  1  0.59804382  0.77655734  0.50787069  1
  In  In7  1  0.23131334  0.90982687  0.00787069  1
  Si  Si8  1  0.74711823  0.54400276  0.75244869  1
  Si  Si9  1  0.70844593  0.00533046  0.25244869  1
  Se  Se10  1  0.22307083  0.25997298  0.99487389  1
  Se  Se11  1  0.23490091  0.77180306  0.49487389  1
  Se  Se12  1  0.99305528  0.66430037  0.12108854  1
  Se  Se13  1  0.95678817  0.12803326  0.62108854  1
  Se  Se14  1  0.59380393  0.71487509  0.80337279  1
  Se  Se15  1  0.58849770  0.20956886  0.30337279  1
  Se  Se16  1  0.11674620  0.72256908  0.80276392  1
  Se  Se17  1  0.58019484  0.68601772  0.30276392  1
  Se  Se18  1  0.62509219  0.25026050  0.83182690  1
  Se  Se19  1  0.08156639  0.20673471  0.33182690  1
  Se  Se20  1  0.60267427  0.43726170  0.56426464  1
  Se  Se21  1  0.62700294  0.96159037  0.06426464  1
