# generated using pymatgen
data_Hf9W4S
_symmetry_space_group_name_H-M   'P 1'
_cell_length_a   8.59005288
_cell_length_b   8.70262851
_cell_length_c   8.70262851
_cell_angle_alpha   120.03165557
_cell_angle_beta   90.00000000
_cell_angle_gamma   90.00000000
_symmetry_Int_Tables_number   1
_chemical_formula_structural   Hf9W4S
_chemical_formula_sum   'Hf18 W8 S2'
_cell_volume   563.23383828
_cell_formula_units_Z   2
loop_
 _symmetry_equiv_pos_site_id
 _symmetry_equiv_pos_as_xyz
  1  'x, y, z'
loop_
 _atom_site_type_symbol
 _atom_site_label
 _atom_site_symmetry_multiplicity
 _atom_site_fract_x
 _atom_site_fract_y
 _atom_site_fract_z
 _atom_site_occupancy
  Hf  Hf0  1  0.55120877  0.80355064  0.60710926  1
  Hf  Hf1  1  0.55123822  0.80350362  0.19649638  1
  Hf  Hf2  1  0.55120877  0.39289074  0.19644936  1
  Hf  Hf3  1  0.44879123  0.19644936  0.39289074  1
  Hf  Hf4  1  0.44876178  0.19649638  0.80350362  1
  Hf  Hf5  1  0.44879123  0.60710926  0.80355064  1
  Hf  Hf6  1  0.05120877  0.19644936  0.39289074  1
  Hf  Hf7  1  0.05123822  0.19649638  0.80350362  1
  Hf  Hf8  1  0.05120877  0.60710926  0.80355064  1
  Hf  Hf9  1  0.94879123  0.80355064  0.60710926  1
  Hf  Hf10  1  0.94876178  0.80350362  0.19649638  1
  Hf  Hf11  1  0.94879123  0.39289074  0.19644936  1
  Hf  Hf12  1  0.75000000  0.45810795  0.91623524  1
  Hf  Hf13  1  0.75000000  0.45810655  0.54189345  1
  Hf  Hf14  1  0.75000000  0.08376476  0.54189205  1
  Hf  Hf15  1  0.25000000  0.54189205  0.08376476  1
  Hf  Hf16  1  0.25000000  0.54189345  0.45810655  1
  Hf  Hf17  1  0.25000000  0.91623524  0.45810795  1
  W  W18  1  0.75000000  0.11070262  0.22145053  1
  W  W19  1  0.75000000  0.11073762  0.88926238  1
  W  W20  1  0.75000000  0.77854947  0.88929738  1
  W  W21  1  0.25000000  0.88929738  0.77854947  1
  W  W22  1  0.25000000  0.88926238  0.11073762  1
  W  W23  1  0.25000000  0.22145053  0.11070262  1
  W  W24  1  0.50000000  0.00000000  0.00000000  1
  W  W25  1  -0.00000000  0.00000000  0.00000000  1
  S  S26  1  0.75000000  0.66668739  0.33331261  1
  S  S27  1  0.25000000  0.33331261  0.66668739  1
