# generated using pymatgen
data_PrMoO4F
_symmetry_space_group_name_H-M   'P 1'
_cell_length_a   6.65118402
_cell_length_b   7.08161867
_cell_length_c   9.52361625
_cell_angle_alpha   106.03539748
_cell_angle_beta   90.00000000
_cell_angle_gamma   90.00000000
_symmetry_Int_Tables_number   1
_chemical_formula_structural   PrMoO4F
_chemical_formula_sum   'Pr4 Mo4 O16 F4'
_cell_volume   431.11983035
_cell_formula_units_Z   4
loop_
 _symmetry_equiv_pos_site_id
 _symmetry_equiv_pos_as_xyz
  1  'x, y, z'
loop_
 _atom_site_type_symbol
 _atom_site_label
 _atom_site_symmetry_multiplicity
 _atom_site_fract_x
 _atom_site_fract_y
 _atom_site_fract_z
 _atom_site_occupancy
  Pr  Pr0  1  0.37103600  0.77453443  0.57797623  1
  Pr  Pr1  1  0.12896400  0.27453443  0.07797623  1
  Pr  Pr2  1  0.62896400  0.22546557  0.42202377  1
  Pr  Pr3  1  0.87103600  0.72546557  0.92202377  1
  Mo  Mo4  1  0.36381999  0.83116512  0.16516832  1
  Mo  Mo5  1  0.13618001  0.33116512  0.66516832  1
  Mo  Mo6  1  0.63618001  0.16883488  0.83483168  1
  Mo  Mo7  1  0.86381999  0.66883488  0.33483168  1
  O  O8  1  0.33961821  0.57416403  0.12708646  1
  O  O9  1  0.16038179  0.07416403  0.62708646  1
  O  O10  1  0.66038179  0.42583597  0.87291354  1
  O  O11  1  0.83961821  0.92583597  0.37291354  1
  O  O12  1  0.09721132  0.62558614  0.41140678  1
  O  O13  1  0.40278868  0.12558614  0.91140678  1
  O  O14  1  0.90278868  0.37441386  0.58859322  1
  O  O15  1  0.59721132  0.87441386  0.08859322  1
  O  O16  1  0.39221571  0.92395802  0.36323777  1
  O  O17  1  0.10778429  0.42395802  0.86323777  1
  O  O18  1  0.60778429  0.07604198  0.63676223  1
  O  O19  1  0.89221571  0.57604198  0.13676223  1
  O  O20  1  0.14331990  0.91546303  0.08145069  1
  O  O21  1  0.35668010  0.41546303  0.58145069  1
  O  O22  1  0.85668010  0.08453697  0.91854931  1
  O  O23  1  0.64331990  0.58453697  0.41854931  1
  F  F24  1  0.11654421  0.72586013  0.73927239  1
  F  F25  1  0.38345579  0.22586013  0.23927239  1
  F  F26  1  0.88345579  0.27413987  0.26072761  1
  F  F27  1  0.61654421  0.77413987  0.76072761  1
