# generated using pymatgen
data_CoBP2HPbO9
_symmetry_space_group_name_H-M   'P 1'
_cell_length_a   5.27448881
_cell_length_b   8.07730705
_cell_length_c   8.44845292
_cell_angle_alpha   89.86243114
_cell_angle_beta   79.55297360
_cell_angle_gamma   87.87479975
_symmetry_Int_Tables_number   1
_chemical_formula_structural   CoBP2HPbO9
_chemical_formula_sum   'Co2 B2 P4 H2 Pb2 O18'
_cell_volume   353.72152255
_cell_formula_units_Z   2
loop_
 _symmetry_equiv_pos_site_id
 _symmetry_equiv_pos_as_xyz
  1  'x, y, z'
loop_
 _atom_site_type_symbol
 _atom_site_label
 _atom_site_symmetry_multiplicity
 _atom_site_fract_x
 _atom_site_fract_y
 _atom_site_fract_z
 _atom_site_occupancy
  Co  Co0  1  0.73743298  0.80536154  0.19228056  1
  Co  Co1  1  0.26256702  0.19463846  0.80771944  1
  B  B2  1  0.86929576  0.73831976  0.54436533  1
  B  B3  1  0.13070424  0.26168024  0.45563467  1
  P  P4  1  0.80451266  0.42794972  0.70736453  1
  P  P5  1  0.19548734  0.57205028  0.29263547  1
  P  P6  1  0.76857729  0.93503721  0.81471028  1
  P  P7  1  0.23142271  0.06496279  0.18528972  1
  H  H8  1  0.51373501  0.75887743  0.47766674  1
  H  H9  1  0.48626499  0.24112257  0.52233326  1
  Pb  Pb10  1  0.26707623  0.69811550  0.92165817  1
  Pb  Pb11  1  0.73292377  0.30188450  0.07834183  1
  O  O12  1  0.97915730  0.57282240  0.19223851  1
  O  O13  1  0.02084270  0.42717760  0.80776149  1
  O  O14  1  0.92812008  0.87175845  0.64817412  1
  O  O15  1  0.07187992  0.12824155  0.35182588  1
  O  O16  1  0.90054939  0.09013086  0.85806278  1
  O  O17  1  0.09945061  0.90986914  0.14193722  1
  O  O18  1  0.87690253  0.31702316  0.55130543  1
  O  O19  1  0.12309747  0.68297684  0.44869457  1
  O  O20  1  0.78607989  0.79175227  0.93772876  1
  O  O21  1  0.21392011  0.20824773  0.06227124  1
  O  O22  1  0.73675352  0.60536601  0.64901339  1
  O  O23  1  0.26324648  0.39463399  0.35098661  1
  O  O24  1  0.69125987  0.79022138  0.43745533  1
  O  O25  1  0.30874013  0.20977862  0.56254467  1
  O  O26  1  0.55466204  0.36976387  0.81145833  1
  O  O27  1  0.44533796  0.63023613  0.18854167  1
  O  O28  1  0.48102720  0.96942292  0.80628182  1
  O  O29  1  0.51897280  0.03057708  0.19371818  1
