# generated using pymatgen
data_Li8Ce7Ge10
_symmetry_space_group_name_H-M   'P 1'
_cell_length_a   4.45918060
_cell_length_b   6.78343205
_cell_length_c   16.95155809
_cell_angle_alpha   101.54180380
_cell_angle_beta   90.00000000
_cell_angle_gamma   90.00000000
_symmetry_Int_Tables_number   1
_chemical_formula_structural   Li8Ce7Ge10
_chemical_formula_sum   'Li8 Ce7 Ge10'
_cell_volume   502.39149898
_cell_formula_units_Z   1
loop_
 _symmetry_equiv_pos_site_id
 _symmetry_equiv_pos_as_xyz
  1  'x, y, z'
loop_
 _atom_site_type_symbol
 _atom_site_label
 _atom_site_symmetry_multiplicity
 _atom_site_fract_x
 _atom_site_fract_y
 _atom_site_fract_z
 _atom_site_occupancy
  Li  Li0  1  0.50000000  0.11348077  0.84929673  1
  Li  Li1  1  0.50000000  0.88651923  0.15070327  1
  Li  Li2  1  0.50000000  0.26418404  0.15070327  1
  Li  Li3  1  0.50000000  0.73581596  0.84929673  1
  Li  Li4  1  0.00000000  0.16985525  0.71405455  1
  Li  Li5  1  0.00000000  0.83014475  0.28594545  1
  Li  Li6  1  0.00000000  0.45580070  0.28594545  1
  Li  Li7  1  -0.00000000  0.54419930  0.71405455  1
  Ce  Ce8  1  0.50000000  0.83733381  0.67466762  1
  Ce  Ce9  1  0.50000000  0.16266619  0.32533238  1
  Ce  Ce10  1  0.50000000  0.72148156  0.44296312  1
  Ce  Ce11  1  0.50000000  0.27851844  0.55703688  1
  Ce  Ce12  1  -0.00000000  0.55642202  0.11284403  1
  Ce  Ce13  1  0.00000000  0.44357798  0.88715597  1
  Ce  Ce14  1  0.00000000  0.00000000  -0.00000000  1
  Ge  Ge15  1  -0.00000000  0.97211781  0.57074063  1
  Ge  Ge16  1  -0.00000000  0.02788219  0.42925937  1
  Ge  Ge17  1  0.00000000  0.40137719  0.42925937  1
  Ge  Ge18  1  0.00000000  0.59862281  0.57074063  1
  Ge  Ge19  1  0.50000000  0.62566498  0.25132996  1
  Ge  Ge20  1  0.50000000  0.37433502  0.74867004  1
  Ge  Ge21  1  0.00000000  0.90592992  0.81185983  1
  Ge  Ge22  1  -0.00000000  0.09407008  0.18814017  1
  Ge  Ge23  1  0.50000000  0.31072094  -0.00000000  1
  Ge  Ge24  1  0.50000000  0.68927906  -0.00000000  1
