# generated using pymatgen
data_Mn(H15N8)2
_symmetry_space_group_name_H-M   'P 1'
_cell_length_a   6.91445294
_cell_length_b   10.95777565
_cell_length_c   12.23399415
_cell_angle_alpha   90.00000000
_cell_angle_beta   90.00000000
_cell_angle_gamma   95.28438358
_symmetry_Int_Tables_number   1
_chemical_formula_structural   Mn(H15N8)2
_chemical_formula_sum   'Mn2 H60 N32'
_cell_volume   922.99371171
_cell_formula_units_Z   2
loop_
 _symmetry_equiv_pos_site_id
 _symmetry_equiv_pos_as_xyz
  1  'x, y, z'
loop_
 _atom_site_type_symbol
 _atom_site_label
 _atom_site_symmetry_multiplicity
 _atom_site_fract_x
 _atom_site_fract_y
 _atom_site_fract_z
 _atom_site_occupancy
  Mn  Mn0  1  0.50000000  0.00000000  0.50000000  1
  Mn  Mn1  1  0.50000000  0.50000000  0.00000000  1
  H  H2  1  0.51626696  0.21088486  0.64133648  1
  H  H3  1  0.48373304  0.28911514  0.14133648  1
  H  H4  1  0.48373304  0.78911514  0.35866352  1
  H  H5  1  0.51626696  0.71088486  0.85866352  1
  H  H6  1  0.74032792  0.18784136  0.60400466  1
  H  H7  1  0.25967208  0.31215864  0.10400466  1
  H  H8  1  0.25967208  0.81215864  0.39599534  1
  H  H9  1  0.74032792  0.68784136  0.89599534  1
  H  H10  1  0.63311516  0.10291985  0.70131806  1
  H  H11  1  0.36688484  0.39708015  0.20131806  1
  H  H12  1  0.36688484  0.89708015  0.29868194  1
  H  H13  1  0.63311516  0.60291985  0.79868194  1
  H  H14  1  0.66022995  0.89106719  0.68137062  1
  H  H15  1  0.33977005  0.60893281  0.18137062  1
  H  H16  1  0.33977005  0.10893281  0.31862938  1
  H  H17  1  0.66022995  0.39106719  0.81862938  1
  H  H18  1  0.74616836  0.82407569  0.57259450  1
  H  H19  1  0.25383164  0.67592431  0.07259450  1
  H  H20  1  0.25383164  0.17592431  0.42740550  1
  H  H21  1  0.74616836  0.32407569  0.92740550  1
  H  H22  1  0.52118776  0.78156658  0.61517950  1
  H  H23  1  0.47881224  0.71843342  0.11517950  1
  H  H24  1  0.47881224  0.21843342  0.38482050  1
  H  H25  1  0.52118776  0.28156658  0.88482050  1
  H  H26  1  0.13822880  0.04479426  0.59881316  1
  H  H27  1  0.86177120  0.45520574  0.09881316  1
  H  H28  1  0.86177120  0.95520574  0.40118684  1
  H  H29  1  0.13822880  0.54479426  0.90118684  1
  H  H30  1  0.11927819  0.90133678  0.55688272  1
  H  H31  1  0.88072181  0.59866322  0.05688272  1
  H  H32  1  0.88072181  0.09866322  0.44311728  1
  H  H33  1  0.11927819  0.40133678  0.94311728  1
  H  H34  1  0.22711741  0.93713579  0.67434339  1
  H  H35  1  0.77288259  0.56286421  0.17434339  1
  H  H36  1  0.77288259  0.06286421  0.32565661  1
  H  H37  1  0.22711741  0.43713579  0.82565661  1
  H  H38  1  0.17748072  0.67215592  0.57359593  1
  H  H39  1  0.82251928  0.82784408  0.07359593  1
  H  H40  1  0.82251928  0.32784408  0.42640407  1
  H  H41  1  0.17748072  0.17215592  0.92640407  1
  H  H42  1  0.24344032  0.69058844  0.70201649  1
  H  H43  1  0.75655968  0.80941156  0.20201649  1
  H  H44  1  0.75655968  0.30941156  0.29798351  1
  H  H45  1  0.24344032  0.19058844  0.79798351  1
  H  H46  1  0.28280163  0.56277747  0.63694412  1
  H  H47  1  0.71719837  0.93722253  0.13694412  1
  H  H48  1  0.71719837  0.43722253  0.36305588  1
  H  H49  1  0.28280163  0.06277747  0.86305588  1
  H  H50  1  0.78348343  0.57334040  0.61439526  1
  H  H51  1  0.21651657  0.92665960  0.11439526  1
  H  H52  1  0.21651657  0.42665960  0.38560474  1
  H  H53  1  0.78348343  0.07334040  0.88560474  1
  H  H54  1  0.83143887  0.43191773  0.63327152  1
  H  H55  1  0.16856113  0.06808227  0.13327152  1
  H  H56  1  0.16856113  0.56808227  0.36672848  1
  H  H57  1  0.83143887  0.93191773  0.86672848  1
  H  H58  1  0.60572236  0.46291212  0.61721089  1
  H  H59  1  0.39427764  0.03708788  0.11721089  1
  H  H60  1  0.39427764  0.53708788  0.38278911  1
  H  H61  1  0.60572236  0.96291212  0.88278911  1
  N  N62  1  0.27308568  0.34891002  0.65732249  1
  N  N63  1  0.72691432  0.15108998  0.15732249  1
  N  N64  1  0.72691432  0.65108998  0.34267751  1
  N  N65  1  0.27308568  0.84891002  0.84267751  1
  N  N66  1  0.15221280  0.29714812  0.60088921  1
  N  N67  1  0.84778720  0.20285188  0.10088921  1
  N  N68  1  0.84778720  0.70285188  0.39911079  1
  N  N69  1  0.15221280  0.79714812  0.89911079  1
  N  N70  1  0.03217506  0.24425681  0.54394939  1
  N  N71  1  0.96782494  0.25574319  0.04394939  1
  N  N72  1  0.96782494  0.75574319  0.45605061  1
  N  N73  1  0.03217506  0.74425681  0.95605061  1
  N  N74  1  0.60878895  0.14440232  0.62775660  1
  N  N75  1  0.39121105  0.35559768  0.12775660  1
  N  N76  1  0.39121105  0.85559768  0.37224340  1
  N  N77  1  0.60878895  0.64440232  0.87224340  1
  N  N78  1  0.62393277  0.85592256  0.60552861  1
  N  N79  1  0.37606723  0.64407744  0.10552861  1
  N  N80  1  0.37606723  0.14407744  0.39447139  1
  N  N81  1  0.62393277  0.35592256  0.89447139  1
  N  N82  1  0.20996937  0.96703698  0.59561210  1
  N  N83  1  0.79003063  0.53296302  0.09561210  1
  N  N84  1  0.79003063  0.03296302  0.40438790  1
  N  N85  1  0.20996937  0.46703698  0.90438790  1
  N  N86  1  0.28411221  0.65597443  0.62863463  1
  N  N87  1  0.71588779  0.84402557  0.12863463  1
  N  N88  1  0.71588779  0.34402557  0.37136537  1
  N  N89  1  0.28411221  0.15597443  0.87136537  1
  N  N90  1  0.73485623  0.49365670  0.65307265  1
  N  N91  1  0.26514377  0.00634330  0.15307265  1
  N  N92  1  0.26514377  0.50634330  0.34692735  1
  N  N93  1  0.73485623  0.99365670  0.84692735  1
