# generated using pymatgen
data_K2LiC3(SN)3
_symmetry_space_group_name_H-M   'P 1'
_cell_length_a   8.72594167
_cell_length_b   9.66354452
_cell_length_c   12.39336657
_cell_angle_alpha   90.00000000
_cell_angle_beta   90.00000000
_cell_angle_gamma   90.00000000
_symmetry_Int_Tables_number   1
_chemical_formula_structural   K2LiC3(SN)3
_chemical_formula_sum   'K8 Li4 C12 S12 N12'
_cell_volume   1045.05236580
_cell_formula_units_Z   4
loop_
 _symmetry_equiv_pos_site_id
 _symmetry_equiv_pos_as_xyz
  1  'x, y, z'
loop_
 _atom_site_type_symbol
 _atom_site_label
 _atom_site_symmetry_multiplicity
 _atom_site_fract_x
 _atom_site_fract_y
 _atom_site_fract_z
 _atom_site_occupancy
  K  K0  1  0.03246069  0.86983228  0.67619024  1
  K  K1  1  0.53246069  0.13016772  0.32380976  1
  K  K2  1  0.53246069  0.36983228  0.82380976  1
  K  K3  1  0.03246069  0.63016772  0.17619024  1
  K  K4  1  0.53117582  0.88233795  0.67042589  1
  K  K5  1  0.03117582  0.11766205  0.32957411  1
  K  K6  1  0.03117582  0.38233795  0.82957411  1
  K  K7  1  0.53117582  0.61766205  0.17042589  1
  Li  Li8  1  0.88975919  0.53502252  0.58222911  1
  Li  Li9  1  0.38975919  0.46497748  0.41777089  1
  Li  Li10  1  0.38975919  0.03502252  0.91777089  1
  Li  Li11  1  0.88975919  0.96497748  0.08222911  1
  C  C12  1  0.77869421  0.76893812  0.45282902  1
  C  C13  1  0.27869421  0.23106188  0.54717098  1
  C  C14  1  0.27869421  0.26893812  0.04717098  1
  C  C15  1  0.77869421  0.73106188  0.95282902  1
  C  C16  1  0.23855956  0.56636764  0.63170813  1
  C  C17  1  0.73855956  0.43363236  0.36829187  1
  C  C18  1  0.73855956  0.06636764  0.86829187  1
  C  C19  1  0.23855956  0.93363236  0.13170813  1
  C  C20  1  0.28605522  0.74969549  0.88814108  1
  C  C21  1  0.78605522  0.25030451  0.11185892  1
  C  C22  1  0.78605522  0.24969549  0.61185892  1
  C  C23  1  0.28605522  0.75030451  0.38814108  1
  S  S24  1  0.26186194  0.16888356  0.66874012  1
  S  S25  1  0.76186194  0.83111644  0.33125988  1
  S  S26  1  0.76186194  0.66888356  0.83125988  1
  S  S27  1  0.26186194  0.33111644  0.16874012  1
  S  S28  1  0.92405772  0.06318411  0.88329251  1
  S  S29  1  0.42405772  0.93681589  0.11670749  1
  S  S30  1  0.42405772  0.56318411  0.61670749  1
  S  S31  1  0.92405772  0.43681589  0.38329251  1
  S  S32  1  0.77610741  0.10191272  0.54877849  1
  S  S33  1  0.27610741  0.89808728  0.45122151  1
  S  S34  1  0.27610741  0.60191272  0.95122151  1
  S  S35  1  0.77610741  0.39808728  0.04877849  1
  N  N36  1  0.79207747  0.72363602  0.54183916  1
  N  N37  1  0.29207747  0.27636398  0.45816084  1
  N  N38  1  0.29207747  0.22363602  0.95816084  1
  N  N39  1  0.79207747  0.77636398  0.04183916  1
  N  N40  1  0.10302444  0.56844434  0.64154296  1
  N  N41  1  0.60302444  0.43155566  0.35845704  1
  N  N42  1  0.60302444  0.06844434  0.85845704  1
  N  N43  1  0.10302444  0.93155566  0.14154296  1
  N  N44  1  0.29458633  0.85815015  0.84322633  1
  N  N45  1  0.79458633  0.14184985  0.15677367  1
  N  N46  1  0.79458633  0.35815015  0.65677367  1
  N  N47  1  0.29458633  0.64184985  0.34322633  1
