# generated using pymatgen
data_NaCo2As3O10
_symmetry_space_group_name_H-M   'P 1'
_cell_length_a   6.95479770
_cell_length_b   7.91560891
_cell_length_c   8.85314543
_cell_angle_alpha   107.57757355
_cell_angle_beta   108.77960273
_cell_angle_gamma   100.50419867
_symmetry_Int_Tables_number   1
_chemical_formula_structural   NaCo2As3O10
_chemical_formula_sum   'Na2 Co4 As6 O20'
_cell_volume   418.25925366
_cell_formula_units_Z   2
loop_
 _symmetry_equiv_pos_site_id
 _symmetry_equiv_pos_as_xyz
  1  'x, y, z'
loop_
 _atom_site_type_symbol
 _atom_site_label
 _atom_site_symmetry_multiplicity
 _atom_site_fract_x
 _atom_site_fract_y
 _atom_site_fract_z
 _atom_site_occupancy
  Na  Na0  1  0.25456016  0.30547693  0.45066694  1
  Na  Na1  1  0.74543984  0.69452307  0.54933306  1
  Co  Co2  1  0.88981163  0.16805116  0.06220191  1
  Co  Co3  1  0.11018837  0.83194884  0.93779809  1
  Co  Co4  1  0.54843236  0.35191793  0.86282674  1
  Co  Co5  1  0.45156764  0.64808207  0.13717326  1
  As  As6  1  0.98654545  0.62372208  0.20683264  1
  As  As7  1  0.01345455  0.37627792  0.79316736  1
  As  As8  1  0.54495247  0.74490715  0.83340323  1
  As  As9  1  0.45504753  0.25509285  0.16659677  1
  As  As10  1  0.23620908  0.92603782  0.62165383  1
  As  As11  1  0.76379092  0.07396218  0.37834617  1
  O  O12  1  0.15681189  0.71156024  0.12559614  1
  O  O13  1  0.84318811  0.28843976  0.87440386  1
  O  O14  1  0.43075019  0.80091129  0.97965549  1
  O  O15  1  0.56924981  0.19908871  0.02034451  1
  O  O16  1  0.72614505  0.60010612  0.08554271  1
  O  O17  1  0.27385495  0.39989388  0.91445729  1
  O  O18  1  0.37765559  0.12672871  0.62842193  1
  O  O19  1  0.62234441  0.87327129  0.37157807  1
  O  O20  1  0.39959974  0.77973203  0.64006351  1
  O  O21  1  0.60040026  0.22026797  0.35993649  1
  O  O22  1  0.51689897  0.51758739  0.72456987  1
  O  O23  1  0.48310103  0.48241261  0.27543013  1
  O  O24  1  0.02350089  0.43635786  0.25327646  1
  O  O25  1  0.97649911  0.56364214  0.74672354  1
  O  O26  1  0.09131234  0.92229532  0.74133580  1
  O  O27  1  0.90868766  0.07770468  0.25866420  1
  O  O28  1  0.79653970  0.88945750  0.89649272  1
  O  O29  1  0.20346030  0.11054250  0.10350728  1
  O  O30  1  0.03191626  0.79956282  0.41020474  1
  O  O31  1  0.96808374  0.20043718  0.58979526  1
