# generated using pymatgen
data_Ba3V4CoO14
_symmetry_space_group_name_H-M   'P 1'
_cell_length_a   7.29494624
_cell_length_b   13.75047933
_cell_length_c   14.18988900
_cell_angle_alpha   90.00000000
_cell_angle_beta   90.00000000
_cell_angle_gamma   101.22112327
_symmetry_Int_Tables_number   1
_chemical_formula_structural   Ba3V4CoO14
_chemical_formula_sum   'Ba12 V16 Co4 O56'
_cell_volume   1396.16373009
_cell_formula_units_Z   4
loop_
 _symmetry_equiv_pos_site_id
 _symmetry_equiv_pos_as_xyz
  1  'x, y, z'
loop_
 _atom_site_type_symbol
 _atom_site_label
 _atom_site_symmetry_multiplicity
 _atom_site_fract_x
 _atom_site_fract_y
 _atom_site_fract_z
 _atom_site_occupancy
  Ba  Ba0  1  0.25505910  0.98527527  0.10605521  1
  Ba  Ba1  1  0.24494090  0.51472473  0.60605521  1
  Ba  Ba2  1  0.74494090  0.01472473  0.89394479  1
  Ba  Ba3  1  0.75505910  0.48527527  0.39394479  1
  Ba  Ba4  1  0.67236108  0.28276283  0.05548377  1
  Ba  Ba5  1  0.82763892  0.21723717  0.55548377  1
  Ba  Ba6  1  0.32763892  0.71723717  0.94451623  1
  Ba  Ba7  1  0.17236108  0.78276283  0.44451623  1
  Ba  Ba8  1  0.23739718  0.29721687  0.26942855  1
  Ba  Ba9  1  0.26260282  0.20278313  0.76942855  1
  Ba  Ba10  1  0.76260282  0.70278313  0.73057145  1
  Ba  Ba11  1  0.73739718  0.79721687  0.23057145  1
  V  V12  1  0.16044606  0.26112968  0.02686058  1
  V  V13  1  0.33955394  0.23887032  0.52686058  1
  V  V14  1  0.83955394  0.73887032  0.97313942  1
  V  V15  1  0.66044606  0.76112968  0.47313942  1
  V  V16  1  0.33955684  0.45100311  0.88906451  1
  V  V17  1  0.16044316  0.04899689  0.38906451  1
  V  V18  1  0.66044316  0.54899689  0.11093549  1
  V  V19  1  0.83955684  0.95100311  0.61093549  1
  V  V20  1  0.74654679  0.05123053  0.17036531  1
  V  V21  1  0.75345321  0.44876947  0.67036531  1
  V  V22  1  0.25345321  0.94876947  0.82963469  1
  V  V23  1  0.24654679  0.55123053  0.32963469  1
  V  V24  1  0.74568050  0.23183527  0.31326211  1
  V  V25  1  0.75431950  0.26816473  0.81326211  1
  V  V26  1  0.25431950  0.76816473  0.68673789  1
  V  V27  1  0.24568050  0.73183527  0.18673789  1
  Co  Co28  1  0.61378670  0.99379358  0.40228519  1
  Co  Co29  1  0.88621330  0.50620642  0.90228519  1
  Co  Co30  1  0.38621330  0.00620642  0.59771481  1
  Co  Co31  1  0.11378670  0.49379358  0.09771481  1
  O  O32  1  0.29198699  0.20094449  0.09851591  1
  O  O33  1  0.20801301  0.29905551  0.59851591  1
  O  O34  1  0.70801301  0.79905551  0.90148409  1
  O  O35  1  0.79198699  0.70094449  0.40148409  1
  O  O36  1  0.98443554  0.18014644  0.97592035  1
  O  O37  1  0.51556446  0.31985356  0.47592035  1
  O  O38  1  0.01556446  0.81985356  0.02407965  1
  O  O39  1  0.48443554  0.68014644  0.52407965  1
  O  O40  1  0.06505327  0.34281672  0.09726912  1
  O  O41  1  0.43494673  0.15718328  0.59726912  1
  O  O42  1  0.93494673  0.65718328  0.90273088  1
  O  O43  1  0.56505327  0.84281672  0.40273088  1
  O  O44  1  0.32959964  0.32584491  0.94072787  1
  O  O45  1  0.17040036  0.17415509  0.44072787  1
  O  O46  1  0.67040036  0.67415509  0.05927213  1
  O  O47  1  0.82959964  0.82584491  0.55927213  1
  O  O48  1  0.17499219  0.51287892  0.94543688  1
  O  O49  1  0.32500781  0.98712108  0.44543688  1
  O  O50  1  0.82500781  0.48712108  0.05456312  1
  O  O51  1  0.67499219  0.01287892  0.55456312  1
  O  O52  1  0.27575045  0.42477803  0.77657336  1
  O  O53  1  0.22424955  0.07522197  0.27657336  1
  O  O54  1  0.72424955  0.57522197  0.22342664  1
  O  O55  1  0.77575045  0.92477803  0.72342664  1
  O  O56  1  0.56218745  0.51972978  0.89061196  1
  O  O57  1  0.93781255  0.98027022  0.39061196  1
  O  O58  1  0.43781255  0.48027022  0.10938804  1
  O  O59  1  0.06218745  0.01972978  0.60938804  1
  O  O60  1  0.61580913  0.07798101  0.07601216  1
  O  O61  1  0.88419087  0.42201899  0.57601216  1
  O  O62  1  0.38419087  0.92201899  0.92398784  1
  O  O63  1  0.11580913  0.57798101  0.42398784  1
  O  O64  1  0.59912008  0.98469869  0.25194663  1
  O  O65  1  0.90087992  0.51530131  0.75194663  1
  O  O66  1  0.40087992  0.01530131  0.74805337  1
  O  O67  1  0.09912008  0.48469869  0.24805337  1
  O  O68  1  0.89050896  0.97653140  0.13151192  1
  O  O69  1  0.60949104  0.52346860  0.63151192  1
  O  O70  1  0.10949104  0.02346860  0.86848808  1
  O  O71  1  0.39050896  0.47653140  0.36848808  1
  O  O72  1  0.86249042  0.17233708  0.22211213  1
  O  O73  1  0.63750958  0.32766292  0.72211213  1
  O  O74  1  0.13750958  0.82766292  0.77788787  1
  O  O75  1  0.36249042  0.67233708  0.27788787  1
  O  O76  1  0.60340584  0.29984825  0.25725312  1
  O  O77  1  0.89659416  0.20015175  0.75725312  1
  O  O78  1  0.39659416  0.70015175  0.74274688  1
  O  O79  1  0.10340584  0.79984825  0.24274688  1
  O  O80  1  0.64315229  0.14171232  0.39205755  1
  O  O81  1  0.85684771  0.35828768  0.89205755  1
  O  O82  1  0.35684771  0.85828768  0.60794245  1
  O  O83  1  0.14315229  0.64171232  0.10794245  1
  O  O84  1  0.91206505  0.31082852  0.37569012  1
  O  O85  1  0.58793495  0.18917148  0.87569012  1
  O  O86  1  0.08793495  0.68917148  0.62430988  1
  O  O87  1  0.41206505  0.81082852  0.12430988  1
