# generated using pymatgen
data_NbTlV2O8
_symmetry_space_group_name_H-M   'P 1'
_cell_length_a   5.69560256
_cell_length_b   8.87648343
_cell_length_c   15.24415815
_cell_angle_alpha   90.00000000
_cell_angle_beta   90.00000000
_cell_angle_gamma   90.00000000
_symmetry_Int_Tables_number   1
_chemical_formula_structural   NbTlV2O8
_chemical_formula_sum   'Nb4 Tl4 V8 O32'
_cell_volume   770.69771070
_cell_formula_units_Z   4
loop_
 _symmetry_equiv_pos_site_id
 _symmetry_equiv_pos_as_xyz
  1  'x, y, z'
loop_
 _atom_site_type_symbol
 _atom_site_label
 _atom_site_symmetry_multiplicity
 _atom_site_fract_x
 _atom_site_fract_y
 _atom_site_fract_z
 _atom_site_occupancy
  Nb  Nb0  1  0.25000000  0.81345718  0.61976201  1
  Nb  Nb1  1  0.25000000  0.68654282  0.11976201  1
  Nb  Nb2  1  0.75000000  0.18654282  0.38023799  1
  Nb  Nb3  1  0.75000000  0.31345718  0.88023799  1
  Tl  Tl4  1  0.25000000  0.93494874  0.87942436  1
  Tl  Tl5  1  0.25000000  0.56505126  0.37942436  1
  Tl  Tl6  1  0.75000000  0.06505126  0.12057564  1
  Tl  Tl7  1  0.75000000  0.43494874  0.62057564  1
  V  V8  1  0.25000000  0.51041888  0.78458867  1
  V  V9  1  0.25000000  0.98958112  0.28458867  1
  V  V10  1  0.75000000  0.48958112  0.21541133  1
  V  V11  1  0.75000000  0.01041888  0.71541133  1
  V  V12  1  0.25000000  0.20431425  0.52814869  1
  V  V13  1  0.25000000  0.29568575  0.02814869  1
  V  V14  1  0.75000000  0.79568575  0.47185131  1
  V  V15  1  0.75000000  0.70431425  0.97185131  1
  O  O16  1  0.00708779  0.89839579  0.70377296  1
  O  O17  1  0.49291221  0.60160421  0.20377296  1
  O  O18  1  0.50708779  0.10160421  0.29622704  1
  O  O19  1  0.99291221  0.39839579  0.79622704  1
  O  O20  1  0.99291221  0.10160421  0.29622704  1
  O  O21  1  0.50708779  0.39839579  0.79622704  1
  O  O22  1  0.49291221  0.89839579  0.70377296  1
  O  O23  1  0.00708779  0.60160421  0.20377296  1
  O  O24  1  -0.00014663  0.74463864  0.53757551  1
  O  O25  1  0.50014663  0.75536136  0.03757551  1
  O  O26  1  0.49985337  0.25536136  0.46242449  1
  O  O27  1  0.00014663  0.24463864  0.96242449  1
  O  O28  1  0.00014663  0.25536136  0.46242449  1
  O  O29  1  0.49985337  0.24463864  0.96242449  1
  O  O30  1  0.50014663  0.74463864  0.53757551  1
  O  O31  1  -0.00014663  0.75536136  0.03757551  1
  O  O32  1  0.25000000  0.61986041  0.68500202  1
  O  O33  1  0.25000000  0.88013959  0.18500202  1
  O  O34  1  0.75000000  0.38013959  0.31499798  1
  O  O35  1  0.75000000  0.11986041  0.81499798  1
  O  O36  1  0.25000000  0.01385350  0.55785963  1
  O  O37  1  0.25000000  0.48614650  0.05785963  1
  O  O38  1  0.75000000  0.98614650  0.44214037  1
  O  O39  1  0.75000000  0.51385350  0.94214037  1
  O  O40  1  0.25000000  0.63201229  0.86579334  1
  O  O41  1  0.25000000  0.86798771  0.36579334  1
  O  O42  1  0.75000000  0.36798771  0.13420666  1
  O  O43  1  0.75000000  0.13201229  0.63420666  1
  O  O44  1  0.75000000  0.81265270  0.88407567  1
  O  O45  1  0.75000000  0.68734730  0.38407567  1
  O  O46  1  0.25000000  0.18734730  0.11592433  1
  O  O47  1  0.25000000  0.31265270  0.61592433  1
