# generated using pymatgen
data_Hf9SiMo4
_symmetry_space_group_name_H-M   'P 1'
_cell_length_a   8.72301952
_cell_length_b   8.64954714
_cell_length_c   8.64954714
_cell_angle_alpha   120.02117239
_cell_angle_beta   90.00000000
_cell_angle_gamma   90.00000000
_symmetry_Int_Tables_number   1
_chemical_formula_structural   Hf9SiMo4
_chemical_formula_sum   'Hf18 Si2 Mo8'
_cell_volume   565.05603925
_cell_formula_units_Z   2
loop_
 _symmetry_equiv_pos_site_id
 _symmetry_equiv_pos_as_xyz
  1  'x, y, z'
loop_
 _atom_site_type_symbol
 _atom_site_label
 _atom_site_symmetry_multiplicity
 _atom_site_fract_x
 _atom_site_fract_y
 _atom_site_fract_z
 _atom_site_occupancy
  Hf  Hf0  1  0.54524179  0.80254897  0.60513031  1
  Hf  Hf1  1  0.54531348  0.80254254  0.19745746  1
  Hf  Hf2  1  0.54524179  0.39486969  0.19745103  1
  Hf  Hf3  1  0.45475821  0.19745103  0.39486969  1
  Hf  Hf4  1  0.45468652  0.19745746  0.80254254  1
  Hf  Hf5  1  0.45475821  0.60513031  0.80254897  1
  Hf  Hf6  1  0.04524179  0.19745103  0.39486969  1
  Hf  Hf7  1  0.04531348  0.19745746  0.80254254  1
  Hf  Hf8  1  0.04524179  0.60513031  0.80254897  1
  Hf  Hf9  1  0.95475821  0.80254897  0.60513031  1
  Hf  Hf10  1  0.95468652  0.80254254  0.19745746  1
  Hf  Hf11  1  0.95475821  0.39486969  0.19745103  1
  Hf  Hf12  1  0.75000000  0.46317661  0.92636077  1
  Hf  Hf13  1  0.75000000  0.46318192  0.53681808  1
  Hf  Hf14  1  0.75000000  0.07363923  0.53682339  1
  Hf  Hf15  1  0.25000000  0.53682339  0.07363923  1
  Hf  Hf16  1  0.25000000  0.53681808  0.46318192  1
  Hf  Hf17  1  0.25000000  0.92636077  0.46317661  1
  Si  Si18  1  0.75000000  0.66667835  0.33332165  1
  Si  Si19  1  0.25000000  0.33332165  0.66667835  1
  Mo  Mo20  1  0.75000000  0.11024642  0.22053192  1
  Mo  Mo21  1  0.75000000  0.11025486  0.88974514  1
  Mo  Mo22  1  0.75000000  0.77946808  0.88975358  1
  Mo  Mo23  1  0.25000000  0.88975358  0.77946808  1
  Mo  Mo24  1  0.25000000  0.88974514  0.11025486  1
  Mo  Mo25  1  0.25000000  0.22053192  0.11024642  1
  Mo  Mo26  1  0.50000000  -0.00000000  0.00000000  1
  Mo  Mo27  1  -0.00000000  -0.00000000  0.00000000  1
