# generated using pymatgen
data_RbH3CN2O
_symmetry_space_group_name_H-M   'P 1'
_cell_length_a   7.35918162
_cell_length_b   7.62961321
_cell_length_c   14.28016523
_cell_angle_alpha   90.00000000
_cell_angle_beta   90.00000000
_cell_angle_gamma   90.00000000
_symmetry_Int_Tables_number   1
_chemical_formula_structural   RbH3CN2O
_chemical_formula_sum   'Rb8 H24 C8 N16 O8'
_cell_volume   801.79856613
_cell_formula_units_Z   8
loop_
 _symmetry_equiv_pos_site_id
 _symmetry_equiv_pos_as_xyz
  1  'x, y, z'
loop_
 _atom_site_type_symbol
 _atom_site_label
 _atom_site_symmetry_multiplicity
 _atom_site_fract_x
 _atom_site_fract_y
 _atom_site_fract_z
 _atom_site_occupancy
  Rb  Rb0  1  0.39510133  0.95750737  0.18948258  1
  Rb  Rb1  1  0.89510133  0.54249263  0.81051742  1
  Rb  Rb2  1  0.60489867  0.45750737  0.31051742  1
  Rb  Rb3  1  0.10489867  0.04249263  0.68948258  1
  Rb  Rb4  1  0.60489867  0.04249263  0.81051742  1
  Rb  Rb5  1  0.10489867  0.45750737  0.18948258  1
  Rb  Rb6  1  0.39510133  0.54249263  0.68948258  1
  Rb  Rb7  1  0.89510133  0.95750737  0.31051742  1
  H  H8  1  0.88940155  0.91036027  0.96245874  1
  H  H9  1  0.38940155  0.58963973  0.03754126  1
  H  H10  1  0.11059845  0.41036027  0.53754126  1
  H  H11  1  0.61059845  0.08963973  0.46245874  1
  H  H12  1  0.11059845  0.08963973  0.03754126  1
  H  H13  1  0.61059845  0.41036027  0.96245874  1
  H  H14  1  0.88940155  0.58963973  0.46245874  1
  H  H15  1  0.38940155  0.91036027  0.53754126  1
  H  H16  1  0.71498003  0.75983323  0.97744894  1
  H  H17  1  0.21498003  0.74016677  0.02255106  1
  H  H18  1  0.28501997  0.25983323  0.52255106  1
  H  H19  1  0.78501997  0.24016677  0.47744894  1
  H  H20  1  0.28501997  0.24016677  0.02255106  1
  H  H21  1  0.78501997  0.25983323  0.97744894  1
  H  H22  1  0.71498003  0.74016677  0.47744894  1
  H  H23  1  0.21498003  0.75983323  0.52255106  1
  H  H24  1  0.67112372  0.64693901  0.11963516  1
  H  H25  1  0.17112372  0.85306099  0.88036484  1
  H  H26  1  0.32887628  0.14693901  0.38036484  1
  H  H27  1  0.82887628  0.35306099  0.61963516  1
  H  H28  1  0.32887628  0.35306099  0.88036484  1
  H  H29  1  0.82887628  0.14693901  0.11963516  1
  H  H30  1  0.67112372  0.85306099  0.61963516  1
  H  H31  1  0.17112372  0.64693901  0.38036484  1
  C  C32  1  0.88092163  0.79408403  0.09306309  1
  C  C33  1  0.38092163  0.70591597  0.90693691  1
  C  C34  1  0.11907837  0.29408403  0.40693691  1
  C  C35  1  0.61907837  0.20591597  0.59306309  1
  C  C36  1  0.11907837  0.20591597  0.90693691  1
  C  C37  1  0.61907837  0.29408403  0.09306309  1
  C  C38  1  0.88092163  0.70591597  0.59306309  1
  C  C39  1  0.38092163  0.79408403  0.40693691  1
  N  N40  1  0.84008841  0.80252542  0.99751020  1
  N  N41  1  0.34008841  0.69747458  0.00248980  1
  N  N42  1  0.15991159  0.30252542  0.50248980  1
  N  N43  1  0.65991159  0.19747458  0.49751020  1
  N  N44  1  0.15991159  0.19747458  0.00248980  1
  N  N45  1  0.65991159  0.30252542  0.99751020  1
  N  N46  1  0.84008841  0.69747458  0.49751020  1
  N  N47  1  0.34008841  0.80252542  0.50248980  1
  N  N48  1  0.78031368  0.70240264  0.15315937  1
  N  N49  1  0.28031368  0.79759736  0.84684063  1
  N  N50  1  0.21968632  0.20240264  0.34684063  1
  N  N51  1  0.71968632  0.29759736  0.65315937  1
  N  N52  1  0.21968632  0.29759736  0.84684063  1
  N  N53  1  0.71968632  0.20240264  0.15315937  1
  N  N54  1  0.78031368  0.79759736  0.65315937  1
  N  N55  1  0.28031368  0.70240264  0.34684063  1
  O  O56  1  0.02791072  0.87489822  0.11882122  1
  O  O57  1  0.52791072  0.62510178  0.88117878  1
  O  O58  1  0.97208928  0.37489822  0.38117878  1
  O  O59  1  0.47208928  0.12510178  0.61882122  1
  O  O60  1  0.97208928  0.12510178  0.88117878  1
  O  O61  1  0.47208928  0.37489822  0.11882122  1
  O  O62  1  0.02791072  0.62510178  0.61882122  1
  O  O63  1  0.52791072  0.87489822  0.38117878  1
