# generated using pymatgen
data_VFeO4
_symmetry_space_group_name_H-M   'P 1'
_cell_length_a   6.77938370
_cell_length_b   8.09367392
_cell_length_c   9.39315631
_cell_angle_alpha   96.43399539
_cell_angle_beta   106.57167517
_cell_angle_gamma   101.55990843
_symmetry_Int_Tables_number   1
_chemical_formula_structural   VFeO4
_chemical_formula_sum   'V6 Fe6 O24'
_cell_volume   476.05247380
_cell_formula_units_Z   6
loop_
 _symmetry_equiv_pos_site_id
 _symmetry_equiv_pos_as_xyz
  1  'x, y, z'
loop_
 _atom_site_type_symbol
 _atom_site_label
 _atom_site_symmetry_multiplicity
 _atom_site_fract_x
 _atom_site_fract_y
 _atom_site_fract_z
 _atom_site_occupancy
  Fe  Fe0  1  0.75168706  0.70065344  0.40825700  1
  Fe  Fe1  1  0.24831294  0.29934656  0.59174300  1
  Fe  Fe2  1  0.46411491  0.88834206  0.21330508  1
  Fe  Fe3  1  0.53588509  0.11165794  0.78669492  1
  Fe  Fe4  1  0.97106937  0.30653503  0.01093762  1
  Fe  Fe5  1  0.02893063  0.69346497  0.98906238  1
  V  V6  1  0.00575694  -0.00142441  0.26224699  1
  V  V7  1  0.99424306  1.00142441  0.73775301  1
  V  V8  1  0.19888182  0.59824460  0.34980276  1
  V  V9  1  0.80111818  0.40175640  0.65019724  1
  V  V10  1  0.52464918  0.30573616  0.12833299  1
  V  V11  1  0.47535082  0.69426384  0.87166701  1
  O  O12  1  0.64955854  0.49355586  0.25309834  1
  O  O13  1  0.35044146  0.50644414  0.74690166  1
  O  O14  1  0.25647419  0.43326427  0.43605184  1
  O  O15  1  0.74352581  0.56673573  0.56394816  1
  O  O16  1  0.04824339  0.69863167  0.43002141  1
  O  O17  1  0.95175661  0.30136833  0.56997859  1
  O  O18  1  0.16055668  0.09676854  0.43813464  1
  O  O19  1  0.83944332  0.90323146  0.56186536  1
  O  O20  1  0.45403555  0.73761560  0.36506657  1
  O  O21  1  0.54596445  0.26238440  0.63493343  1
  O  O22  1  0.75978255  0.86233453  0.26626728  1
  O  O23  1  0.24021745  0.13766547  0.73373272  1
  O  O24  1  0.52860333  0.12849268  0.21808393  1
  O  O25  1  0.47139667  0.87150732  0.78191607  1
  O  O26  1  0.15149027  0.87605239  0.17881998  1
  O  O27  1  0.84850973  0.12394761  0.82118002  1
  O  O28  1  0.35408371  0.72650344  0.01982200  1
  O  O29  1  0.64591629  0.27349656  0.98017800  1
  O  O30  1  0.26497752  0.30057160  0.03727627  1
  O  O31  1  0.73502248  0.69942840  0.96272373  1
  O  O32  1  0.94865423  0.14807877  0.15570737  1
  O  O33  1  0.05134577  0.85192123  0.84429263  1
  O  O34  1  0.05648135  0.52767979  0.15107301  1
  O  O35  1  0.94351865  0.47232021  0.84892699  1
