# generated using pymatgen
data_As4Se3
_symmetry_space_group_name_H-M   'P 1'
_cell_length_a   8.56320443
_cell_length_b   9.93042073
_cell_length_c   11.01070647
_cell_angle_alpha   90.00000000
_cell_angle_beta   90.00000000
_cell_angle_gamma   90.00000000
_symmetry_Int_Tables_number   1
_chemical_formula_structural   As4Se3
_chemical_formula_sum   'As16 Se12'
_cell_volume   936.30888842
_cell_formula_units_Z   4
loop_
 _symmetry_equiv_pos_site_id
 _symmetry_equiv_pos_as_xyz
  1  'x, y, z'
loop_
 _atom_site_type_symbol
 _atom_site_label
 _atom_site_symmetry_multiplicity
 _atom_site_fract_x
 _atom_site_fract_y
 _atom_site_fract_z
 _atom_site_occupancy
  As  As0  1  0.75000000  0.49018041  0.57378943  1
  As  As1  1  0.75000000  0.99018041  0.92621057  1
  As  As2  1  0.25000000  0.50981959  0.42621057  1
  As  As3  1  0.25000000  0.00981959  0.07378943  1
  As  As4  1  0.75000000  0.33981218  0.05770079  1
  As  As5  1  0.75000000  0.83981218  0.44229921  1
  As  As6  1  0.25000000  0.66018782  0.94229921  1
  As  As7  1  0.25000000  0.16018782  0.55770079  1
  As  As8  1  0.89756059  0.14539233  0.78753290  1
  As  As9  1  0.60243941  0.64539233  0.71246710  1
  As  As10  1  0.39756059  0.85460767  0.21246710  1
  As  As11  1  0.10243941  0.35460767  0.28753290  1
  As  As12  1  0.10243941  0.85460767  0.21246710  1
  As  As13  1  0.39756059  0.35460767  0.28753290  1
  As  As14  1  0.60243941  0.14539233  0.78753290  1
  As  As15  1  0.89756059  0.64539233  0.71246710  1
  Se  Se16  1  0.96194356  0.33215121  0.91371080  1
  Se  Se17  1  0.53805644  0.83215121  0.58628920  1
  Se  Se18  1  0.46194356  0.66784879  0.08628920  1
  Se  Se19  1  0.03805644  0.16784879  0.41371080  1
  Se  Se20  1  0.03805644  0.66784879  0.08628920  1
  Se  Se21  1  0.46194356  0.16784879  0.41371080  1
  Se  Se22  1  0.53805644  0.33215121  0.91371080  1
  Se  Se23  1  0.96194356  0.83215121  0.58628920  1
  Se  Se24  1  0.75000000  0.10570403  0.11520304  1
  Se  Se25  1  0.75000000  0.60570403  0.38479696  1
  Se  Se26  1  0.25000000  0.89429597  0.88479696  1
  Se  Se27  1  0.25000000  0.39429597  0.61520304  1
