# generated using pymatgen
data_Rb(WO3)3
_symmetry_space_group_name_H-M   'P 1'
_cell_length_a   7.53594822
_cell_length_b   7.53594822
_cell_length_c   7.76764393
_cell_angle_alpha   90.00000000
_cell_angle_beta   90.00000000
_cell_angle_gamma   120.00000511
_symmetry_Int_Tables_number   1
_chemical_formula_structural   Rb(WO3)3
_chemical_formula_sum   'Rb2 W6 O18'
_cell_volume   382.02847098
_cell_formula_units_Z   2
loop_
 _symmetry_equiv_pos_site_id
 _symmetry_equiv_pos_as_xyz
  1  'x, y, z'
loop_
 _atom_site_type_symbol
 _atom_site_label
 _atom_site_symmetry_multiplicity
 _atom_site_fract_x
 _atom_site_fract_y
 _atom_site_fract_z
 _atom_site_occupancy
  Rb  Rb0  1  -0.00000000  0.00000000  0.99908385  1
  Rb  Rb1  1  -0.00000000  0.00000000  0.50555268  1
  W  W2  1  0.50490531  -0.00001316  0.25812730  1
  W  W3  1  0.00001316  0.50491846  0.25812730  1
  W  W4  1  0.49508154  0.49509469  0.25812730  1
  W  W5  1  0.50163822  0.00000191  0.75813562  1
  W  W6  1  -0.00000191  0.50163632  0.75813562  1
  W  W7  1  0.49836368  0.49836178  0.75813562  1
  O  O8  1  0.79179004  0.21267602  0.25747132  1
  O  O9  1  0.78732398  0.57911402  0.25747132  1
  O  O10  1  0.42088598  0.20820996  0.25747132  1
  O  O11  1  0.57920316  0.78733042  0.25872906  1
  O  O12  1  0.21266958  0.79187274  0.25872906  1
  O  O13  1  0.20812726  0.42079684  0.25872906  1
  O  O14  1  0.21151821  0.79089663  0.75752208  1
  O  O15  1  0.20910337  0.42062157  0.75752208  1
  O  O16  1  0.57937843  0.78848179  0.75752208  1
  O  O17  1  0.42084422  0.20923025  0.75870353  1
  O  O18  1  0.79076975  0.21161397  0.75870353  1
  O  O19  1  0.78838603  0.57915578  0.75870353  1
  O  O20  1  0.50419124  0.99890833  0.00808102  1
  O  O21  1  0.00109167  0.50528291  0.00808102  1
  O  O22  1  0.49471709  0.49580876  0.00808102  1
  O  O23  1  0.99897773  0.50336721  0.50803788  1
  O  O24  1  0.49663279  0.49561052  0.50803788  1
  O  O25  1  0.50438948  0.00102227  0.50803788  1
