# generated using pymatgen
data_NaIn(TeO3)2
_symmetry_space_group_name_H-M   'P 1'
_cell_length_a   8.42070383
_cell_length_b   10.86227177
_cell_length_c   13.83018230
_cell_angle_alpha   90.00000000
_cell_angle_beta   90.00000000
_cell_angle_gamma   90.00000000
_symmetry_Int_Tables_number   1
_chemical_formula_structural   NaIn(TeO3)2
_chemical_formula_sum   'Na8 In8 Te16 O48'
_cell_volume   1265.01874806
_cell_formula_units_Z   8
loop_
 _symmetry_equiv_pos_site_id
 _symmetry_equiv_pos_as_xyz
  1  'x, y, z'
loop_
 _atom_site_type_symbol
 _atom_site_label
 _atom_site_symmetry_multiplicity
 _atom_site_fract_x
 _atom_site_fract_y
 _atom_site_fract_z
 _atom_site_occupancy
  Na  Na0  1  0.12157224  0.76548398  0.85478693  1
  Na  Na1  1  0.37842776  0.26548398  0.14521307  1
  Na  Na2  1  0.62157224  0.23451602  0.64521307  1
  Na  Na3  1  0.87842776  0.73451602  0.35478693  1
  Na  Na4  1  0.87842776  0.23451602  0.14521307  1
  Na  Na5  1  0.62157224  0.73451602  0.85478693  1
  Na  Na6  1  0.37842776  0.76548398  0.35478693  1
  Na  Na7  1  0.12157224  0.26548398  0.64521307  1
  In  In8  1  0.70526535  0.99722687  0.98702344  1
  In  In9  1  0.79473465  0.49722687  0.01297656  1
  In  In10  1  0.20526535  0.00277313  0.51297656  1
  In  In11  1  0.29473465  0.50277313  0.48702344  1
  In  In12  1  0.29473465  0.00277313  0.01297656  1
  In  In13  1  0.20526535  0.50277313  0.98702344  1
  In  In14  1  0.79473465  0.99722687  0.48702344  1
  In  In15  1  0.70526535  0.49722687  0.51297656  1
  Te  Te16  1  0.84949174  0.98033134  0.75506516  1
  Te  Te17  1  0.65050826  0.48033134  0.24493484  1
  Te  Te18  1  0.34949174  0.01966866  0.74493484  1
  Te  Te19  1  0.15050826  0.51966866  0.25506516  1
  Te  Te20  1  0.15050826  0.01966866  0.24493484  1
  Te  Te21  1  0.34949174  0.51966866  0.75506516  1
  Te  Te22  1  0.65050826  0.98033134  0.25506516  1
  Te  Te23  1  0.84949174  0.48033134  0.74493484  1
  Te  Te24  1  0.96933886  0.78085856  0.08012084  1
  Te  Te25  1  0.53066114  0.28085856  0.91987916  1
  Te  Te26  1  0.46933886  0.21914144  0.41987916  1
  Te  Te27  1  0.03066114  0.71914144  0.58012084  1
  Te  Te28  1  0.03066114  0.21914144  0.91987916  1
  Te  Te29  1  0.46933886  0.71914144  0.08012084  1
  Te  Te30  1  0.53066114  0.78085856  0.58012084  1
  Te  Te31  1  0.96933886  0.28085856  0.41987916  1
  O  O32  1  0.66048361  0.95693736  0.83180800  1
  O  O33  1  0.83951639  0.45693736  0.16819200  1
  O  O34  1  0.16048361  0.04306264  0.66819200  1
  O  O35  1  0.33951639  0.54306264  0.33180800  1
  O  O36  1  0.33951639  0.04306264  0.16819200  1
  O  O37  1  0.16048361  0.54306264  0.83180800  1
  O  O38  1  0.83951639  0.95693736  0.33180800  1
  O  O39  1  0.66048361  0.45693736  0.66819200  1
  O  O40  1  0.73746298  0.02413788  0.63896997  1
  O  O41  1  0.76253702  0.52413788  0.36103003  1
  O  O42  1  0.23746298  0.97586212  0.86103003  1
  O  O43  1  0.26253702  0.47586212  0.13896997  1
  O  O44  1  0.26253702  0.97586212  0.36103003  1
  O  O45  1  0.23746298  0.47586212  0.63896997  1
  O  O46  1  0.76253702  0.02413788  0.13896997  1
  O  O47  1  0.73746298  0.52413788  0.86103003  1
  O  O48  1  0.89571320  0.81352094  0.73388675  1
  O  O49  1  0.60428680  0.31352094  0.26611325  1
  O  O50  1  0.39571320  0.18647906  0.76611325  1
  O  O51  1  0.10428680  0.68647906  0.23388675  1
  O  O52  1  0.10428680  0.18647906  0.26611325  1
  O  O53  1  0.39571320  0.68647906  0.73388675  1
  O  O54  1  0.60428680  0.81352094  0.23388675  1
  O  O55  1  0.89571320  0.31352094  0.76611325  1
  O  O56  1  0.89246067  0.86529206  0.96765269  1
  O  O57  1  0.60753933  0.36529206  0.03234731  1
  O  O58  1  0.39246067  0.13470794  0.53234731  1
  O  O59  1  0.10753933  0.63470794  0.46765269  1
  O  O60  1  0.10753933  0.13470794  0.03234731  1
  O  O61  1  0.39246067  0.63470794  0.96765269  1
  O  O62  1  0.60753933  0.86529206  0.46765269  1
  O  O63  1  0.89246067  0.36529206  0.53234731  1
  O  O64  1  0.00089148  0.62656861  0.01216715  1
  O  O65  1  0.49910852  0.12656861  0.98783285  1
  O  O66  1  0.50089148  0.37343139  0.48783285  1
  O  O67  1  0.99910852  0.87343139  0.51216715  1
  O  O68  1  0.99910852  0.37343139  0.98783285  1
  O  O69  1  0.50089148  0.87343139  0.01216715  1
  O  O70  1  0.49910852  0.62656861  0.51216715  1
  O  O71  1  0.00089148  0.12656861  0.48783285  1
  O  O72  1  0.18303255  0.83097755  0.05417321  1
  O  O73  1  0.31696745  0.33097755  0.94582679  1
  O  O74  1  0.68303255  0.16902245  0.44582679  1
  O  O75  1  0.81696745  0.66902245  0.55417321  1
  O  O76  1  0.81696745  0.16902245  0.94582679  1
  O  O77  1  0.68303255  0.66902245  0.05417321  1
  O  O78  1  0.31696745  0.83097755  0.55417321  1
  O  O79  1  0.18303255  0.33097755  0.44582679  1
