# generated using pymatgen
data_RbCdC3(SN)3
_symmetry_space_group_name_H-M   'P 1'
_cell_length_a   5.80792562
_cell_length_b   12.94214530
_cell_length_c   13.66392219
_cell_angle_alpha   90.00000000
_cell_angle_beta   90.00000000
_cell_angle_gamma   93.16896876
_symmetry_Int_Tables_number   1
_chemical_formula_structural   RbCdC3(SN)3
_chemical_formula_sum   'Rb4 Cd4 C12 S12 N12'
_cell_volume   1025.50572253
_cell_formula_units_Z   4
loop_
 _symmetry_equiv_pos_site_id
 _symmetry_equiv_pos_as_xyz
  1  'x, y, z'
loop_
 _atom_site_type_symbol
 _atom_site_label
 _atom_site_symmetry_multiplicity
 _atom_site_fract_x
 _atom_site_fract_y
 _atom_site_fract_z
 _atom_site_occupancy
  Cd  Cd0  1  0.00000000  0.00000000  0.00000000  1
  Cd  Cd1  1  0.50000000  0.50000000  0.50000000  1
  Cd  Cd2  1  0.00000000  0.50000000  0.00000000  1
  Cd  Cd3  1  0.50000000  0.00000000  0.50000000  1
  Rb  Rb4  1  0.62248482  0.71284626  0.71453635  1
  Rb  Rb5  1  0.87751518  0.78715374  0.21453635  1
  Rb  Rb6  1  0.37751518  0.28715374  0.28546365  1
  Rb  Rb7  1  0.12248482  0.21284626  0.78546365  1
  S  S8  1  0.74256279  0.97069140  0.82961302  1
  S  S9  1  0.75743721  0.52930860  0.32961302  1
  S  S10  1  0.25743721  0.02930860  0.17038698  1
  S  S11  1  0.24256279  0.47069140  0.67038698  1
  S  S12  1  0.23011137  0.91878675  0.65013660  1
  S  S13  1  0.26988863  0.58121325  0.15013660  1
  S  S14  1  0.76988863  0.08121325  0.34986340  1
  S  S15  1  0.73011137  0.41878675  0.84986340  1
  S  S16  1  0.13819221  0.65875795  0.87005757  1
  S  S17  1  0.36180779  0.84124205  0.37005757  1
  S  S18  1  0.86180779  0.34124205  0.12994243  1
  S  S19  1  0.63819221  0.15875795  0.62994243  1
  C  C20  1  0.49985005  0.01024876  0.87243817  1
  C  C21  1  1.00014995  0.48975124  0.37243817  1
  C  C22  1  0.50014995  0.98975124  0.12756183  1
  C  C23  1  -0.00014995  0.51024876  0.62756183  1
  C  C24  1  0.98048365  0.90980194  0.59499645  1
  C  C25  1  0.51951635  0.59019806  0.09499645  1
  C  C26  1  0.01951635  0.09019806  0.40500355  1
  C  C27  1  0.48048365  0.40980194  0.90500355  1
  C  C28  1  0.10676488  0.75617673  0.94432796  1
  C  C29  1  0.39323512  0.74382327  0.44432796  1
  C  C30  1  0.89323512  0.24382327  0.05567204  1
  C  C31  1  0.60676488  0.25617673  0.55567204  1
  N  N32  1  0.82298346  0.54055682  0.59913941  1
  N  N33  1  0.67701654  0.95944318  0.09913941  1
  N  N34  1  0.17701654  0.45944318  0.40086059  1
  N  N35  1  0.32298346  0.04055682  0.90086059  1
  N  N36  1  0.79541920  0.90213458  0.55813277  1
  N  N37  1  0.70458080  0.59786542  0.05813277  1
  N  N38  1  0.20458080  0.09786542  0.44186723  1
  N  N39  1  0.29541920  0.40213458  0.94186723  1
  N  N40  1  0.08266014  0.82628618  0.99833426  1
  N  N41  1  0.41733986  0.67371382  0.49833426  1
  N  N42  1  0.91733986  0.17371382  0.00166574  1
  N  N43  1  0.58266014  0.32628618  0.50166574  1
