# generated using pymatgen
data_Cs2I4O11
_symmetry_space_group_name_H-M   'P 1'
_cell_length_a   7.42957636
_cell_length_b   7.43003526
_cell_length_c   14.18685430
_cell_angle_alpha   90.00000000
_cell_angle_beta   90.00000000
_cell_angle_gamma   119.99760723
_symmetry_Int_Tables_number   1
_chemical_formula_structural   Cs2I4O11
_chemical_formula_sum   'Cs4 I8 O22'
_cell_volume   678.23802867
_cell_formula_units_Z   2
loop_
 _symmetry_equiv_pos_site_id
 _symmetry_equiv_pos_as_xyz
  1  'x, y, z'
loop_
 _atom_site_type_symbol
 _atom_site_label
 _atom_site_symmetry_multiplicity
 _atom_site_fract_x
 _atom_site_fract_y
 _atom_site_fract_z
 _atom_site_occupancy
  Cs  Cs0  1  0.66665560  0.33332775  0.01450903  1
  Cs  Cs1  1  0.33334440  0.66667225  0.51450903  1
  Cs  Cs2  1  0.33333969  0.66667189  0.14428366  1
  Cs  Cs3  1  0.66666031  0.33332811  0.64428366  1
  I  I4  1  0.81362431  0.66722313  0.31959132  1
  I  I5  1  0.33297122  0.14653059  0.31959112  1
  I  I6  1  0.85356519  0.18629029  0.31959204  1
  I  I7  1  0.18637569  0.33277687  0.81959132  1
  I  I8  1  0.66702878  0.85346941  0.81959112  1
  I  I9  1  0.14643481  0.81370971  0.81959204  1
  I  I10  1  0.00000061  0.00000290  0.06712321  1
  I  I11  1  0.99999939  0.99999710  0.56712321  1
  O  O12  1  0.05837405  0.66705377  0.32742915  1
  O  O13  1  0.33290306  0.39133496  0.32742347  1
  O  O14  1  0.60861817  0.94156487  0.32742256  1
  O  O15  1  0.94162595  0.33294623  0.82742915  1
  O  O16  1  0.66709694  0.60866504  0.82742347  1
  O  O17  1  0.39138183  0.05843513  0.82742256  1
  O  O18  1  0.77000671  0.65521371  0.19364199  1
  O  O19  1  0.34484505  0.11484627  0.19364349  1
  O  O20  1  0.88517740  0.22994728  0.19364730  1
  O  O21  1  0.22999329  0.34478629  0.69364199  1
  O  O22  1  0.65515495  0.88515373  0.69364349  1
  O  O23  1  0.11482260  0.77005272  0.69364730  1
  O  O24  1  0.66659943  0.33330603  0.33596659  1
  O  O25  1  0.33340057  0.66669397  0.83596659  1
  O  O26  1  0.99994583  0.99998051  0.31605271  1
  O  O27  1  0.00005417  0.00001949  0.81605271  1
  O  O28  1  0.16050521  0.25289640  0.00861281  1
  O  O29  1  0.74708392  0.90760457  0.00862244  1
  O  O30  1  0.09240913  0.83950546  0.00860710  1
  O  O31  1  0.83949479  0.74710360  0.50861281  1
  O  O32  1  0.25291608  0.09239543  0.50862244  1
  O  O33  1  0.90759087  0.16049454  0.50860710  1
