# generated using pymatgen
data_Mo4O11
_symmetry_space_group_name_H-M   'P 1'
_cell_length_a   5.63016714
_cell_length_b   6.94745255
_cell_length_c   25.09371719
_cell_angle_alpha   90.00000000
_cell_angle_beta   90.00000000
_cell_angle_gamma   90.00000000
_symmetry_Int_Tables_number   1
_chemical_formula_structural   Mo4O11
_chemical_formula_sum   'Mo16 O44'
_cell_volume   981.54875413
_cell_formula_units_Z   4
loop_
 _symmetry_equiv_pos_site_id
 _symmetry_equiv_pos_as_xyz
  1  'x, y, z'
loop_
 _atom_site_type_symbol
 _atom_site_label
 _atom_site_symmetry_multiplicity
 _atom_site_fract_x
 _atom_site_fract_y
 _atom_site_fract_z
 _atom_site_occupancy
  Mo  Mo0  1  0.25000000  0.62989731  0.70486423  1
  Mo  Mo1  1  0.25000000  0.87010269  0.20486423  1
  Mo  Mo2  1  0.75000000  0.37010269  0.29513577  1
  Mo  Mo3  1  0.75000000  0.12989731  0.79513577  1
  Mo  Mo4  1  0.75000000  0.30103928  0.64760758  1
  Mo  Mo5  1  0.75000000  0.19896072  0.14760758  1
  Mo  Mo6  1  0.25000000  0.69896072  0.35239242  1
  Mo  Mo7  1  0.25000000  0.80103928  0.85239242  1
  Mo  Mo8  1  0.25000000  0.97807335  0.58615532  1
  Mo  Mo9  1  0.25000000  0.52192665  0.08615532  1
  Mo  Mo10  1  0.75000000  0.02192665  0.41384468  1
  Mo  Mo11  1  0.75000000  0.47807335  0.91384468  1
  Mo  Mo12  1  0.75000000  0.65401674  0.52925219  1
  Mo  Mo13  1  0.75000000  0.84598326  0.02925219  1
  Mo  Mo14  1  0.25000000  0.34598326  0.47074781  1
  Mo  Mo15  1  0.25000000  0.15401674  0.97074781  1
  O  O16  1  0.00000000  0.50000000  0.50000000  1
  O  O17  1  0.50000000  -0.00000000  -0.00000000  1
  O  O18  1  0.50000000  0.50000000  0.50000000  1
  O  O19  1  0.00000000  -0.00000000  -0.00000000  1
  O  O20  1  0.99633994  0.15489719  0.62771072  1
  O  O21  1  0.50366006  0.34510281  0.12771072  1
  O  O22  1  0.49633994  0.84510281  0.37228928  1
  O  O23  1  0.00366006  0.65489719  0.87228928  1
  O  O24  1  0.00366006  0.84510281  0.37228928  1
  O  O25  1  0.49633994  0.65489719  0.87228928  1
  O  O26  1  0.50366006  0.15489719  0.62771072  1
  O  O27  1  0.99633994  0.34510281  0.12771072  1
  O  O28  1  0.00616943  0.82761210  0.56494247  1
  O  O29  1  0.49383057  0.67238790  0.06494247  1
  O  O30  1  0.50616943  0.17238790  0.43505753  1
  O  O31  1  0.99383057  0.32761210  0.93505753  1
  O  O32  1  0.99383057  0.17238790  0.43505753  1
  O  O33  1  0.50616943  0.32761210  0.93505753  1
  O  O34  1  0.49383057  0.82761210  0.56494247  1
  O  O35  1  0.00616943  0.67238790  0.06494247  1
  O  O36  1  0.99353966  0.49021532  0.69003606  1
  O  O37  1  0.50646034  0.00978468  0.19003606  1
  O  O38  1  0.49353966  0.50978468  0.30996394  1
  O  O39  1  0.00646034  0.99021532  0.80996394  1
  O  O40  1  0.00646034  0.50978468  0.30996394  1
  O  O41  1  0.49353966  0.99021532  0.80996394  1
  O  O42  1  0.50646034  0.49021532  0.69003606  1
  O  O43  1  0.99353966  0.00978468  0.19003606  1
  O  O44  1  0.25000000  0.15562124  0.53356123  1
  O  O45  1  0.25000000  0.34437876  0.03356123  1
  O  O46  1  0.75000000  0.84437876  0.46643877  1
  O  O47  1  0.75000000  0.65562124  0.96643877  1
  O  O48  1  0.75000000  0.47734647  0.59560451  1
  O  O49  1  0.75000000  0.02265353  0.09560451  1
  O  O50  1  0.25000000  0.52265353  0.40439549  1
  O  O51  1  0.25000000  0.97734647  0.90439549  1
  O  O52  1  0.25000000  0.84136983  0.66363285  1
  O  O53  1  0.25000000  0.65863017  0.16363285  1
  O  O54  1  0.75000000  0.15863017  0.33636715  1
  O  O55  1  0.75000000  0.34136983  0.83636715  1
  O  O56  1  0.75000000  0.18275421  0.72468220  1
  O  O57  1  0.75000000  0.31724579  0.22468220  1
  O  O58  1  0.25000000  0.81724579  0.27531780  1
  O  O59  1  0.25000000  0.68275421  0.77531780  1
