# generated using pymatgen
data_KNaV4H4O11
_symmetry_space_group_name_H-M   'P 1'
_cell_length_a   8.37513567
_cell_length_b   8.42076267
_cell_length_c   9.06735414
_cell_angle_alpha   90.10187177
_cell_angle_beta   62.49480214
_cell_angle_gamma   90.22058369
_symmetry_Int_Tables_number   1
_chemical_formula_structural   KNaV4H4O11
_chemical_formula_sum   'K2 Na2 V8 H8 O22'
_cell_volume   567.19063266
_cell_formula_units_Z   2
loop_
 _symmetry_equiv_pos_site_id
 _symmetry_equiv_pos_as_xyz
  1  'x, y, z'
loop_
 _atom_site_type_symbol
 _atom_site_label
 _atom_site_symmetry_multiplicity
 _atom_site_fract_x
 _atom_site_fract_y
 _atom_site_fract_z
 _atom_site_occupancy
  K  K0  1  0.51246376  0.75000000  0.97507248  1
  K  K1  1  0.48753624  0.25000000  0.02492752  1
  Na  Na2  1  0.84730860  0.75000000  0.30538281  1
  Na  Na3  1  0.15269140  0.25000000  0.69461719  1
  V  V4  1  0.99881958  0.34402237  0.41595320  1
  V  V5  1  0.58522723  0.15597763  0.41595320  1
  V  V6  1  0.00118042  0.65597763  0.58404680  1
  V  V7  1  0.41477277  0.84402237  0.58404680  1
  V  V8  1  0.80048190  0.03844228  0.59187116  1
  V  V9  1  0.60764694  0.46155772  0.59187116  1
  V  V10  1  0.19951810  0.96155772  0.40812884  1
  V  V11  1  0.39235306  0.53844228  0.40812884  1
  H  H12  1  0.86999646  0.82068868  0.97515174  1
  H  H13  1  0.15485180  0.67931132  0.97515174  1
  H  H14  1  0.13000354  0.17931132  0.02484826  1
  H  H15  1  0.84514820  0.32068868  0.02484826  1
  H  H16  1  0.76998345  0.96490350  0.09573872  1
  H  H17  1  0.13427782  0.53509650  0.09573872  1
  H  H18  1  0.23001655  0.03509650  0.90426128  1
  H  H19  1  0.86572218  0.46490350  0.90426128  1
  O  O20  1  0.14245618  0.46037462  0.50393350  1
  O  O21  1  0.35361031  0.03962538  0.50393350  1
  O  O22  1  0.85754382  0.53962538  0.49606650  1
  O  O23  1  0.64638969  0.96037462  0.49606650  1
  O  O24  1  0.03579135  0.14472025  0.50914629  1
  O  O25  1  0.45506236  0.35527975  0.50914629  1
  O  O26  1  0.96420865  0.85527975  0.49085371  1
  O  O27  1  0.54493764  0.64472025  0.49085371  1
  O  O28  1  0.74445229  0.25000000  0.51109542  1
  O  O29  1  0.25554771  0.75000000  0.48890458  1
  O  O30  1  0.10185457  0.33781419  0.20887387  1
  O  O31  1  0.68927157  0.16218581  0.20887387  1
  O  O32  1  0.89814543  0.66218581  0.79112613  1
  O  O33  1  0.31072843  0.83781419  0.79112613  1
  O  O34  1  0.69466153  0.02464795  0.79712316  1
  O  O35  1  0.50821530  0.47535205  0.79712316  1
  O  O36  1  0.30533847  0.97535205  0.20287684  1
  O  O37  1  0.49178470  0.52464795  0.20287684  1
  O  O38  1  0.79460014  0.85015633  0.09119709  1
  O  O39  1  0.11420277  0.64984367  0.09119709  1
  O  O40  1  0.20539986  0.14984367  0.90880291  1
  O  O41  1  0.88579723  0.35015633  0.90880291  1
