# generated using pymatgen
data_NaY(BH4)4
_symmetry_space_group_name_H-M   'P 1'
_cell_length_a   7.55111977
_cell_length_b   7.55111977
_cell_length_c   9.26269498
_cell_angle_alpha   90.00000000
_cell_angle_beta   90.00000000
_cell_angle_gamma   109.93741693
_symmetry_Int_Tables_number   1
_chemical_formula_structural   NaY(BH4)4
_chemical_formula_sum   'Na2 Y2 B8 H32'
_cell_volume   496.49886555
_cell_formula_units_Z   2
loop_
 _symmetry_equiv_pos_site_id
 _symmetry_equiv_pos_as_xyz
  1  'x, y, z'
loop_
 _atom_site_type_symbol
 _atom_site_label
 _atom_site_symmetry_multiplicity
 _atom_site_fract_x
 _atom_site_fract_y
 _atom_site_fract_z
 _atom_site_occupancy
  Na  Na0  1  -0.00000000  -0.00000000  -0.00000000  1
  Na  Na1  1  -0.00000000  -0.00000000  0.50000000  1
  Y  Y2  1  0.35441509  0.64558491  0.25000000  1
  Y  Y3  1  0.64558491  0.35441509  0.75000000  1
  B  B4  1  0.23978518  0.76021482  0.46814195  1
  B  B5  1  0.76021482  0.23978518  0.53185805  1
  B  B6  1  0.23978518  0.76021482  0.03185805  1
  B  B7  1  0.76021482  0.23978518  0.96814195  1
  B  B8  1  0.70497536  0.77686262  0.25000000  1
  B  B9  1  0.77686262  0.70497536  0.75000000  1
  B  B10  1  0.29502464  0.22313738  0.75000000  1
  B  B11  1  0.22313738  0.29502464  0.25000000  1
  H  H12  1  0.18509648  0.81490352  0.57511145  1
  H  H13  1  0.81490352  0.18509648  0.42488855  1
  H  H14  1  0.18509648  0.81490352  0.92488855  1
  H  H15  1  0.81490352  0.18509648  0.07511145  1
  H  H16  1  0.33690623  0.66309377  0.50121350  1
  H  H17  1  0.66309377  0.33690623  0.49878650  1
  H  H18  1  0.33690623  0.66309377  0.99878650  1
  H  H19  1  0.66309377  0.33690623  0.00121350  1
  H  H20  1  0.33988841  0.89144973  0.39171286  1
  H  H21  1  0.89144973  0.33988841  0.60828714  1
  H  H22  1  0.33988841  0.89144973  0.10828714  1
  H  H23  1  0.89144973  0.33988841  0.89171286  1
  H  H24  1  0.66011159  0.10855027  0.60828714  1
  H  H25  1  0.10855027  0.66011159  0.39171286  1
  H  H26  1  0.66011159  0.10855027  0.89171286  1
  H  H27  1  0.10855027  0.66011159  0.10828714  1
  H  H28  1  0.87509137  0.84235955  0.25000000  1
  H  H29  1  0.84235955  0.87509137  0.75000000  1
  H  H30  1  0.12490863  0.15764045  0.75000000  1
  H  H31  1  0.15764045  0.12490863  0.25000000  1
  H  H32  1  0.63347564  0.90105425  0.25000000  1
  H  H33  1  0.90105425  0.63347564  0.75000000  1
  H  H34  1  0.36652436  0.09894575  0.75000000  1
  H  H35  1  0.09894575  0.36652436  0.25000000  1
  H  H36  1  0.64705014  0.67637756  0.35782068  1
  H  H37  1  0.67637756  0.64705014  0.64217932  1
  H  H38  1  0.64705014  0.67637756  0.14217932  1
  H  H39  1  0.67637756  0.64705014  0.85782068  1
  H  H40  1  0.35294986  0.32362244  0.64217932  1
  H  H41  1  0.32362244  0.35294986  0.35782068  1
  H  H42  1  0.35294986  0.32362244  0.85782068  1
  H  H43  1  0.32362244  0.35294986  0.14217932  1
