# generated using pymatgen
data_H5CN3
_symmetry_space_group_name_H-M   'P 1'
_cell_length_a   8.50407664
_cell_length_b   9.20820496
_cell_length_c   16.85278991
_cell_angle_alpha   90.00000000
_cell_angle_beta   90.00000000
_cell_angle_gamma   90.00000000
_symmetry_Int_Tables_number   1
_chemical_formula_structural   H5CN3
_chemical_formula_sum   'H80 C16 N48'
_cell_volume   1319.69615000
_cell_formula_units_Z   16
loop_
 _symmetry_equiv_pos_site_id
 _symmetry_equiv_pos_as_xyz
  1  'x, y, z'
loop_
 _atom_site_type_symbol
 _atom_site_label
 _atom_site_symmetry_multiplicity
 _atom_site_fract_x
 _atom_site_fract_y
 _atom_site_fract_z
 _atom_site_occupancy
  H  H0  1  0.64658013  0.60322397  0.14027428  1
  H  H1  1  0.14658013  0.89677603  0.85972572  1
  H  H2  1  0.35341987  0.10322397  0.35972572  1
  H  H3  1  0.85341987  0.39677603  0.64027428  1
  H  H4  1  0.35341987  0.39677603  0.85972572  1
  H  H5  1  0.85341987  0.10322397  0.14027428  1
  H  H6  1  0.64658013  0.89677603  0.64027428  1
  H  H7  1  0.14658013  0.60322397  0.35972572  1
  H  H8  1  0.38434536  0.69582531  0.13771788  1
  H  H9  1  0.88434536  0.80417469  0.86228212  1
  H  H10  1  0.61565464  0.19582531  0.36228212  1
  H  H11  1  0.11565464  0.30417469  0.63771788  1
  H  H12  1  0.61565464  0.30417469  0.86228212  1
  H  H13  1  0.11565464  0.19582531  0.13771788  1
  H  H14  1  0.38434536  0.80417469  0.63771788  1
  H  H15  1  0.88434536  0.69582531  0.36228212  1
  H  H16  1  0.25976426  0.62093623  0.20601339  1
  H  H17  1  0.75976426  0.87906377  0.79398661  1
  H  H18  1  0.74023574  0.12093623  0.29398661  1
  H  H19  1  0.24023574  0.37906377  0.70601339  1
  H  H20  1  0.74023574  0.37906377  0.79398661  1
  H  H21  1  0.24023574  0.12093623  0.20601339  1
  H  H22  1  0.25976426  0.87906377  0.70601339  1
  H  H23  1  0.75976426  0.62093623  0.29398661  1
  H  H24  1  0.30973608  0.42794465  0.27497441  1
  H  H25  1  0.80973608  0.07205535  0.72502559  1
  H  H26  1  0.69026392  0.92794465  0.22502559  1
  H  H27  1  0.19026392  0.57205535  0.77497441  1
  H  H28  1  0.69026392  0.57205535  0.72502559  1
  H  H29  1  0.19026392  0.92794465  0.27497441  1
  H  H30  1  0.30973608  0.07205535  0.77497441  1
  H  H31  1  0.80973608  0.42794465  0.22502559  1
  H  H32  1  0.48850959  0.33382963  0.26636802  1
  H  H33  1  0.98850959  0.16617037  0.73363198  1
  H  H34  1  0.51149041  0.83382963  0.23363198  1
  H  H35  1  0.01149041  0.66617037  0.76636802  1
  H  H36  1  0.51149041  0.66617037  0.73363198  1
  H  H37  1  0.01149041  0.83382963  0.26636802  1
  H  H38  1  0.48850959  0.16617037  0.76636802  1
  H  H39  1  0.98850959  0.33382963  0.23363198  1
  H  H40  1  0.47891648  0.28386149  0.61526253  1
  H  H41  1  0.97891648  0.21613851  0.38473747  1
  H  H42  1  0.52108352  0.78386149  0.88473747  1
  H  H43  1  0.02108352  0.71613851  0.11526253  1
  H  H44  1  0.52108352  0.71613851  0.38473747  1
  H  H45  1  0.02108352  0.78386149  0.61526253  1
  H  H46  1  0.47891648  0.21613851  0.11526253  1
  H  H47  1  0.97891648  0.28386149  0.88473747  1
  H  H48  1  0.69901327  0.14176675  0.59959054  1
  H  H49  1  0.19901327  0.35823325  0.40040946  1
  H  H50  1  0.30098673  0.64176675  0.90040946  1
  H  H51  1  0.80098673  0.85823325  0.09959054  1
  H  H52  1  0.30098673  0.85823325  0.40040946  1
  H  H53  1  0.80098673  0.64176675  0.59959054  1
  H  H54  1  0.69901327  0.35823325  0.09959054  1
  H  H55  1  0.19901327  0.14176675  0.90040946  1
  H  H56  1  0.82444302  0.18496621  0.51971660  1
  H  H57  1  0.32444302  0.31503379  0.48028340  1
  H  H58  1  0.17555698  0.68496621  0.98028340  1
  H  H59  1  0.67555698  0.81503379  0.01971660  1
  H  H60  1  0.17555698  0.81503379  0.48028340  1
  H  H61  1  0.67555698  0.68496621  0.51971660  1
  H  H62  1  0.82444302  0.31503379  0.01971660  1
  H  H63  1  0.32444302  0.18496621  0.98028340  1
  H  H64  1  0.77167675  0.36879547  0.44020396  1
  H  H65  1  0.27167675  0.13120453  0.55979604  1
  H  H66  1  0.22832325  0.86879547  0.05979604  1
  H  H67  1  0.72832325  0.63120453  0.94020396  1
  H  H68  1  0.22832325  0.63120453  0.55979604  1
  H  H69  1  0.72832325  0.86879547  0.44020396  1
  H  H70  1  0.77167675  0.13120453  0.94020396  1
  H  H71  1  0.27167675  0.36879547  0.05979604  1
  H  H72  1  0.60164962  0.46873001  0.44412433  1
  H  H73  1  0.10164962  0.03126999  0.55587567  1
  H  H74  1  0.39835038  0.96873001  0.05587567  1
  H  H75  1  0.89835038  0.53126999  0.94412433  1
  H  H76  1  0.39835038  0.53126999  0.55587567  1
  H  H77  1  0.89835038  0.96873001  0.44412433  1
  H  H78  1  0.60164962  0.03126999  0.94412433  1
  H  H79  1  0.10164962  0.46873001  0.05587567  1
  C  C80  1  0.47407979  0.51911728  0.19993004  1
  C  C81  1  0.97407979  0.98088272  0.80006996  1
  C  C82  1  0.52592021  0.01911728  0.30006996  1
  C  C83  1  0.02592021  0.48088272  0.69993004  1
  C  C84  1  0.52592021  0.48088272  0.80006996  1
  C  C85  1  0.02592021  0.01911728  0.19993004  1
  C  C86  1  0.47407979  0.98088272  0.69993004  1
  C  C87  1  0.97407979  0.51911728  0.30006996  1
  C  C88  1  0.62291612  0.30698712  0.52781938  1
  C  C89  1  0.12291612  0.19301288  0.47218062  1
  C  C90  1  0.37708388  0.80698712  0.97218062  1
  C  C91  1  0.87708388  0.69301288  0.02781938  1
  C  C92  1  0.37708388  0.69301288  0.47218062  1
  C  C93  1  0.87708388  0.80698712  0.52781938  1
  C  C94  1  0.62291612  0.19301288  0.02781938  1
  C  C95  1  0.12291612  0.30698712  0.97218062  1
  N  N96  1  0.61862889  0.51274812  0.17296379  1
  N  N97  1  0.11862889  0.98725188  0.82703621  1
  N  N98  1  0.38137111  0.01274812  0.32703621  1
  N  N99  1  0.88137111  0.48725188  0.67296379  1
  N  N100  1  0.38137111  0.48725188  0.82703621  1
  N  N101  1  0.88137111  0.01274812  0.17296379  1
  N  N102  1  0.61862889  0.98725188  0.67296379  1
  N  N103  1  0.11862889  0.51274812  0.32703621  1
  N  N104  1  0.37289957  0.63503710  0.18812761  1
  N  N105  1  0.87289957  0.86496290  0.81187239  1
  N  N106  1  0.62710043  0.13503710  0.31187239  1
  N  N107  1  0.12710043  0.36496290  0.68812761  1
  N  N108  1  0.62710043  0.36496290  0.81187239  1
  N  N109  1  0.12710043  0.13503710  0.18812761  1
  N  N110  1  0.37289957  0.86496290  0.68812761  1
  N  N111  1  0.87289957  0.63503710  0.31187239  1
  N  N112  1  0.41199647  0.40818798  0.24369132  1
  N  N113  1  0.91199647  0.09181202  0.75630868  1
  N  N114  1  0.58800353  0.90818798  0.25630868  1
  N  N115  1  0.08800353  0.59181202  0.74369132  1
  N  N116  1  0.58800353  0.59181202  0.75630868  1
  N  N117  1  0.08800353  0.90818798  0.24369132  1
  N  N118  1  0.41199647  0.09181202  0.74369132  1
  N  N119  1  0.91199647  0.40818798  0.25630868  1
  N  N120  1  0.48743384  0.33687247  0.56209309  1
  N  N121  1  0.98743384  0.16312753  0.43790691  1
  N  N122  1  0.51256616  0.83687247  0.93790691  1
  N  N123  1  0.01256616  0.66312753  0.06209309  1
  N  N124  1  0.51256616  0.66312753  0.43790691  1
  N  N125  1  0.01256616  0.83687247  0.56209309  1
  N  N126  1  0.48743384  0.16312753  0.06209309  1
  N  N127  1  0.98743384  0.33687247  0.93790691  1
  N  N128  1  0.73509528  0.21639757  0.55776051  1
  N  N129  1  0.23509528  0.28360243  0.44223949  1
  N  N130  1  0.26490472  0.71639757  0.94223949  1
  N  N131  1  0.76490472  0.78360243  0.05776051  1
  N  N132  1  0.26490472  0.78360243  0.44223949  1
  N  N133  1  0.76490472  0.71639757  0.55776051  1
  N  N134  1  0.73509528  0.28360243  0.05776051  1
  N  N135  1  0.23509528  0.21639757  0.94223949  1
  N  N136  1  0.65592612  0.36988653  0.45516468  1
  N  N137  1  0.15592612  0.13011347  0.54483532  1
  N  N138  1  0.34407388  0.86988653  0.04483532  1
  N  N139  1  0.84407388  0.63011347  0.95516468  1
  N  N140  1  0.34407388  0.63011347  0.54483532  1
  N  N141  1  0.84407388  0.86988653  0.45516468  1
  N  N142  1  0.65592612  0.13011347  0.95516468  1
  N  N143  1  0.15592612  0.36988653  0.04483532  1
