# generated using pymatgen
data_Ba4Ga4SnSe12
_symmetry_space_group_name_H-M   'P 1'
_cell_length_a   6.56564872
_cell_length_b   13.99094792
_cell_length_c   13.99094792
_cell_angle_alpha   90.00000000
_cell_angle_beta   90.00000000
_cell_angle_gamma   90.00000000
_symmetry_Int_Tables_number   1
_chemical_formula_structural   Ba4Ga4SnSe12
_chemical_formula_sum   'Ba8 Ga8 Sn2 Se24'
_cell_volume   1285.20356934
_cell_formula_units_Z   2
loop_
 _symmetry_equiv_pos_site_id
 _symmetry_equiv_pos_as_xyz
  1  'x, y, z'
loop_
 _atom_site_type_symbol
 _atom_site_label
 _atom_site_symmetry_multiplicity
 _atom_site_fract_x
 _atom_site_fract_y
 _atom_site_fract_z
 _atom_site_occupancy
  Ba  Ba0  1  0.54609925  0.19391024  0.51936747  1
  Ba  Ba1  1  0.95390075  0.69391024  0.98063253  1
  Ba  Ba2  1  0.54609925  0.80608976  0.48063253  1
  Ba  Ba3  1  0.95390075  0.30608976  0.01936747  1
  Ba  Ba4  1  0.45390075  0.51936747  0.80608976  1
  Ba  Ba5  1  0.04609925  0.98063253  0.30608976  1
  Ba  Ba6  1  0.45390075  0.48063253  0.19391024  1
  Ba  Ba7  1  0.04609925  0.01936747  0.69391024  1
  Ga  Ga8  1  0.55010335  0.14198508  0.24514570  1
  Ga  Ga9  1  0.94989665  0.64198508  0.25485430  1
  Ga  Ga10  1  0.55010335  0.85801492  0.75485430  1
  Ga  Ga11  1  0.94989665  0.35801492  0.74514570  1
  Ga  Ga12  1  0.44989665  0.24514570  0.85801492  1
  Ga  Ga13  1  0.05010335  0.25485430  0.35801492  1
  Ga  Ga14  1  0.44989665  0.75485430  0.14198508  1
  Ga  Ga15  1  0.05010335  0.74514570  0.64198508  1
  Sn  Sn16  1  -0.00000000  0.50000000  0.50000000  1
  Sn  Sn17  1  0.50000000  -0.00000000  -0.00000000  1
  Se  Se18  1  0.74624405  0.40705592  0.60585520  1
  Se  Se19  1  0.75375595  0.90705592  0.89414480  1
  Se  Se20  1  0.74624405  0.59294408  0.39414480  1
  Se  Se21  1  0.75375595  0.09294408  0.10585520  1
  Se  Se22  1  0.25375595  0.60585520  0.59294408  1
  Se  Se23  1  0.24624405  0.89414480  0.09294408  1
  Se  Se24  1  0.25375595  0.39414480  0.40705592  1
  Se  Se25  1  0.24624405  0.10585520  0.90705592  1
  Se  Se26  1  0.70427483  0.29149442  0.30384778  1
  Se  Se27  1  0.79572517  0.79149442  0.19615222  1
  Se  Se28  1  0.70427483  0.70850558  0.69615222  1
  Se  Se29  1  0.79572517  0.20850558  0.80384778  1
  Se  Se30  1  0.29572517  0.30384778  0.70850558  1
  Se  Se31  1  0.20427483  0.19615222  0.20850558  1
  Se  Se32  1  0.29572517  0.69615222  0.29149442  1
  Se  Se33  1  0.20427483  0.80384778  0.79149442  1
  Se  Se34  1  0.54386180  0.98505961  0.64085429  1
  Se  Se35  1  0.95613820  0.48505961  0.85914571  1
  Se  Se36  1  0.54386180  0.01494039  0.35914571  1
  Se  Se37  1  0.95613820  0.51494039  0.14085429  1
  Se  Se38  1  0.45613820  0.64085429  0.01494039  1
  Se  Se39  1  0.04386180  0.85914571  0.51494039  1
  Se  Se40  1  0.45613820  0.35914571  0.98505961  1
  Se  Se41  1  0.04386180  0.14085429  0.48505961  1
