# generated using pymatgen
data_RbU2F9
_symmetry_space_group_name_H-M   'P 1'
_cell_length_a   7.09184890
_cell_length_b   8.79646410
_cell_length_c   11.73598162
_cell_angle_alpha   90.00000000
_cell_angle_beta   90.00000000
_cell_angle_gamma   90.00000000
_symmetry_Int_Tables_number   1
_chemical_formula_structural   RbU2F9
_chemical_formula_sum   'Rb4 U8 F36'
_cell_volume   732.12802113
_cell_formula_units_Z   4
loop_
 _symmetry_equiv_pos_site_id
 _symmetry_equiv_pos_as_xyz
  1  'x, y, z'
loop_
 _atom_site_type_symbol
 _atom_site_label
 _atom_site_symmetry_multiplicity
 _atom_site_fract_x
 _atom_site_fract_y
 _atom_site_fract_z
 _atom_site_occupancy
  Rb  Rb0  1  0.86647571  0.96805034  0.25000000  1
  Rb  Rb1  1  0.63352429  0.46805034  0.25000000  1
  Rb  Rb2  1  0.13352429  0.03194966  0.75000000  1
  Rb  Rb3  1  0.36647571  0.53194966  0.75000000  1
  U  U4  1  0.35090302  0.82358368  0.44923344  1
  U  U5  1  0.14909698  0.32358368  0.05076656  1
  U  U6  1  0.64909698  0.17641632  0.94923344  1
  U  U7  1  0.85090302  0.67641632  0.55076656  1
  U  U8  1  0.64909698  0.17641632  0.55076656  1
  U  U9  1  0.85090302  0.67641632  0.94923344  1
  U  U10  1  0.35090302  0.82358368  0.05076656  1
  U  U11  1  0.14909698  0.32358368  0.44923344  1
  F  F12  1  0.43100062  0.99417519  0.59710809  1
  F  F13  1  0.06899938  0.49417519  0.90289191  1
  F  F14  1  0.56899938  0.00582481  0.09710809  1
  F  F15  1  0.93100062  0.50582481  0.40289191  1
  F  F16  1  0.56899938  0.00582481  0.40289191  1
  F  F17  1  0.93100062  0.50582481  0.09710809  1
  F  F18  1  0.43100062  0.99417519  0.90289191  1
  F  F19  1  0.06899938  0.49417519  0.59710809  1
  F  F20  1  0.03416521  0.78634364  0.40750588  1
  F  F21  1  0.46583479  0.28634364  0.09249412  1
  F  F22  1  0.96583479  0.21365636  0.90750588  1
  F  F23  1  0.53416521  0.71365636  0.59249412  1
  F  F24  1  0.96583479  0.21365636  0.59249412  1
  F  F25  1  0.53416521  0.71365636  0.90750588  1
  F  F26  1  0.03416521  0.78634364  0.09249412  1
  F  F27  1  0.46583479  0.28634364  0.40750588  1
  F  F28  1  0.15162122  0.77906703  0.60467373  1
  F  F29  1  0.34837878  0.27906703  0.89532627  1
  F  F30  1  0.84837878  0.22093297  0.10467373  1
  F  F31  1  0.65162122  0.72093297  0.39532627  1
  F  F32  1  0.84837878  0.22093297  0.39532627  1
  F  F33  1  0.65162122  0.72093297  0.10467373  1
  F  F34  1  0.15162122  0.77906703  0.89532627  1
  F  F35  1  0.34837878  0.27906703  0.60467373  1
  F  F36  1  0.30673481  0.56644656  0.42285359  1
  F  F37  1  0.19326519  0.06644656  0.07714641  1
  F  F38  1  0.69326519  0.43355344  0.92285359  1
  F  F39  1  0.80673481  0.93355344  0.57714641  1
  F  F40  1  0.69326519  0.43355344  0.57714641  1
  F  F41  1  0.80673481  0.93355344  0.92285359  1
  F  F42  1  0.30673481  0.56644656  0.07714641  1
  F  F43  1  0.19326519  0.06644656  0.42285359  1
  F  F44  1  0.33953667  0.82482708  0.25000000  1
  F  F45  1  0.16046333  0.32482708  0.25000000  1
  F  F46  1  0.66046333  0.17517292  0.75000000  1
  F  F47  1  0.83953667  0.67517292  0.75000000  1
