# generated using pymatgen
data_NaIn3S5
_symmetry_space_group_name_H-M   'P 1'
_cell_length_a   3.85191689
_cell_length_b   12.66736972
_cell_length_c   16.32018242
_cell_angle_alpha   90.00000000
_cell_angle_beta   90.00000000
_cell_angle_gamma   90.00000000
_symmetry_Int_Tables_number   1
_chemical_formula_structural   NaIn3S5
_chemical_formula_sum   'Na4 In12 S20'
_cell_volume   796.32135668
_cell_formula_units_Z   4
loop_
 _symmetry_equiv_pos_site_id
 _symmetry_equiv_pos_as_xyz
  1  'x, y, z'
loop_
 _atom_site_type_symbol
 _atom_site_label
 _atom_site_symmetry_multiplicity
 _atom_site_fract_x
 _atom_site_fract_y
 _atom_site_fract_z
 _atom_site_occupancy
  Na  Na0  1  -0.00000000  0.74981636  0.37422018  1
  Na  Na1  1  -0.00000000  0.25018364  0.62577982  1
  Na  Na2  1  0.00000000  0.24981636  0.12577982  1
  Na  Na3  1  0.00000000  0.75018364  0.87422018  1
  In  In4  1  0.50000000  0.79261433  0.12274535  1
  In  In5  1  0.50000000  0.20738567  0.87725465  1
  In  In6  1  0.50000000  0.29261433  0.37725465  1
  In  In7  1  0.50000000  0.70738567  0.62274535  1
  In  In8  1  -0.00000000  0.53971826  0.19792337  1
  In  In9  1  0.00000000  0.46028174  0.80207663  1
  In  In10  1  -0.00000000  0.03971826  0.30207663  1
  In  In11  1  0.00000000  0.96028174  0.69792337  1
  In  In12  1  0.50000000  0.50000000  -0.00000000  1
  In  In13  1  0.50000000  -0.00000000  0.50000000  1
  In  In14  1  -0.00000000  0.50000000  0.50000000  1
  In  In15  1  0.00000000  -0.00000000  -0.00000000  1
  S  S16  1  0.50000000  0.63859989  0.47515492  1
  S  S17  1  0.50000000  0.36140011  0.52484508  1
  S  S18  1  0.50000000  0.13859989  0.02484508  1
  S  S19  1  0.50000000  0.86140011  0.97515492  1
  S  S20  1  0.50000000  0.66981652  0.24649175  1
  S  S21  1  0.50000000  0.33018348  0.75350825  1
  S  S22  1  0.50000000  0.16981652  0.25350825  1
  S  S23  1  0.50000000  0.83018348  0.74649175  1
  S  S24  1  0.50000000  0.91716146  0.35837512  1
  S  S25  1  0.50000000  0.08283854  0.64162488  1
  S  S26  1  0.50000000  0.41716146  0.14162488  1
  S  S27  1  0.50000000  0.58283854  0.85837512  1
  S  S28  1  0.00000000  0.63762154  0.05504178  1
  S  S29  1  -0.00000000  0.36237846  0.94495822  1
  S  S30  1  -0.00000000  0.13762154  0.44495822  1
  S  S31  1  -0.00000000  0.86237846  0.55504178  1
  S  S32  1  -0.00000000  0.92498765  0.15753386  1
  S  S33  1  -0.00000000  0.07501235  0.84246614  1
  S  S34  1  0.00000000  0.42498765  0.34246614  1
  S  S35  1  0.00000000  0.57501235  0.65753386  1
