# generated using pymatgen
data_YB3(H6N)4
_symmetry_space_group_name_H-M   'P 1'
_cell_length_a   7.34114129
_cell_length_b   11.79930463
_cell_length_c   12.62041514
_cell_angle_alpha   90.00000000
_cell_angle_beta   90.00000000
_cell_angle_gamma   90.00000000
_symmetry_Int_Tables_number   1
_chemical_formula_structural   YB3(H6N)4
_chemical_formula_sum   'Y4 B12 H96 N16'
_cell_volume   1093.18493322
_cell_formula_units_Z   4
loop_
 _symmetry_equiv_pos_site_id
 _symmetry_equiv_pos_as_xyz
  1  'x, y, z'
loop_
 _atom_site_type_symbol
 _atom_site_label
 _atom_site_symmetry_multiplicity
 _atom_site_fract_x
 _atom_site_fract_y
 _atom_site_fract_z
 _atom_site_occupancy
  Y  Y0  1  0.51587835  0.66968474  0.84422040  1
  Y  Y1  1  0.48412165  0.16968474  0.15577960  1
  Y  Y2  1  0.01587835  0.16968474  0.65577960  1
  Y  Y3  1  0.98412165  0.66968474  0.34422040  1
  B  B4  1  0.99785501  0.16979858  0.88373333  1
  B  B5  1  0.00214499  0.66979858  0.11626667  1
  B  B6  1  0.49785501  0.66979858  0.61626667  1
  B  B7  1  0.50214499  0.16979858  0.38373333  1
  B  B8  1  0.15429311  0.39556026  0.65887125  1
  B  B9  1  0.84570689  0.89556026  0.34112875  1
  B  B10  1  0.65429311  0.89556026  0.84112875  1
  B  B11  1  0.34570689  0.39556026  0.15887125  1
  B  B12  1  0.65379932  0.44360364  0.84064744  1
  B  B13  1  0.34620068  0.94360364  0.15935256  1
  B  B14  1  0.15379932  0.94360364  0.65935256  1
  B  B15  1  0.84620068  0.44360364  0.34064744  1
  H  H16  1  0.90221440  0.59832744  0.80749077  1
  H  H17  1  0.09778560  0.09832744  0.19250923  1
  H  H18  1  0.40221440  0.09832744  0.69250923  1
  H  H19  1  0.59778560  0.59832744  0.30749077  1
  H  H20  1  0.90280833  0.74019504  0.80730213  1
  H  H21  1  0.09719167  0.24019504  0.19269787  1
  H  H22  1  0.40280833  0.24019504  0.69269787  1
  H  H23  1  0.59719167  0.74019504  0.30730213  1
  H  H24  1  0.90754172  0.66941604  0.92025554  1
  H  H25  1  0.09245828  0.16941604  0.07974446  1
  H  H26  1  0.40754172  0.16941604  0.57974446  1
  H  H27  1  0.59245828  0.66941604  0.42025554  1
  H  H28  1  0.53322258  0.23936064  0.92439627  1
  H  H29  1  0.46677742  0.73936064  0.07560373  1
  H  H30  1  0.03322258  0.73936064  0.57560373  1
  H  H31  1  0.96677742  0.23936064  0.42439627  1
  H  H32  1  0.34043083  0.17005290  0.93055187  1
  H  H33  1  0.65956917  0.67005290  0.06944813  1
  H  H34  1  0.84043083  0.67005290  0.56944813  1
  H  H35  1  0.15956917  0.17005290  0.43055187  1
  H  H36  1  0.53243133  0.09983595  0.92430594  1
  H  H37  1  0.46756867  0.59983595  0.07569406  1
  H  H38  1  0.03243133  0.59983595  0.57569406  1
  H  H39  1  0.96756867  0.09983595  0.42430594  1
  H  H40  1  0.32386064  0.46057968  0.91537045  1
  H  H41  1  0.67613936  0.96057968  0.08462955  1
  H  H42  1  0.82386064  0.96057968  0.58462955  1
  H  H43  1  0.17613936  0.46057968  0.41537045  1
  H  H44  1  0.16405847  0.55251715  0.94198817  1
  H  H45  1  0.83594153  0.05251715  0.05801183  1
  H  H46  1  0.66405847  0.05251715  0.55801183  1
  H  H47  1  0.33594153  0.55251715  0.44198817  1
  H  H48  1  0.19174306  0.50244814  0.82041293  1
  H  H49  1  0.80825694  0.00244814  0.17958707  1
  H  H50  1  0.69174306  0.00244814  0.67958707  1
  H  H51  1  0.30825694  0.50244814  0.32041293  1
  H  H52  1  0.67590886  0.37871073  0.08442954  1
  H  H53  1  0.32409114  0.87871073  0.91557046  1
  H  H54  1  0.17590886  0.87871073  0.41557046  1
  H  H55  1  0.82409114  0.37871073  0.58442954  1
  H  H56  1  0.83604209  0.28688672  0.05806867  1
  H  H57  1  0.16395791  0.78688672  0.94193133  1
  H  H58  1  0.33604209  0.78688672  0.44193133  1
  H  H59  1  0.66395791  0.28688672  0.55806867  1
  H  H60  1  0.80791520  0.33712983  0.17954645  1
  H  H61  1  0.19208480  0.83712983  0.82045355  1
  H  H62  1  0.30791520  0.83712983  0.32045355  1
  H  H63  1  0.69208480  0.33712983  0.67954645  1
  H  H64  1  0.13933696  0.16989550  0.83022989  1
  H  H65  1  0.86066304  0.66989550  0.16977011  1
  H  H66  1  0.63933696  0.66989550  0.66977011  1
  H  H67  1  0.36066304  0.16989550  0.33022989  1
  H  H68  1  0.99647606  0.08288051  0.93632140  1
  H  H69  1  0.00352394  0.58288051  0.06367860  1
  H  H70  1  0.49647606  0.58288051  0.56367860  1
  H  H71  1  0.50352394  0.08288051  0.43632140  1
  H  H72  1  0.86340752  0.16979266  0.82368579  1
  H  H73  1  0.13659248  0.66979266  0.17631421  1
  H  H74  1  0.36340752  0.66979266  0.67631421  1
  H  H75  1  0.63659248  0.16979266  0.32368579  1
  H  H76  1  0.99629694  0.25664001  0.93642318  1
  H  H77  1  0.00370306  0.75664001  0.06357682  1
  H  H78  1  0.49629694  0.75664001  0.56357682  1
  H  H79  1  0.50370306  0.25664001  0.43642318  1
  H  H80  1  0.10130422  0.33812575  0.73488766  1
  H  H81  1  0.89869578  0.83812575  0.26511234  1
  H  H82  1  0.60130422  0.83812575  0.76511234  1
  H  H83  1  0.39869578  0.33812575  0.23488766  1
  H  H84  1  0.13177801  0.34251191  0.57559485  1
  H  H85  1  0.86822199  0.84251191  0.42440515  1
  H  H86  1  0.63177801  0.84251191  0.92440515  1
  H  H87  1  0.36822199  0.34251191  0.07559485  1
  H  H88  1  0.31481659  0.41804997  0.66924082  1
  H  H89  1  0.68518341  0.91804997  0.33075918  1
  H  H90  1  0.81481659  0.91804997  0.83075918  1
  H  H91  1  0.18518341  0.41804997  0.16924082  1
  H  H92  1  0.05792435  0.48041414  0.65845528  1
  H  H93  1  0.94207565  0.98041414  0.34154472  1
  H  H94  1  0.55792435  0.98041414  0.84154472  1
  H  H95  1  0.44207565  0.48041414  0.15845528  1
  H  H96  1  0.60080225  0.50133189  0.76482712  1
  H  H97  1  0.39919775  0.00133189  0.23517288  1
  H  H98  1  0.10080225  0.00133189  0.73517288  1
  H  H99  1  0.89919775  0.50133189  0.26482712  1
  H  H100  1  0.63151341  0.49638601  0.92409237  1
  H  H101  1  0.36848659  0.99638601  0.07590763  1
  H  H102  1  0.13151341  0.99638601  0.57590763  1
  H  H103  1  0.86848659  0.49638601  0.42409237  1
  H  H104  1  0.81428804  0.42106081  0.83008806  1
  H  H105  1  0.18571196  0.92106081  0.16991194  1
  H  H106  1  0.31428804  0.92106081  0.66991194  1
  H  H107  1  0.68571196  0.42106081  0.33008806  1
  H  H108  1  0.55734273  0.35878812  0.84084886  1
  H  H109  1  0.44265727  0.85878812  0.15915114  1
  H  H110  1  0.05734273  0.85878812  0.65915114  1
  H  H111  1  0.94265727  0.35878812  0.34084886  1
  N  N112  1  0.85479710  0.66938578  0.84484865  1
  N  N113  1  0.14520290  0.16938578  0.15515135  1
  N  N114  1  0.35479710  0.16938578  0.65515135  1
  N  N115  1  0.64520290  0.66938578  0.34484865  1
  N  N116  1  0.47213017  0.16971660  0.95838244  1
  N  N117  1  0.52786983  0.66971660  0.04161756  1
  N  N118  1  0.97213017  0.66971660  0.54161756  1
  N  N119  1  0.02786983  0.16971660  0.45838244  1
  N  N120  1  0.26030390  0.53116794  0.88616678  1
  N  N121  1  0.73969610  0.03116794  0.11383322  1
  N  N122  1  0.76030390  0.03116794  0.61383322  1
  N  N123  1  0.23969610  0.53116794  0.38616678  1
  N  N124  1  0.73957457  0.30824494  0.11380896  1
  N  N125  1  0.26042543  0.80824494  0.88619104  1
  N  N126  1  0.23957457  0.80824494  0.38619104  1
  N  N127  1  0.76042543  0.30824494  0.61380896  1
