# generated using pymatgen
data_Nb6I11
_symmetry_space_group_name_H-M   'P 1'
_cell_length_a   11.63456608
_cell_length_b   13.86747432
_cell_length_c   16.07136710
_cell_angle_alpha   90.00000000
_cell_angle_beta   90.00000000
_cell_angle_gamma   90.00000000
_symmetry_Int_Tables_number   1
_chemical_formula_structural   Nb6I11
_chemical_formula_sum   'Nb24 I44'
_cell_volume   2592.98725538
_cell_formula_units_Z   4
loop_
 _symmetry_equiv_pos_site_id
 _symmetry_equiv_pos_as_xyz
  1  'x, y, z'
loop_
 _atom_site_type_symbol
 _atom_site_label
 _atom_site_symmetry_multiplicity
 _atom_site_fract_x
 _atom_site_fract_y
 _atom_site_fract_z
 _atom_site_occupancy
  Nb  Nb0  1  0.90485055  0.27245819  0.60462524  1
  Nb  Nb1  1  0.40485055  0.72754181  0.39537476  1
  Nb  Nb2  1  0.40485055  0.22754181  0.10462524  1
  Nb  Nb3  1  0.90485055  0.77245819  0.89537476  1
  Nb  Nb4  1  0.10679164  0.22415764  0.40204291  1
  Nb  Nb5  1  0.60679164  0.77584236  0.59795709  1
  Nb  Nb6  1  0.60679164  0.27584236  0.90204291  1
  Nb  Nb7  1  0.10679164  0.72415764  0.09795709  1
  Nb  Nb8  1  0.86736479  0.17174652  0.45427557  1
  Nb  Nb9  1  0.36736479  0.82825348  0.54572443  1
  Nb  Nb10  1  0.36736479  0.32825348  0.95427557  1
  Nb  Nb11  1  0.86736479  0.67174652  0.04572443  1
  Nb  Nb12  1  0.12896989  0.33006721  0.54907855  1
  Nb  Nb13  1  0.62896989  0.66993279  0.45092145  1
  Nb  Nb14  1  0.62896989  0.16993279  0.04907855  1
  Nb  Nb15  1  0.12896989  0.83006721  0.95092145  1
  Nb  Nb16  1  0.06795719  0.12853920  0.54918625  1
  Nb  Nb17  1  0.56795719  0.87146080  0.45081375  1
  Nb  Nb18  1  0.56795719  0.37146080  0.04918625  1
  Nb  Nb19  1  0.06795719  0.62853920  0.95081375  1
  Nb  Nb20  1  0.92929145  0.36905978  0.45103412  1
  Nb  Nb21  1  0.42929145  0.63094022  0.54896588  1
  Nb  Nb22  1  0.42929145  0.13094022  0.95103412  1
  Nb  Nb23  1  0.92929145  0.86905978  0.04896588  1
  I  I24  1  0.84221655  0.07141680  0.61065075  1
  I  I25  1  0.34221655  0.92858320  0.38934925  1
  I  I26  1  0.34221655  0.42858320  0.11065075  1
  I  I27  1  0.84221655  0.57141680  0.88934925  1
  I  I28  1  0.15269836  0.42762748  0.38925264  1
  I  I29  1  0.65269836  0.57237252  0.61074736  1
  I  I30  1  0.65269836  0.07237252  0.88925264  1
  I  I31  1  0.15269836  0.92762748  0.11074736  1
  I  I32  1  0.96806355  0.47512178  0.60400367  1
  I  I33  1  0.46806355  0.52487822  0.39599633  1
  I  I34  1  0.46806355  0.02487822  0.10400367  1
  I  I35  1  0.96806355  0.97512178  0.89599633  1
  I  I36  1  0.02283508  0.02823988  0.39272732  1
  I  I37  1  0.52283508  0.97176012  0.60727268  1
  I  I38  1  0.52283508  0.47176012  0.89272732  1
  I  I39  1  0.02283508  0.52823988  0.10727268  1
  I  I40  1  0.09920678  0.22860396  0.70835920  1
  I  I41  1  0.59920678  0.77139604  0.29164080  1
  I  I42  1  0.59920678  0.27139604  0.20835920  1
  I  I43  1  0.09920678  0.72860396  0.79164080  1
  I  I44  1  0.91237756  0.26659701  0.29373666  1
  I  I45  1  0.41237756  0.73340299  0.70626334  1
  I  I46  1  0.41237756  0.23340299  0.79373666  1
  I  I47  1  0.91237756  0.76659701  0.20626334  1
  I  I48  1  0.70242660  0.31415630  0.50488489  1
  I  I49  1  0.20242660  0.68584370  0.49511511  1
  I  I50  1  0.20242660  0.18584370  0.00488489  1
  I  I51  1  0.70242660  0.81415630  0.99511511  1
  I  I52  1  0.29992087  0.18748957  0.50886885  1
  I  I53  1  0.79992087  0.81251043  0.49113115  1
  I  I54  1  0.79992087  0.31251043  0.00886885  1
  I  I55  1  0.29992087  0.68748957  0.99113115  1
  I  I56  1  0.16485741  0.94187845  0.61276067  1
  I  I57  1  0.66485741  0.05812155  0.38723933  1
  I  I58  1  0.66485741  0.55812155  0.11276067  1
  I  I59  1  0.16485741  0.44187845  0.88723933  1
  I  I60  1  0.81757839  0.54451922  0.37635897  1
  I  I61  1  0.31757839  0.45548078  0.62364103  1
  I  I62  1  0.31757839  0.95548078  0.87635897  1
  I  I63  1  0.81757839  0.04451922  0.12364103  1
  I  I64  1  0.76569332  0.32067518  0.75892572  1
  I  I65  1  0.26569332  0.67932482  0.24107428  1
  I  I66  1  0.26569332  0.17932482  0.25892572  1
  I  I67  1  0.76569332  0.82067518  0.74107428  1
