# generated using pymatgen
data_Ca4Si3H2O11
_symmetry_space_group_name_H-M   'P 1'
_cell_length_a   6.96692311
_cell_length_b   6.96692311
_cell_length_c   20.78053787
_cell_angle_alpha   90.00000000
_cell_angle_beta   90.00000000
_cell_angle_gamma   97.39347300
_symmetry_Int_Tables_number   1
_chemical_formula_structural   Ca4Si3H2O11
_chemical_formula_sum   'Ca16 Si12 H8 O44'
_cell_volume   1000.26005686
_cell_formula_units_Z   4
loop_
 _symmetry_equiv_pos_site_id
 _symmetry_equiv_pos_as_xyz
  1  'x, y, z'
loop_
 _atom_site_type_symbol
 _atom_site_label
 _atom_site_symmetry_multiplicity
 _atom_site_fract_x
 _atom_site_fract_y
 _atom_site_fract_z
 _atom_site_occupancy
  Ca  Ca0  1  0.96510827  0.15563331  0.85419066  1
  Ca  Ca1  1  0.15563331  0.96510827  0.14580934  1
  Ca  Ca2  1  0.96510827  0.15563331  0.64580934  1
  Ca  Ca3  1  0.15563331  0.96510827  0.35419066  1
  Ca  Ca4  1  0.34525877  0.53352305  0.86313190  1
  Ca  Ca5  1  0.53352305  0.34525877  0.13686810  1
  Ca  Ca6  1  0.34525877  0.53352305  0.63686810  1
  Ca  Ca7  1  0.53352305  0.34525877  0.36313190  1
  Ca  Ca8  1  0.62044433  0.84959840  0.75000000  1
  Ca  Ca9  1  0.84959840  0.62044433  0.25000000  1
  Ca  Ca10  1  0.62178387  0.62178387  0.00000000  1
  Ca  Ca11  1  0.62178387  0.62178387  0.50000000  1
  Ca  Ca12  1  0.11505909  0.78539498  0.75000000  1
  Ca  Ca13  1  0.78539498  0.11505909  0.25000000  1
  Ca  Ca14  1  0.21481769  0.21481769  -0.00000000  1
  Ca  Ca15  1  0.21481769  0.21481769  0.50000000  1
  Si  Si16  1  0.87653249  0.63881154  0.87324827  1
  Si  Si17  1  0.63881154  0.87653249  0.12675173  1
  Si  Si18  1  0.87653249  0.63881154  0.62675173  1
  Si  Si19  1  0.63881154  0.87653249  0.37324827  1
  Si  Si20  1  0.69258466  0.12006243  0.99646128  1
  Si  Si21  1  0.12006243  0.69258466  0.00353872  1
  Si  Si22  1  0.69258466  0.12006243  0.50353872  1
  Si  Si23  1  0.12006243  0.69258466  0.49646128  1
  Si  Si24  1  0.44923741  0.04896073  0.87388548  1
  Si  Si25  1  0.04896073  0.44923741  0.12611452  1
  Si  Si26  1  0.44923741  0.04896073  0.62611452  1
  Si  Si27  1  0.04896073  0.44923741  0.37388548  1
  H  H28  1  0.64593112  0.31802865  0.84847805  1
  H  H29  1  0.31802865  0.64593112  0.15152195  1
  H  H30  1  0.64593112  0.31802865  0.65152195  1
  H  H31  1  0.31802865  0.64593112  0.34847805  1
  H  H32  1  0.19393187  0.22823964  0.75000000  1
  H  H33  1  0.22823964  0.19393187  0.25000000  1
  H  H34  1  0.50302472  0.42140285  0.75000000  1
  H  H35  1  0.42140285  0.50302472  0.25000000  1
  O  O36  1  0.28711383  0.57179840  0.97465213  1
  O  O37  1  0.57179840  0.28711383  0.02534787  1
  O  O38  1  0.28711383  0.57179840  0.52534787  1
  O  O39  1  0.57179840  0.28711383  0.47465213  1
  O  O40  1  0.89910296  0.19059632  0.96375028  1
  O  O41  1  0.19059632  0.89910296  0.03624972  1
  O  O42  1  0.89910296  0.19059632  0.53624972  1
  O  O43  1  0.19059632  0.89910296  0.46375028  1
  O  O44  1  0.55111827  0.98611929  0.94198096  1
  O  O45  1  0.98611929  0.55111827  0.05801904  1
  O  O46  1  0.55111827  0.98611929  0.55801904  1
  O  O47  1  0.98611929  0.55111827  0.44198096  1
  O  O48  1  0.95323315  0.71731523  0.94676989  1
  O  O49  1  0.71731523  0.95323315  0.05323011  1
  O  O50  1  0.95323315  0.71731523  0.55323011  1
  O  O51  1  0.71731523  0.95323315  0.44676989  1
  O  O52  1  0.28748098  0.19144023  0.88965408  1
  O  O53  1  0.19144023  0.28748098  0.11034592  1
  O  O54  1  0.28748098  0.19144023  0.61034592  1
  O  O55  1  0.19144023  0.28748098  0.38965408  1
  O  O56  1  0.02336016  0.50600881  0.83855859  1
  O  O57  1  0.50600881  0.02336016  0.16144141  1
  O  O58  1  0.02336016  0.50600881  0.66144141  1
  O  O59  1  0.50600881  0.02336016  0.33855859  1
  O  O60  1  0.37635875  0.86098791  0.83020917  1
  O  O61  1  0.86098791  0.37635875  0.16979083  1
  O  O62  1  0.37635875  0.86098791  0.66979083  1
  O  O63  1  0.86098791  0.37635875  0.33020917  1
  O  O64  1  0.86564145  0.82742965  0.82635466  1
  O  O65  1  0.82742965  0.86564145  0.17364534  1
  O  O66  1  0.86564145  0.82742965  0.67364534  1
  O  O67  1  0.82742965  0.86564145  0.32635466  1
  O  O68  1  0.66216910  0.52131407  0.88814948  1
  O  O69  1  0.52131407  0.66216910  0.11185052  1
  O  O70  1  0.66216910  0.52131407  0.61185052  1
  O  O71  1  0.52131407  0.66216910  0.38814948  1
  O  O72  1  0.62715385  0.17926585  0.83053722  1
  O  O73  1  0.17926585  0.62715385  0.16946278  1
  O  O74  1  0.62715385  0.17926585  0.66946278  1
  O  O75  1  0.17926585  0.62715385  0.33053722  1
  O  O76  1  0.08791083  0.12218077  0.75000000  1
  O  O77  1  0.12218077  0.08791083  0.25000000  1
  O  O78  1  0.43177715  0.53345081  0.75000000  1
  O  O79  1  0.53345081  0.43177715  0.25000000  1
