# generated using pymatgen
data_Rb2CuP4(HO2)8
_symmetry_space_group_name_H-M   'P 1'
_cell_length_a   7.02671902
_cell_length_b   7.60879149
_cell_length_c   7.92098519
_cell_angle_alpha   84.99383221
_cell_angle_beta   72.95201948
_cell_angle_gamma   85.31350126
_symmetry_Int_Tables_number   1
_chemical_formula_structural   Rb2CuP4(HO2)8
_chemical_formula_sum   'Rb2 Cu1 P4 H8 O16'
_cell_volume   402.64034815
_cell_formula_units_Z   1
loop_
 _symmetry_equiv_pos_site_id
 _symmetry_equiv_pos_as_xyz
  1  'x, y, z'
loop_
 _atom_site_type_symbol
 _atom_site_label
 _atom_site_symmetry_multiplicity
 _atom_site_fract_x
 _atom_site_fract_y
 _atom_site_fract_z
 _atom_site_occupancy
  Rb  Rb0  1  0.39040319  0.27833568  0.22172056  1
  Rb  Rb1  1  0.60959681  0.72166432  0.77827944  1
  Cu  Cu2  1  -0.00000000  0.50000000  0.00000000  1
  P  P3  1  0.75319464  0.80662794  0.23913013  1
  P  P4  1  0.24680536  0.19337206  0.76086987  1
  P  P5  1  0.16722252  0.73640554  0.23646987  1
  P  P6  1  0.83277748  0.26359446  0.76353013  1
  H  H7  1  0.44563206  0.73574861  0.39015507  1
  H  H8  1  0.55436794  0.26425139  0.60984493  1
  H  H9  1  0.23908904  0.95887177  0.03194906  1
  H  H10  1  0.76091096  0.04112823  0.96805094  1
  H  H11  1  0.87374433  0.30586903  0.37837259  1
  H  H12  1  0.12625567  0.69413097  0.62162741  1
  H  H13  1  0.88899110  0.18245093  0.22482308  1
  H  H14  1  0.11100890  0.81754907  0.77517692  1
  O  O15  1  0.76840037  0.66277597  0.11297562  1
  O  O16  1  0.23159963  0.33722403  0.88702438  1
  O  O17  1  0.57214333  0.78265648  0.40954738  1
  O  O18  1  0.42785667  0.21734352  0.59045262  1
  O  O19  1  0.75758195  0.99507876  0.15686989  1
  O  O20  1  0.24241805  0.00492124  0.84313011  1
  O  O21  1  0.93205527  0.77469017  0.33203228  1
  O  O22  1  0.06794473  0.22530983  0.66796772  1
  O  O23  1  0.19298156  0.61426146  0.08764089  1
  O  O24  1  0.80701844  0.38573854  0.91235911  1
  O  O25  1  0.25651129  0.66624715  0.38271560  1
  O  O26  1  0.74348871  0.33375285  0.61728440  1
  O  O27  1  0.25429341  0.91994949  0.15699543  1
  O  O28  1  0.74570659  0.08005051  0.84300457  1
  O  O29  1  0.94847439  0.28372999  0.25493364  1
  O  O30  1  0.05152561  0.71627001  0.74506636  1
