# generated using pymatgen
data_BaAsHO4
_symmetry_space_group_name_H-M   'P 1'
_cell_length_a   7.37583875
_cell_length_b   7.85375003
_cell_length_c   22.20262054
_cell_angle_alpha   90.00000000
_cell_angle_beta   96.09026674
_cell_angle_gamma   90.00000000
_symmetry_Int_Tables_number   1
_chemical_formula_structural   BaAsHO4
_chemical_formula_sum   'Ba12 As12 H12 O48'
_cell_volume   1278.89419329
_cell_formula_units_Z   12
loop_
 _symmetry_equiv_pos_site_id
 _symmetry_equiv_pos_as_xyz
  1  'x, y, z'
loop_
 _atom_site_type_symbol
 _atom_site_label
 _atom_site_symmetry_multiplicity
 _atom_site_fract_x
 _atom_site_fract_y
 _atom_site_fract_z
 _atom_site_occupancy
  Ba  Ba0  1  0.84647336  0.82627697  0.00252930  1
  Ba  Ba1  1  0.15352664  0.32627697  0.99747070  1
  Ba  Ba2  1  0.56041400  0.50383818  0.16834182  1
  Ba  Ba3  1  0.43958600  0.00383818  0.83165818  1
  Ba  Ba4  1  0.26116440  0.03224474  0.17759276  1
  Ba  Ba5  1  0.73883560  0.53224474  0.82240724  1
  Ba  Ba6  1  0.99995084  0.32148038  0.31348176  1
  Ba  Ba7  1  0.00004916  0.82148038  0.68651824  1
  Ba  Ba8  1  0.72394540  0.83028090  0.33042243  1
  Ba  Ba9  1  0.27605460  0.33028090  0.66957757  1
  Ba  Ba10  1  0.64415173  0.23503389  0.48191321  1
  Ba  Ba11  1  0.35584827  0.73503389  0.51808679  1
  As  As12  1  0.33234361  0.84335075  0.00686625  1
  As  As13  1  0.66765639  0.34335075  0.99313375  1
  As  As14  1  0.04819426  0.49604535  0.14521143  1
  As  As15  1  0.95180574  0.99604535  0.85478857  1
  As  As16  1  0.75860516  0.01274135  0.18742435  1
  As  As17  1  0.24139484  0.51274135  0.81257565  1
  As  As18  1  0.51389509  0.33053213  0.32211502  1
  As  As19  1  0.48610491  0.83053213  0.67788498  1
  As  As20  1  0.23014263  0.80273104  0.33707877  1
  As  As21  1  0.76985737  0.30273104  0.66292123  1
  As  As22  1  0.15716277  0.24473170  0.49775367  1
  As  As23  1  0.84283723  0.74473170  0.50224633  1
  H  H24  1  0.50119665  0.61059112  0.04682416  1
  H  H25  1  0.49880335  0.11059112  0.95317584  1
  H  H26  1  0.14271458  0.66618844  0.22662251  1
  H  H27  1  0.85728542  0.16618844  0.77337749  1
  H  H28  1  0.84229506  0.09922239  0.09265729  1
  H  H29  1  0.15770494  0.59922239  0.90734271  1
  H  H30  1  0.39048339  0.52513057  0.38928697  1
  H  H31  1  0.60951661  0.02513057  0.61071303  1
  H  H32  1  0.17874843  0.01155676  0.40856482  1
  H  H33  1  0.82125157  0.51155676  0.59143518  1
  H  H34  1  0.02191063  0.03149743  0.55327575  1
  H  H35  1  0.97808937  0.53149743  0.44672425  1
  O  O36  1  0.22554910  0.99043182  0.04682319  1
  O  O37  1  0.77445090  0.49043182  0.95317681  1
  O  O38  1  0.81706803  0.19320605  0.02523657  1
  O  O39  1  0.18293197  0.69320605  0.97476343  1
  O  O40  1  0.52163723  0.42366147  0.04123012  1
  O  O41  1  0.47836277  0.92366147  0.95876988  1
  O  O42  1  0.48817143  0.73602845  0.06151084  1
  O  O43  1  0.51182857  0.23602845  0.93848916  1
  O  O44  1  0.92359920  0.57780352  0.08361054  1
  O  O45  1  0.07640080  0.07780352  0.91638946  1
  O  O46  1  0.91878222  0.41721393  0.19727859  1
  O  O47  1  0.08121778  0.91721393  0.80272141  1
  O  O48  1  0.21216947  0.35981346  0.12439789  1
  O  O49  1  0.78783053  0.85981346  0.87560211  1
  O  O50  1  0.18208182  0.66523421  0.18471397  1
  O  O51  1  0.81791818  0.16523421  0.81528603  1
  O  O52  1  0.59717471  0.16656625  0.17437024  1
  O  O53  1  0.40282529  0.66656625  0.82562976  1
  O  O54  1  0.65409904  0.82523362  0.20099261  1
  O  O55  1  0.34590096  0.32523362  0.79900739  1
  O  O56  1  0.92879774  0.04266386  0.24508347  1
  O  O57  1  0.07120226  0.54266386  0.75491653  1
  O  O58  1  0.88037755  0.00166218  0.12133507  1
  O  O59  1  0.11962245  0.50166218  0.87866493  1
  O  O60  1  0.33605357  0.29097495  0.26866808  1
  O  O61  1  0.66394643  0.79097495  0.73133192  1
  O  O62  1  0.65380386  0.17021812  0.35074234  1
  O  O63  1  0.34619614  0.67021812  0.64925766  1
  O  O64  1  0.64843087  0.49343090  0.30056327  1
  O  O65  1  0.35156913  0.99343090  0.69943673  1
  O  O66  1  0.41108358  0.39339564  0.38895685  1
  O  O67  1  0.58891642  0.89339564  0.61104315  1
  O  O68  1  0.36476574  0.88130978  0.28643017  1
  O  O69  1  0.63523426  0.38130978  0.71356983  1
  O  O70  1  0.06405066  0.67098941  0.30465815  1
  O  O71  1  0.93594934  0.17098941  0.69534185  1
  O  O72  1  0.36762463  0.71287649  0.39625982  1
  O  O73  1  0.63237537  0.21287649  0.60374018  1
  O  O74  1  0.10907485  0.97475671  0.36861504  1
  O  O75  1  0.89092515  0.47475671  0.63138496  1
  O  O76  1  0.70596367  0.89746096  0.46789522  1
  O  O77  1  0.29403633  0.39746096  0.53210478  1
  O  O78  1  0.00720102  0.82428022  0.55561442  1
  O  O79  1  0.99279898  0.32428022  0.44438558  1
  O  O80  1  0.28164800  0.07791246  0.47337795  1
  O  O81  1  0.71835200  0.57791246  0.52662205  1
  O  O82  1  0.03072232  0.16130148  0.55582794  1
  O  O83  1  0.96927768  0.66130148  0.44417206  1
