# generated using pymatgen
data_Al8C3N4
_symmetry_space_group_name_H-M   'P 1'
_cell_length_a   18.62488877
_cell_length_b   18.62488868
_cell_length_c   18.62488843
_cell_angle_alpha   9.96138514
_cell_angle_beta   9.96138679
_cell_angle_gamma   9.96138649
_symmetry_Int_Tables_number   1
_chemical_formula_structural   Al8C3N4
_chemical_formula_sum   'Al8 C3 N4'
_cell_volume   167.84882703
_cell_formula_units_Z   1
loop_
 _symmetry_equiv_pos_site_id
 _symmetry_equiv_pos_as_xyz
  1  'x, y, z'
loop_
 _atom_site_type_symbol
 _atom_site_label
 _atom_site_symmetry_multiplicity
 _atom_site_fract_x
 _atom_site_fract_y
 _atom_site_fract_z
 _atom_site_occupancy
  Al  Al0  1  0.68411993  0.68411993  0.68411993  1
  Al  Al1  1  0.31588007  0.31588007  0.31588007  1
  Al  Al2  1  0.06241961  0.06241961  0.06241961  1
  Al  Al3  1  0.93758039  0.93758039  0.93758039  1
  Al  Al4  1  0.77446827  0.77446827  0.77446827  1
  Al  Al5  1  0.22553173  0.22553173  0.22553173  1
  Al  Al6  1  0.14995656  0.14995656  0.14995656  1
  Al  Al7  1  0.85004344  0.85004344  0.85004344  1
  N  N8  1  0.71745130  0.71745130  0.71745130  1
  N  N9  1  0.28254870  0.28254870  0.28254870  1
  N  N10  1  0.09583663  0.09583663  0.09583663  1
  N  N11  1  0.90416337  0.90416337  0.90416337  1
  C  C12  1  0.00000000  0.00000000  0.00000000  1
  C  C13  1  0.80989984  0.80989984  0.80989984  1
  C  C14  1  0.19010016  0.19010016  0.19010016  1
