# generated using pymatgen
data_Si(PbO2)2
_symmetry_space_group_name_H-M   'P 1'
_cell_length_a   7.30053028
_cell_length_b   7.30053028
_cell_length_c   19.77426763
_cell_angle_alpha   83.81169598
_cell_angle_beta   83.81169598
_cell_angle_gamma   64.50874973
_symmetry_Int_Tables_number   1
_chemical_formula_structural   Si(PbO2)2
_chemical_formula_sum   'Si8 Pb16 O32'
_cell_volume   943.56538307
_cell_formula_units_Z   8
loop_
 _symmetry_equiv_pos_site_id
 _symmetry_equiv_pos_as_xyz
  1  'x, y, z'
loop_
 _atom_site_type_symbol
 _atom_site_label
 _atom_site_symmetry_multiplicity
 _atom_site_fract_x
 _atom_site_fract_y
 _atom_site_fract_z
 _atom_site_occupancy
  Si  Si0  1  0.95661255  0.03474356  0.58106187  1
  Si  Si1  1  0.96525644  0.04338745  0.41893813  1
  Si  Si2  1  0.53296866  0.45886119  0.58119398  1
  Si  Si3  1  0.54113881  0.46703134  0.41880602  1
  Si  Si4  1  0.70577375  0.28631843  0.08115673  1
  Si  Si5  1  0.71368157  0.29422625  0.91884327  1
  Si  Si6  1  0.28370546  0.70936913  0.08120914  1
  Si  Si7  1  0.29063087  0.71629454  0.91879086  1
  Pb  Pb8  1  0.23000570  0.23592974  0.90863700  1
  Pb  Pb9  1  0.76407026  0.76999430  0.09136300  1
  Pb  Pb10  1  0.77090666  0.76843424  0.90892452  1
  Pb  Pb11  1  0.23156576  0.22909334  0.09107548  1
  Pb  Pb12  1  0.11943325  0.12392859  0.75236887  1
  Pb  Pb13  1  0.87607141  0.88056675  0.24763113  1
  Pb  Pb14  1  0.61610249  0.63273649  0.74974581  1
  Pb  Pb15  1  0.36726351  0.38389751  0.25025419  1
  Pb  Pb16  1  0.01426233  0.52201212  0.40848898  1
  Pb  Pb17  1  0.47798788  0.98573767  0.59151102  1
  Pb  Pb18  1  0.48699585  0.99048089  0.40853142  1
  Pb  Pb19  1  0.00951911  0.51300415  0.59146858  1
  Pb  Pb20  1  0.86643844  0.37870067  0.24665905  1
  Pb  Pb21  1  0.62129933  0.13356156  0.75334095  1
  Pb  Pb22  1  0.36940078  0.87810824  0.25482133  1
  Pb  Pb23  1  0.12189176  0.63059922  0.74517867  1
  O  O24  1  0.95339983  0.46363785  0.70475179  1
  O  O25  1  0.53636215  0.04660017  0.29524821  1
  O  O26  1  0.46170293  0.96893702  0.70539299  1
  O  O27  1  0.03106298  0.53829707  0.29460701  1
  O  O28  1  0.91396702  0.85140430  0.62412336  1
  O  O29  1  0.14859570  0.08603298  0.37587664  1
  O  O30  1  0.34972890  0.41591043  0.62421781  1
  O  O31  1  0.58408957  0.65027110  0.37578219  1
  O  O32  1  0.12849832  0.08467547  0.61173252  1
  O  O33  1  0.91532453  0.87150168  0.38826748  1
  O  O34  1  0.58384391  0.63079474  0.61181432  1
  O  O35  1  0.36920526  0.41615609  0.38818568  1
  O  O36  1  0.74442095  0.24651500  0.58454802  1
  O  O37  1  0.75348500  0.25557905  0.41545198  1
  O  O38  1  0.01671015  0.98328985  0.50000000  1
  O  O39  1  0.48201061  0.51798939  0.50000000  1
  O  O40  1  0.70870023  0.71580383  0.20450001  1
  O  O41  1  0.28419617  0.29129977  0.79549999  1
  O  O42  1  0.20864851  0.21727316  0.20514784  1
  O  O43  1  0.78272684  0.79135149  0.79485216  1
  O  O44  1  0.66274102  0.10332573  0.12418601  1
  O  O45  1  0.89667427  0.33725898  0.87581399  1
  O  O46  1  0.10090872  0.66649138  0.12471263  1
  O  O47  1  0.33350862  0.89909128  0.87528737  1
  O  O48  1  0.87737322  0.33636625  0.11222602  1
  O  O49  1  0.66363375  0.12262678  0.88777398  1
  O  O50  1  0.33643872  0.88028564  0.11101450  1
  O  O51  1  0.11971436  0.66356128  0.88898550  1
  O  O52  1  0.49206337  0.49478358  0.08496838  1
  O  O53  1  0.50521642  0.50793663  0.91503162  1
  O  O54  1  0.76554227  0.23445773  0.00000000  1
  O  O55  1  0.23252303  0.76747697  0.00000000  1
