# generated using pymatgen
data_BaCe(SnS3)2
_symmetry_space_group_name_H-M   'P 1'
_cell_length_a   4.10017129
_cell_length_b   12.09186993
_cell_length_c   19.89935427
_cell_angle_alpha   90.00000000
_cell_angle_beta   90.00000000
_cell_angle_gamma   90.00000000
_symmetry_Int_Tables_number   1
_chemical_formula_structural   BaCe(SnS3)2
_chemical_formula_sum   'Ba4 Ce4 Sn8 S24'
_cell_volume   986.58487032
_cell_formula_units_Z   4
loop_
 _symmetry_equiv_pos_site_id
 _symmetry_equiv_pos_as_xyz
  1  'x, y, z'
loop_
 _atom_site_type_symbol
 _atom_site_label
 _atom_site_symmetry_multiplicity
 _atom_site_fract_x
 _atom_site_fract_y
 _atom_site_fract_z
 _atom_site_occupancy
  Ba  Ba0  1  0.50000000  0.31869179  0.91993941  1
  Ba  Ba1  1  0.50000000  0.81869179  0.08006059  1
  Ba  Ba2  1  0.50000000  0.75384329  0.64015842  1
  Ba  Ba3  1  0.50000000  0.25384329  0.35984158  1
  Ce  Ce4  1  0.50000000  0.68356700  0.88179630  1
  Ce  Ce5  1  0.50000000  0.18356700  0.11820370  1
  Ce  Ce6  1  0.50000000  0.87292747  0.41830000  1
  Ce  Ce7  1  0.50000000  0.37292747  0.58170000  1
  Sn  Sn8  1  0.50000000  0.10126967  0.74691204  1
  Sn  Sn9  1  0.50000000  0.60126967  0.25308796  1
  Sn  Sn10  1  0.00000000  0.99509488  0.90786503  1
  Sn  Sn11  1  0.00000000  0.49509488  0.09213497  1
  Sn  Sn12  1  0.00000000  0.49920497  0.75154051  1
  Sn  Sn13  1  0.00000000  0.99920497  0.24845949  1
  Sn  Sn14  1  0.00000000  0.54871544  0.42435580  1
  Sn  Sn15  1  0.00000000  0.04871544  0.57564420  1
  S  S16  1  0.50000000  0.06240256  0.98524407  1
  S  S17  1  0.50000000  0.56240256  0.01475593  1
  S  S18  1  0.50000000  0.92003346  0.83322992  1
  S  S19  1  0.50000000  0.42003346  0.16677008  1
  S  S20  1  0.50000000  0.59541040  0.49146027  1
  S  S21  1  0.50000000  0.09541040  0.50853973  1
  S  S22  1  0.50000000  0.88098254  0.25943356  1
  S  S23  1  0.50000000  0.38098254  0.74056644  1
  S  S24  1  -0.00000000  0.79267335  0.95668152  1
  S  S25  1  -0.00000000  0.29267335  0.04331848  1
  S  S26  1  -0.00000000  0.50773690  0.88064195  1
  S  S27  1  -0.00000000  0.00773690  0.11935805  1
  S  S28  1  0.00000000  0.17144018  0.83617748  1
  S  S29  1  0.00000000  0.67144018  0.16382252  1
  S  S30  1  0.00000000  0.70190269  0.76925549  1
  S  S31  1  0.00000000  0.20190269  0.23074451  1
  S  S32  1  -0.00000000  0.95244136  0.68330617  1
  S  S33  1  -0.00000000  0.45244136  0.31669383  1
  S  S34  1  -0.00000000  0.53332331  0.62444960  1
  S  S35  1  -0.00000000  0.03332331  0.37555040  1
  S  S36  1  0.00000000  0.85173479  0.52168931  1
  S  S37  1  0.00000000  0.35173479  0.47831069  1
  S  S38  1  0.00000000  0.73451398  0.36286783  1
  S  S39  1  0.00000000  0.23451398  0.63713217  1
