# generated using pymatgen
data_Sm4(SiS4)3
_symmetry_space_group_name_H-M   'P 1'
_cell_length_a   7.90320916
_cell_length_b   11.34512473
_cell_length_c   11.34512506
_cell_angle_alpha   114.77909054
_cell_angle_beta   103.42696717
_cell_angle_gamma   103.42696757
_symmetry_Int_Tables_number   1
_chemical_formula_structural   Sm4(SiS4)3
_chemical_formula_sum   'Sm8 Si6 S24'
_cell_volume   833.45230518
_cell_formula_units_Z   2
loop_
 _symmetry_equiv_pos_site_id
 _symmetry_equiv_pos_as_xyz
  1  'x, y, z'
loop_
 _atom_site_type_symbol
 _atom_site_label
 _atom_site_symmetry_multiplicity
 _atom_site_fract_x
 _atom_site_fract_y
 _atom_site_fract_z
 _atom_site_occupancy
  Sm  Sm0  1  0.50172448  -0.00000000  -0.00000000  1
  Sm  Sm1  1  0.00172448  -0.00000000  -0.00000000  1
  Sm  Sm2  1  0.06875566  0.54044029  0.77557078  1
  Sm  Sm3  1  0.29318488  0.22442922  0.76486951  1
  Sm  Sm4  1  0.52831537  0.23513049  0.45955971  1
  Sm  Sm5  1  0.56875566  0.77557078  0.54044029  1
  Sm  Sm6  1  0.02831537  0.45955971  0.23513049  1
  Sm  Sm7  1  0.79318488  0.76486951  0.22442922  1
  Si  Si8  1  0.35963407  0.82675045  0.21266823  1
  Si  Si9  1  0.14696583  0.78733177  0.61408221  1
  Si  Si10  1  0.53288362  0.38591779  0.17324955  1
  Si  Si11  1  0.85963407  0.21266823  0.82675045  1
  Si  Si12  1  0.03288362  0.17324955  0.38591779  1
  Si  Si13  1  0.64696583  0.61408221  0.78733177  1
  S  S14  1  0.10975789  0.39329340  0.92517126  1
  S  S15  1  0.18458663  0.07482874  0.46812214  1
  S  S16  1  0.71646449  0.53187786  0.60670660  1
  S  S17  1  0.60975789  0.92517126  0.39329340  1
  S  S18  1  0.21646449  0.60670660  0.53187786  1
  S  S19  1  0.68458663  0.46812214  0.07482874  1
  S  S20  1  0.31388573  0.99729892  0.18600285  1
  S  S21  1  0.12788287  0.81399715  0.81129607  1
  S  S22  1  0.31658680  0.18870393  0.00270108  1
  S  S23  1  0.81388573  0.18600285  0.99729892  1
  S  S24  1  0.81658680  0.00270108  0.18870393  1
  S  S25  1  0.62788287  0.81129607  0.81399715  1
  S  S26  1  0.41355281  0.71339763  0.03264819  1
  S  S27  1  0.38090462  0.96735181  0.68074944  1
  S  S28  1  0.70015518  0.31925056  0.28660237  1
  S  S29  1  0.91355281  0.03264819  0.71339763  1
  S  S30  1  0.20015518  0.28660237  0.31925056  1
  S  S31  1  0.88090462  0.68074944  0.96735181  1
  S  S32  1  0.64950335  0.26718771  0.72956329  1
  S  S33  1  0.91994006  0.27043671  0.53762442  1
  S  S34  1  0.38231564  0.46237558  0.73281229  1
  S  S35  1  0.14950335  0.72956329  0.26718771  1
  S  S36  1  0.88231564  0.73281229  0.46237558  1
  S  S37  1  0.41994006  0.53762442  0.27043671  1
