# generated using pymatgen
data_KCa4Si8H16O28F
_symmetry_space_group_name_H-M   'P 1'
_cell_length_a   9.06671716
_cell_length_b   9.06671716
_cell_length_c   16.01284502
_cell_angle_alpha   90.00000000
_cell_angle_beta   90.00000000
_cell_angle_gamma   90.00000000
_symmetry_Int_Tables_number   1
_chemical_formula_structural   KCa4Si8H16O28F
_chemical_formula_sum   'K2 Ca8 Si16 H32 O56 F2'
_cell_volume   1316.34169045
_cell_formula_units_Z   2
loop_
 _symmetry_equiv_pos_site_id
 _symmetry_equiv_pos_as_xyz
  1  'x, y, z'
loop_
 _atom_site_type_symbol
 _atom_site_label
 _atom_site_symmetry_multiplicity
 _atom_site_fract_x
 _atom_site_fract_y
 _atom_site_fract_z
 _atom_site_occupancy
  K  K0  1  0.50000000  0.50000000  0.00000024  1
  K  K1  1  0.00000000  0.00000000  0.50000024  1
  Ca  Ca2  1  0.74574319  0.61003541  0.50000034  1
  Ca  Ca3  1  0.25425681  0.38996459  0.50000034  1
  Ca  Ca4  1  0.75425681  0.11003541  0.00000034  1
  Ca  Ca5  1  0.24574319  0.88996459  0.00000034  1
  Ca  Ca6  1  0.61003541  0.25425681  0.50000034  1
  Ca  Ca7  1  0.38996459  0.74574319  0.50000034  1
  Ca  Ca8  1  0.11003541  0.24574319  0.00000034  1
  Ca  Ca9  1  0.88996459  0.75425681  0.00000034  1
  Si  Si10  1  0.58667496  0.72580549  0.31025718  1
  Si  Si11  1  0.41332504  0.27419451  0.31025718  1
  Si  Si12  1  0.91332504  0.22580549  0.81025718  1
  Si  Si13  1  0.08667496  0.77419451  0.81025718  1
  Si  Si14  1  0.72580549  0.41332504  0.31025718  1
  Si  Si15  1  0.27419451  0.58667496  0.31025718  1
  Si  Si16  1  0.22580549  0.08667496  0.81025718  1
  Si  Si17  1  0.77419451  0.91332504  0.81025718  1
  Si  Si18  1  0.41332392  0.27419456  0.68974316  1
  Si  Si19  1  0.58667608  0.72580544  0.68974316  1
  Si  Si20  1  0.08667608  0.77419456  0.18974316  1
  Si  Si21  1  0.91332392  0.22580544  0.18974316  1
  Si  Si22  1  0.27419456  0.58667608  0.68974316  1
  Si  Si23  1  0.72580544  0.41332392  0.68974316  1
  Si  Si24  1  0.77419456  0.91332392  0.18974316  1
  Si  Si25  1  0.22580544  0.08667608  0.18974316  1
  H  H26  1  0.67122545  0.94852306  0.41129492  1
  H  H27  1  0.32877455  0.05147694  0.41129492  1
  H  H28  1  0.82877455  0.44852306  0.91129492  1
  H  H29  1  0.17122545  0.55147694  0.91129492  1
  H  H30  1  0.94852306  0.32877455  0.41129492  1
  H  H31  1  0.05147694  0.67122545  0.41129492  1
  H  H32  1  0.44852306  0.17122545  0.91129492  1
  H  H33  1  0.55147694  0.82877455  0.91129492  1
  H  H34  1  0.32877445  0.05147676  0.58870516  1
  H  H35  1  0.67122555  0.94852324  0.58870516  1
  H  H36  1  0.17122555  0.55147676  0.08870516  1
  H  H37  1  0.82877445  0.44852324  0.08870516  1
  H  H38  1  0.05147676  0.67122555  0.58870516  1
  H  H39  1  0.94852324  0.32877445  0.58870516  1
  H  H40  1  0.55147676  0.82877445  0.08870516  1
  H  H41  1  0.44852324  0.17122555  0.08870516  1
  H  H42  1  0.92583100  0.72187486  0.35120883  1
  H  H43  1  0.07416900  0.27812514  0.35120883  1
  H  H44  1  0.57416900  0.22187486  0.85120883  1
  H  H45  1  0.42583100  0.77812514  0.85120883  1
  H  H46  1  0.72187486  0.07416900  0.35120883  1
  H  H47  1  0.27812514  0.92583100  0.35120883  1
  H  H48  1  0.22187486  0.42583100  0.85120883  1
  H  H49  1  0.77812514  0.57416900  0.85120883  1
  H  H50  1  0.07416868  0.27812520  0.64879105  1
  H  H51  1  0.92583132  0.72187480  0.64879105  1
  H  H52  1  0.42583132  0.77812520  0.14879105  1
  H  H53  1  0.57416868  0.22187480  0.14879105  1
  H  H54  1  0.27812520  0.92583132  0.64879105  1
  H  H55  1  0.72187480  0.07416868  0.64879105  1
  H  H56  1  0.77812520  0.57416868  0.14879105  1
  H  H57  1  0.22187480  0.42583132  0.14879105  1
  O  O58  1  0.63724267  0.86275277  0.24999803  1
  O  O59  1  0.36275733  0.13724723  0.24999803  1
  O  O60  1  0.86275733  0.36275277  0.74999803  1
  O  O61  1  0.13724267  0.63724723  0.74999803  1
  O  O62  1  0.86275277  0.36275733  0.24999803  1
  O  O63  1  0.13724723  0.63724267  0.24999803  1
  O  O64  1  0.36275277  0.13724267  0.74999803  1
  O  O65  1  0.63724723  0.86275733  0.74999803  1
  O  O66  1  0.68990635  0.58416766  0.28218832  1
  O  O67  1  0.31009365  0.41583234  0.28218832  1
  O  O68  1  0.81009365  0.08416766  0.78218832  1
  O  O69  1  0.18990635  0.91583234  0.78218832  1
  O  O70  1  0.58416766  0.31009365  0.28218832  1
  O  O71  1  0.41583234  0.68990635  0.28218832  1
  O  O72  1  0.08416766  0.18990635  0.78218832  1
  O  O73  1  0.91583234  0.81009365  0.78218832  1
  O  O74  1  0.31009272  0.41583284  0.71781280  1
  O  O75  1  0.68990728  0.58416716  0.71781280  1
  O  O76  1  0.18990728  0.91583284  0.21781280  1
  O  O77  1  0.81009272  0.08416716  0.21781280  1
  O  O78  1  0.41583284  0.68990728  0.71781280  1
  O  O79  1  0.58416716  0.31009272  0.71781280  1
  O  O80  1  0.91583284  0.81009272  0.21781280  1
  O  O81  1  0.08416716  0.18990728  0.21781280  1
  O  O82  1  0.60170566  0.76512317  0.40807655  1
  O  O83  1  0.39829434  0.23487683  0.40807655  1
  O  O84  1  0.89829434  0.26512317  0.90807655  1
  O  O85  1  0.10170566  0.73487683  0.90807655  1
  O  O86  1  0.76512317  0.39829434  0.40807655  1
  O  O87  1  0.23487683  0.60170566  0.40807655  1
  O  O88  1  0.26512317  0.10170566  0.90807655  1
  O  O89  1  0.73487683  0.89829434  0.90807655  1
  O  O90  1  0.39829456  0.23487731  0.59192373  1
  O  O91  1  0.60170544  0.76512269  0.59192373  1
  O  O92  1  0.10170544  0.73487731  0.09192373  1
  O  O93  1  0.89829456  0.26512269  0.09192373  1
  O  O94  1  0.23487731  0.60170544  0.59192373  1
  O  O95  1  0.76512269  0.39829456  0.59192373  1
  O  O96  1  0.73487731  0.89829456  0.09192373  1
  O  O97  1  0.26512269  0.10170544  0.09192373  1
  O  O98  1  0.94963672  0.71385194  0.41079507  1
  O  O99  1  0.05036328  0.28614806  0.41079507  1
  O  O100  1  0.55036328  0.21385194  0.91079507  1
  O  O101  1  0.44963672  0.78614806  0.91079507  1
  O  O102  1  0.71385194  0.05036328  0.41079507  1
  O  O103  1  0.28614806  0.94963672  0.41079507  1
  O  O104  1  0.21385194  0.44963672  0.91079507  1
  O  O105  1  0.78614806  0.55036328  0.91079507  1
  O  O106  1  0.05036339  0.28614804  0.58920484  1
  O  O107  1  0.94963661  0.71385196  0.58920484  1
  O  O108  1  0.44963661  0.78614804  0.08920484  1
  O  O109  1  0.55036339  0.21385196  0.08920484  1
  O  O110  1  0.28614804  0.94963661  0.58920484  1
  O  O111  1  0.71385196  0.05036339  0.58920484  1
  O  O112  1  0.78614804  0.55036339  0.08920484  1
  O  O113  1  0.21385196  0.44963661  0.08920484  1
  F  F114  1  0.50000000  0.50000000  0.49999988  1
  F  F115  1  0.00000000  -0.00000000  0.99999988  1
