# generated using pymatgen
data_LiSi2B
_symmetry_space_group_name_H-M   'P 1'
_cell_length_a   6.84045070
_cell_length_b   6.84045070
_cell_length_c   8.85456154
_cell_angle_alpha   90.00000000
_cell_angle_beta   90.00000000
_cell_angle_gamma   90.00000000
_symmetry_Int_Tables_number   1
_chemical_formula_structural   LiSi2B
_chemical_formula_sum   'Li8 Si16 B8'
_cell_volume   414.32056966
_cell_formula_units_Z   8
loop_
 _symmetry_equiv_pos_site_id
 _symmetry_equiv_pos_as_xyz
  1  'x, y, z'
loop_
 _atom_site_type_symbol
 _atom_site_label
 _atom_site_symmetry_multiplicity
 _atom_site_fract_x
 _atom_site_fract_y
 _atom_site_fract_z
 _atom_site_occupancy
  Li  Li0  1  0.00401102  0.75000000  0.42309721  1
  Li  Li1  1  0.49598898  0.75000000  0.42309721  1
  Li  Li2  1  0.75000000  0.00401102  0.92309721  1
  Li  Li3  1  0.75000000  0.49598898  0.92309721  1
  Li  Li4  1  0.99598898  0.25000000  0.57690279  1
  Li  Li5  1  0.50401102  0.25000000  0.57690279  1
  Li  Li6  1  0.25000000  0.99598898  0.07690279  1
  Li  Li7  1  0.25000000  0.50401102  0.07690279  1
  Si  Si8  1  0.56953065  0.75000000  0.13646995  1
  Si  Si9  1  0.93046935  0.75000000  0.13646995  1
  Si  Si10  1  0.75000000  0.56953065  0.63646995  1
  Si  Si11  1  0.75000000  0.93046935  0.63646995  1
  Si  Si12  1  0.43046935  0.25000000  0.86353005  1
  Si  Si13  1  0.06953065  0.25000000  0.86353005  1
  Si  Si14  1  0.25000000  0.43046935  0.36353005  1
  Si  Si15  1  0.25000000  0.06953065  0.36353005  1
  Si  Si16  1  0.06666396  0.75000000  0.87978402  1
  Si  Si17  1  0.43333604  0.75000000  0.87978402  1
  Si  Si18  1  0.75000000  0.06666396  0.37978402  1
  Si  Si19  1  0.75000000  0.43333604  0.37978402  1
  Si  Si20  1  0.93333604  0.25000000  0.12021598  1
  Si  Si21  1  0.56666396  0.25000000  0.12021598  1
  Si  Si22  1  0.25000000  0.93333604  0.62021598  1
  Si  Si23  1  0.25000000  0.56666396  0.62021598  1
  B  B24  1  0.99174837  0.00825163  0.25000000  1
  B  B25  1  0.50825163  0.00825163  0.25000000  1
  B  B26  1  0.99174837  0.49174837  0.25000000  1
  B  B27  1  0.50825163  0.49174837  0.25000000  1
  B  B28  1  0.00825163  0.99174837  0.75000000  1
  B  B29  1  0.49174837  0.99174837  0.75000000  1
  B  B30  1  0.00825163  0.50825163  0.75000000  1
  B  B31  1  0.49174837  0.50825163  0.75000000  1
