# generated using pymatgen
data_Dy3Ni19B10
_symmetry_space_group_name_H-M   'P 1'
_cell_length_a   5.75565734
_cell_length_b   7.86400129
_cell_length_c   7.86400129
_cell_angle_alpha   67.14115901
_cell_angle_beta   88.90327543
_cell_angle_gamma   88.90327543
_symmetry_Int_Tables_number   1
_chemical_formula_structural   Dy3Ni19B10
_chemical_formula_sum   'Dy3 Ni19 B10'
_cell_volume   327.90358436
_cell_formula_units_Z   1
loop_
 _symmetry_equiv_pos_site_id
 _symmetry_equiv_pos_as_xyz
  1  'x, y, z'
loop_
 _atom_site_type_symbol
 _atom_site_label
 _atom_site_symmetry_multiplicity
 _atom_site_fract_x
 _atom_site_fract_y
 _atom_site_fract_z
 _atom_site_occupancy
  Dy  Dy0  1  0.00000000  -0.00000000  0.00000000  1
  Dy  Dy1  1  0.61440098  0.62544718  0.62544718  1
  Dy  Dy2  1  0.38559902  0.37455282  0.37455282  1
  Ni  Ni3  1  0.50000000  -0.00000000  0.00000000  1
  Ni  Ni4  1  0.12702920  0.62207755  0.62207755  1
  Ni  Ni5  1  0.87297080  0.37792245  0.37792245  1
  Ni  Ni6  1  0.29678316  0.16291720  0.16291720  1
  Ni  Ni7  1  0.70321684  0.83708280  0.83708280  1
  Ni  Ni8  1  0.72875078  0.18212465  0.18212465  1
  Ni  Ni9  1  0.27124922  0.81787535  0.81787535  1
  Ni  Ni10  1  0.30205874  0.95485784  0.48263661  1
  Ni  Ni11  1  0.30205874  0.48263661  0.95485784  1
  Ni  Ni12  1  0.69794126  0.04514216  0.51736339  1
  Ni  Ni13  1  0.69794126  0.51736339  0.04514216  1
  Ni  Ni14  1  0.07375388  0.62278898  0.12211190  1
  Ni  Ni15  1  0.07375388  0.12211190  0.62278898  1
  Ni  Ni16  1  0.92624612  0.37721102  0.87788810  1
  Ni  Ni17  1  0.92624612  0.87788810  0.37721102  1
  Ni  Ni18  1  0.30121165  0.28891857  0.77071650  1
  Ni  Ni19  1  0.30121165  0.77071650  0.28891857  1
  Ni  Ni20  1  0.69878835  0.71108143  0.22928350  1
  Ni  Ni21  1  0.69878835  0.22928350  0.71108143  1
  B  B22  1  0.00000000  0.61642699  0.38357301  1
  B  B23  1  0.00000000  0.38357301  0.61642699  1
  B  B24  1  0.97436282  0.85717072  0.65091365  1
  B  B25  1  0.97436282  0.65091365  0.85717072  1
  B  B26  1  0.02563718  0.14282928  0.34908635  1
  B  B27  1  0.02563718  0.34908635  0.14282928  1
  B  B28  1  0.56916154  0.30061552  0.93522677  1
  B  B29  1  0.56916154  0.93522677  0.30061552  1
  B  B30  1  0.43083846  0.69938448  0.06477323  1
  B  B31  1  0.43083846  0.06477323  0.69938448  1
