# generated using pymatgen
data_CeVO4
_symmetry_space_group_name_H-M   'P 1'
_cell_length_a   7.26309288
_cell_length_b   6.96196617
_cell_length_c   7.35253243
_cell_angle_alpha   90.00000000
_cell_angle_beta   90.00000000
_cell_angle_gamma   122.77913959
_symmetry_Int_Tables_number   1
_chemical_formula_structural   CeVO4
_chemical_formula_sum   'Ce4 V4 O16'
_cell_volume   312.58234654
_cell_formula_units_Z   4
loop_
 _symmetry_equiv_pos_site_id
 _symmetry_equiv_pos_as_xyz
  1  'x, y, z'
loop_
 _atom_site_type_symbol
 _atom_site_label
 _atom_site_symmetry_multiplicity
 _atom_site_fract_x
 _atom_site_fract_y
 _atom_site_fract_z
 _atom_site_occupancy
  Ce  Ce0  1  0.33235982  0.14380031  0.15885086  1
  Ce  Ce1  1  0.16764018  0.35619969  0.65885086  1
  Ce  Ce2  1  0.66764018  0.85619969  0.84114914  1
  Ce  Ce3  1  0.83235982  0.64380031  0.34114914  1
  V  V4  1  0.79969880  0.09643839  0.30560401  1
  V  V5  1  0.70030120  0.40356161  0.80560401  1
  V  V6  1  0.20030120  0.90356161  0.69439599  1
  V  V7  1  0.29969880  0.59643839  0.19439599  1
  O  O8  1  0.73849073  0.55421121  0.00195356  1
  O  O9  1  0.76150927  0.94578879  0.50195356  1
  O  O10  1  0.26150927  0.44578879  0.99804644  1
  O  O11  1  0.23849073  0.05421121  0.49804644  1
  O  O12  1  0.96748263  0.99445010  0.19071724  1
  O  O13  1  0.53251737  0.50554990  0.69071724  1
  O  O14  1  0.03251737  0.00554990  0.80928276  1
  O  O15  1  0.46748263  0.49445010  0.30928276  1
  O  O16  1  0.66019406  0.26459268  0.29845065  1
  O  O17  1  0.83980594  0.23540732  0.79845065  1
  O  O18  1  0.33980594  0.73540732  0.70154935  1
  O  O19  1  0.16019406  0.76459268  0.20154935  1
  O  O20  1  0.56644521  0.88757375  0.13153140  1
  O  O21  1  0.93355479  0.61242625  0.63153140  1
  O  O22  1  0.43355479  0.11242625  0.86846860  1
  O  O23  1  0.06644521  0.38757375  0.36846860  1
