# generated using pymatgen
data_MnPHO3
_symmetry_space_group_name_H-M   'P 1'
_cell_length_a   8.17309456
_cell_length_b   8.42164544
_cell_length_c   8.93033444
_cell_angle_alpha   90.00000000
_cell_angle_beta   104.18306902
_cell_angle_gamma   90.00000000
_symmetry_Int_Tables_number   1
_chemical_formula_structural   MnPHO3
_chemical_formula_sum   'Mn8 P8 H8 O24'
_cell_volume   595.94610444
_cell_formula_units_Z   8
loop_
 _symmetry_equiv_pos_site_id
 _symmetry_equiv_pos_as_xyz
  1  'x, y, z'
loop_
 _atom_site_type_symbol
 _atom_site_label
 _atom_site_symmetry_multiplicity
 _atom_site_fract_x
 _atom_site_fract_y
 _atom_site_fract_z
 _atom_site_occupancy
  Mn  Mn0  1  0.55511801  0.13181767  0.37455149  1
  Mn  Mn1  1  0.94488199  0.63181767  0.12544851  1
  Mn  Mn2  1  0.44488199  0.86818233  0.62544851  1
  Mn  Mn3  1  0.05511801  0.36818233  0.87455149  1
  Mn  Mn4  1  0.51042814  0.71156331  0.98656971  1
  Mn  Mn5  1  0.98957186  0.21156331  0.51343029  1
  Mn  Mn6  1  0.48957186  0.28843669  0.01343029  1
  Mn  Mn7  1  0.01042814  0.78843669  0.48656971  1
  P  P8  1  0.77800146  0.98874661  0.18802987  1
  P  P9  1  0.72199854  0.48874661  0.31197013  1
  P  P10  1  0.22199854  0.01125339  0.81197013  1
  P  P11  1  0.27800146  0.51125339  0.68802987  1
  P  P12  1  0.78529909  0.65097125  0.73771013  1
  P  P13  1  0.71470091  0.15097125  0.76228987  1
  P  P14  1  0.21470091  0.34902875  0.26228987  1
  P  P15  1  0.28529909  0.84902875  0.23771013  1
  H  H16  1  0.89439140  0.07393019  0.12648731  1
  H  H17  1  0.60560860  0.57393019  0.37351269  1
  H  H18  1  0.10560860  0.92606981  0.87351269  1
  H  H19  1  0.39439140  0.42606981  0.62648731  1
  H  H20  1  0.73765240  0.51326115  0.64834124  1
  H  H21  1  0.76234760  0.01326115  0.85165876  1
  H  H22  1  0.26234760  0.48673885  0.35165876  1
  H  H23  1  0.23765240  0.98673885  0.14834124  1
  O  O24  1  0.75292120  0.82481937  0.10793922  1
  O  O25  1  0.74707880  0.32481937  0.39206078  1
  O  O26  1  0.24707880  0.17518063  0.89206078  1
  O  O27  1  0.25292120  0.67518063  0.60793922  1
  O  O28  1  0.84892076  0.98238258  0.36627240  1
  O  O29  1  0.65107924  0.48238258  0.13372760  1
  O  O30  1  0.15107924  0.01761742  0.63372760  1
  O  O31  1  0.34892076  0.51761742  0.86627240  1
  O  O32  1  0.62286692  0.71649872  0.77567387  1
  O  O33  1  0.87713308  0.21649872  0.72432613  1
  O  O34  1  0.37713308  0.28350128  0.22432613  1
  O  O35  1  0.12286692  0.78350128  0.27567387  1
  O  O36  1  0.91159954  0.59141779  0.88710433  1
  O  O37  1  0.58840046  0.09141779  0.61289567  1
  O  O38  1  0.08840046  0.40858221  0.11289567  1
  O  O39  1  0.41159954  0.90858221  0.38710433  1
  O  O40  1  0.36216001  0.73150501  0.14562835  1
  O  O41  1  0.13783999  0.23150501  0.35437165  1
  O  O42  1  0.63783999  0.26849499  0.85437165  1
  O  O43  1  0.86216001  0.76849499  0.64562835  1
  O  O44  1  0.61061651  0.08292901  0.15357469  1
  O  O45  1  0.88938349  0.58292901  0.34642531  1
  O  O46  1  0.38938349  0.91707099  0.84642531  1
  O  O47  1  0.11061651  0.41707099  0.65357469  1
