# generated using pymatgen
data_HC2N3
_symmetry_space_group_name_H-M   'P 1'
_cell_length_a   4.17065010
_cell_length_b   12.75812141
_cell_length_c   16.92335312
_cell_angle_alpha   90.02723684
_cell_angle_beta   91.07756677
_cell_angle_gamma   90.23191144
_symmetry_Int_Tables_number   1
_chemical_formula_structural   HC2N3
_chemical_formula_sum   'H12 C24 N36'
_cell_volume   900.31910957
_cell_formula_units_Z   12
loop_
 _symmetry_equiv_pos_site_id
 _symmetry_equiv_pos_as_xyz
  1  'x, y, z'
loop_
 _atom_site_type_symbol
 _atom_site_label
 _atom_site_symmetry_multiplicity
 _atom_site_fract_x
 _atom_site_fract_y
 _atom_site_fract_z
 _atom_site_occupancy
  H  H0  1  0.07947339  0.05129485  0.58006122  1
  H  H1  1  0.06546629  0.17535684  0.62714785  1
  H  H2  1  0.92163681  0.94143219  0.42126018  1
  H  H3  1  0.93608591  0.81725086  0.37450371  1
  H  H4  1  0.99482236  0.38669780  0.61768417  1
  H  H5  1  0.00856646  0.60420150  0.38219854  1
  H  H6  1  0.90652075  0.55397757  0.92054952  1
  H  H7  1  0.88947281  0.68078487  0.87708926  1
  H  H8  1  0.09178626  0.44258392  0.07571160  1
  H  H9  1  0.11096517  0.31817405  0.12332680  1
  H  H10  1  0.93897990  0.88908041  0.88377999  1
  H  H11  1  0.05617554  0.10339820  0.11844471  1
  C  C12  1  0.98634011  0.03535548  0.83808252  1
  C  C13  1  0.98753507  0.17087176  0.92654514  1
  C  C14  1  0.00911763  0.19728888  0.78380751  1
  C  C15  1  0.94892720  0.34693103  0.87079757  1
  C  C16  1  0.96561749  0.36575960  0.73725701  1
  C  C17  1  0.93733947  0.53491626  0.66150918  1
  C  C18  1  0.92876077  0.67089959  0.57361902  1
  C  C19  1  0.91607818  0.86578625  0.76334516  1
  C  C20  1  0.90014783  0.84760895  0.62936880  1
  C  C21  1  0.91310682  0.81840411  0.49583799  1
  C  C22  1  0.08803630  0.17401938  0.50565350  1
  C  C23  1  0.10060927  0.14393020  0.37222767  1
  C  C24  1  0.08343839  0.12532329  0.23848306  1
  C  C25  1  0.07304280  0.32097179  0.42728275  1
  C  C26  1  0.09840678  0.29426690  0.28450418  1
  C  C27  1  0.06507971  0.45622156  0.33869479  1
  C  C28  1  0.03664458  0.62544655  0.26273551  1
  C  C29  1  0.05090361  0.64515495  0.12915159  1
  C  C30  1  0.99280912  0.79407868  0.21698365  1
  C  C31  1  0.01067202  0.82170638  0.07437654  1
  C  C32  1  0.01284372  0.95635518  0.16329963  1
  C  C33  1  0.01093798  0.31860405  0.00389419  1
  C  C34  1  0.90300694  0.69661072  0.71649000  1
  C  C35  1  0.98819498  0.67488566  0.99617076  1
  N  N36  1  0.02711334  0.09406035  0.77328216  1
  N  N37  1  0.97996764  0.06752272  0.91357108  1
  N  N38  1  0.97860867  0.23817758  0.86005192  1
  N  N39  1  0.01625700  0.26258701  0.72216621  1
  N  N40  1  0.95486032  0.38651123  0.94265245  1
  N  N41  1  0.92168882  0.40940679  0.80752930  1
  N  N42  1  0.96286685  0.42686719  0.66964892  1
  N  N43  1  0.90878172  0.59352957  0.72680277  1
  N  N44  1  0.94938020  0.56765664  0.58622348  1
  N  N45  1  0.93180618  0.71174642  0.50145821  1
  N  N46  1  0.90713889  0.73831537  0.64005247  1
  N  N47  1  0.90109330  0.76155725  0.77882129  1
  N  N48  1  0.94853100  0.92751801  0.83046048  1
  N  N49  1  0.90321301  0.91084715  0.69265972  1
  N  N50  1  0.89938310  0.88708327  0.55763357  1
  N  N51  1  0.91092526  0.86154713  0.42467496  1
  N  N52  1  0.09007697  0.13117794  0.57683486  1
  N  N53  1  0.10128921  0.10487184  0.44417700  1
  N  N54  1  0.09669666  0.08041940  0.30916058  1
  N  N55  1  0.04927925  0.06399793  0.17126185  1
  N  N56  1  0.06986213  0.28070079  0.49960817  1
  N  N57  1  0.09432339  0.25319047  0.36115875  1
  N  N58  1  0.09949618  0.22938392  0.22243588  1
  N  N59  1  0.05312806  0.42411134  0.41414614  1
  N  N60  1  0.09313564  0.39737233  0.27364171  1
  N  N61  1  0.04006978  0.56411063  0.33026522  1
  N  N62  1  0.07911638  0.58218500  0.19220452  1
  N  N63  1  0.04442893  0.60631936  0.05694534  1
  N  N64  1  0.98713598  0.72847056  0.27836916  1
  N  N65  1  0.02047318  0.75377208  0.14048001  1
  N  N66  1  0.97562713  0.89720523  0.22794714  1
  N  N67  1  0.01723666  0.92491723  0.08766931  1
  N  N68  1  0.99410566  0.78180101  0.00214396  1
  N  N69  1  0.08214764  0.36226749  0.07293367  1
  N  N70  1  0.00424571  0.21165284  0.99862071  1
  N  N71  1  0.91676174  0.63390867  0.92623176  1
