# generated using pymatgen
data_Na2DyPWO8
_symmetry_space_group_name_H-M   'P 1'
_cell_length_a   6.96406273
_cell_length_b   11.53624235
_cell_length_c   11.53624235
_cell_angle_alpha   64.21814332
_cell_angle_beta   72.43220305
_cell_angle_gamma   72.43220305
_symmetry_Int_Tables_number   1
_chemical_formula_structural   Na2DyPWO8
_chemical_formula_sum   'Na8 Dy4 P4 W4 O32'
_cell_volume   779.77010853
_cell_formula_units_Z   4
loop_
 _symmetry_equiv_pos_site_id
 _symmetry_equiv_pos_as_xyz
  1  'x, y, z'
loop_
 _atom_site_type_symbol
 _atom_site_label
 _atom_site_symmetry_multiplicity
 _atom_site_fract_x
 _atom_site_fract_y
 _atom_site_fract_z
 _atom_site_occupancy
  Na  Na0  1  0.85761126  0.09438018  0.71170675  1
  Na  Na1  1  0.83630181  0.71170675  0.09438018  1
  Na  Na2  1  0.64238874  0.78829325  0.40561982  1
  Na  Na3  1  0.66369819  0.40561982  0.78829325  1
  Na  Na4  1  0.14238874  0.90561982  0.28829325  1
  Na  Na5  1  0.16369819  0.28829325  0.90561982  1
  Na  Na6  1  0.35761126  0.21170675  0.59438018  1
  Na  Na7  1  0.33630181  0.59438018  0.21170675  1
  Dy  Dy8  1  0.75000000  0.82288115  0.67711885  1
  Dy  Dy9  1  0.25000000  0.67711885  0.82288115  1
  Dy  Dy10  1  0.25000000  0.17711885  0.32288115  1
  Dy  Dy11  1  0.75000000  0.32288115  0.17711885  1
  P  P12  1  0.25000000  0.43036496  0.06963504  1
  P  P13  1  0.75000000  0.06963504  0.43036496  1
  P  P14  1  0.75000000  0.56963504  0.93036496  1
  P  P15  1  0.25000000  0.93036496  0.56963504  1
  W  W16  1  0.67805925  0.07194075  0.07194075  1
  W  W17  1  0.82194075  0.42805925  0.42805925  1
  W  W18  1  0.32194075  0.92805925  0.92805925  1
  W  W19  1  0.17805925  0.57194075  0.57194075  1
  O  O20  1  0.16746192  0.57341409  0.06192364  1
  O  O21  1  0.69720036  0.06192364  0.57341409  1
  O  O22  1  0.33253808  0.43807636  0.92658591  1
  O  O23  1  0.80279964  0.92658591  0.43807636  1
  O  O24  1  0.83253808  0.42658591  0.93807636  1
  O  O25  1  0.30279964  0.93807636  0.42658591  1
  O  O26  1  0.66746192  0.56192364  0.07341409  1
  O  O27  1  0.19720036  0.07341409  0.56192364  1
  O  O28  1  0.41551494  0.35962959  0.15713775  1
  O  O29  1  0.56771772  0.15713775  0.35962959  1
  O  O30  1  0.08448506  0.34286225  0.14037041  1
  O  O31  1  0.93228228  0.14037041  0.34286225  1
  O  O32  1  0.58448506  0.64037041  0.84286225  1
  O  O33  1  0.43228228  0.84286225  0.64037041  1
  O  O34  1  0.91551494  0.65713775  0.85962959  1
  O  O35  1  0.06771772  0.85962959  0.65713775  1
  O  O36  1  0.41017636  0.10361392  0.15565608  1
  O  O37  1  0.83055364  0.15565608  0.10361392  1
  O  O38  1  0.08982364  0.34434392  0.39638608  1
  O  O39  1  0.66944636  0.39638608  0.34434392  1
  O  O40  1  0.58982364  0.89638608  0.84434392  1
  O  O41  1  0.16944636  0.84434392  0.89638608  1
  O  O42  1  0.91017636  0.65565608  0.60361392  1
  O  O43  1  0.33055364  0.60361392  0.65565608  1
  O  O44  1  0.77682367  0.89710077  0.13648774  1
  O  O45  1  0.68958782  0.13648774  0.89710077  1
  O  O46  1  0.72317633  0.36351226  0.60289923  1
  O  O47  1  0.81041218  0.60289923  0.36351226  1
  O  O48  1  0.22317633  0.10289923  0.86351226  1
  O  O49  1  0.31041218  0.86351226  0.10289923  1
  O  O50  1  0.27682367  0.63648774  0.39710077  1
  O  O51  1  0.18958782  0.39710077  0.63648774  1
