# generated using pymatgen
data_Cs4Mn2PdF12
_symmetry_space_group_name_H-M   'P 1'
_cell_length_a   8.73756554
_cell_length_b   8.73757914
_cell_length_c   11.65164829
_cell_angle_alpha   112.02177141
_cell_angle_beta   112.02179724
_cell_angle_gamma   90.00011882
_symmetry_Int_Tables_number   1
_chemical_formula_structural   Cs4Mn2PdF12
_chemical_formula_sum   'Cs8 Mn4 Pd2 F24'
_cell_volume   754.18211000
_cell_formula_units_Z   2
loop_
 _symmetry_equiv_pos_site_id
 _symmetry_equiv_pos_as_xyz
  1  'x, y, z'
loop_
 _atom_site_type_symbol
 _atom_site_label
 _atom_site_symmetry_multiplicity
 _atom_site_fract_x
 _atom_site_fract_y
 _atom_site_fract_z
 _atom_site_occupancy
  Cs  Cs0  1  0.50000856  0.25827945  0.49999011  1
  Cs  Cs1  1  0.49999378  0.74172438  0.50001198  1
  Cs  Cs2  1  0.25827585  0.50000656  0.99998863  1
  Cs  Cs3  1  0.25827321  0.00001065  0.99999109  1
  Cs  Cs4  1  0.00000900  0.25827460  0.49999134  1
  Cs  Cs5  1  0.99999123  0.74172502  0.50000950  1
  Cs  Cs6  1  0.74172266  0.49999316  0.00000913  1
  Cs  Cs7  1  0.74172552  0.99998938  0.00000867  1
  Mn  Mn8  1  0.62769540  0.87769167  0.25540121  1
  Mn  Mn9  1  0.87770112  0.62768962  0.75539331  1
  Mn  Mn10  1  0.37231559  0.12229921  0.74461547  1
  Mn  Mn11  1  0.12229814  0.37231509  0.24460716  1
  Pd  Pd12  1  0.12497437  0.87502259  0.24999988  1
  Pd  Pd13  1  0.87502372  0.12497822  0.74999907  1
  F  F14  1  0.35797114  0.87574803  0.25149934  1
  F  F15  1  0.87574929  0.35797119  0.75149835  1
  F  F16  1  0.87573135  0.89353052  0.75151395  1
  F  F17  1  0.89353102  0.87573118  0.25151714  1
  F  F18  1  0.64202941  0.12425338  0.74850205  1
  F  F19  1  0.12425262  0.64203030  0.24850052  1
  F  F20  1  0.12426862  0.10646869  0.24848536  1
  F  F21  1  0.10646895  0.12427100  0.74848379  1
  F  F22  1  0.33502358  0.37221942  0.24445988  1
  F  F23  1  0.37221831  0.33503099  0.74446205  1
  F  F24  1  0.37225875  0.90940512  0.74447777  1
  F  F25  1  0.90939809  0.37225961  0.24447416  1
  F  F26  1  0.66497351  0.62778225  0.75553606  1
  F  F27  1  0.62778064  0.66496735  0.25553649  1
  F  F28  1  0.62774255  0.09059326  0.25552349  1
  F  F29  1  0.09059945  0.62774286  0.75552298  1
  F  F30  1  0.72269299  0.97270184  0.44535783  1
  F  F31  1  0.97270546  0.72269534  0.94535826  1
  F  F32  1  0.27730716  0.02729925  0.55464428  1
  F  F33  1  0.02729062  0.27730277  0.05463532  1
  F  F34  1  0.53231377  0.78231521  0.06461832  1
  F  F35  1  0.78232212  0.53231599  0.56461724  1
  F  F36  1  0.46768659  0.21767963  0.93538253  1
  F  F37  1  0.21767588  0.46768521  0.43537628  1
