# generated using pymatgen
data_Rb4Mo5H4Se2O23
_symmetry_space_group_name_H-M   'P 1'
_cell_length_a   10.46502827
_cell_length_b   11.37207696
_cell_length_c   12.45882751
_cell_angle_alpha   104.51984568
_cell_angle_beta   90.00000000
_cell_angle_gamma   117.39481561
_symmetry_Int_Tables_number   1
_chemical_formula_structural   Rb4Mo5H4Se2O23
_chemical_formula_sum   'Rb8 Mo10 H8 Se4 O46'
_cell_volume   1262.86142778
_cell_formula_units_Z   2
loop_
 _symmetry_equiv_pos_site_id
 _symmetry_equiv_pos_as_xyz
  1  'x, y, z'
loop_
 _atom_site_type_symbol
 _atom_site_label
 _atom_site_symmetry_multiplicity
 _atom_site_fract_x
 _atom_site_fract_y
 _atom_site_fract_z
 _atom_site_occupancy
  Rb  Rb0  1  0.02472947  0.35407088  0.76859516  1
  Rb  Rb1  1  0.67065859  0.64592912  0.23140484  1
  Rb  Rb2  1  0.66468824  0.02109496  0.24815526  1
  Rb  Rb3  1  0.64359328  0.97890504  0.75184474  1
  Rb  Rb4  1  0.25808703  0.64088644  0.09562415  1
  Rb  Rb5  1  0.61720059  0.35911356  0.90437585  1
  Rb  Rb6  1  0.07885254  0.37408605  0.40637642  1
  Rb  Rb7  1  0.70476649  0.62591395  0.59362358  1
  Mo  Mo8  1  0.30880060  1.00000000  1.00000000  1
  Mo  Mo9  1  0.26180851  0.28913337  0.09862031  1
  Mo  Mo10  1  0.97267514  0.71086663  0.90137969  1
  Mo  Mo11  1  0.90407605  0.19403737  0.03554794  1
  Mo  Mo12  1  0.71003868  0.80596263  0.96445206  1
  Mo  Mo13  1  0.35140068  0.28366904  0.61788963  1
  Mo  Mo14  1  0.06773163  0.71633096  0.38211037  1
  Mo  Mo15  1  0.62090839  0.19460526  0.55369549  1
  Mo  Mo16  1  0.42630313  0.80539474  0.44630451  1
  Mo  Mo17  1  0.01818579  0.00000000  0.50000000  1
  H  H18  1  0.05212127  0.59169168  0.63776532  1
  H  H19  1  0.46042959  0.40830831  0.36223468  1
  H  H20  1  0.21382817  0.62762833  0.63989807  1
  H  H21  1  0.58619984  0.37237167  0.36010193  1
  H  H22  1  0.38336261  0.61192361  0.83209176  1
  H  H23  1  0.77143900  0.38807639  0.16790824  1
  H  H24  1  0.28707641  0.68426409  0.84153046  1
  H  H25  1  0.60281232  0.31573591  0.15846954  1
  Se  Se26  1  0.02550959  0.98483207  0.16731243  1
  Se  Se27  1  0.04067752  0.01516793  0.83268757  1
  Se  Se28  1  0.31478864  0.03872006  0.33933230  1
  Se  Se29  1  0.27606858  0.96127994  0.66066770  1
  O  O30  1  0.11660074  0.55028128  0.63140393  1
  O  O31  1  0.56631945  0.44971872  0.36859607  1
  O  O32  1  0.84293409  0.88793859  0.14255626  1
  O  O33  1  0.95499550  0.11206141  0.85744374  1
  O  O34  1  0.29144372  0.60538189  0.85514244  1
  O  O35  1  0.68606183  0.39461811  0.14485756  1
  O  O36  1  0.08659402  0.89209327  0.06615233  1
  O  O37  1  0.19450075  0.10790673  0.93384767  1
  O  O38  1  0.04625051  0.12092288  0.11353216  1
  O  O39  1  0.92532763  0.87907712  0.88646784  1
  O  O40  1  0.49669116  0.13830484  0.37542719  1
  O  O41  1  0.35838632  0.86169516  0.62457281  1
  O  O42  1  0.24565496  0.11630259  0.44505841  1
  O  O43  1  0.12935237  0.88369741  0.55494159  1
  O  O44  1  0.28571193  0.88853524  0.37443445  1
  O  O45  1  0.39717669  0.11146476  0.62556555  1
  O  O46  1  0.10958251  0.32480509  0.04443892  1
  O  O47  1  0.78477742  0.67519491  0.95556108  1
  O  O48  1  0.33725450  0.16378929  0.11850599  1
  O  O49  1  0.17346521  0.83621071  0.88149401  1
  O  O50  1  0.82541317  0.25569960  0.95589759  1
  O  O51  1  0.56971356  0.74430040  0.04410241  1
  O  O52  1  0.40520609  0.40245628  0.04361048  1
  O  O53  1  0.00274982  0.59754372  0.95638952  1
  O  O54  1  0.14810197  0.15213026  0.62856051  1
  O  O55  1  0.99597171  0.84786974  0.37143949  1
  O  O56  1  0.32604699  0.39629081  0.55853616  1
  O  O57  1  0.92975618  0.60370919  0.44146384  1
  O  O58  1  0.86900025  0.25314451  0.17140316  1
  O  O59  1  0.61585574  0.74685549  0.82859684  1
  O  O60  1  0.54866882  0.32762704  0.57807221  1
  O  O61  1  0.22104177  0.67237296  0.42192779  1
  O  O62  1  0.56673404  1.00000000  0.50000000  1
  O  O63  1  0.70406706  0.22969259  0.68943667  1
  O  O64  1  0.47437447  0.77030741  0.31056333  1
  O  O65  1  0.95667438  0.08266105  0.42855263  1
  O  O66  1  0.87401333  0.91733895  0.57144737  1
  O  O67  1  0.44611634  0.06808713  0.91857111  1
  O  O68  1  0.37802921  0.93191287  0.08142889  1
  O  O69  1  0.28998600  0.37818417  0.24057381  1
  O  O70  1  0.91180183  0.62181583  0.75942619  1
  O  O71  1  0.39757107  0.36921825  0.76044777  1
  O  O72  1  0.02835282  0.63078175  0.23955223  1
  O  O73  1  0.76990989  0.26816073  0.48485554  1
  O  O74  1  0.50174916  0.73183927  0.51514446  1
  O  O75  1  0.75866466  0.00000000  0.00000000  1
