# generated using pymatgen
data_Sb(WBr4)2
_symmetry_space_group_name_H-M   'P 1'
_cell_length_a   11.27942851
_cell_length_b   17.14375296
_cell_length_c   18.33667796
_cell_angle_alpha   117.84092626
_cell_angle_beta   90.00000000
_cell_angle_gamma   90.00000000
_symmetry_Int_Tables_number   1
_chemical_formula_structural   Sb(WBr4)2
_chemical_formula_sum   'Sb8 W16 Br64'
_cell_volume   3135.36097548
_cell_formula_units_Z   8
loop_
 _symmetry_equiv_pos_site_id
 _symmetry_equiv_pos_as_xyz
  1  'x, y, z'
loop_
 _atom_site_type_symbol
 _atom_site_label
 _atom_site_symmetry_multiplicity
 _atom_site_fract_x
 _atom_site_fract_y
 _atom_site_fract_z
 _atom_site_occupancy
  Sb  Sb0  1  0.23780787  0.08914973  0.88688302  1
  Sb  Sb1  1  0.73780787  0.91085027  0.61311698  1
  Sb  Sb2  1  0.76219213  0.91085027  0.11311698  1
  Sb  Sb3  1  0.26219213  0.08914973  0.38688302  1
  Sb  Sb4  1  0.14754471  0.02039469  0.11781810  1
  Sb  Sb5  1  0.64754471  0.97960531  0.38218190  1
  Sb  Sb6  1  0.85245529  0.97960531  0.88218190  1
  Sb  Sb7  1  0.35245529  0.02039469  0.61781810  1
  W  W8  1  0.75250281  0.29392997  0.25914500  1
  W  W9  1  0.25250281  0.70607003  0.24085500  1
  W  W10  1  0.24749719  0.70607003  0.74085500  1
  W  W11  1  0.74749719  0.29392997  0.75914500  1
  W  W12  1  0.80268384  0.45707441  0.33586243  1
  W  W13  1  0.30268384  0.54292559  0.16413757  1
  W  W14  1  0.19731616  0.54292559  0.66413757  1
  W  W15  1  0.69731616  0.45707441  0.83586243  1
  W  W16  1  0.61032615  0.40171984  0.24589127  1
  W  W17  1  0.11032615  0.59828016  0.25410873  1
  W  W18  1  0.38967385  0.59828016  0.75410873  1
  W  W19  1  0.88967385  0.40171984  0.74589127  1
  W  W20  1  0.88757226  0.42425839  0.89402627  1
  W  W21  1  0.38757226  0.57574161  0.60597373  1
  W  W22  1  0.11242774  0.57574161  0.10597373  1
  W  W23  1  0.61242774  0.42425839  0.39402627  1
  Br  Br24  1  0.82231445  0.37644825  0.17070689  1
  Br  Br25  1  0.32231445  0.62355175  0.32929311  1
  Br  Br26  1  0.17768555  0.62355175  0.82929311  1
  Br  Br27  1  0.67768555  0.37644825  0.67070689  1
  Br  Br28  1  0.58017585  0.23236253  0.15646578  1
  Br  Br29  1  0.08017585  0.76763747  0.34353422  1
  Br  Br30  1  0.41982415  0.76763747  0.84353422  1
  Br  Br31  1  0.91982415  0.23236253  0.65646578  1
  Br  Br32  1  0.95335868  0.34077069  0.33454528  1
  Br  Br33  1  0.45335868  0.65922931  0.16545472  1
  Br  Br34  1  0.04664132  0.65922931  0.66545472  1
  Br  Br35  1  0.54664132  0.34077069  0.83454528  1
  Br  Br36  1  0.67845038  0.56593425  0.30457946  1
  Br  Br37  1  0.17845038  0.43406575  0.19542054  1
  Br  Br38  1  0.32154962  0.43406575  0.69542054  1
  Br  Br39  1  0.82154962  0.56593425  0.80457946  1
  Br  Br40  1  0.41683260  0.38216706  0.31221508  1
  Br  Br41  1  0.91683260  0.61783294  0.18778492  1
  Br  Br42  1  0.58316740  0.61783294  0.68778492  1
  Br  Br43  1  0.08316740  0.38216706  0.81221508  1
  Br  Br44  1  0.65683415  0.26421333  0.36781475  1
  Br  Br45  1  0.15683415  0.73578667  0.13218525  1
  Br  Br46  1  0.34316585  0.73578667  0.63218525  1
  Br  Br47  1  0.84316585  0.26421333  0.86781475  1
  Br  Br48  1  0.79323022  0.49236674  0.48999996  1
  Br  Br49  1  0.29323022  0.50763326  0.01000004  1
  Br  Br50  1  0.20676978  0.50763326  0.51000004  1
  Br  Br51  1  0.70676978  0.49236674  0.98999996  1
  Br  Br52  1  0.48785859  0.42549876  0.12867850  1
  Br  Br53  1  0.98785859  0.57450124  0.37132150  1
  Br  Br54  1  0.51214141  0.57450124  0.87132150  1
  Br  Br55  1  0.01214141  0.42549876  0.62867850  1
  Br  Br56  1  0.86085823  0.14661300  0.16355109  1
  Br  Br57  1  0.36085823  0.85338700  0.33644891  1
  Br  Br58  1  0.13914177  0.85338700  0.83644891  1
  Br  Br59  1  0.63914177  0.14661300  0.66355109  1
  Br  Br60  1  0.01919906  0.41840558  0.02724791  1
  Br  Br61  1  0.51919906  0.58159442  0.47275209  1
  Br  Br62  1  0.98080094  0.58159442  0.97275209  1
  Br  Br63  1  0.48080094  0.41840558  0.52724791  1
  Br  Br64  1  0.63038014  0.95760652  0.02760673  1
  Br  Br65  1  0.13038014  0.04239348  0.47239327  1
  Br  Br66  1  0.36961986  0.04239348  0.97239327  1
  Br  Br67  1  0.86961986  0.95760652  0.52760673  1
  Br  Br68  1  0.32634914  0.24167092  0.93753108  1
  Br  Br69  1  0.82634914  0.75832908  0.56246892  1
  Br  Br70  1  0.67365086  0.75832908  0.06246892  1
  Br  Br71  1  0.17365086  0.24167092  0.43753108  1
  Br  Br72  1  0.93608118  0.85925711  0.00543681  1
  Br  Br73  1  0.43608118  0.14074289  0.49456319  1
  Br  Br74  1  0.06391882  0.14074289  0.99456319  1
  Br  Br75  1  0.56391882  0.85925711  0.50543681  1
  Br  Br76  1  0.05094941  0.00747147  0.24065039  1
  Br  Br77  1  0.55094941  0.99252853  0.25934961  1
  Br  Br78  1  0.94905059  0.99252853  0.75934961  1
  Br  Br79  1  0.44905059  0.00747147  0.74065039  1
  Br  Br80  1  0.29480877  0.89556007  0.08318151  1
  Br  Br81  1  0.79480877  0.10443993  0.41681849  1
  Br  Br82  1  0.70519123  0.10443993  0.91681849  1
  Br  Br83  1  0.20519123  0.89556007  0.58318151  1
  Br  Br84  1  0.28793819  0.14628100  0.20696543  1
  Br  Br85  1  0.78793819  0.85371900  0.29303457  1
  Br  Br86  1  0.71206181  0.85371900  0.79303457  1
  Br  Br87  1  0.21206181  0.14628100  0.70696543  1
