# generated using pymatgen
data_NaV2O5
_symmetry_space_group_name_H-M   'P 1'
_cell_length_a   7.29067150
_cell_length_b   10.63918149
_cell_length_c   12.08108578
_cell_angle_alpha   84.05106519
_cell_angle_beta   72.39296991
_cell_angle_gamma   69.96262092
_symmetry_Int_Tables_number   1
_chemical_formula_structural   NaV2O5
_chemical_formula_sum   'Na8 V16 O40'
_cell_volume   839.12600195
_cell_formula_units_Z   8
loop_
 _symmetry_equiv_pos_site_id
 _symmetry_equiv_pos_as_xyz
  1  'x, y, z'
loop_
 _atom_site_type_symbol
 _atom_site_label
 _atom_site_symmetry_multiplicity
 _atom_site_fract_x
 _atom_site_fract_y
 _atom_site_fract_z
 _atom_site_occupancy
  Na  Na0  1  0.21561101  0.56877799  1.00000000  1
  Na  Na1  1  0.03599642  0.92800715  0.50000000  1
  Na  Na2  1  0.71483575  0.57032851  1.00000000  1
  Na  Na3  1  0.53519799  0.92960403  0.50000000  1
  Na  Na4  1  0.46556927  0.06886146  1.00000000  1
  Na  Na5  1  0.28526637  0.42946725  0.50000000  1
  Na  Na6  1  0.96487430  0.07025139  1.00000000  1
  Na  Na7  1  0.78586596  0.42826808  0.50000000  1
  V  V8  1  0.26649907  0.81171374  0.15482477  1
  V  V9  1  0.92178718  0.81171374  0.84517523  1
  V  V10  1  0.48319134  0.68764405  0.34494186  1
  V  V11  1  0.82916461  0.68764405  0.65505814  1
  V  V12  1  0.01829868  0.30959031  0.15435857  1
  V  V13  1  0.67211101  0.30959031  0.84564143  1
  V  V14  1  0.73202024  0.18946711  0.34540753  1
  V  V15  1  0.07851266  0.18946711  0.65459247  1
  V  V16  1  0.77776965  0.79718586  0.14783484  1
  V  V17  1  0.42504449  0.79718586  0.85216516  1
  V  V18  1  0.97248738  0.70178717  0.35185026  1
  V  V19  1  0.32572545  0.70178717  0.64814974  1
  V  V20  1  0.22409305  0.20015141  0.35134326  1
  V  V21  1  0.57575555  0.20015141  0.64865674  1
  V  V22  1  0.52627573  0.29873621  0.14838552  1
  V  V23  1  0.17498806  0.29873621  0.85161448  1
  O  O24  1  0.88212912  0.73788315  0.00237884  1
  O  O25  1  0.37998774  0.73788315  0.99762116  1
  O  O26  1  0.86839392  0.76053151  0.49753812  1
  O  O27  1  0.37107457  0.76053151  0.50246188  1
  O  O28  1  0.13511020  0.23767407  0.99625963  1
  O  O29  1  0.62721573  0.23767407  0.00374037  1
  O  O30  1  0.12345965  0.26070291  0.49622885  1
  O  O31  1  0.61583744  0.26070291  0.50377115  1
  O  O32  1  0.03400488  0.74640813  0.17932144  1
  O  O33  1  0.21958699  0.74640813  0.82067856  1
  O  O34  1  0.71634294  0.75240501  0.32037795  1
  O  O35  1  0.53125204  0.75240501  0.67962205  1
  O  O36  1  0.54320873  0.74262128  0.17745895  1
  O  O37  1  0.71416999  0.74262128  0.82254105  1
  O  O38  1  0.20627892  0.75717235  0.32248991  1
  O  O39  1  0.03654873  0.75717235  0.67751009  1
  O  O40  1  0.29095914  0.24608876  0.17935256  1
  O  O41  1  0.46295210  0.24608876  0.82064744  1
  O  O42  1  0.96458684  0.25649987  0.32227239  1
  O  O43  1  0.77891329  0.25649987  0.67772761  1
  O  O44  1  0.78559685  0.24277232  0.17761108  1
  O  O45  1  0.97163083  0.24277232  0.82238892  1
  O  O46  1  0.45926670  0.25300464  0.32046493  1
  O  O47  1  0.28772866  0.25300464  0.67953507  1
  O  O48  1  0.70141230  0.96084403  0.13371588  1
  O  O49  1  0.33774367  0.96084403  0.86628412  1
  O  O50  1  0.04967675  0.53806368  0.36539161  1
  O  O51  1  0.41225957  0.53806368  0.63460839  1
  O  O52  1  0.19845030  0.97533923  0.13119256  1
  O  O53  1  0.82621046  0.97533923  0.86880744  1
  O  O54  1  0.55073206  0.52386147  0.36774904  1
  O  O55  1  0.92540647  0.52386147  0.63225096  1
  O  O56  1  0.94719426  0.47343387  0.13156976  1
  O  O57  1  0.57937186  0.47343387  0.86843024  1
  O  O58  1  0.29673980  0.03638873  0.36578842  1
  O  O59  1  0.66687147  0.03638873  0.63421158  1
  O  O60  1  0.45355655  0.46256869  0.13326731  1
  O  O61  1  0.08387476  0.46256869  0.86673269  1
  O  O62  1  0.80325718  0.02557752  0.36751321  1
  O  O63  1  0.17116530  0.02557752  0.63248679  1
