# generated using pymatgen
data_CaLaMn2O6
_symmetry_space_group_name_H-M   'P 1'
_cell_length_a   5.54656900
_cell_length_b   7.64861169
_cell_length_c   11.02222607
_cell_angle_alpha   90.00000000
_cell_angle_beta   90.00000000
_cell_angle_gamma   90.00000000
_symmetry_Int_Tables_number   1
_chemical_formula_structural   CaLaMn2O6
_chemical_formula_sum   'Ca4 La4 Mn8 O24'
_cell_volume   467.60198627
_cell_formula_units_Z   4
loop_
 _symmetry_equiv_pos_site_id
 _symmetry_equiv_pos_as_xyz
  1  'x, y, z'
loop_
 _atom_site_type_symbol
 _atom_site_label
 _atom_site_symmetry_multiplicity
 _atom_site_fract_x
 _atom_site_fract_y
 _atom_site_fract_z
 _atom_site_occupancy
  Ca  Ca0  1  0.49685784  0.50000000  0.61651098  1
  Ca  Ca1  1  0.50314216  0.00000000  0.11651098  1
  Ca  Ca2  1  0.99580180  -0.00000000  0.88682555  1
  Ca  Ca3  1  0.00419820  0.50000000  0.38682555  1
  La  La4  1  0.48478609  0.50000000  0.13263179  1
  La  La5  1  0.51521391  -0.00000000  0.63263179  1
  La  La6  1  0.99259304  0.00000000  0.37229349  1
  La  La7  1  0.00740696  0.50000000  0.87229349  1
  Mn  Mn8  1  0.01067903  0.25158567  0.62857430  1
  Mn  Mn9  1  0.01067903  0.74841433  0.62857430  1
  Mn  Mn10  1  0.98932097  0.24841433  0.12857430  1
  Mn  Mn11  1  0.98932097  0.75158567  0.12857430  1
  Mn  Mn12  1  0.50583390  0.24826677  0.87796361  1
  Mn  Mn13  1  0.50583390  0.75173323  0.87796361  1
  Mn  Mn14  1  0.49416610  0.25173323  0.37796361  1
  Mn  Mn15  1  0.49416610  0.74826677  0.37796361  1
  O  O16  1  0.25412734  0.29490208  0.50293239  1
  O  O17  1  0.25412734  0.70509792  0.50293239  1
  O  O18  1  0.74587266  0.20509792  0.00293239  1
  O  O19  1  0.74587266  0.79490208  0.00293239  1
  O  O20  1  0.27782537  0.29557638  0.74675565  1
  O  O21  1  0.27782537  0.70442362  0.74675565  1
  O  O22  1  0.72217463  0.20442362  0.24675565  1
  O  O23  1  0.72217463  0.79557638  0.24675565  1
  O  O24  1  0.21949052  0.28937661  0.25818758  1
  O  O25  1  0.21949052  0.71062339  0.25818758  1
  O  O26  1  0.78050948  0.21062339  0.75818758  1
  O  O27  1  0.78050948  0.78937661  0.75818758  1
  O  O28  1  0.75939426  0.21392965  0.50501453  1
  O  O29  1  0.75939426  0.78607035  0.50501453  1
  O  O30  1  0.24060574  0.28607035  0.00501453  1
  O  O31  1  0.24060574  0.71392965  0.00501453  1
  O  O32  1  0.42703163  -0.00000000  0.39381141  1
  O  O33  1  0.57296837  0.50000000  0.89381141  1
  O  O34  1  0.57766818  0.50000000  0.36850962  1
  O  O35  1  0.42233182  0.00000000  0.86850962  1
  O  O36  1  0.07552703  -0.00000000  0.13648777  1
  O  O37  1  0.92447297  0.50000000  0.63648777  1
  O  O38  1  0.91795532  0.50000000  0.12077328  1
  O  O39  1  0.08204468  0.00000000  0.62077328  1
