# generated using pymatgen
data_Ba7Ga5AgSe15
_symmetry_space_group_name_H-M   'P 1'
_cell_length_a   10.22077167
_cell_length_b   10.22089453
_cell_length_c   19.02052684
_cell_angle_alpha   89.99949675
_cell_angle_beta   90.00100657
_cell_angle_gamma   119.99960722
_symmetry_Int_Tables_number   1
_chemical_formula_structural   Ba7Ga5AgSe15
_chemical_formula_sum   'Ba14 Ga10 Ag2 Se30'
_cell_volume   1720.78846329
_cell_formula_units_Z   2
loop_
 _symmetry_equiv_pos_site_id
 _symmetry_equiv_pos_as_xyz
  1  'x, y, z'
loop_
 _atom_site_type_symbol
 _atom_site_label
 _atom_site_symmetry_multiplicity
 _atom_site_fract_x
 _atom_site_fract_y
 _atom_site_fract_z
 _atom_site_occupancy
  Ba  Ba0  1  0.00000344  0.00000073  0.82118376  1
  Ba  Ba1  1  0.00000270  0.99999927  0.32118376  1
  Ba  Ba2  1  0.64917801  0.72801304  0.51682919  1
  Ba  Ba3  1  0.07883842  0.35082402  0.51682830  1
  Ba  Ba4  1  0.27198590  0.92116493  0.51682816  1
  Ba  Ba5  1  0.92116497  0.27198696  0.01682919  1
  Ba  Ba6  1  0.72801441  0.64917598  0.01682830  1
  Ba  Ba7  1  0.35082096  0.07883507  0.01682816  1
  Ba  Ba8  1  0.57835092  0.97547058  0.70714762  1
  Ba  Ba9  1  0.39713031  0.42164341  0.70714676  1
  Ba  Ba10  1  0.02452448  0.60287902  0.70714760  1
  Ba  Ba11  1  0.60288034  0.02452942  0.20714762  1
  Ba  Ba12  1  0.97548690  0.57835659  0.20714676  1
  Ba  Ba13  1  0.42164546  0.39712098  0.20714760  1
  Ga  Ga14  1  0.66667902  0.33332368  0.57664798  1
  Ga  Ga15  1  0.33335534  0.66667632  0.07664798  1
  Ga  Ga16  1  0.53614491  0.89018456  0.90619702  1
  Ga  Ga17  1  0.35404279  0.46385162  0.90619808  1
  Ga  Ga18  1  0.10981328  0.64595851  0.90619969  1
  Ga  Ga19  1  0.64596035  0.10981544  0.40619702  1
  Ga  Ga20  1  0.89019116  0.53614838  0.40619808  1
  Ga  Ga21  1  0.46385477  0.35404149  0.40619969  1
  Ga  Ga22  1  -0.00000025  -0.00000005  0.62978546  1
  Ga  Ga23  1  -0.00000020  0.00000005  0.12978546  1
  Ag  Ag24  1  0.66669379  0.33330744  0.85629073  1
  Ag  Ag25  1  0.33338635  0.66669256  0.35629073  1
  Se  Se26  1  0.87979863  0.62438636  0.86372979  1
  Se  Se27  1  0.74459782  0.12018667  0.86372843  1
  Se  Se28  1  0.37562009  0.25541583  0.86372748  1
  Se  Se29  1  0.25541227  0.37561364  0.36372979  1
  Se  Se30  1  0.62441116  0.87981333  0.36372843  1
  Se  Se31  1  0.12020427  0.74458417  0.36372748  1
  Se  Se32  1  0.57008829  0.68921717  0.85931842  1
  Se  Se33  1  0.11913027  0.42991370  0.85931758  1
  Se  Se34  1  0.31078124  0.88086914  0.85931780  1
  Se  Se35  1  0.88087111  0.31078283  0.35931842  1
  Se  Se36  1  0.68921657  0.57008630  0.35931758  1
  Se  Se37  1  0.42991210  0.11913086  0.35931780  1
  Se  Se38  1  0.89513050  0.55781360  0.53476148  1
  Se  Se39  1  0.66268786  0.10485767  0.53475900  1
  Se  Se40  1  0.44219557  0.33731554  0.53476467  1
  Se  Se41  1  0.33731689  0.44218640  0.03476148  1
  Se  Se42  1  0.55783020  0.89514233  0.03475900  1
  Se  Se43  1  0.10488002  0.66268446  0.03476467  1
  Se  Se44  1  0.66668370  0.33331655  0.70079381  1
  Se  Se45  1  0.33336715  0.66668345  0.20079381  1
  Se  Se46  1  0.99999838  0.99999922  0.50059473  1
  Se  Se47  1  0.99999916  0.00000078  0.00059473  1
  Se  Se48  1  0.77223504  0.79085614  0.68129881  1
  Se  Se49  1  0.01862418  0.22776388  0.68129868  1
  Se  Se50  1  0.20914191  0.98138012  0.68129997  1
  Se  Se51  1  0.98137890  0.20914386  0.18129881  1
  Se  Se52  1  0.79086031  0.77223612  0.18129868  1
  Se  Se53  1  0.22776178  0.01861988  0.18129997  1
  Se  Se54  1  0.33330538  0.66669467  0.60856901  1
  Se  Se55  1  0.66661070  0.33330533  0.10856901  1
