# generated using pymatgen
data_Na2TbPWO8
_symmetry_space_group_name_H-M   'P 1'
_cell_length_a   6.99085390
_cell_length_b   11.55409827
_cell_length_c   11.55409827
_cell_angle_alpha   64.41969024
_cell_angle_beta   72.39055464
_cell_angle_gamma   72.39055464
_symmetry_Int_Tables_number   1
_chemical_formula_structural   Na2TbPWO8
_chemical_formula_sum   'Na8 Tb4 P4 W4 O32'
_cell_volume   786.13400146
_cell_formula_units_Z   4
loop_
 _symmetry_equiv_pos_site_id
 _symmetry_equiv_pos_as_xyz
  1  'x, y, z'
loop_
 _atom_site_type_symbol
 _atom_site_label
 _atom_site_symmetry_multiplicity
 _atom_site_fract_x
 _atom_site_fract_y
 _atom_site_fract_z
 _atom_site_occupancy
  Na  Na0  1  0.85840216  0.09595572  0.71081647  1
  Na  Na1  1  0.83482565  0.71081647  0.09595572  1
  Na  Na2  1  0.64159784  0.78918353  0.40404428  1
  Na  Na3  1  0.66517435  0.40404428  0.78918353  1
  Na  Na4  1  0.14159784  0.90404428  0.28918353  1
  Na  Na5  1  0.16517435  0.28918353  0.90404428  1
  Na  Na6  1  0.35840216  0.21081647  0.59595572  1
  Na  Na7  1  0.33482565  0.59595572  0.21081647  1
  Tb  Tb8  1  0.75000000  0.82271481  0.67728519  1
  Tb  Tb9  1  0.25000000  0.67728519  0.82271481  1
  Tb  Tb10  1  0.25000000  0.17728519  0.32271481  1
  Tb  Tb11  1  0.75000000  0.32271481  0.17728519  1
  P  P12  1  0.25000000  0.43008132  0.06991868  1
  P  P13  1  0.75000000  0.06991868  0.43008132  1
  P  P14  1  0.75000000  0.56991868  0.93008132  1
  P  P15  1  0.25000000  0.93008132  0.56991868  1
  W  W16  1  0.67875476  0.07124524  0.07124524  1
  W  W17  1  0.82124524  0.42875476  0.42875476  1
  W  W18  1  0.32124524  0.92875476  0.92875476  1
  W  W19  1  0.17875476  0.57124524  0.57124524  1
  O  O20  1  0.16609410  0.57322305  0.06225069  1
  O  O21  1  0.69843215  0.06225069  0.57322305  1
  O  O22  1  0.33390590  0.43774931  0.92677695  1
  O  O23  1  0.80156785  0.92677695  0.43774931  1
  O  O24  1  0.83390590  0.42677695  0.93774931  1
  O  O25  1  0.30156785  0.93774931  0.42677695  1
  O  O26  1  0.66609410  0.56225069  0.07322305  1
  O  O27  1  0.19843215  0.07322305  0.56225069  1
  O  O28  1  0.41509896  0.35997481  0.15693021  1
  O  O29  1  0.56799602  0.15693021  0.35997481  1
  O  O30  1  0.08490104  0.34306979  0.14002519  1
  O  O31  1  0.93200398  0.14002519  0.34306979  1
  O  O32  1  0.58490104  0.64002519  0.84306979  1
  O  O33  1  0.43200398  0.84306979  0.64002519  1
  O  O34  1  0.91509896  0.65693021  0.85997481  1
  O  O35  1  0.06799602  0.85997481  0.65693021  1
  O  O36  1  0.41218450  0.10298738  0.15471355  1
  O  O37  1  0.83011458  0.15471355  0.10298738  1
  O  O38  1  0.08781550  0.34528645  0.39701262  1
  O  O39  1  0.66988542  0.39701262  0.34528645  1
  O  O40  1  0.58781550  0.89701262  0.84528645  1
  O  O41  1  0.16988542  0.84528645  0.89701262  1
  O  O42  1  0.91218450  0.65471355  0.60298738  1
  O  O43  1  0.33011458  0.60298738  0.65471355  1
  O  O44  1  0.77894575  0.89703382  0.13567564  1
  O  O45  1  0.68834478  0.13567564  0.89703382  1
  O  O46  1  0.72105425  0.36432436  0.60296618  1
  O  O47  1  0.81165522  0.60296618  0.36432436  1
  O  O48  1  0.22105425  0.10296618  0.86432436  1
  O  O49  1  0.31165522  0.86432436  0.10296618  1
  O  O50  1  0.27894575  0.63567564  0.39703382  1
  O  O51  1  0.18834478  0.39703382  0.63567564  1
