# generated using pymatgen
data_TbH5(SeO4)2
_symmetry_space_group_name_H-M   'P 1'
_cell_length_a   6.74366334
_cell_length_b   7.11246805
_cell_length_c   17.14561676
_cell_angle_alpha   90.00000000
_cell_angle_beta   90.00000000
_cell_angle_gamma   90.00000000
_symmetry_Int_Tables_number   1
_chemical_formula_structural   TbH5(SeO4)2
_chemical_formula_sum   'Tb4 H20 Se8 O32'
_cell_volume   822.37390617
_cell_formula_units_Z   4
loop_
 _symmetry_equiv_pos_site_id
 _symmetry_equiv_pos_as_xyz
  1  'x, y, z'
loop_
 _atom_site_type_symbol
 _atom_site_label
 _atom_site_symmetry_multiplicity
 _atom_site_fract_x
 _atom_site_fract_y
 _atom_site_fract_z
 _atom_site_occupancy
  Tb  Tb0  1  0.87170573  0.88523783  0.28357341  1
  Tb  Tb1  1  0.62829427  0.11476217  0.78357341  1
  Tb  Tb2  1  0.37170573  0.61476217  0.71642659  1
  Tb  Tb3  1  0.12829427  0.38523783  0.21642659  1
  H  H4  1  0.05609267  0.78524486  0.99518653  1
  H  H5  1  0.44390733  0.21475514  0.49518653  1
  H  H6  1  0.55609267  0.71475514  0.00481347  1
  H  H7  1  0.94390733  0.28524486  0.50481347  1
  H  H8  1  0.96909045  0.57786017  0.39338281  1
  H  H9  1  0.53090955  0.42213983  0.89338281  1
  H  H10  1  0.46909045  0.92213983  0.60661719  1
  H  H11  1  0.03090955  0.07786017  0.10661719  1
  H  H12  1  0.88282353  0.73347655  0.45282053  1
  H  H13  1  0.61717647  0.26652345  0.95282053  1
  H  H14  1  0.38282353  0.76652345  0.54717947  1
  H  H15  1  0.11717647  0.23347655  0.04717947  1
  H  H16  1  0.42287166  0.75231597  0.39911148  1
  H  H17  1  0.07712834  0.24768403  0.89911148  1
  H  H18  1  0.92287166  0.74768403  0.60088852  1
  H  H19  1  0.57712834  0.25231597  0.10088852  1
  H  H20  1  0.30036774  0.58430829  0.43056361  1
  H  H21  1  0.19963226  0.41569171  0.93056361  1
  H  H22  1  0.80036774  0.91569171  0.56943639  1
  H  H23  1  0.69963226  0.08430829  0.06943639  1
  Se  Se24  1  0.65935139  0.38098600  0.27101328  1
  Se  Se25  1  0.84064861  0.61901400  0.77101328  1
  Se  Se26  1  0.15935139  0.11901400  0.72898672  1
  Se  Se27  1  0.34064861  0.88098600  0.22898672  1
  Se  Se28  1  0.85994030  0.68019442  0.09341052  1
  Se  Se29  1  0.64005970  0.31980558  0.59341052  1
  Se  Se30  1  0.35994030  0.81980558  0.90658948  1
  Se  Se31  1  0.14005970  0.18019442  0.40658948  1
  O  O32  1  0.47172509  0.38304202  0.20327562  1
  O  O33  1  0.02827491  0.61695798  0.70327562  1
  O  O34  1  0.97172509  0.11695798  0.79672438  1
  O  O35  1  0.52827491  0.88304202  0.29672438  1
  O  O36  1  0.81666301  0.20768962  0.23606253  1
  O  O37  1  0.68333699  0.79231038  0.73606253  1
  O  O38  1  0.31666301  0.29231038  0.76393747  1
  O  O39  1  0.18333699  0.70768962  0.26393747  1
  O  O40  1  0.81494502  0.56341497  0.23957063  1
  O  O41  1  0.68505498  0.43658503  0.73957063  1
  O  O42  1  0.31494502  0.93658503  0.76042937  1
  O  O43  1  0.18505498  0.06341497  0.26042937  1
  O  O44  1  0.08089512  0.57733112  0.10917641  1
  O  O45  1  0.41910488  0.42266888  0.60917641  1
  O  O46  1  0.58089512  0.92266888  0.89082359  1
  O  O47  1  0.91910488  0.07733112  0.39082359  1
  O  O48  1  0.86549087  0.88837908  0.14491313  1
  O  O49  1  0.63450913  0.11162092  0.64491313  1
  O  O50  1  0.36549087  0.61162092  0.85508687  1
  O  O51  1  0.13450913  0.38837908  0.35508687  1
  O  O52  1  0.91092619  0.77892271  0.99729558  1
  O  O53  1  0.58907381  0.22107729  0.49729558  1
  O  O54  1  0.41092619  0.72107729  0.00270442  1
  O  O55  1  0.08907381  0.27892271  0.50270442  1
  O  O56  1  0.88215364  0.68918865  0.39771719  1
  O  O57  1  0.61784636  0.31081135  0.89771719  1
  O  O58  1  0.38215364  0.81081135  0.60228281  1
  O  O59  1  0.11784636  0.18918865  0.10228281  1
  O  O60  1  0.38022242  0.69186744  0.44757232  1
  O  O61  1  0.11977758  0.30813256  0.94757232  1
  O  O62  1  0.88022242  0.80813256  0.55242768  1
  O  O63  1  0.61977758  0.19186744  0.05242768  1
