# generated using pymatgen
data_BCl
_symmetry_space_group_name_H-M   'P 1'
_cell_length_a   12.59981040
_cell_length_b   12.59981040
_cell_length_c   12.59981040
_cell_angle_alpha   90.00000000
_cell_angle_beta   90.00000000
_cell_angle_gamma   90.00000000
_symmetry_Int_Tables_number   1
_chemical_formula_structural   BCl
_chemical_formula_sum   'B48 Cl48'
_cell_volume   2000.28569867
_cell_formula_units_Z   48
loop_
 _symmetry_equiv_pos_site_id
 _symmetry_equiv_pos_as_xyz
  1  'x, y, z'
loop_
 _atom_site_type_symbol
 _atom_site_label
 _atom_site_symmetry_multiplicity
 _atom_site_fract_x
 _atom_site_fract_y
 _atom_site_fract_z
 _atom_site_occupancy
  B  B0  1  0.40423893  0.07788273  0.44020208  1
  B  B1  1  0.59576107  0.57788273  0.05979792  1
  B  B2  1  0.09576107  0.92211727  0.94020208  1
  B  B3  1  0.90423893  0.42211727  0.55979792  1
  B  B4  1  0.44020208  0.40423893  0.07788273  1
  B  B5  1  0.05979792  0.59576107  0.57788273  1
  B  B6  1  0.94020208  0.09576107  0.92211727  1
  B  B7  1  0.55979792  0.90423893  0.42211727  1
  B  B8  1  0.07788273  0.44020208  0.40423893  1
  B  B9  1  0.57788273  0.05979792  0.59576107  1
  B  B10  1  0.92211727  0.94020208  0.09576107  1
  B  B11  1  0.42211727  0.55979792  0.90423893  1
  B  B12  1  0.59576107  0.92211727  0.55979792  1
  B  B13  1  0.40423893  0.42211727  0.94020208  1
  B  B14  1  0.90423893  0.07788273  0.05979792  1
  B  B15  1  0.09576107  0.57788273  0.44020208  1
  B  B16  1  0.55979792  0.59576107  0.92211727  1
  B  B17  1  0.94020208  0.40423893  0.42211727  1
  B  B18  1  0.05979792  0.90423893  0.07788273  1
  B  B19  1  0.44020208  0.09576107  0.57788273  1
  B  B20  1  0.92211727  0.55979792  0.59576107  1
  B  B21  1  0.42211727  0.94020208  0.40423893  1
  B  B22  1  0.07788273  0.05979792  0.90423893  1
  B  B23  1  0.57788273  0.44020208  0.09576107  1
  B  B24  1  0.03494472  0.36910836  0.52457349  1
  B  B25  1  0.96505528  0.86910836  0.97542651  1
  B  B26  1  0.46505528  0.63089164  0.02457349  1
  B  B27  1  0.53494472  0.13089164  0.47542651  1
  B  B28  1  0.52457349  0.03494472  0.36910836  1
  B  B29  1  0.97542651  0.96505528  0.86910836  1
  B  B30  1  0.02457349  0.46505528  0.63089164  1
  B  B31  1  0.47542651  0.53494472  0.13089164  1
  B  B32  1  0.36910836  0.52457349  0.03494472  1
  B  B33  1  0.86910836  0.97542651  0.96505528  1
  B  B34  1  0.63089164  0.02457349  0.46505528  1
  B  B35  1  0.13089164  0.47542651  0.53494472  1
  B  B36  1  0.96505528  0.63089164  0.47542651  1
  B  B37  1  0.03494472  0.13089164  0.02457349  1
  B  B38  1  0.53494472  0.36910836  0.97542651  1
  B  B39  1  0.46505528  0.86910836  0.52457349  1
  B  B40  1  0.47542651  0.96505528  0.63089164  1
  B  B41  1  0.02457349  0.03494472  0.13089164  1
  B  B42  1  0.97542651  0.53494472  0.36910836  1
  B  B43  1  0.52457349  0.46505528  0.86910836  1
  B  B44  1  0.63089164  0.47542651  0.96505528  1
  B  B45  1  0.13089164  0.02457349  0.03494472  1
  B  B46  1  0.36910836  0.97542651  0.53494472  1
  B  B47  1  0.86910836  0.52457349  0.46505528  1
  Cl  Cl48  1  0.30697047  0.15656271  0.37948521  1
  Cl  Cl49  1  0.69302953  0.65656271  0.12051479  1
  Cl  Cl50  1  0.19302953  0.84343729  0.87948521  1
  Cl  Cl51  1  0.80697047  0.34343729  0.62051479  1
  Cl  Cl52  1  0.37948521  0.30697047  0.15656271  1
  Cl  Cl53  1  0.12051479  0.69302953  0.65656271  1
  Cl  Cl54  1  0.87948521  0.19302953  0.84343729  1
  Cl  Cl55  1  0.62051479  0.80697047  0.34343729  1
  Cl  Cl56  1  0.15656271  0.37948521  0.30697047  1
  Cl  Cl57  1  0.65656271  0.12051479  0.69302953  1
  Cl  Cl58  1  0.84343729  0.87948521  0.19302953  1
  Cl  Cl59  1  0.34343729  0.62051479  0.80697047  1
  Cl  Cl60  1  0.69302953  0.84343729  0.62051479  1
  Cl  Cl61  1  0.30697047  0.34343729  0.87948521  1
  Cl  Cl62  1  0.80697047  0.15656271  0.12051479  1
  Cl  Cl63  1  0.19302953  0.65656271  0.37948521  1
  Cl  Cl64  1  0.62051479  0.69302953  0.84343729  1
  Cl  Cl65  1  0.87948521  0.30697047  0.34343729  1
  Cl  Cl66  1  0.12051479  0.80697047  0.15656271  1
  Cl  Cl67  1  0.37948521  0.19302953  0.65656271  1
  Cl  Cl68  1  0.84343729  0.62051479  0.69302953  1
  Cl  Cl69  1  0.34343729  0.87948521  0.30697047  1
  Cl  Cl70  1  0.15656271  0.12051479  0.80697047  1
  Cl  Cl71  1  0.65656271  0.37948521  0.19302953  1
  Cl  Cl72  1  0.06927183  0.23598021  0.54814362  1
  Cl  Cl73  1  0.93072817  0.73598021  0.95185638  1
  Cl  Cl74  1  0.43072817  0.76401979  0.04814362  1
  Cl  Cl75  1  0.56927183  0.26401979  0.45185638  1
  Cl  Cl76  1  0.54814362  0.06927183  0.23598021  1
  Cl  Cl77  1  0.95185638  0.93072817  0.73598021  1
  Cl  Cl78  1  0.04814362  0.43072817  0.76401979  1
  Cl  Cl79  1  0.45185638  0.56927183  0.26401979  1
  Cl  Cl80  1  0.23598021  0.54814362  0.06927183  1
  Cl  Cl81  1  0.73598021  0.95185638  0.93072817  1
  Cl  Cl82  1  0.76401979  0.04814362  0.43072817  1
  Cl  Cl83  1  0.26401979  0.45185638  0.56927183  1
  Cl  Cl84  1  0.93072817  0.76401979  0.45185638  1
  Cl  Cl85  1  0.06927183  0.26401979  0.04814362  1
  Cl  Cl86  1  0.56927183  0.23598021  0.95185638  1
  Cl  Cl87  1  0.43072817  0.73598021  0.54814362  1
  Cl  Cl88  1  0.45185638  0.93072817  0.76401979  1
  Cl  Cl89  1  0.04814362  0.06927183  0.26401979  1
  Cl  Cl90  1  0.95185638  0.56927183  0.23598021  1
  Cl  Cl91  1  0.54814362  0.43072817  0.73598021  1
  Cl  Cl92  1  0.76401979  0.45185638  0.93072817  1
  Cl  Cl93  1  0.26401979  0.04814362  0.06927183  1
  Cl  Cl94  1  0.23598021  0.95185638  0.56927183  1
  Cl  Cl95  1  0.73598021  0.54814362  0.43072817  1
