# generated using pymatgen
data_Nd2Co5B2
_symmetry_space_group_name_H-M   'P 1'
_cell_length_a   5.18205438
_cell_length_b   5.18205438
_cell_length_c   20.10794056
_cell_angle_alpha   90.00000000
_cell_angle_beta   90.00000000
_cell_angle_gamma   120.01341796
_symmetry_Int_Tables_number   1
_chemical_formula_structural   Nd2Co5B2
_chemical_formula_sum   'Nd8 Co20 B8'
_cell_volume   467.56653580
_cell_formula_units_Z   4
loop_
 _symmetry_equiv_pos_site_id
 _symmetry_equiv_pos_as_xyz
  1  'x, y, z'
loop_
 _atom_site_type_symbol
 _atom_site_label
 _atom_site_symmetry_multiplicity
 _atom_site_fract_x
 _atom_site_fract_y
 _atom_site_fract_z
 _atom_site_occupancy
  Nd  Nd0  1  0.66659636  0.33340364  0.52088453  1
  Nd  Nd1  1  0.33340364  0.66659636  0.47911547  1
  Nd  Nd2  1  0.33340364  0.66659636  0.02088453  1
  Nd  Nd3  1  0.66659636  0.33340364  0.97911547  1
  Nd  Nd4  1  0.66666740  0.33333260  0.67459954  1
  Nd  Nd5  1  0.33333260  0.66666740  0.32540046  1
  Nd  Nd6  1  0.33333260  0.66666740  0.17459954  1
  Nd  Nd7  1  0.66666740  0.33333260  0.82540046  1
  Co  Co8  1  0.00000000  -0.00000000  0.50000000  1
  Co  Co9  1  0.00000000  -0.00000000  -0.00000000  1
  Co  Co10  1  0.16805223  0.33613964  0.75000000  1
  Co  Co11  1  0.16806307  0.83193693  0.75000000  1
  Co  Co12  1  0.66386036  0.83194777  0.75000000  1
  Co  Co13  1  0.83194777  0.66386036  0.25000000  1
  Co  Co14  1  0.83193693  0.16806307  0.25000000  1
  Co  Co15  1  0.33613964  0.16805223  0.25000000  1
  Co  Co16  1  0.16053250  0.32119362  0.60852255  1
  Co  Co17  1  0.16049316  0.83950684  0.60854891  1
  Co  Co18  1  0.67880638  0.83946750  0.60852255  1
  Co  Co19  1  0.83946750  0.67880638  0.39147745  1
  Co  Co20  1  0.83950684  0.16049316  0.39145109  1
  Co  Co21  1  0.32119362  0.16053250  0.39147745  1
  Co  Co22  1  0.83946750  0.67880638  0.10852255  1
  Co  Co23  1  0.83950684  0.16049316  0.10854891  1
  Co  Co24  1  0.32119362  0.16053250  0.10852255  1
  Co  Co25  1  0.16053250  0.32119362  0.89147745  1
  Co  Co26  1  0.16049316  0.83950684  0.89145109  1
  Co  Co27  1  0.67880638  0.83946750  0.89147745  1
  B  B28  1  0.99995356  0.00004644  0.67890347  1
  B  B29  1  0.00004644  0.99995356  0.32109653  1
  B  B30  1  0.00004644  0.99995356  0.17890347  1
  B  B31  1  0.99995356  0.00004644  0.82109653  1
  B  B32  1  0.66667136  0.33332864  0.32539420  1
  B  B33  1  0.33332864  0.66667136  0.67460580  1
  B  B34  1  0.33332864  0.66667136  0.82539420  1
  B  B35  1  0.66667136  0.33332864  0.17460580  1
