# generated using pymatgen
data_Zn3As2(HO)16
_symmetry_space_group_name_H-M   'P 1'
_cell_length_a   4.96334986
_cell_length_b   9.56012741
_cell_length_c   9.56012822
_cell_angle_alpha   87.86757269
_cell_angle_beta   114.60406956
_cell_angle_gamma   114.60406245
_symmetry_Int_Tables_number   1
_chemical_formula_structural   Zn3As2(HO)16
_chemical_formula_sum   'Zn3 As2 H16 O16'
_cell_volume   369.87683397
_cell_formula_units_Z   1
loop_
 _symmetry_equiv_pos_site_id
 _symmetry_equiv_pos_as_xyz
  1  'x, y, z'
loop_
 _atom_site_type_symbol
 _atom_site_label
 _atom_site_symmetry_multiplicity
 _atom_site_fract_x
 _atom_site_fract_y
 _atom_site_fract_z
 _atom_site_occupancy
  Zn  Zn0  1  -0.00000000  -0.00000000  -0.00000000  1
  Zn  Zn1  1  1.00000000  0.62176050  0.37823950  1
  Zn  Zn2  1  0.00000000  0.37823950  0.62176050  1
  As  As3  1  0.73979831  0.68620330  0.68620330  1
  As  As4  1  0.26020169  0.31379670  0.31379670  1
  H  H5  1  0.57440347  0.20446733  0.99403452  1
  H  H6  1  0.42559653  0.00596548  0.79553267  1
  H  H7  1  0.42559653  0.79553267  0.00596548  1
  H  H8  1  0.57440347  0.99403452  0.20446733  1
  H  H9  1  0.99404696  0.48283142  0.18504611  1
  H  H10  1  0.00595304  0.81495389  0.51716858  1
  H  H11  1  0.00595304  0.51716858  0.81495389  1
  H  H12  1  0.99404696  0.18504611  0.48283142  1
  H  H13  1  0.54413371  0.50100413  0.11310639  1
  H  H14  1  0.45586629  0.88689361  0.49899587  1
  H  H15  1  0.45586629  0.49899587  0.88689361  1
  H  H16  1  0.54413371  0.11310639  0.50100413  1
  H  H17  1  0.69804979  0.72421440  0.08426816  1
  H  H18  1  0.30195021  0.91573184  0.27578560  1
  H  H19  1  0.30195021  0.27578560  0.91573184  1
  H  H20  1  0.69804979  0.08426816  0.72421440  1
  O  O21  1  0.00410547  0.83528576  0.83528576  1
  O  O22  1  0.99589453  0.16471424  0.16471424  1
  O  O23  1  0.31474251  0.60936469  0.60936469  1
  O  O24  1  0.68525749  0.39063531  0.39063531  1
  O  O25  1  0.78701651  0.51556398  0.73478527  1
  O  O26  1  0.21298349  0.26521473  0.48443602  1
  O  O27  1  0.21298349  0.48443602  0.26521473  1
  O  O28  1  0.78701651  0.73478527  0.51556398  1
  O  O29  1  0.34117034  0.95236319  0.18170005  1
  O  O30  1  0.65883066  0.81829995  0.04763681  1
  O  O31  1  0.65883066  0.04763681  0.81829995  1
  O  O32  1  0.34117034  0.18170005  0.95236319  1
  O  O33  1  0.22726688  0.42263402  0.85411552  1
  O  O34  1  0.77273312  0.14588448  0.57736598  1
  O  O35  1  0.77273312  0.57736598  0.14588448  1
  O  O36  1  0.22726688  0.85411552  0.42263402  1
