# generated using pymatgen
data_Ba5LiGaN3F5
_symmetry_space_group_name_H-M   'P 1'
_cell_length_a   5.79322357
_cell_length_b   12.35912919
_cell_length_c   15.59964142
_cell_angle_alpha   90.00000000
_cell_angle_beta   90.00000000
_cell_angle_gamma   90.00000000
_symmetry_Int_Tables_number   1
_chemical_formula_structural   Ba5LiGaN3F5
_chemical_formula_sum   'Ba20 Li4 Ga4 N12 F20'
_cell_volume   1116.92182300
_cell_formula_units_Z   4
loop_
 _symmetry_equiv_pos_site_id
 _symmetry_equiv_pos_as_xyz
  1  'x, y, z'
loop_
 _atom_site_type_symbol
 _atom_site_label
 _atom_site_symmetry_multiplicity
 _atom_site_fract_x
 _atom_site_fract_y
 _atom_site_fract_z
 _atom_site_occupancy
  Ba  Ba0  1  0.25000000  0.81694246  0.93527983  1
  Ba  Ba1  1  0.25000000  0.68305754  0.43527983  1
  Ba  Ba2  1  0.75000000  0.18305754  0.06472017  1
  Ba  Ba3  1  0.75000000  0.31694246  0.56472017  1
  Ba  Ba4  1  0.75000000  0.62062637  0.01115171  1
  Ba  Ba5  1  0.75000000  0.87937363  0.51115171  1
  Ba  Ba6  1  0.25000000  0.37937363  0.98884829  1
  Ba  Ba7  1  0.25000000  0.12062637  0.48884829  1
  Ba  Ba8  1  0.75000000  0.03062959  0.84292690  1
  Ba  Ba9  1  0.75000000  0.46937041  0.34292690  1
  Ba  Ba10  1  0.25000000  0.96937041  0.15707310  1
  Ba  Ba11  1  0.25000000  0.53062959  0.65707310  1
  Ba  Ba12  1  0.75000000  0.72150881  0.74467674  1
  Ba  Ba13  1  0.75000000  0.77849119  0.24467674  1
  Ba  Ba14  1  0.25000000  0.27849119  0.25532326  1
  Ba  Ba15  1  0.25000000  0.22150881  0.75532326  1
  Ba  Ba16  1  0.25000000  0.86652425  0.66427018  1
  Ba  Ba17  1  0.25000000  0.63347575  0.16427018  1
  Ba  Ba18  1  0.75000000  0.13347575  0.33572982  1
  Ba  Ba19  1  0.75000000  0.36652425  0.83572982  1
  Li  Li20  1  0.25000000  0.09832257  0.95777146  1
  Li  Li21  1  0.25000000  0.40167743  0.45777146  1
  Li  Li22  1  0.75000000  0.90167743  0.04222854  1
  Li  Li23  1  0.75000000  0.59832257  0.54222854  1
  Ga  Ga24  1  0.25000000  0.57551197  0.85885093  1
  Ga  Ga25  1  0.25000000  0.92448803  0.35885093  1
  Ga  Ga26  1  0.75000000  0.42448803  0.14114907  1
  Ga  Ga27  1  0.75000000  0.07551197  0.64114907  1
  N  N28  1  0.25000000  0.60161116  0.97961008  1
  N  N29  1  0.25000000  0.89838884  0.47961008  1
  N  N30  1  0.75000000  0.39838884  0.02038992  1
  N  N31  1  0.75000000  0.10161116  0.52038992  1
  N  N32  1  0.25000000  0.69721232  0.78164913  1
  N  N33  1  0.25000000  0.80278768  0.28164913  1
  N  N34  1  0.75000000  0.30278768  0.21835087  1
  N  N35  1  0.75000000  0.19721232  0.71835087  1
  N  N36  1  0.25000000  0.42740322  0.81583363  1
  N  N37  1  0.25000000  0.07259678  0.31583363  1
  N  N38  1  0.75000000  0.57259678  0.18416637  1
  N  N39  1  0.75000000  0.92740322  0.68416637  1
  F  F40  1  0.01216158  0.19895441  0.91104118  1
  F  F41  1  0.48783842  0.30104559  0.41104118  1
  F  F42  1  0.51216158  0.80104559  0.08895882  1
  F  F43  1  0.98783842  0.69895441  0.58895882  1
  F  F44  1  0.98783842  0.80104559  0.08895882  1
  F  F45  1  0.51216158  0.69895441  0.58895882  1
  F  F46  1  0.48783842  0.19895441  0.91104118  1
  F  F47  1  0.01216158  0.30104559  0.41104118  1
  F  F48  1  0.00000000  -0.00000000  0.00000000  1
  F  F49  1  0.50000000  0.50000000  0.50000000  1
  F  F50  1  0.50000000  -0.00000000  0.00000000  1
  F  F51  1  0.00000000  0.50000000  0.50000000  1
  F  F52  1  0.75000000  0.81449345  0.90724681  1
  F  F53  1  0.75000000  0.68550655  0.40724681  1
  F  F54  1  0.25000000  0.18550655  0.09275319  1
  F  F55  1  0.25000000  0.31449345  0.59275319  1
  F  F56  1  0.75000000  0.50653374  0.67804362  1
  F  F57  1  0.75000000  0.99346626  0.17804362  1
  F  F58  1  0.25000000  0.49346626  0.32195638  1
  F  F59  1  0.25000000  0.00653374  0.82195638  1
