# generated using pymatgen
data_Ho3GaNi
_symmetry_space_group_name_H-M   'P 1'
_cell_length_a   11.46514429
_cell_length_b   11.46514429
_cell_length_c   14.69425459
_cell_angle_alpha   112.96217744
_cell_angle_beta   112.96217744
_cell_angle_gamma   90.00000000
_symmetry_Int_Tables_number   1
_chemical_formula_structural   Ho3GaNi
_chemical_formula_sum   'Ho42 Ga14 Ni14'
_cell_volume   1610.97473886
_cell_formula_units_Z   14
loop_
 _symmetry_equiv_pos_site_id
 _symmetry_equiv_pos_as_xyz
  1  'x, y, z'
loop_
 _atom_site_type_symbol
 _atom_site_label
 _atom_site_symmetry_multiplicity
 _atom_site_fract_x
 _atom_site_fract_y
 _atom_site_fract_z
 _atom_site_occupancy
  Ho  Ho0  1  0.50591526  0.62203761  0.84610885  1
  Ho  Ho1  1  0.34019359  0.22407124  0.84610885  1
  Ho  Ho2  1  0.84019359  0.12203761  0.84610885  1
  Ho  Ho3  1  0.00591526  0.72407124  0.84610885  1
  Ho  Ho4  1  0.62203761  0.34019359  0.84610885  1
  Ho  Ho5  1  0.22407124  0.50591526  0.84610885  1
  Ho  Ho6  1  0.12203761  0.00591526  0.84610885  1
  Ho  Ho7  1  0.72407124  0.84019359  0.84610885  1
  Ho  Ho8  1  0.49408474  0.37796239  0.15389115  1
  Ho  Ho9  1  0.65980641  0.77592876  0.15389115  1
  Ho  Ho10  1  0.15980641  0.87796239  0.15389115  1
  Ho  Ho11  1  0.99408474  0.27592876  0.15389115  1
  Ho  Ho12  1  0.37796239  0.65980641  0.15389115  1
  Ho  Ho13  1  0.77592876  0.49408474  0.15389115  1
  Ho  Ho14  1  0.87796239  0.99408474  0.15389115  1
  Ho  Ho15  1  0.27592876  0.15980641  0.15389115  1
  Ho  Ho16  1  0.51530267  0.38463852  0.61243751  1
  Ho  Ho17  1  0.09713484  0.22779900  0.61243751  1
  Ho  Ho18  1  0.59713484  0.88463852  0.61243751  1
  Ho  Ho19  1  0.01530267  0.72779900  0.61243751  1
  Ho  Ho20  1  0.38463852  0.09713484  0.61243751  1
  Ho  Ho21  1  0.22779900  0.51530267  0.61243751  1
  Ho  Ho22  1  0.88463852  0.01530267  0.61243751  1
  Ho  Ho23  1  0.72779900  0.59713484  0.61243751  1
  Ho  Ho24  1  0.48469733  0.61536148  0.38756249  1
  Ho  Ho25  1  0.90286516  0.77220100  0.38756249  1
  Ho  Ho26  1  0.40286516  0.11536148  0.38756249  1
  Ho  Ho27  1  0.98469733  0.27220100  0.38756249  1
  Ho  Ho28  1  0.61536148  0.90286516  0.38756249  1
  Ho  Ho29  1  0.77220100  0.48469733  0.38756249  1
  Ho  Ho30  1  0.11536148  0.98469733  0.38756249  1
  Ho  Ho31  1  0.27220100  0.40286516  0.38756249  1
  Ho  Ho32  1  0.65089967  0.15089967  1.00000000  1
  Ho  Ho33  1  0.34910033  0.84910033  0.00000000  1
  Ho  Ho34  1  0.84910033  0.65089967  -0.00000000  1
  Ho  Ho35  1  0.15089967  0.34910033  -0.00000000  1
  Ho  Ho36  1  0.89147942  0.39147942  0.78295884  1
  Ho  Ho37  1  0.39147942  0.89147942  0.78295884  1
  Ho  Ho38  1  0.10852058  0.60852058  0.21704116  1
  Ho  Ho39  1  0.60852058  0.10852058  0.21704116  1
  Ho  Ho40  1  0.75000000  0.25000000  0.50000000  1
  Ho  Ho41  1  0.25000000  0.75000000  0.50000000  1
  Ga  Ga42  1  0.97072409  0.47072409  0.62387563  1
  Ga  Ga43  1  0.65315154  0.15315154  0.62387563  1
  Ga  Ga44  1  0.15315154  0.97072409  0.62387563  1
  Ga  Ga45  1  0.47072409  0.65315154  0.62387563  1
  Ga  Ga46  1  0.02927591  0.52927591  0.37612437  1
  Ga  Ga47  1  0.34684846  0.84684846  0.37612437  1
  Ga  Ga48  1  0.84684846  0.02927591  0.37612437  1
  Ga  Ga49  1  0.52927591  0.34684846  0.37612437  1
  Ga  Ga50  1  0.10503450  0.60503450  0.00000000  1
  Ga  Ga51  1  0.89496550  0.39496550  1.00000000  1
  Ga  Ga52  1  0.39496550  0.10503450  -0.00000000  1
  Ga  Ga53  1  0.60503450  0.89496550  -0.00000000  1
  Ga  Ga54  1  0.50000000  0.50000000  -0.00000000  1
  Ga  Ga55  1  0.00000000  -0.00000000  -0.00000000  1
  Ni  Ni56  1  0.57033010  0.07033010  0.78288501  1
  Ni  Ni57  1  0.21255492  0.71255492  0.78288501  1
  Ni  Ni58  1  0.71255492  0.57033010  0.78288501  1
  Ni  Ni59  1  0.07033010  0.21255492  0.78288501  1
  Ni  Ni60  1  0.42966990  0.92966990  0.21711499  1
  Ni  Ni61  1  0.78744508  0.28744508  0.21711499  1
  Ni  Ni62  1  0.28744508  0.42966990  0.21711499  1
  Ni  Ni63  1  0.92966990  0.78744508  0.21711499  1
  Ni  Ni64  1  0.36031165  0.36031165  0.72062329  1
  Ni  Ni65  1  0.86031165  0.86031165  0.72062329  1
  Ni  Ni66  1  0.63968835  0.63968835  0.27937671  1
  Ni  Ni67  1  0.13968835  0.13968835  0.27937671  1
  Ni  Ni68  1  0.25000000  0.25000000  0.50000000  1
  Ni  Ni69  1  0.75000000  0.75000000  0.50000000  1
