# generated using pymatgen
data_CeB2O4F
_symmetry_space_group_name_H-M   'P 1'
_cell_length_a   7.32593035
_cell_length_b   8.30488032
_cell_length_c   12.72593572
_cell_angle_alpha   90.00000000
_cell_angle_beta   90.00000000
_cell_angle_gamma   90.00000000
_symmetry_Int_Tables_number   1
_chemical_formula_structural   CeB2O4F
_chemical_formula_sum   'Ce8 B16 O32 F8'
_cell_volume   774.25833431
_cell_formula_units_Z   8
loop_
 _symmetry_equiv_pos_site_id
 _symmetry_equiv_pos_as_xyz
  1  'x, y, z'
loop_
 _atom_site_type_symbol
 _atom_site_label
 _atom_site_symmetry_multiplicity
 _atom_site_fract_x
 _atom_site_fract_y
 _atom_site_fract_z
 _atom_site_occupancy
  Ce  Ce0  1  0.24762279  0.61151894  0.47501849  1
  Ce  Ce1  1  0.75237721  0.11151894  0.02498151  1
  Ce  Ce2  1  0.25237721  0.38848106  0.97501849  1
  Ce  Ce3  1  0.74762279  0.88848106  0.52498151  1
  Ce  Ce4  1  0.75237721  0.38848106  0.52498151  1
  Ce  Ce5  1  0.24762279  0.88848106  0.97501849  1
  Ce  Ce6  1  0.74762279  0.61151894  0.02498151  1
  Ce  Ce7  1  0.25237721  0.11151894  0.47501849  1
  B  B8  1  0.34587002  0.65839419  0.17202445  1
  B  B9  1  0.65412998  0.15839419  0.32797555  1
  B  B10  1  0.15412998  0.34160581  0.67202445  1
  B  B11  1  0.84587002  0.84160581  0.82797555  1
  B  B12  1  0.65412998  0.34160581  0.82797555  1
  B  B13  1  0.34587002  0.84160581  0.67202445  1
  B  B14  1  0.84587002  0.65839419  0.32797555  1
  B  B15  1  0.15412998  0.15839419  0.17202445  1
  B  B16  1  0.26103910  0.90875611  0.27138619  1
  B  B17  1  0.73896090  0.40875611  0.22861381  1
  B  B18  1  0.23896090  0.09124389  0.77138619  1
  B  B19  1  0.76103910  0.59124389  0.72861381  1
  B  B20  1  0.73896090  0.09124389  0.72861381  1
  B  B21  1  0.26103910  0.59124389  0.77138619  1
  B  B22  1  0.76103910  0.90875611  0.22861381  1
  B  B23  1  0.23896090  0.40875611  0.27138619  1
  O  O24  1  0.42637703  0.59920910  0.08526133  1
  O  O25  1  0.57362297  0.09920910  0.41473867  1
  O  O26  1  0.07362297  0.40079090  0.58526133  1
  O  O27  1  0.92637703  0.90079090  0.91473867  1
  O  O28  1  0.57362297  0.40079090  0.91473867  1
  O  O29  1  0.42637703  0.90079090  0.58526133  1
  O  O30  1  0.92637703  0.59920910  0.41473867  1
  O  O31  1  0.07362297  0.09920910  0.08526133  1
  O  O32  1  0.31059524  0.82556845  0.17928120  1
  O  O33  1  0.68940476  0.32556845  0.32071880  1
  O  O34  1  0.18940476  0.17443155  0.67928120  1
  O  O35  1  0.81059524  0.67443155  0.82071880  1
  O  O36  1  0.68940476  0.17443155  0.82071880  1
  O  O37  1  0.31059524  0.67443155  0.67928120  1
  O  O38  1  0.81059524  0.82556845  0.32071880  1
  O  O39  1  0.18940476  0.32556845  0.17928120  1
  O  O40  1  0.29447181  0.56871409  0.25956440  1
  O  O41  1  0.70552819  0.06871409  0.24043560  1
  O  O42  1  0.20552819  0.43128591  0.75956440  1
  O  O43  1  0.79447181  0.93128591  0.74043560  1
  O  O44  1  0.70552819  0.43128591  0.74043560  1
  O  O45  1  0.29447181  0.93128591  0.75956440  1
  O  O46  1  0.79447181  0.56871409  0.24043560  1
  O  O47  1  0.20552819  0.06871409  0.25956440  1
  O  O48  1  0.27208690  0.85499001  0.37022417  1
  O  O49  1  0.72791310  0.35499001  0.12977583  1
  O  O50  1  0.22791310  0.14500999  0.87022417  1
  O  O51  1  0.77208690  0.64500999  0.62977583  1
  O  O52  1  0.72791310  0.14500999  0.62977583  1
  O  O53  1  0.27208690  0.64500999  0.87022417  1
  O  O54  1  0.77208690  0.85499001  0.12977583  1
  O  O55  1  0.22791310  0.35499001  0.37022417  1
  F  F56  1  0.06478598  0.63490843  0.04781002  1
  F  F57  1  0.93521402  0.13490843  0.45218998  1
  F  F58  1  0.43521402  0.36509157  0.54781002  1
  F  F59  1  0.56478598  0.86509157  0.95218998  1
  F  F60  1  0.93521402  0.36509157  0.95218998  1
  F  F61  1  0.06478598  0.86509157  0.54781002  1
  F  F62  1  0.56478598  0.63490843  0.45218998  1
  F  F63  1  0.43521402  0.13490843  0.04781002  1
