# generated using pymatgen
data_Dy3InS6
_symmetry_space_group_name_H-M   'P 1'
_cell_length_a   3.85588577
_cell_length_b   13.42820487
_cell_length_c   16.64337306
_cell_angle_alpha   90.00000000
_cell_angle_beta   90.00000000
_cell_angle_gamma   90.00000000
_symmetry_Int_Tables_number   1
_chemical_formula_structural   Dy3InS6
_chemical_formula_sum   'Dy12 In4 S24'
_cell_volume   861.75431364
_cell_formula_units_Z   4
loop_
 _symmetry_equiv_pos_site_id
 _symmetry_equiv_pos_as_xyz
  1  'x, y, z'
loop_
 _atom_site_type_symbol
 _atom_site_label
 _atom_site_symmetry_multiplicity
 _atom_site_fract_x
 _atom_site_fract_y
 _atom_site_fract_z
 _atom_site_occupancy
  Dy  Dy0  1  0.25407167  0.03656252  0.77666814  1
  Dy  Dy1  1  0.25407167  0.96343748  0.22333186  1
  Dy  Dy2  1  0.74592833  0.46343748  0.27666814  1
  Dy  Dy3  1  0.74592833  0.53656252  0.72333186  1
  Dy  Dy4  1  0.26327841  0.24642296  0.61019326  1
  Dy  Dy5  1  0.26327841  0.75357704  0.38980674  1
  Dy  Dy6  1  0.73672159  0.25357704  0.11019326  1
  Dy  Dy7  1  0.73672159  0.74642296  0.88980674  1
  Dy  Dy8  1  0.74726757  0.30903718  0.85650614  1
  Dy  Dy9  1  0.74726757  0.69096282  0.14349386  1
  Dy  Dy10  1  0.25273243  0.19096282  0.35650614  1
  Dy  Dy11  1  0.25273243  0.80903718  0.64349386  1
  In  In12  1  0.75458646  0.00000000  0.50000000  1
  In  In13  1  0.24541354  0.50000000  0.00000000  1
  In  In14  1  0.39203650  0.50000000  0.50000000  1
  In  In15  1  0.60796350  -0.00000000  0.00000000  1
  S  S16  1  0.76874104  0.39658043  0.59339073  1
  S  S17  1  0.76874104  0.60341957  0.40660927  1
  S  S18  1  0.23125896  0.10341957  0.09339073  1
  S  S19  1  0.23125896  0.89658043  0.90660927  1
  S  S20  1  0.24596106  0.30673400  0.98060532  1
  S  S21  1  0.24596106  0.69326600  0.01939468  1
  S  S22  1  0.75403894  0.19326600  0.48060532  1
  S  S23  1  0.75403894  0.80673400  0.51939468  1
  S  S24  1  0.75236295  0.10808110  0.88435758  1
  S  S25  1  0.75236295  0.89191890  0.11564242  1
  S  S26  1  0.24763705  0.39191890  0.38435758  1
  S  S27  1  0.24763705  0.60808110  0.61564242  1
  S  S28  1  0.75893076  0.17888180  0.71692609  1
  S  S29  1  0.75893076  0.82111820  0.28307391  1
  S  S30  1  0.24106924  0.32111820  0.21692609  1
  S  S31  1  0.24106924  0.67888180  0.78307391  1
  S  S32  1  0.24861813  0.38525188  0.75634137  1
  S  S33  1  0.24861813  0.61474812  0.24365863  1
  S  S34  1  0.75138187  0.11474812  0.25634137  1
  S  S35  1  0.75138187  0.88525188  0.74365863  1
  S  S36  1  0.25414485  0.02081172  0.60586498  1
  S  S37  1  0.25414485  0.97918828  0.39413502  1
  S  S38  1  0.74585515  0.47918828  0.10586498  1
  S  S39  1  0.74585515  0.52081172  0.89413502  1
