# generated using pymatgen
data_Na2SrP2H16(S3O4)2
_symmetry_space_group_name_H-M   'P 1'
_cell_length_a   8.84211519
_cell_length_b   8.84211519
_cell_length_c   14.00050060
_cell_angle_alpha   95.53910341
_cell_angle_beta   105.29453766
_cell_angle_gamma   115.43554647
_symmetry_Int_Tables_number   1
_chemical_formula_structural   Na2SrP2H16(S3O4)2
_chemical_formula_sum   'Na4 Sr2 P4 H32 S12 O16'
_cell_volume   925.41706912
_cell_formula_units_Z   2
loop_
 _symmetry_equiv_pos_site_id
 _symmetry_equiv_pos_as_xyz
  1  'x, y, z'
loop_
 _atom_site_type_symbol
 _atom_site_label
 _atom_site_symmetry_multiplicity
 _atom_site_fract_x
 _atom_site_fract_y
 _atom_site_fract_z
 _atom_site_occupancy
  Na  Na0  1  0.50000000  0.50000000  0.50000000  1
  Na  Na1  1  0.50000000  0.00000000  -0.00000000  1
  Na  Na2  1  0.93783858  0.18783858  0.75000000  1
  Na  Na3  1  0.06216142  0.81216142  0.25000000  1
  Sr  Sr4  1  0.49905608  0.74905608  0.75000000  1
  Sr  Sr5  1  0.50094392  0.25094392  0.25000000  1
  P  P6  1  0.10237920  0.96125941  0.54295114  1
  P  P7  1  0.91830827  0.55942807  0.95704886  1
  P  P8  1  0.89762080  0.03874059  0.45704886  1
  P  P9  1  0.08169173  0.44057193  0.04295114  1
  H  H10  1  0.11097724  0.69021715  0.69506111  1
  H  H11  1  0.49515604  0.41591614  0.80493889  1
  H  H12  1  0.88902276  0.30978285  0.30493889  1
  H  H13  1  0.50484396  0.58408386  0.19506111  1
  H  H14  1  0.14338791  0.64209253  0.79862083  1
  H  H15  1  0.34347171  0.34476709  0.70137917  1
  H  H16  1  0.85661209  0.35790747  0.20137917  1
  H  H17  1  0.65652829  0.65523291  0.29862083  1
  H  H18  1  0.53353498  0.03613455  0.62425743  1
  H  H19  1  0.91187712  0.90927754  0.87574257  1
  H  H20  1  0.46646502  0.96386545  0.37574257  1
  H  H21  1  0.08812288  0.09072246  0.12425743  1
  H  H22  1  0.62413943  0.94040027  0.58030125  1
  H  H23  1  0.86009902  0.04383818  0.91969875  1
  H  H24  1  0.37586057  0.05959973  0.41969875  1
  H  H25  1  0.13990098  0.95616182  0.08030125  1
  H  H26  1  0.20138960  0.47153834  0.54928417  1
  H  H27  1  0.42225418  0.65210544  0.95071583  1
  H  H28  1  0.79861040  0.52846166  0.45071583  1
  H  H29  1  0.57774582  0.34789456  0.04928417  1
  H  H30  1  0.25456927  0.64871475  0.52114426  1
  H  H31  1  0.62757048  0.73342500  0.97885574  1
  H  H32  1  0.74543073  0.35128525  0.47885574  1
  H  H33  1  0.37242952  0.26657500  0.02114426  1
  H  H34  1  0.72327431  0.56777444  0.71703965  1
  H  H35  1  0.35073479  0.00623466  0.78296035  1
  H  H36  1  0.27672569  0.43222556  0.28296035  1
  H  H37  1  0.64926521  0.99376534  0.21703965  1
  H  H38  1  0.80676262  0.72969159  0.67180763  1
  H  H39  1  0.55788396  0.13495499  0.82819237  1
  H  H40  1  0.19323738  0.27030841  0.32819237  1
  H  H41  1  0.44211604  0.86504501  0.17180763  1
  S  S42  1  0.04922165  0.73837646  0.45293926  1
  S  S43  1  0.78543720  0.59628239  0.04706074  1
  S  S44  1  0.95077835  0.26162354  0.54706074  1
  S  S45  1  0.21456280  0.40371761  0.95293926  1
  S  S46  1  0.34923405  0.15718490  0.56278022  1
  S  S47  1  0.09440468  0.78645383  0.93721978  1
  S  S48  1  0.65076595  0.84281510  0.43721978  1
  S  S49  1  0.90559532  0.21354617  0.06278022  1
  S  S50  1  0.06943501  0.94054488  0.68118399  1
  S  S51  1  0.75936089  0.38825102  0.81881601  1
  S  S52  1  0.93056499  0.05945512  0.31881601  1
  S  S53  1  0.24063911  0.61174898  0.18118399  1
  O  O54  1  0.16723208  0.62985437  0.73427111  1
  O  O55  1  0.39558326  0.43296097  0.76572889  1
  O  O56  1  0.83276792  0.37014563  0.26572889  1
  O  O57  1  0.60441674  0.56703903  0.23427111  1
  O  O58  1  0.60914597  0.98017247  0.64461986  1
  O  O59  1  0.83555261  0.96452611  0.85538014  1
  O  O60  1  0.39085403  0.01982753  0.35538014  1
  O  O61  1  0.16444739  0.03547389  0.14461986  1
  O  O62  1  0.30823814  0.58111312  0.55462322  1
  O  O63  1  0.52648990  0.75361491  0.94537678  1
  O  O64  1  0.69176186  0.41888688  0.44537678  1
  O  O65  1  0.47351010  0.24638509  0.05462322  1
  O  O66  1  0.69203782  0.64128944  0.67487475  1
  O  O67  1  0.46641469  0.01716307  0.82512525  1
  O  O68  1  0.30796218  0.35871056  0.32512525  1
  O  O69  1  0.53358531  0.98283693  0.17487475  1
