# generated using pymatgen
data_Tb4Al2O9
_symmetry_space_group_name_H-M   'P 1'
_cell_length_a   7.46525017
_cell_length_b   10.59832420
_cell_length_c   11.28477804
_cell_angle_alpha   90.00000000
_cell_angle_beta   108.55355098
_cell_angle_gamma   90.00000000
_symmetry_Int_Tables_number   1
_chemical_formula_structural   Tb4Al2O9
_chemical_formula_sum   'Tb16 Al8 O36'
_cell_volume   846.43798600
_cell_formula_units_Z   4
loop_
 _symmetry_equiv_pos_site_id
 _symmetry_equiv_pos_as_xyz
  1  'x, y, z'
loop_
 _atom_site_type_symbol
 _atom_site_label
 _atom_site_symmetry_multiplicity
 _atom_site_fract_x
 _atom_site_fract_y
 _atom_site_fract_z
 _atom_site_occupancy
  Tb  Tb0  1  0.52419628  0.39004599  0.28432463  1
  Tb  Tb1  1  0.47580372  0.89004599  0.21567537  1
  Tb  Tb2  1  0.47580372  0.60995401  0.71567537  1
  Tb  Tb3  1  0.52419628  0.10995401  0.78432463  1
  Tb  Tb4  1  0.02377407  0.40434032  0.30530747  1
  Tb  Tb5  1  0.97622593  0.90434032  0.19469253  1
  Tb  Tb6  1  0.97622593  0.59565968  0.69469253  1
  Tb  Tb7  1  0.02377407  0.09565968  0.80530747  1
  Tb  Tb8  1  0.33849110  0.37359803  0.93645522  1
  Tb  Tb9  1  0.66150890  0.87359803  0.56354478  1
  Tb  Tb10  1  0.66150890  0.62640197  0.06354478  1
  Tb  Tb11  1  0.33849110  0.12640197  0.43645522  1
  Tb  Tb12  1  0.83807572  0.37815463  0.91665688  1
  Tb  Tb13  1  0.16192428  0.87815463  0.58334312  1
  Tb  Tb14  1  0.16192428  0.62184537  0.08334312  1
  Tb  Tb15  1  0.83807572  0.12184537  0.41665688  1
  Al  Al16  1  0.21894259  0.31999161  0.62727273  1
  Al  Al17  1  0.78105741  0.81999161  0.87272727  1
  Al  Al18  1  0.78105741  0.68000839  0.37272727  1
  Al  Al19  1  0.21894259  0.18000839  0.12727273  1
  Al  Al20  1  0.65439400  0.32337966  0.61345995  1
  Al  Al21  1  0.34560600  0.82337966  0.88654005  1
  Al  Al22  1  0.34560600  0.67662034  0.38654005  1
  Al  Al23  1  0.65439400  0.17662034  0.11345995  1
  O  O24  1  0.79047807  0.26190896  0.24677584  1
  O  O25  1  0.20952193  0.76190896  0.25322416  1
  O  O26  1  0.20952193  0.73809104  0.75322416  1
  O  O27  1  0.79047807  0.23809104  0.74677584  1
  O  O28  1  0.23289781  0.26257651  0.26731100  1
  O  O29  1  0.76710219  0.76257651  0.23268900  1
  O  O30  1  0.76710219  0.73742349  0.73268900  1
  O  O31  1  0.23289781  0.23742349  0.76731100  1
  O  O32  1  0.21276604  0.48150118  0.65723811  1
  O  O33  1  0.78723396  0.98150118  0.84276189  1
  O  O34  1  0.78723396  0.51849882  0.34276189  1
  O  O35  1  0.21276604  0.01849882  0.15723811  1
  O  O36  1  0.07418945  0.26703280  0.48035893  1
  O  O37  1  0.92581055  0.76703280  0.01964107  1
  O  O38  1  0.92581055  0.73296720  0.51964107  1
  O  O39  1  0.07418945  0.23296720  0.98035893  1
  O  O40  1  0.43424869  0.25986239  0.61449493  1
  O  O41  1  0.56575131  0.75986239  0.88550507  1
  O  O42  1  0.56575131  0.74013761  0.38550507  1
  O  O43  1  0.43424869  0.24013761  0.11449493  1
  O  O44  1  0.64153575  0.27079290  0.46285512  1
  O  O45  1  0.35846425  0.77079290  0.03714488  1
  O  O46  1  0.35846425  0.72920710  0.53714488  1
  O  O47  1  0.64153575  0.22920710  0.96285512  1
  O  O48  1  0.69282435  0.48305288  0.65901197  1
  O  O49  1  0.30717565  0.98305288  0.84098803  1
  O  O50  1  0.30717565  0.51694712  0.34098803  1
  O  O51  1  0.69282435  0.01694712  0.15901197  1
  O  O52  1  0.07744264  0.50607014  0.89342194  1
  O  O53  1  0.92255736  0.00607014  0.60657806  1
  O  O54  1  0.92255736  0.49392986  0.10657806  1
  O  O55  1  0.07744264  0.99392986  0.39342194  1
  O  O56  1  0.56506904  0.49168488  0.89309669  1
  O  O57  1  0.43493096  0.99168488  0.60690331  1
  O  O58  1  0.43493096  0.50831512  0.10690331  1
  O  O59  1  0.56506904  0.00831512  0.39309669  1
