# generated using pymatgen
data_BPb3O4F
_symmetry_space_group_name_H-M   'P 1'
_cell_length_a   6.63050032
_cell_length_b   7.77748216
_cell_length_c   12.15854067
_cell_angle_alpha   90.00000000
_cell_angle_beta   90.00000000
_cell_angle_gamma   90.00000000
_symmetry_Int_Tables_number   1
_chemical_formula_structural   BPb3O4F
_chemical_formula_sum   'B4 Pb12 O16 F4'
_cell_volume   626.99889548
_cell_formula_units_Z   4
loop_
 _symmetry_equiv_pos_site_id
 _symmetry_equiv_pos_as_xyz
  1  'x, y, z'
loop_
 _atom_site_type_symbol
 _atom_site_label
 _atom_site_symmetry_multiplicity
 _atom_site_fract_x
 _atom_site_fract_y
 _atom_site_fract_z
 _atom_site_occupancy
  B  B0  1  0.75000000  0.02091689  -0.00000000  1
  B  B1  1  0.25000000  0.97908311  0.50000000  1
  B  B2  1  0.25000000  0.97908311  -0.00000000  1
  B  B3  1  0.75000000  0.02091689  0.50000000  1
  Pb  Pb4  1  0.53033172  0.67052575  0.10480081  1
  Pb  Pb5  1  0.46966828  0.32947425  0.60480081  1
  Pb  Pb6  1  0.96966828  0.67052575  0.89519919  1
  Pb  Pb7  1  0.03033172  0.32947425  0.39519919  1
  Pb  Pb8  1  0.46966828  0.32947425  0.89519919  1
  Pb  Pb9  1  0.53033172  0.67052575  0.39519919  1
  Pb  Pb10  1  0.03033172  0.32947425  0.10480081  1
  Pb  Pb11  1  0.96966828  0.67052575  0.60480081  1
  Pb  Pb12  1  0.56166564  0.10644120  0.25000000  1
  Pb  Pb13  1  0.43833436  0.89355880  0.75000000  1
  Pb  Pb14  1  0.93833436  0.10644120  0.75000000  1
  Pb  Pb15  1  0.06166564  0.89355880  0.25000000  1
  O  O16  1  0.41402535  0.80784075  0.25000000  1
  O  O17  1  0.58597465  0.19215925  0.75000000  1
  O  O18  1  0.08597465  0.80784075  0.75000000  1
  O  O19  1  0.91402535  0.19215925  0.25000000  1
  O  O20  1  0.70294260  0.93230339  0.09589128  1
  O  O21  1  0.29705740  0.06769661  0.59589128  1
  O  O22  1  0.79705740  0.93230339  0.90410872  1
  O  O23  1  0.20294260  0.06769661  0.40410872  1
  O  O24  1  0.29705740  0.06769661  0.90410872  1
  O  O25  1  0.70294260  0.93230339  0.40410872  1
  O  O26  1  0.20294260  0.06769661  0.09589128  1
  O  O27  1  0.79705740  0.93230339  0.59589128  1
  O  O28  1  0.25000000  0.79957647  -0.00000000  1
  O  O29  1  0.75000000  0.20042353  0.50000000  1
  O  O30  1  0.75000000  0.20042353  -0.00000000  1
  O  O31  1  0.25000000  0.79957647  0.50000000  1
  F  F32  1  0.79939190  0.57617390  0.25000000  1
  F  F33  1  0.20060810  0.42382610  0.75000000  1
  F  F34  1  0.70060810  0.57617390  0.75000000  1
  F  F35  1  0.29939190  0.42382610  0.25000000  1
