# generated using pymatgen
data_PrFeSb3
_symmetry_space_group_name_H-M   'P 1'
_cell_length_a   6.18337658
_cell_length_b   12.18688515
_cell_length_c   12.88802393
_cell_angle_alpha   90.00000000
_cell_angle_beta   90.00000000
_cell_angle_gamma   90.00000000
_symmetry_Int_Tables_number   1
_chemical_formula_structural   PrFeSb3
_chemical_formula_sum   'Pr8 Fe8 Sb24'
_cell_volume   971.19122290
_cell_formula_units_Z   8
loop_
 _symmetry_equiv_pos_site_id
 _symmetry_equiv_pos_as_xyz
  1  'x, y, z'
loop_
 _atom_site_type_symbol
 _atom_site_label
 _atom_site_symmetry_multiplicity
 _atom_site_fract_x
 _atom_site_fract_y
 _atom_site_fract_z
 _atom_site_occupancy
  Pr  Pr0  1  0.25000000  0.50000000  0.70275839  1
  Pr  Pr1  1  0.75000000  -0.00000000  0.29724161  1
  Pr  Pr2  1  0.75000000  0.50000000  0.29724161  1
  Pr  Pr3  1  0.25000000  -0.00000000  0.70275839  1
  Pr  Pr4  1  0.22352851  0.25000000  0.30337646  1
  Pr  Pr5  1  0.77647149  0.75000000  0.69662354  1
  Pr  Pr6  1  0.27647149  0.75000000  0.30337646  1
  Pr  Pr7  1  0.72352851  0.25000000  0.69662354  1
  Fe  Fe8  1  0.46306759  0.36191819  0.09892521  1
  Fe  Fe9  1  0.53693241  0.86191819  0.90107479  1
  Fe  Fe10  1  0.03693241  0.63808181  0.09892521  1
  Fe  Fe11  1  0.96306759  0.13808181  0.90107479  1
  Fe  Fe12  1  0.53693241  0.63808181  0.90107479  1
  Fe  Fe13  1  0.46306759  0.13808181  0.09892521  1
  Fe  Fe14  1  0.96306759  0.36191819  0.90107479  1
  Fe  Fe15  1  0.03693241  0.86191819  0.09892521  1
  Sb  Sb16  1  0.25000000  0.50000000  0.97221104  1
  Sb  Sb17  1  0.75000000  0.00000000  0.02778896  1
  Sb  Sb18  1  0.75000000  0.50000000  0.02778896  1
  Sb  Sb19  1  0.25000000  -0.00000000  0.97221104  1
  Sb  Sb20  1  0.23249605  0.25000000  0.78757018  1
  Sb  Sb21  1  0.76750395  0.75000000  0.21242982  1
  Sb  Sb22  1  0.26750395  0.75000000  0.78757018  1
  Sb  Sb23  1  0.73249605  0.25000000  0.21242982  1
  Sb  Sb24  1  0.98694562  0.37614449  0.50270490  1
  Sb  Sb25  1  0.01305438  0.87614449  0.49729510  1
  Sb  Sb26  1  0.51305438  0.62385551  0.50270490  1
  Sb  Sb27  1  0.48694562  0.12385551  0.49729510  1
  Sb  Sb28  1  0.01305438  0.62385551  0.49729510  1
  Sb  Sb29  1  0.98694562  0.12385551  0.50270490  1
  Sb  Sb30  1  0.48694562  0.37614449  0.49729510  1
  Sb  Sb31  1  0.51305438  0.87614449  0.50270490  1
  Sb  Sb32  1  0.25000000  0.50000000  0.21530220  1
  Sb  Sb33  1  0.75000000  -0.00000000  0.78469780  1
  Sb  Sb34  1  0.75000000  0.50000000  0.78469780  1
  Sb  Sb35  1  0.25000000  0.00000000  0.21530220  1
  Sb  Sb36  1  0.61343482  0.25000000  0.94345164  1
  Sb  Sb37  1  0.38656518  0.75000000  0.05654836  1
  Sb  Sb38  1  0.88656518  0.75000000  0.94345164  1
  Sb  Sb39  1  0.11343482  0.25000000  0.05654836  1
