# generated using pymatgen
data_VIn(TeO4)2
_symmetry_space_group_name_H-M   'P 1'
_cell_length_a   5.26543151
_cell_length_b   8.09254995
_cell_length_c   17.02389665
_cell_angle_alpha   94.67449393
_cell_angle_beta   90.00000000
_cell_angle_gamma   90.00000000
_symmetry_Int_Tables_number   1
_chemical_formula_structural   VIn(TeO4)2
_chemical_formula_sum   'V4 In4 Te8 O32'
_cell_volume   722.98844635
_cell_formula_units_Z   4
loop_
 _symmetry_equiv_pos_site_id
 _symmetry_equiv_pos_as_xyz
  1  'x, y, z'
loop_
 _atom_site_type_symbol
 _atom_site_label
 _atom_site_symmetry_multiplicity
 _atom_site_fract_x
 _atom_site_fract_y
 _atom_site_fract_z
 _atom_site_occupancy
  V  V0  1  0.20297784  0.85658780  0.57437818  1
  V  V1  1  0.29702216  0.35658780  0.07437818  1
  V  V2  1  0.79702216  0.14341220  0.42562182  1
  V  V3  1  0.70297784  0.64341220  0.92562182  1
  In  In4  1  0.72298590  0.65380772  0.67425760  1
  In  In5  1  0.77701410  0.15380772  0.17425760  1
  In  In6  1  0.27701410  0.34619228  0.32574240  1
  In  In7  1  0.22298590  0.84619228  0.82574240  1
  Te  Te8  1  0.24501097  0.43616138  0.77779045  1
  Te  Te9  1  0.25498903  0.93616138  0.27779045  1
  Te  Te10  1  0.75498903  0.56383862  0.22220955  1
  Te  Te11  1  0.74501097  0.06383862  0.72220955  1
  Te  Te12  1  0.14067799  0.36218413  0.56925642  1
  Te  Te13  1  0.35932201  0.86218413  0.06925642  1
  Te  Te14  1  0.85932201  0.63781587  0.43074358  1
  Te  Te15  1  0.64067799  0.13781587  0.93074358  1
  O  O16  1  0.53231741  0.44741493  0.71261237  1
  O  O17  1  0.96768259  0.94741493  0.21261237  1
  O  O18  1  0.46768259  0.55258507  0.28738763  1
  O  O19  1  0.03231741  0.05258507  0.78738763  1
  O  O20  1  0.89508346  0.53660935  0.56973349  1
  O  O21  1  0.60491654  0.03660935  0.06973349  1
  O  O22  1  0.10491654  0.46339065  0.43026651  1
  O  O23  1  0.39508346  0.96339065  0.93026651  1
  O  O24  1  0.93125887  0.87969980  0.64161972  1
  O  O25  1  0.56874113  0.37969980  0.14161972  1
  O  O26  1  0.06874113  0.12030020  0.35838028  1
  O  O27  1  0.43125887  0.62030020  0.85838028  1
  O  O28  1  0.56632072  0.86426516  0.74814301  1
  O  O29  1  0.93367928  0.36426516  0.24814301  1
  O  O30  1  0.43367928  0.13573484  0.25185699  1
  O  O31  1  0.06632072  0.63573484  0.75185699  1
  O  O32  1  0.39765561  0.69619928  0.59677602  1
  O  O33  1  0.10234439  0.19619928  0.09677602  1
  O  O34  1  0.60234439  0.30380072  0.40322398  1
  O  O35  1  0.89765561  0.80380072  0.90322398  1
  O  O36  1  0.06135525  0.31731793  0.67693793  1
  O  O37  1  0.43864475  0.81731793  0.17693793  1
  O  O38  1  0.93864475  0.68268207  0.32306207  1
  O  O39  1  0.56135525  0.18268207  0.82306207  1
  O  O40  1  0.91290054  0.18818833  0.52784970  1
  O  O41  1  0.58709946  0.68818833  0.02784970  1
  O  O42  1  0.08709946  0.81181167  0.47215030  1
  O  O43  1  0.41290054  0.31181167  0.97215030  1
  O  O44  1  0.36808802  0.03003268  0.58315481  1
  O  O45  1  0.13191198  0.53003268  0.08315481  1
  O  O46  1  0.63191198  0.96996732  0.41684519  1
  O  O47  1  0.86808802  0.46996732  0.91684519  1
