# generated using pymatgen
data_BaLu2NiO5
_symmetry_space_group_name_H-M   'P 1'
_cell_length_a   5.65254828
_cell_length_b   6.97120162
_cell_length_c   12.17122345
_cell_angle_alpha   90.00000000
_cell_angle_beta   90.00000000
_cell_angle_gamma   90.00000000
_symmetry_Int_Tables_number   1
_chemical_formula_structural   BaLu2NiO5
_chemical_formula_sum   'Ba4 Lu8 Ni4 O20'
_cell_volume   479.60771397
_cell_formula_units_Z   4
loop_
 _symmetry_equiv_pos_site_id
 _symmetry_equiv_pos_as_xyz
  1  'x, y, z'
loop_
 _atom_site_type_symbol
 _atom_site_label
 _atom_site_symmetry_multiplicity
 _atom_site_fract_x
 _atom_site_fract_y
 _atom_site_fract_z
 _atom_site_occupancy
  Ba  Ba0  1  0.25000000  0.57837356  0.40268612  1
  Ba  Ba1  1  0.25000000  0.92162644  0.90268612  1
  Ba  Ba2  1  0.75000000  0.42162644  0.59731388  1
  Ba  Ba3  1  0.75000000  0.07837356  0.09731388  1
  Lu  Lu4  1  0.25000000  0.37742722  0.79166054  1
  Lu  Lu5  1  0.25000000  0.12257278  0.29166054  1
  Lu  Lu6  1  0.75000000  0.62257278  0.20833946  1
  Lu  Lu7  1  0.75000000  0.87742722  0.70833946  1
  Lu  Lu8  1  0.25000000  0.10000328  0.57376152  1
  Lu  Lu9  1  0.25000000  0.39999672  0.07376152  1
  Lu  Lu10  1  0.75000000  0.89999672  0.42623848  1
  Lu  Lu11  1  0.75000000  0.60000328  0.92623848  1
  Ni  Ni12  1  0.25000000  0.80501421  0.15608406  1
  Ni  Ni13  1  0.25000000  0.69498579  0.65608406  1
  Ni  Ni14  1  0.75000000  0.19498579  0.84391594  1
  Ni  Ni15  1  0.75000000  0.30501421  0.34391594  1
  O  O16  1  0.99863248  0.33419257  0.93464182  1
  O  O17  1  0.50136752  0.16580743  0.43464182  1
  O  O18  1  0.49863248  0.66580743  0.06535818  1
  O  O19  1  0.00136752  0.83419257  0.56535818  1
  O  O20  1  0.00136752  0.66580743  0.06535818  1
  O  O21  1  0.49863248  0.83419257  0.56535818  1
  O  O22  1  0.50136752  0.33419257  0.93464182  1
  O  O23  1  0.99863248  0.16580743  0.43464182  1
  O  O24  1  0.49882309  0.13440643  0.72495280  1
  O  O25  1  0.00117691  0.36559357  0.22495280  1
  O  O26  1  0.99882309  0.86559357  0.27504720  1
  O  O27  1  0.50117691  0.63440643  0.77504720  1
  O  O28  1  0.50117691  0.86559357  0.27504720  1
  O  O29  1  0.99882309  0.63440643  0.77504720  1
  O  O30  1  0.00117691  0.13440643  0.72495280  1
  O  O31  1  0.49882309  0.36559357  0.22495280  1
  O  O32  1  0.25000000  0.42060133  0.60455888  1
  O  O33  1  0.25000000  0.07939867  0.10455888  1
  O  O34  1  0.75000000  0.57939867  0.39544112  1
  O  O35  1  0.75000000  0.92060133  0.89544112  1
