# generated using pymatgen
data_Y5(NiTe)2
_symmetry_space_group_name_H-M   'P 1'
_cell_length_a   4.04513415
_cell_length_b   14.46063394
_cell_length_c   15.81205146
_cell_angle_alpha   90.00000000
_cell_angle_beta   90.00000000
_cell_angle_gamma   90.00000000
_symmetry_Int_Tables_number   1
_chemical_formula_structural   Y5(NiTe)2
_chemical_formula_sum   'Y20 Ni8 Te8'
_cell_volume   924.92917868
_cell_formula_units_Z   4
loop_
 _symmetry_equiv_pos_site_id
 _symmetry_equiv_pos_as_xyz
  1  'x, y, z'
loop_
 _atom_site_type_symbol
 _atom_site_label
 _atom_site_symmetry_multiplicity
 _atom_site_fract_x
 _atom_site_fract_y
 _atom_site_fract_z
 _atom_site_occupancy
  Y  Y0  1  0.75000000  0.35041998  0.24063555  1
  Y  Y1  1  0.75000000  0.85041998  0.25936445  1
  Y  Y2  1  0.25000000  0.64958002  0.75936445  1
  Y  Y3  1  0.25000000  0.14958002  0.74063555  1
  Y  Y4  1  0.75000000  0.61487638  0.31025069  1
  Y  Y5  1  0.75000000  0.11487638  0.18974931  1
  Y  Y6  1  0.25000000  0.38512362  0.68974931  1
  Y  Y7  1  0.25000000  0.88512362  0.81025069  1
  Y  Y8  1  0.75000000  0.61823031  0.94674586  1
  Y  Y9  1  0.75000000  0.11823031  0.55325414  1
  Y  Y10  1  0.25000000  0.38176969  0.05325414  1
  Y  Y11  1  0.25000000  0.88176969  0.44674586  1
  Y  Y12  1  0.75000000  0.29214675  0.87455281  1
  Y  Y13  1  0.75000000  0.79214675  0.62544719  1
  Y  Y14  1  0.25000000  0.70785325  0.12544719  1
  Y  Y15  1  0.25000000  0.20785325  0.37455281  1
  Y  Y16  1  0.75000000  0.36145058  0.50261543  1
  Y  Y17  1  0.75000000  0.86145058  0.99738457  1
  Y  Y18  1  0.25000000  0.63854942  0.49738457  1
  Y  Y19  1  0.25000000  0.13854942  0.00261543  1
  Ni  Ni20  1  0.75000000  0.75969136  0.82215833  1
  Ni  Ni21  1  0.75000000  0.25969136  0.67784167  1
  Ni  Ni22  1  0.25000000  0.24030864  0.17784167  1
  Ni  Ni23  1  0.25000000  0.74030864  0.32215833  1
  Ni  Ni24  1  0.75000000  0.25271022  0.06607607  1
  Ni  Ni25  1  0.75000000  0.75271022  0.43392393  1
  Ni  Ni26  1  0.25000000  0.74728978  0.93392393  1
  Ni  Ni27  1  0.25000000  0.24728978  0.56607607  1
  Te  Te28  1  0.75000000  0.53405607  0.12773546  1
  Te  Te29  1  0.75000000  0.03405607  0.37226454  1
  Te  Te30  1  0.25000000  0.46594393  0.87226454  1
  Te  Te31  1  0.25000000  0.96594393  0.62773546  1
  Te  Te32  1  0.75000000  0.54718016  0.62897788  1
  Te  Te33  1  0.75000000  0.04718016  0.87102212  1
  Te  Te34  1  0.25000000  0.45281984  0.37102212  1
  Te  Te35  1  0.25000000  0.95281984  0.12897788  1
