# generated using pymatgen
data_Pr5(SiN3)3
_symmetry_space_group_name_H-M   'P 1'
_cell_length_a   7.78838726
_cell_length_b   7.78838726
_cell_length_c   16.01169879
_cell_angle_alpha   90.00000000
_cell_angle_beta   90.00000000
_cell_angle_gamma   93.78336508
_symmetry_Int_Tables_number   1
_chemical_formula_structural   Pr5(SiN3)3
_chemical_formula_sum   'Pr20 Si12 N36'
_cell_volume   969.13657023
_cell_formula_units_Z   4
loop_
 _symmetry_equiv_pos_site_id
 _symmetry_equiv_pos_as_xyz
  1  'x, y, z'
loop_
 _atom_site_type_symbol
 _atom_site_label
 _atom_site_symmetry_multiplicity
 _atom_site_fract_x
 _atom_site_fract_y
 _atom_site_fract_z
 _atom_site_occupancy
  Pr  Pr0  1  0.51188038  0.48811962  0.16502839  1
  Pr  Pr1  1  0.48811962  0.51188038  0.83497161  1
  Pr  Pr2  1  0.98811962  0.01188038  0.66502839  1
  Pr  Pr3  1  0.01188038  0.98811962  0.33497161  1
  Pr  Pr4  1  0.03122663  0.54748488  0.13056055  1
  Pr  Pr5  1  0.54748488  0.03122663  0.86943945  1
  Pr  Pr6  1  0.04748488  0.53122663  0.63056055  1
  Pr  Pr7  1  0.53122663  0.04748488  0.36943945  1
  Pr  Pr8  1  0.96877337  0.45251512  0.86943945  1
  Pr  Pr9  1  0.45251512  0.96877337  0.13056055  1
  Pr  Pr10  1  0.95251512  0.46877337  0.36943945  1
  Pr  Pr11  1  0.46877337  0.95251512  0.63056055  1
  Pr  Pr12  1  0.49415426  0.50584574  0.38767847  1
  Pr  Pr13  1  0.50584574  0.49415426  0.61232153  1
  Pr  Pr14  1  0.00584574  0.99415426  0.88767847  1
  Pr  Pr15  1  0.99415426  0.00584574  0.11232153  1
  Pr  Pr16  1  0.70720226  0.70720226  0.00000000  1
  Pr  Pr17  1  0.20720226  0.20720226  0.50000000  1
  Pr  Pr18  1  0.29279774  0.29279774  0.00000000  1
  Pr  Pr19  1  0.79279774  0.79279774  0.50000000  1
  Si  Si20  1  0.24005631  0.75994369  0.98302262  1
  Si  Si21  1  0.75994369  0.24005631  0.01697738  1
  Si  Si22  1  0.25994369  0.74005631  0.48302262  1
  Si  Si23  1  0.74005631  0.25994369  0.51697738  1
  Si  Si24  1  0.77278504  0.22721496  0.22582391  1
  Si  Si25  1  0.22721496  0.77278504  0.77417609  1
  Si  Si26  1  0.72721496  0.27278504  0.72582391  1
  Si  Si27  1  0.27278504  0.72721496  0.27417609  1
  Si  Si28  1  0.21323491  0.28676509  0.25000000  1
  Si  Si29  1  0.28676509  0.21323491  0.75000000  1
  Si  Si30  1  0.78676509  0.71323491  0.75000000  1
  Si  Si31  1  0.71323491  0.78676509  0.25000000  1
  N  N32  1  0.65781866  0.34218134  0.29545782  1
  N  N33  1  0.34218134  0.65781866  0.70454218  1
  N  N34  1  0.84218134  0.15781866  0.79545782  1
  N  N35  1  0.15781866  0.84218134  0.20454218  1
  N  N36  1  0.72395995  0.27604005  0.12346219  1
  N  N37  1  0.27604005  0.72395995  0.87653781  1
  N  N38  1  0.77604005  0.22395995  0.62346219  1
  N  N39  1  0.22395995  0.77604005  0.37653781  1
  N  N40  1  0.49097263  0.75922854  0.25798252  1
  N  N41  1  0.75922854  0.49097263  0.74201748  1
  N  N42  1  0.25922854  0.99097263  0.75798252  1
  N  N43  1  0.99097263  0.25922854  0.24201748  1
  N  N44  1  0.50902737  0.24077146  0.74201748  1
  N  N45  1  0.24077146  0.50902737  0.25798252  1
  N  N46  1  0.74077146  0.00902737  0.24201748  1
  N  N47  1  0.00902737  0.74077146  0.75798252  1
  N  N48  1  0.77174591  0.70276662  0.15396609  1
  N  N49  1  0.70276662  0.77174591  0.84603391  1
  N  N50  1  0.20276662  0.27174591  0.65396609  1
  N  N51  1  0.27174591  0.20276662  0.34603391  1
  N  N52  1  0.22825409  0.29723338  0.84603391  1
  N  N53  1  0.29723338  0.22825409  0.15396609  1
  N  N54  1  0.79723338  0.72825409  0.34603391  1
  N  N55  1  0.72825409  0.79723338  0.65396609  1
  N  N56  1  0.01535138  0.72115797  0.99885352  1
  N  N57  1  0.72115797  0.01535138  0.00114648  1
  N  N58  1  0.22115797  0.51535138  0.49885352  1
  N  N59  1  0.51535138  0.22115797  0.50114648  1
  N  N60  1  0.98464862  0.27884203  0.00114648  1
  N  N61  1  0.27884203  0.98464862  0.99885352  1
  N  N62  1  0.77884203  0.48464862  0.50114648  1
  N  N63  1  0.48464862  0.77884203  0.49885352  1
  N  N64  1  0.36483384  0.63516616  0.04771744  1
  N  N65  1  0.63516616  0.36483384  0.95228256  1
  N  N66  1  0.13516616  0.86483384  0.54771744  1
  N  N67  1  0.86483384  0.13516616  0.45228256  1
