# generated using pymatgen
data_Lu2Ga3Ni14
_symmetry_space_group_name_H-M   'P 1'
_cell_length_a   8.11461022
_cell_length_b   8.30569666
_cell_length_c   8.30569666
_cell_angle_alpha   120.10111098
_cell_angle_beta   90.00000000
_cell_angle_gamma   90.00000000
_symmetry_Int_Tables_number   1
_chemical_formula_structural   Lu2Ga3Ni14
_chemical_formula_sum   'Lu4 Ga6 Ni28'
_cell_volume   484.29171436
_cell_formula_units_Z   2
loop_
 _symmetry_equiv_pos_site_id
 _symmetry_equiv_pos_as_xyz
  1  'x, y, z'
loop_
 _atom_site_type_symbol
 _atom_site_label
 _atom_site_symmetry_multiplicity
 _atom_site_fract_x
 _atom_site_fract_y
 _atom_site_fract_z
 _atom_site_occupancy
  Lu  Lu0  1  0.75000000  0.00001816  -0.00001816  1
  Lu  Lu1  1  0.25000000  -0.00001816  0.00001816  1
  Lu  Lu2  1  0.25000000  0.66674079  0.33325921  1
  Lu  Lu3  1  0.75000000  0.33325921  0.66674079  1
  Ga  Ga4  1  0.50000000  0.50000000  0.00000000  1
  Ga  Ga5  1  0.50000000  0.50000000  0.50000000  1
  Ga  Ga6  1  0.50000000  0.00000000  0.50000000  1
  Ga  Ga7  1  -0.00000000  0.50000000  0.00000000  1
  Ga  Ga8  1  -0.00000000  0.50000000  0.50000000  1
  Ga  Ga9  1  -0.00000000  0.00000000  0.50000000  1
  Ni  Ni10  1  0.60349963  0.66668428  0.33331572  1
  Ni  Ni11  1  0.39650037  0.33331572  0.66668428  1
  Ni  Ni12  1  0.10349963  0.33331572  0.66668428  1
  Ni  Ni13  1  0.89650037  0.66668428  0.33331572  1
  Ni  Ni14  1  0.75000000  0.67544121  0.03409101  1
  Ni  Ni15  1  0.75000000  0.35866023  0.32452887  1
  Ni  Ni16  1  0.75000000  0.96597109  0.64136406  1
  Ni  Ni17  1  0.75000000  0.35863594  0.03402891  1
  Ni  Ni18  1  0.75000000  0.96590899  0.32455879  1
  Ni  Ni19  1  0.75000000  0.67547113  0.64133977  1
  Ni  Ni20  1  0.25000000  0.32455879  0.96590899  1
  Ni  Ni21  1  0.25000000  0.64133977  0.67547113  1
  Ni  Ni22  1  0.25000000  0.03402891  0.35863594  1
  Ni  Ni23  1  0.25000000  0.64136406  0.96597109  1
  Ni  Ni24  1  0.25000000  0.03409101  0.67544121  1
  Ni  Ni25  1  0.25000000  0.32452887  0.35866023  1
  Ni  Ni26  1  0.48027738  0.83482776  0.66957463  1
  Ni  Ni27  1  0.48033759  0.83478196  0.16521804  1
  Ni  Ni28  1  0.48027738  0.33042537  0.16517224  1
  Ni  Ni29  1  0.51972262  0.16517224  0.33042537  1
  Ni  Ni30  1  0.51966241  0.16521804  0.83478196  1
  Ni  Ni31  1  0.51972262  0.66957463  0.83482776  1
  Ni  Ni32  1  0.98027738  0.16517224  0.33042537  1
  Ni  Ni33  1  0.98033759  0.16521804  0.83478196  1
  Ni  Ni34  1  0.98027738  0.66957463  0.83482776  1
  Ni  Ni35  1  0.01972262  0.83482776  0.66957463  1
  Ni  Ni36  1  0.01966241  0.83478196  0.16521804  1
  Ni  Ni37  1  0.01972262  0.33042537  0.16517224  1
