# generated using pymatgen
data_Na2CaP2H16(S3O4)2
_symmetry_space_group_name_H-M   'P 1'
_cell_length_a   8.73480610
_cell_length_b   8.73480610
_cell_length_c   13.82457571
_cell_angle_alpha   96.14408239
_cell_angle_beta   105.06492998
_cell_angle_gamma   114.78661923
_symmetry_Int_Tables_number   1
_chemical_formula_structural   Na2CaP2H16(S3O4)2
_chemical_formula_sum   'Na4 Ca2 P4 H32 S12 O16'
_cell_volume   896.18484801
_cell_formula_units_Z   2
loop_
 _symmetry_equiv_pos_site_id
 _symmetry_equiv_pos_as_xyz
  1  'x, y, z'
loop_
 _atom_site_type_symbol
 _atom_site_label
 _atom_site_symmetry_multiplicity
 _atom_site_fract_x
 _atom_site_fract_y
 _atom_site_fract_z
 _atom_site_occupancy
  Na  Na0  1  0.50000000  0.50000000  0.50000000  1
  Na  Na1  1  0.50000000  0.00000000  0.00000000  1
  Na  Na2  1  0.92492092  0.17492092  0.75000000  1
  Na  Na3  1  0.07507908  0.82507908  0.25000000  1
  Ca  Ca4  1  0.50065257  0.75065257  0.75000000  1
  Ca  Ca5  1  0.49934743  0.24934743  0.25000000  1
  P  P6  1  0.10356490  0.95897042  0.54178936  1
  P  P7  1  0.91718106  0.56177554  0.95821064  1
  P  P8  1  0.89643510  0.04102958  0.45821064  1
  P  P9  1  0.08281894  0.43822446  0.04178936  1
  H  H10  1  0.12779039  0.70506283  0.70129542  1
  H  H11  1  0.50376741  0.42649497  0.79870458  1
  H  H12  1  0.87220961  0.29493717  0.29870458  1
  H  H13  1  0.49623259  0.57350503  0.20129542  1
  H  H14  1  0.15725088  0.63427220  0.79859180  1
  H  H15  1  0.33568040  0.35865908  0.70140820  1
  H  H16  1  0.84274912  0.36572780  0.20140820  1
  H  H17  1  0.66431960  0.64134092  0.29859180  1
  H  H18  1  0.52660796  0.02523527  0.62647910  1
  H  H19  1  0.89875617  0.90012886  0.87352090  1
  H  H20  1  0.47339204  0.97476473  0.37352090  1
  H  H21  1  0.10124383  0.09987114  0.12647910  1
  H  H22  1  0.61686648  0.92642987  0.58077442  1
  H  H23  1  0.84565545  0.03609206  0.91922558  1
  H  H24  1  0.38313352  0.07357013  0.41922558  1
  H  H25  1  0.15434455  0.96390794  0.08077442  1
  H  H26  1  0.20540825  0.47802184  0.55826176  1
  H  H27  1  0.41976008  0.64714649  0.94173824  1
  H  H28  1  0.79459175  0.52197816  0.44173824  1
  H  H29  1  0.58023992  0.35285351  0.05826176  1
  H  H30  1  0.25593036  0.65307539  0.52651398  1
  H  H31  1  0.62656141  0.72941638  0.97348602  1
  H  H32  1  0.74406964  0.34692461  0.47348602  1
  H  H33  1  0.37343859  0.27058362  0.02651398  1
  H  H34  1  0.72089713  0.57296616  0.71821201  1
  H  H35  1  0.35475415  0.00268512  0.78178799  1
  H  H36  1  0.27910287  0.42703384  0.28178799  1
  H  H37  1  0.64524585  0.99731488  0.21821201  1
  H  H38  1  0.80462621  0.73566519  0.67293644  1
  H  H39  1  0.56272875  0.13168977  0.82706356  1
  H  H40  1  0.19537379  0.26433481  0.32706356  1
  H  H41  1  0.43727125  0.86831023  0.17293644  1
  S  S42  1  0.04896875  0.73480962  0.44737794  1
  S  S43  1  0.78743168  0.60159081  0.05262206  1
  S  S44  1  0.95103125  0.26519038  0.55262206  1
  S  S45  1  0.21256832  0.39840919  0.94737794  1
  S  S46  1  0.35195440  0.15649337  0.56392184  1
  S  S47  1  0.09257153  0.78803256  0.93607816  1
  S  S48  1  0.64804560  0.84350663  0.43607816  1
  S  S49  1  0.90742847  0.21196744  0.06392184  1
  S  S50  1  0.07059888  0.93651252  0.68207487  1
  S  S51  1  0.75443765  0.38852401  0.81792513  1
  S  S52  1  0.92940112  0.06348748  0.31792513  1
  S  S53  1  0.24556235  0.61147599  0.18207487  1
  O  O54  1  0.18493303  0.63800098  0.73405800  1
  O  O55  1  0.40394297  0.45087503  0.76594200  1
  O  O56  1  0.81506697  0.36199902  0.26594200  1
  O  O57  1  0.59605703  0.54912497  0.23405800  1
  O  O58  1  0.60163231  0.96639680  0.64648196  1
  O  O59  1  0.81991484  0.95515036  0.85351804  1
  O  O60  1  0.39836769  0.03360320  0.35351804  1
  O  O61  1  0.18008516  0.04484964  0.14648196  1
  O  O62  1  0.31218238  0.58663511  0.56159316  1
  O  O63  1  0.52504195  0.75058923  0.93840684  1
  O  O64  1  0.68781762  0.41336489  0.43840684  1
  O  O65  1  0.47495805  0.24941077  0.06159316  1
  O  O66  1  0.68913203  0.64827035  0.67693222  1
  O  O67  1  0.47133813  0.01219980  0.82306778  1
  O  O68  1  0.31086797  0.35172965  0.32306778  1
  O  O69  1  0.52866187  0.98780020  0.17693222  1
