# generated using pymatgen
data_Nd6CdFe13
_symmetry_space_group_name_H-M   'P 1'
_cell_length_a   8.03792989
_cell_length_b   8.03792989
_cell_length_c   12.86219858
_cell_angle_alpha   108.20774074
_cell_angle_beta   108.20774074
_cell_angle_gamma   90.00000000
_symmetry_Int_Tables_number   1
_chemical_formula_structural   Nd6CdFe13
_chemical_formula_sum   'Nd12 Cd2 Fe26'
_cell_volume   745.46911968
_cell_formula_units_Z   2
loop_
 _symmetry_equiv_pos_site_id
 _symmetry_equiv_pos_as_xyz
  1  'x, y, z'
loop_
 _atom_site_type_symbol
 _atom_site_label
 _atom_site_symmetry_multiplicity
 _atom_site_fract_x
 _atom_site_fract_y
 _atom_site_fract_z
 _atom_site_occupancy
  Nd  Nd0  1  0.97652500  0.47652500  0.62827483  1
  Nd  Nd1  1  0.65174983  0.15174983  0.62827483  1
  Nd  Nd2  1  0.15174983  0.97652500  0.62827483  1
  Nd  Nd3  1  0.47652500  0.65174983  0.62827483  1
  Nd  Nd4  1  0.02347500  0.52347500  0.37172517  1
  Nd  Nd5  1  0.34825017  0.84825017  0.37172517  1
  Nd  Nd6  1  0.84825017  0.02347500  0.37172517  1
  Nd  Nd7  1  0.52347500  0.34825017  0.37172517  1
  Nd  Nd8  1  0.60523808  0.60523808  0.21047616  1
  Nd  Nd9  1  0.10523808  0.10523808  0.21047616  1
  Nd  Nd10  1  0.39476192  0.39476192  0.78952384  1
  Nd  Nd11  1  0.89476192  0.89476192  0.78952384  1
  Cd  Cd12  1  0.25000000  0.25000000  0.50000000  1
  Cd  Cd13  1  0.75000000  0.75000000  0.50000000  1
  Fe  Fe14  1  0.11930310  0.61930310  0.88191859  1
  Fe  Fe15  1  0.76261549  0.26261549  0.88191859  1
  Fe  Fe16  1  0.26261549  0.11930310  0.88191859  1
  Fe  Fe17  1  0.61930310  0.76261549  0.88191859  1
  Fe  Fe18  1  0.88069690  0.38069690  0.11808141  1
  Fe  Fe19  1  0.23738451  0.73738451  0.11808141  1
  Fe  Fe20  1  0.73738451  0.88069690  0.11808141  1
  Fe  Fe21  1  0.38069690  0.23738451  0.11808141  1
  Fe  Fe22  1  0.71133668  0.56698792  0.00000000  1
  Fe  Fe23  1  0.28866332  0.43301208  1.00000000  1
  Fe  Fe24  1  0.78866332  0.06698792  1.00000000  1
  Fe  Fe25  1  0.21133668  0.93301208  0.00000000  1
  Fe  Fe26  1  0.56698792  0.28866332  1.00000000  1
  Fe  Fe27  1  0.43301208  0.71133668  0.00000000  1
  Fe  Fe28  1  0.06698792  0.21133668  0.00000000  1
  Fe  Fe29  1  0.93301208  0.78866332  1.00000000  1
  Fe  Fe30  1  0.29106577  0.79106577  0.80989247  1
  Fe  Fe31  1  0.51882670  0.01882670  0.80989247  1
  Fe  Fe32  1  0.01882670  0.29106577  0.80989247  1
  Fe  Fe33  1  0.79106577  0.51882670  0.80989247  1
  Fe  Fe34  1  0.70893423  0.20893423  0.19010753  1
  Fe  Fe35  1  0.48117330  0.98117330  0.19010753  1
  Fe  Fe36  1  0.98117330  0.70893423  0.19010753  1
  Fe  Fe37  1  0.20893423  0.48117330  0.19010753  1
  Fe  Fe38  1  -0.00000000  0.50000000  -0.00000000  1
  Fe  Fe39  1  0.50000000  0.00000000  -0.00000000  1
