# generated using pymatgen
data_Hg2As5H6O2F31
_symmetry_space_group_name_H-M   'P 1'
_cell_length_a   10.39813842
_cell_length_b   11.12338099
_cell_length_c   11.54748980
_cell_angle_alpha   90.00000000
_cell_angle_beta   110.37810253
_cell_angle_gamma   90.00000000
_symmetry_Int_Tables_number   1
_chemical_formula_structural   Hg2As5H6O2F31
_chemical_formula_sum   'Hg4 As10 H12 O4 F62'
_cell_volume   1252.02199280
_cell_formula_units_Z   2
loop_
 _symmetry_equiv_pos_site_id
 _symmetry_equiv_pos_as_xyz
  1  'x, y, z'
loop_
 _atom_site_type_symbol
 _atom_site_label
 _atom_site_symmetry_multiplicity
 _atom_site_fract_x
 _atom_site_fract_y
 _atom_site_fract_z
 _atom_site_occupancy
  Hg  Hg0  1  0.64481754  0.35573151  0.53518633  1
  Hg  Hg1  1  0.85518246  0.85573151  0.46481367  1
  Hg  Hg2  1  0.35518246  0.64426849  0.46481367  1
  Hg  Hg3  1  0.14481754  0.14426849  0.53518633  1
  As  As4  1  0.50000000  -0.00000000  0.50000000  1
  As  As5  1  0.00000000  0.50000000  0.50000000  1
  As  As6  1  0.95180704  0.18089339  0.79501212  1
  As  As7  1  0.54819296  0.68089339  0.20498788  1
  As  As8  1  0.04819296  0.81910661  0.20498788  1
  As  As9  1  0.45180704  0.31910661  0.79501212  1
  As  As10  1  0.74199110  0.17839040  0.24105759  1
  As  As11  1  0.75800890  0.67839040  0.75894241  1
  As  As12  1  0.25800890  0.82160960  0.75894241  1
  As  As13  1  0.24199110  0.32160960  0.24105759  1
  H  H14  1  0.56058790  0.92069058  0.88886830  1
  H  H15  1  0.93941210  0.42069058  0.11113170  1
  H  H16  1  0.43941210  0.07930942  0.11113170  1
  H  H17  1  0.06058790  0.57930942  0.88886830  1
  H  H18  1  0.71232729  0.92646780  0.87910244  1
  H  H19  1  0.78767271  0.42646780  0.12089756  1
  H  H20  1  0.28767271  0.07353220  0.12089756  1
  H  H21  1  0.21232729  0.57353220  0.87910244  1
  H  H22  1  0.62924046  0.05216532  0.88634826  1
  H  H23  1  0.87075954  0.55216532  0.11365174  1
  H  H24  1  0.37075954  0.94783468  0.11365174  1
  H  H25  1  0.12924046  0.44783468  0.88634826  1
  O  O26  1  0.64975554  0.96800442  0.91579930  1
  O  O27  1  0.85024446  0.46800442  0.08420070  1
  O  O28  1  0.35024446  0.03199558  0.08420070  1
  O  O29  1  0.14975554  0.53199558  0.91579930  1
  F  F30  1  0.50000000  0.50000000  0.50000000  1
  F  F31  1  0.00000000  -0.00000000  0.50000000  1
  F  F32  1  0.54889594  0.15336862  0.53084040  1
  F  F33  1  0.95110406  0.65336862  0.46915960  1
  F  F34  1  0.45110406  0.84663138  0.46915960  1
  F  F35  1  0.04889594  0.34663138  0.53084040  1
  F  F36  1  0.67378483  0.96139352  0.51985289  1
  F  F37  1  0.82621517  0.46139352  0.48014711  1
  F  F38  1  0.32621517  0.03860648  0.48014711  1
  F  F39  1  0.17378483  0.53860648  0.51985289  1
  F  F40  1  0.53496513  0.97810014  0.65779391  1
  F  F41  1  0.96503487  0.47810014  0.34220609  1
  F  F42  1  0.46503487  0.02189986  0.34220609  1
  F  F43  1  0.03496513  0.52189986  0.65779391  1
  F  F44  1  0.83245756  0.24965276  0.64973254  1
  F  F45  1  0.66754244  0.74965276  0.35026746  1
  F  F46  1  0.16754244  0.75034724  0.35026746  1
  F  F47  1  0.33245756  0.25034724  0.64973254  1
  F  F48  1  0.00014853  0.33092831  0.84771780  1
  F  F49  1  0.49985147  0.83092831  0.15228220  1
  F  F50  1  0.99985147  0.66907169  0.15228220  1
  F  F51  1  0.50014853  0.16907169  0.84771780  1
  F  F52  1  0.07198747  0.12108211  0.92800412  1
  F  F53  1  0.42801253  0.62108211  0.07199588  1
  F  F54  1  0.92801253  0.87891789  0.07199588  1
  F  F55  1  0.57198747  0.37891789  0.92800412  1
  F  F56  1  0.89819496  0.04013827  0.72854650  1
  F  F57  1  0.60180504  0.54013827  0.27145350  1
  F  F58  1  0.10180504  0.95986173  0.27145350  1
  F  F59  1  0.39819496  0.45986173  0.72854650  1
  F  F60  1  0.82100489  0.18434524  0.85789393  1
  F  F61  1  0.67899511  0.68434524  0.14210607  1
  F  F62  1  0.17899511  0.81565476  0.14210607  1
  F  F63  1  0.32100489  0.31565476  0.85789393  1
  F  F64  1  0.07629820  0.18633229  0.72040266  1
  F  F65  1  0.42370180  0.68633229  0.27959734  1
  F  F66  1  0.92370180  0.81366771  0.27959734  1
  F  F67  1  0.57629820  0.31366771  0.72040266  1
  F  F68  1  0.69885158  0.22123224  0.37229910  1
  F  F69  1  0.80114842  0.72123224  0.62770090  1
  F  F70  1  0.30114842  0.77876776  0.62770090  1
  F  F71  1  0.19885158  0.27876776  0.37229910  1
  F  F72  1  0.72716722  0.33324421  0.19677097  1
  F  F73  1  0.77283278  0.83324421  0.80322903  1
  F  F74  1  0.27283278  0.66675579  0.80322903  1
  F  F75  1  0.22716722  0.16675579  0.19677097  1
  F  F76  1  0.56171427  0.16401234  0.15168383  1
  F  F77  1  0.93828573  0.66401234  0.84831617  1
  F  F78  1  0.43828573  0.83598766  0.84831617  1
  F  F79  1  0.06171427  0.33598766  0.15168383  1
  F  F80  1  0.78227877  0.13982439  0.11141208  1
  F  F81  1  0.71772123  0.63982439  0.88858792  1
  F  F82  1  0.21772123  0.86017561  0.88858792  1
  F  F83  1  0.28227877  0.36017561  0.11141208  1
  F  F84  1  0.74470459  0.02620623  0.28624801  1
  F  F85  1  0.75529541  0.52620623  0.71375199  1
  F  F86  1  0.25529541  0.97379377  0.71375199  1
  F  F87  1  0.24470459  0.47379377  0.28624801  1
  F  F88  1  0.91747978  0.19740350  0.32874407  1
  F  F89  1  0.58252022  0.69740350  0.67125593  1
  F  F90  1  0.08252022  0.80259650  0.67125593  1
  F  F91  1  0.41747978  0.30259650  0.32874407  1
