# generated using pymatgen
data_Cs2TeH6(ClO3)2
_symmetry_space_group_name_H-M   'P 1'
_cell_length_a   6.52144423
_cell_length_b   8.04695834
_cell_length_c   11.21461031
_cell_angle_alpha   90.00000000
_cell_angle_beta   90.00000000
_cell_angle_gamma   106.70381574
_symmetry_Int_Tables_number   1
_chemical_formula_structural   Cs2TeH6(ClO3)2
_chemical_formula_sum   'Cs4 Te2 H12 Cl4 O12'
_cell_volume   563.68448199
_cell_formula_units_Z   2
loop_
 _symmetry_equiv_pos_site_id
 _symmetry_equiv_pos_as_xyz
  1  'x, y, z'
loop_
 _atom_site_type_symbol
 _atom_site_label
 _atom_site_symmetry_multiplicity
 _atom_site_fract_x
 _atom_site_fract_y
 _atom_site_fract_z
 _atom_site_occupancy
  Cs  Cs0  1  0.25707209  0.05948488  0.63059268  1
  Cs  Cs1  1  0.74292791  0.44051512  0.13059268  1
  Cs  Cs2  1  0.74292791  0.94051512  0.36940732  1
  Cs  Cs3  1  0.25707209  0.55948488  0.86940732  1
  Te  Te4  1  0.00000000  0.50000000  0.50000000  1
  Te  Te5  1  0.00000000  0.00000000  -0.00000000  1
  H  H6  1  0.37334436  0.57042070  0.57776478  1
  H  H7  1  0.62665564  0.92957930  0.07776478  1
  H  H8  1  0.62665564  0.42957930  0.42223522  1
  H  H9  1  0.37334436  0.07042070  0.92223522  1
  H  H10  1  0.84562460  0.66999038  0.64369958  1
  H  H11  1  0.15437540  0.83000962  0.14369958  1
  H  H12  1  0.15437540  0.33000962  0.35630042  1
  H  H13  1  0.84562460  0.16999038  0.85630042  1
  H  H14  1  0.78631719  0.80439904  0.84525366  1
  H  H15  1  0.21368281  0.69560096  0.34525366  1
  H  H16  1  0.21368281  0.19560096  0.15474634  1
  H  H17  1  0.78631719  0.30439904  0.65474634  1
  Cl  Cl18  1  0.61927685  0.29888197  0.83197040  1
  Cl  Cl19  1  0.38072315  0.20111803  0.33197040  1
  Cl  Cl20  1  0.38072315  0.70111803  0.16802960  1
  Cl  Cl21  1  0.61927685  0.79888197  0.66802960  1
  O  O22  1  0.25685670  0.95999463  0.92883974  1
  O  O23  1  0.74314330  0.54000537  0.42883974  1
  O  O24  1  0.74314330  0.04000537  0.07116026  1
  O  O25  1  0.25685670  0.45999463  0.57116026  1
  O  O26  1  0.98241333  0.63640620  0.64135827  1
  O  O27  1  0.01758667  0.86359380  0.14135827  1
  O  O28  1  0.01758667  0.36359380  0.35864173  1
  O  O29  1  0.98241333  0.13640620  0.85864173  1
  O  O30  1  0.83346344  0.78160031  0.92653983  1
  O  O31  1  0.16653656  0.71839969  0.42653983  1
  O  O32  1  0.16653656  0.21839969  0.07346017  1
  O  O33  1  0.83346344  0.28160031  0.57346017  1
