# generated using pymatgen
data_Ho2Ni17
_symmetry_space_group_name_H-M   'P 1'
_cell_length_a   8.03360312
_cell_length_b   8.24893877
_cell_length_c   8.24893877
_cell_angle_alpha   119.98022550
_cell_angle_beta   90.00000000
_cell_angle_gamma   90.00000000
_symmetry_Int_Tables_number   1
_chemical_formula_structural   Ho2Ni17
_chemical_formula_sum   'Ho4 Ni34'
_cell_volume   473.50401654
_cell_formula_units_Z   2
loop_
 _symmetry_equiv_pos_site_id
 _symmetry_equiv_pos_as_xyz
  1  'x, y, z'
loop_
 _atom_site_type_symbol
 _atom_site_label
 _atom_site_symmetry_multiplicity
 _atom_site_fract_x
 _atom_site_fract_y
 _atom_site_fract_z
 _atom_site_occupancy
  Ho  Ho0  1  0.75000000  0.00000555  0.99999445  1
  Ho  Ho1  1  0.25000000  0.99999445  0.00000555  1
  Ho  Ho2  1  0.25000000  0.66669633  0.33330367  1
  Ho  Ho3  1  0.75000000  0.33330367  0.66669633  1
  Ni  Ni4  1  0.60152287  0.66670434  0.33329566  1
  Ni  Ni5  1  0.39847713  0.33329566  0.66670434  1
  Ni  Ni6  1  0.10152287  0.33329566  0.66670434  1
  Ni  Ni7  1  0.89847713  0.66670434  0.33329566  1
  Ni  Ni8  1  0.50000000  0.50000000  -0.00000000  1
  Ni  Ni9  1  0.50000000  0.50000000  0.50000000  1
  Ni  Ni10  1  0.50000000  -0.00000000  0.50000000  1
  Ni  Ni11  1  -0.00000000  0.50000000  -0.00000000  1
  Ni  Ni12  1  -0.00000000  0.50000000  0.50000000  1
  Ni  Ni13  1  -0.00000000  -0.00000000  0.50000000  1
  Ni  Ni14  1  0.75000000  0.67185425  0.04061790  1
  Ni  Ni15  1  0.75000000  0.36870668  0.32810924  1
  Ni  Ni16  1  0.75000000  0.95951336  0.63132118  1
  Ni  Ni17  1  0.75000000  0.36867882  0.04048664  1
  Ni  Ni18  1  0.75000000  0.95938210  0.32814575  1
  Ni  Ni19  1  0.75000000  0.67189076  0.63129332  1
  Ni  Ni20  1  0.25000000  0.32814575  0.95938210  1
  Ni  Ni21  1  0.25000000  0.63129332  0.67189076  1
  Ni  Ni22  1  0.25000000  0.04048664  0.36867882  1
  Ni  Ni23  1  0.25000000  0.63132118  0.95951336  1
  Ni  Ni24  1  0.25000000  0.04061790  0.67185425  1
  Ni  Ni25  1  0.25000000  0.32810924  0.36870668  1
  Ni  Ni26  1  0.48085563  0.83441970  0.66885540  1
  Ni  Ni27  1  0.48094529  0.83445796  0.16554204  1
  Ni  Ni28  1  0.48085563  0.33114460  0.16558030  1
  Ni  Ni29  1  0.51914437  0.16558030  0.33114460  1
  Ni  Ni30  1  0.51905471  0.16554204  0.83445796  1
  Ni  Ni31  1  0.51914437  0.66885540  0.83441970  1
  Ni  Ni32  1  0.98085563  0.16558030  0.33114460  1
  Ni  Ni33  1  0.98094529  0.16554204  0.83445796  1
  Ni  Ni34  1  0.98085563  0.66885540  0.83441970  1
  Ni  Ni35  1  0.01914437  0.83441970  0.66885540  1
  Ni  Ni36  1  0.01905471  0.83445796  0.16554204  1
  Ni  Ni37  1  0.01914437  0.33114460  0.16558030  1
