# generated using pymatgen
data_CeErS3
_symmetry_space_group_name_H-M   'P 1'
_cell_length_a   3.92719722
_cell_length_b   10.97052420
_cell_length_c   21.49247244
_cell_angle_alpha   101.53043462
_cell_angle_beta   90.00000000
_cell_angle_gamma   90.00000000
_symmetry_Int_Tables_number   1
_chemical_formula_structural   CeErS3
_chemical_formula_sum   'Ce8 Er8 S24'
_cell_volume   907.28175660
_cell_formula_units_Z   8
loop_
 _symmetry_equiv_pos_site_id
 _symmetry_equiv_pos_as_xyz
  1  'x, y, z'
loop_
 _atom_site_type_symbol
 _atom_site_label
 _atom_site_symmetry_multiplicity
 _atom_site_fract_x
 _atom_site_fract_y
 _atom_site_fract_z
 _atom_site_occupancy
  Ce  Ce0  1  0.25000000  0.69585048  0.76637110  1
  Ce  Ce1  1  0.75000000  0.30414952  0.23362890  1
  Ce  Ce2  1  0.25000000  0.09232479  0.86288624  1
  Ce  Ce3  1  0.75000000  0.90767521  0.13711376  1
  Ce  Ce4  1  0.25000000  0.30715787  0.73145676  1
  Ce  Ce5  1  0.75000000  0.69284213  0.26854324  1
  Ce  Ce6  1  0.25000000  0.19971636  0.53704871  1
  Ce  Ce7  1  0.75000000  0.80028364  0.46295129  1
  Er  Er8  1  0.25000000  0.44664826  0.41769641  1
  Er  Er9  1  0.75000000  0.55335174  0.58230359  1
  Er  Er10  1  0.25000000  0.03003828  0.35226147  1
  Er  Er11  1  0.75000000  0.96996172  0.64773853  1
  Er  Er12  1  0.25000000  0.17722809  0.04649297  1
  Er  Er13  1  0.75000000  0.82277191  0.95350703  1
  Er  Er14  1  0.25000000  0.52265231  0.08868011  1
  Er  Er15  1  0.75000000  0.47734769  0.91131989  1
  S  S16  1  0.25000000  0.91427380  0.03825820  1
  S  S17  1  0.75000000  0.08572620  0.96174180  1
  S  S18  1  0.25000000  0.79353533  0.36572826  1
  S  S19  1  0.75000000  0.20646467  0.63427174  1
  S  S20  1  0.25000000  0.25465348  0.32265585  1
  S  S21  1  0.75000000  0.74534652  0.67734415  1
  S  S22  1  0.25000000  0.36290102  0.96413953  1
  S  S23  1  0.75000000  0.63709898  0.03586047  1
  S  S24  1  0.25000000  0.49420257  0.22235295  1
  S  S25  1  0.75000000  0.50579743  0.77764705  1
  S  S26  1  0.25000000  0.74825321  0.17556292  1
  S  S27  1  0.75000000  0.25174679  0.82443708  1
  S  S28  1  0.25000000  0.12437612  0.16496671  1
  S  S29  1  0.75000000  0.87562388  0.83503329  1
  S  S30  1  0.25000000  0.64638794  0.51465788  1
  S  S31  1  0.75000000  0.35361206  0.48534212  1
  S  S32  1  0.25000000  0.94190380  0.55527562  1
  S  S33  1  0.75000000  0.05809620  0.44472438  1
  S  S34  1  0.25000000  0.03947707  0.72923748  1
  S  S35  1  0.75000000  0.96052293  0.27076252  1
  S  S36  1  0.25000000  0.45145035  0.63409041  1
  S  S37  1  0.75000000  0.54854965  0.36590959  1
  S  S38  1  0.25000000  0.65819259  0.90012210  1
  S  S39  1  0.75000000  0.34180741  0.09987790  1
