# generated using pymatgen
data_Ba6Zr(Zn3S7)2
_symmetry_space_group_name_H-M   'P 1'
_cell_length_a   9.92502247
_cell_length_b   12.72245943
_cell_length_c   12.72245943
_cell_angle_alpha   81.24868260
_cell_angle_beta   67.04182237
_cell_angle_gamma   67.04182237
_symmetry_Int_Tables_number   1
_chemical_formula_structural   Ba6Zr(Zn3S7)2
_chemical_formula_sum   'Ba12 Zr2 Zn12 S28'
_cell_volume   1362.05506152
_cell_formula_units_Z   2
loop_
 _symmetry_equiv_pos_site_id
 _symmetry_equiv_pos_as_xyz
  1  'x, y, z'
loop_
 _atom_site_type_symbol
 _atom_site_label
 _atom_site_symmetry_multiplicity
 _atom_site_fract_x
 _atom_site_fract_y
 _atom_site_fract_z
 _atom_site_occupancy
  Ba  Ba0  1  0.77050454  0.95899092  0.50000000  1
  Ba  Ba1  1  0.22949546  0.04100908  0.50000000  1
  Ba  Ba2  1  0.72949546  0.50000000  0.04100908  1
  Ba  Ba3  1  0.27050454  0.50000000  0.95899092  1
  Ba  Ba4  1  0.44656510  0.80343490  0.80343490  1
  Ba  Ba5  1  0.05343490  0.19656510  0.19656510  1
  Ba  Ba6  1  0.55343490  0.19656510  0.19656510  1
  Ba  Ba7  1  0.94656510  0.80343490  0.80343490  1
  Ba  Ba8  1  0.25000000  0.80343490  0.19656510  1
  Ba  Ba9  1  0.25000000  0.19656510  0.80343490  1
  Ba  Ba10  1  0.75000000  0.19656510  0.80343490  1
  Ba  Ba11  1  0.75000000  0.80343490  0.19656510  1
  Zr  Zr12  1  0.50000000  0.00000000  0.00000000  1
  Zr  Zr13  1  -0.00000000  0.00000000  0.00000000  1
  Zn  Zn14  1  0.76015838  0.67901010  0.50000000  1
  Zn  Zn15  1  0.93916847  0.32098990  0.50000000  1
  Zn  Zn16  1  0.43916847  0.50000000  0.32098990  1
  Zn  Zn17  1  0.26015838  0.50000000  0.67901010  1
  Zn  Zn18  1  0.23984162  0.32098990  0.50000000  1
  Zn  Zn19  1  0.06083153  0.67901010  0.50000000  1
  Zn  Zn20  1  0.56083153  0.50000000  0.67901010  1
  Zn  Zn21  1  0.73984162  0.50000000  0.32098990  1
  Zn  Zn22  1  0.61726547  0.26546906  0.50000000  1
  Zn  Zn23  1  0.38273453  0.73453094  0.50000000  1
  Zn  Zn24  1  0.88273453  0.50000000  0.73453094  1
  Zn  Zn25  1  0.11726547  0.50000000  0.26546906  1
  S  S26  1  0.82690851  0.68859721  0.65758576  1
  S  S27  1  0.17309149  0.31140279  0.34241424  1
  S  S28  1  0.67309149  0.34241424  0.31140279  1
  S  S29  1  0.32690851  0.65758576  0.68859721  1
  S  S30  1  0.51550572  0.65758576  0.31140279  1
  S  S31  1  0.48449428  0.34241424  0.68859721  1
  S  S32  1  0.01550572  0.31140279  0.65758576  1
  S  S33  1  0.98449428  0.68859721  0.34241424  1
  S  S34  1  0.53959548  0.83763250  0.50000000  1
  S  S35  1  0.87722798  0.16236750  0.50000000  1
  S  S36  1  0.37722798  0.50000000  0.16236750  1
  S  S37  1  0.03959548  0.50000000  0.83763250  1
  S  S38  1  0.46040452  0.16236750  0.50000000  1
  S  S39  1  0.12277202  0.83763250  0.50000000  1
  S  S40  1  0.62277202  0.50000000  0.83763250  1
  S  S41  1  0.96040452  0.50000000  0.16236750  1
  S  S42  1  0.61155064  0.00077955  0.77611918  1
  S  S43  1  0.38844936  0.99922045  0.22388082  1
  S  S44  1  0.88844936  0.22388082  0.99922045  1
  S  S45  1  0.11155064  0.77611918  0.00077955  1
  S  S46  1  0.61233018  0.77611918  0.99922045  1
  S  S47  1  0.38766982  0.22388082  0.00077955  1
  S  S48  1  0.11233018  0.99922045  0.77611918  1
  S  S49  1  0.88766982  0.00077955  0.22388082  1
  S  S50  1  0.25000000  0.00000000  0.00000000  1
  S  S51  1  0.75000000  0.00000000  0.00000000  1
  S  S52  1  0.75000000  0.50000000  0.50000000  1
  S  S53  1  0.25000000  0.50000000  0.50000000  1
