# generated using pymatgen
data_CaZn2(H5O4)2
_symmetry_space_group_name_H-M   'P 1'
_cell_length_a   6.17431590
_cell_length_b   6.45326240
_cell_length_c   10.97825989
_cell_angle_alpha   90.00000000
_cell_angle_beta   90.00000000
_cell_angle_gamma   102.09026881
_symmetry_Int_Tables_number   1
_chemical_formula_structural   CaZn2(H5O4)2
_chemical_formula_sum   'Ca2 Zn4 H20 O16'
_cell_volume   427.72050594
_cell_formula_units_Z   2
loop_
 _symmetry_equiv_pos_site_id
 _symmetry_equiv_pos_as_xyz
  1  'x, y, z'
loop_
 _atom_site_type_symbol
 _atom_site_label
 _atom_site_symmetry_multiplicity
 _atom_site_fract_x
 _atom_site_fract_y
 _atom_site_fract_z
 _atom_site_occupancy
  Ca  Ca0  1  0.50000000  -0.00000000  0.50000000  1
  Ca  Ca1  1  -0.00000000  -0.00000000  0.00000000  1
  Zn  Zn2  1  0.65036209  0.53040167  0.33172817  1
  Zn  Zn3  1  0.84963791  0.46959833  0.83172817  1
  Zn  Zn4  1  0.34963791  0.46959833  0.66827183  1
  Zn  Zn5  1  0.15036209  0.53040167  0.16827183  1
  H  H6  1  0.27814329  0.53161065  0.38886861  1
  H  H7  1  0.22185671  0.46838935  0.88886861  1
  H  H8  1  0.72185671  0.46838935  0.61113139  1
  H  H9  1  0.77814329  0.53161065  0.11113139  1
  H  H10  1  0.86940708  0.32150676  0.44571361  1
  H  H11  1  0.63059292  0.67849324  0.94571361  1
  H  H12  1  0.13059292  0.67849324  0.55428639  1
  H  H13  1  0.36940708  0.32150676  0.05428639  1
  H  H14  1  0.87865310  0.87963928  0.38643315  1
  H  H15  1  0.62134690  0.12036072  0.88643315  1
  H  H16  1  0.12134690  0.12036072  0.61356685  1
  H  H17  1  0.37865310  0.87963928  0.11356685  1
  H  H18  1  0.25800463  0.19281143  0.32931815  1
  H  H19  1  0.24199537  0.80718857  0.82931815  1
  H  H20  1  0.74199537  0.80718857  0.67068185  1
  H  H21  1  0.75800463  0.19281143  0.17068185  1
  H  H22  1  0.23105560  0.96220183  0.26533459  1
  H  H23  1  0.26894440  0.03779817  0.76533459  1
  H  H24  1  0.76894440  0.03779817  0.73466541  1
  H  H25  1  0.73105560  0.96220183  0.23466541  1
  O  O26  1  0.31882927  0.46323133  0.31308172  1
  O  O27  1  0.18117073  0.53676867  0.81308172  1
  O  O28  1  0.68117073  0.53676867  0.68691828  1
  O  O29  1  0.81882927  0.46323133  0.18691828  1
  O  O30  1  0.72174258  0.34390404  0.46337872  1
  O  O31  1  0.77825742  0.65609596  0.96337872  1
  O  O32  1  0.27825742  0.65609596  0.53662128  1
  O  O33  1  0.22174258  0.34390404  0.03662128  1
  O  O34  1  0.72103873  0.83754481  0.36763821  1
  O  O35  1  0.77896127  0.16245519  0.86763821  1
  O  O36  1  0.27896127  0.16245519  0.63236179  1
  O  O37  1  0.22103873  0.83754481  0.13236179  1
  O  O38  1  0.23745167  0.03715458  0.34674912  1
  O  O39  1  0.26254833  0.96284542  0.84674912  1
  O  O40  1  0.76254833  0.96284542  0.65325088  1
  O  O41  1  0.73745167  0.03715458  0.15325088  1
