# generated using pymatgen
data_HoHSO5
_symmetry_space_group_name_H-M   'P 1'
_cell_length_a   8.01620174
_cell_length_b   8.19095074
_cell_length_c   11.06264977
_cell_angle_alpha   90.00000000
_cell_angle_beta   90.00000000
_cell_angle_gamma   94.11646766
_symmetry_Int_Tables_number   1
_chemical_formula_structural   HoHSO5
_chemical_formula_sum   'Ho8 H8 S8 O40'
_cell_volume   724.50314021
_cell_formula_units_Z   8
loop_
 _symmetry_equiv_pos_site_id
 _symmetry_equiv_pos_as_xyz
  1  'x, y, z'
loop_
 _atom_site_type_symbol
 _atom_site_label
 _atom_site_symmetry_multiplicity
 _atom_site_fract_x
 _atom_site_fract_y
 _atom_site_fract_z
 _atom_site_occupancy
  Ho  Ho0  1  0.68788549  0.40773456  0.92533822  1
  Ho  Ho1  1  0.18788549  0.90773456  0.57466178  1
  Ho  Ho2  1  0.31211451  0.59226544  0.07466178  1
  Ho  Ho3  1  0.81211451  0.09226544  0.42533822  1
  Ho  Ho4  1  0.66129290  0.87291160  0.93630252  1
  Ho  Ho5  1  0.16129290  0.37291160  0.56369748  1
  Ho  Ho6  1  0.33870710  0.12708840  0.06369748  1
  Ho  Ho7  1  0.83870710  0.62708840  0.43630252  1
  H  H8  1  0.66259764  0.62108175  0.11631076  1
  H  H9  1  0.16259764  0.12108175  0.38368924  1
  H  H10  1  0.33740236  0.37891825  0.88368924  1
  H  H11  1  0.83740236  0.87891825  0.61631076  1
  H  H12  1  0.31090978  0.85749999  0.91273983  1
  H  H13  1  0.81090978  0.35749999  0.58726017  1
  H  H14  1  0.68909022  0.14250001  0.08726017  1
  H  H15  1  0.18909022  0.64250001  0.41273983  1
  S  S16  1  0.04510553  0.63254762  0.80863529  1
  S  S17  1  0.54510553  0.13254762  0.69136471  1
  S  S18  1  0.95489447  0.36745238  0.19136471  1
  S  S19  1  0.45489447  0.86745238  0.30863529  1
  S  S20  1  0.00136518  0.13544505  0.83073441  1
  S  S21  1  0.50136518  0.63544505  0.66926559  1
  S  S22  1  0.99863482  0.86455495  0.16926559  1
  S  S23  1  0.49863482  0.36455495  0.33073441  1
  O  O24  1  0.59956432  0.62987869  0.04131639  1
  O  O25  1  0.09956432  0.12987869  0.45868361  1
  O  O26  1  0.40043568  0.37012131  0.95868361  1
  O  O27  1  0.90043568  0.87012131  0.54131639  1
  O  O28  1  0.37432676  0.85892581  0.98856462  1
  O  O29  1  0.87432676  0.35892581  0.51143538  1
  O  O30  1  0.62567324  0.14107419  0.01143538  1
  O  O31  1  0.12567324  0.64107419  0.48856462  1
  O  O32  1  0.88067652  0.64536750  0.87084969  1
  O  O33  1  0.38067652  0.14536750  0.62915031  1
  O  O34  1  0.11932348  0.35463250  0.12915031  1
  O  O35  1  0.61932348  0.85463250  0.37084969  1
  O  O36  1  0.16834443  0.57572718  0.89603605  1
  O  O37  1  0.66834443  0.07572718  0.60396395  1
  O  O38  1  0.83165557  0.42427282  0.10396395  1
  O  O39  1  0.33165557  0.92427282  0.39603605  1
  O  O40  1  0.01874251  0.51519867  0.70760732  1
  O  O41  1  0.51874251  0.01519867  0.79239268  1
  O  O42  1  0.98125749  0.48480133  0.29239268  1
  O  O43  1  0.48125749  0.98480133  0.20760732  1
  O  O44  1  0.11112570  0.79341581  0.75947624  1
  O  O45  1  0.61112570  0.29341581  0.74052376  1
  O  O46  1  0.88887430  0.20658419  0.24052376  1
  O  O47  1  0.38887430  0.70658419  0.25947624  1
  O  O48  1  0.92612783  0.28279908  0.87474938  1
  O  O49  1  0.42612783  0.78279908  0.62525062  1
  O  O50  1  0.07387217  0.71720092  0.12525062  1
  O  O51  1  0.57387217  0.21720092  0.37474938  1
  O  O52  1  0.87421548  0.99540619  0.83046553  1
  O  O53  1  0.37421548  0.49540619  0.66953447  1
  O  O54  1  0.12578452  0.00459381  0.16953447  1
  O  O55  1  0.62578452  0.50459381  0.33046553  1
  O  O56  1  0.14666977  0.10182825  0.90712987  1
  O  O57  1  0.64666977  0.60182825  0.59287013  1
  O  O58  1  0.85333023  0.89817175  0.09287013  1
  O  O59  1  0.35333023  0.39817175  0.40712987  1
  O  O60  1  0.06120623  0.15786647  0.70220212  1
  O  O61  1  0.56120623  0.65786647  0.79779788  1
  O  O62  1  0.93879377  0.84213353  0.29779788  1
  O  O63  1  0.43879377  0.34213353  0.20220212  1
