# generated using pymatgen
data_Na2YPWO8
_symmetry_space_group_name_H-M   'P 1'
_cell_length_a   6.97178005
_cell_length_b   11.58994163
_cell_length_c   11.58994163
_cell_angle_alpha   64.01657852
_cell_angle_beta   72.49622967
_cell_angle_gamma   72.49622967
_symmetry_Int_Tables_number   1
_chemical_formula_structural   Na2YPWO8
_chemical_formula_sum   'Na8 Y4 P4 W4 O32'
_cell_volume   787.10280812
_cell_formula_units_Z   4
loop_
 _symmetry_equiv_pos_site_id
 _symmetry_equiv_pos_as_xyz
  1  'x, y, z'
loop_
 _atom_site_type_symbol
 _atom_site_label
 _atom_site_symmetry_multiplicity
 _atom_site_fract_x
 _atom_site_fract_y
 _atom_site_fract_z
 _atom_site_occupancy
  Na  Na0  1  0.85701408  0.09355726  0.71317372  1
  Na  Na1  1  0.83625494  0.71317372  0.09355726  1
  Na  Na2  1  0.64298592  0.78682628  0.40644274  1
  Na  Na3  1  0.66374506  0.40644274  0.78682628  1
  Na  Na4  1  0.14298592  0.90644274  0.28682628  1
  Na  Na5  1  0.16374506  0.28682628  0.90644274  1
  Na  Na6  1  0.35701408  0.21317372  0.59355726  1
  Na  Na7  1  0.33625494  0.59355726  0.21317372  1
  Y  Y8  1  0.75000000  0.82293354  0.67706646  1
  Y  Y9  1  0.25000000  0.67706646  0.82293354  1
  Y  Y10  1  0.25000000  0.17706646  0.32293354  1
  Y  Y11  1  0.75000000  0.32293354  0.17706646  1
  P  P12  1  0.25000000  0.43044825  0.06955175  1
  P  P13  1  0.75000000  0.06955175  0.43044825  1
  P  P14  1  0.75000000  0.56955175  0.93044825  1
  P  P15  1  0.25000000  0.93044825  0.56955175  1
  W  W16  1  0.67719485  0.07280515  0.07280515  1
  W  W17  1  0.82280515  0.42719485  0.42719485  1
  W  W18  1  0.32280515  0.92719485  0.92719485  1
  W  W19  1  0.17719485  0.57280515  0.57280515  1
  O  O20  1  0.16793353  0.57341636  0.06153292  1
  O  O21  1  0.69711719  0.06153292  0.57341636  1
  O  O22  1  0.33206647  0.43846708  0.92658364  1
  O  O23  1  0.80288281  0.92658364  0.43846708  1
  O  O24  1  0.83206647  0.42658364  0.93846708  1
  O  O25  1  0.30288281  0.93846708  0.42658364  1
  O  O26  1  0.66793353  0.56153292  0.07341636  1
  O  O27  1  0.19711719  0.07341636  0.56153292  1
  O  O28  1  0.41581741  0.35939009  0.15659974  1
  O  O29  1  0.56819276  0.15659974  0.35939009  1
  O  O30  1  0.08418259  0.34340026  0.14060991  1
  O  O31  1  0.93180724  0.14060991  0.34340026  1
  O  O32  1  0.58418259  0.64060991  0.84340026  1
  O  O33  1  0.43180724  0.84340026  0.64060991  1
  O  O34  1  0.91581741  0.65659974  0.85939009  1
  O  O35  1  0.06819276  0.85939009  0.65659974  1
  O  O36  1  0.40949249  0.10386167  0.15622541  1
  O  O37  1  0.83042043  0.15622541  0.10386167  1
  O  O38  1  0.09050751  0.34377459  0.39613833  1
  O  O39  1  0.66957957  0.39613833  0.34377459  1
  O  O40  1  0.59050751  0.89613833  0.84377459  1
  O  O41  1  0.16957957  0.84377459  0.89613833  1
  O  O42  1  0.90949249  0.65622541  0.60386167  1
  O  O43  1  0.33042043  0.60386167  0.65622541  1
  O  O44  1  0.77583099  0.89836371  0.13694953  1
  O  O45  1  0.68885576  0.13694953  0.89836371  1
  O  O46  1  0.72416901  0.36305047  0.60163629  1
  O  O47  1  0.81114424  0.60163629  0.36305047  1
  O  O48  1  0.22416901  0.10163629  0.86305047  1
  O  O49  1  0.31114424  0.86305047  0.10163629  1
  O  O50  1  0.27583099  0.63694953  0.39836371  1
  O  O51  1  0.18885576  0.39836371  0.63694953  1
