# generated using pymatgen
data_La2Fe(SeO)2
_symmetry_space_group_name_H-M   'P 1'
_cell_length_a   4.03387275
_cell_length_b   16.53435696
_cell_length_c   17.65209066
_cell_angle_alpha   90.00000000
_cell_angle_beta   90.00000000
_cell_angle_gamma   90.00000000
_symmetry_Int_Tables_number   1
_chemical_formula_structural   La2Fe(SeO)2
_chemical_formula_sum   'La16 Fe8 Se16 O16'
_cell_volume   1177.35017522
_cell_formula_units_Z   8
loop_
 _symmetry_equiv_pos_site_id
 _symmetry_equiv_pos_as_xyz
  1  'x, y, z'
loop_
 _atom_site_type_symbol
 _atom_site_label
 _atom_site_symmetry_multiplicity
 _atom_site_fract_x
 _atom_site_fract_y
 _atom_site_fract_z
 _atom_site_occupancy
  La  La0  1  0.00136656  0.97704573  0.91001737  1
  La  La1  1  0.50136656  0.02295427  0.08998263  1
  La  La2  1  0.50136656  0.47704573  0.58998263  1
  La  La3  1  0.00136656  0.52295427  0.41001737  1
  La  La4  1  0.50860780  0.48223718  0.90969254  1
  La  La5  1  0.00860780  0.51776282  0.09030746  1
  La  La6  1  0.00860780  0.98223718  0.59030746  1
  La  La7  1  0.50860780  0.01776282  0.40969254  1
  La  La8  1  0.00716549  0.67748236  0.91575718  1
  La  La9  1  0.50716549  0.32251764  0.08424282  1
  La  La10  1  0.50716549  0.17748236  0.58424282  1
  La  La11  1  0.00716549  0.82251764  0.41575718  1
  La  La12  1  0.49969255  0.17195012  0.91180306  1
  La  La13  1  0.99969255  0.82804988  0.08819694  1
  La  La14  1  0.99969255  0.67195012  0.58819694  1
  La  La15  1  0.49969255  0.32804988  0.41180306  1
  Fe  Fe16  1  0.00158654  0.38436029  0.24823911  1
  Fe  Fe17  1  0.50158654  0.61563971  0.75176089  1
  Fe  Fe18  1  0.50158654  0.88436029  0.25176089  1
  Fe  Fe19  1  0.00158654  0.11563971  0.74823911  1
  Fe  Fe20  1  0.00233800  0.33804989  0.77673564  1
  Fe  Fe21  1  0.50233800  0.66195011  0.22326436  1
  Fe  Fe22  1  0.50233800  0.83804989  0.72326436  1
  Fe  Fe23  1  0.00233800  0.16195011  0.27673564  1
  Se  Se24  1  0.01748465  0.01168203  0.25078174  1
  Se  Se25  1  0.51748465  0.98831797  0.74921826  1
  Se  Se26  1  0.51748465  0.51168203  0.24921826  1
  Se  Se27  1  0.01748465  0.48831797  0.75078174  1
  Se  Se28  1  0.00541684  0.33037222  0.92516469  1
  Se  Se29  1  0.50541684  0.66962778  0.07483531  1
  Se  Se30  1  0.50541684  0.83037222  0.57483531  1
  Se  Se31  1  0.00541684  0.16962778  0.42516469  1
  Se  Se32  1  0.50658970  0.82737590  0.93907991  1
  Se  Se33  1  0.00658970  0.17262410  0.06092009  1
  Se  Se34  1  0.00658970  0.32737590  0.56092009  1
  Se  Se35  1  0.50658970  0.67262410  0.43907991  1
  Se  Se36  1  0.00452200  0.75429802  0.25219814  1
  Se  Se37  1  0.50452200  0.24570198  0.74780186  1
  Se  Se38  1  0.50452200  0.25429802  0.24780186  1
  Se  Se39  1  0.00452200  0.74570198  0.75219814  1
  O  O40  1  0.00030405  0.11732193  0.85973356  1
  O  O41  1  0.50030405  0.88267807  0.14026644  1
  O  O42  1  0.50030405  0.61732193  0.64026644  1
  O  O43  1  0.00030405  0.38267807  0.35973356  1
  O  O44  1  0.50702477  0.62207761  0.86375088  1
  O  O45  1  0.00702477  0.37792239  0.13624912  1
  O  O46  1  0.00702477  0.12207761  0.63624912  1
  O  O47  1  0.50702477  0.87792239  0.36375088  1
  O  O48  1  0.00105676  0.53796655  0.54655946  1
  O  O49  1  0.50105676  0.46203345  0.45344054  1
  O  O50  1  0.50105676  0.03796655  0.95344054  1
  O  O51  1  0.00105676  0.96203345  0.04655946  1
  O  O52  1  0.50874430  0.04201630  0.54397683  1
  O  O53  1  0.00874430  0.95798370  0.45602317  1
  O  O54  1  0.00874430  0.54201630  0.95602317  1
  O  O55  1  0.50874430  0.45798370  0.04397683  1
