# generated using pymatgen
data_NaNb13O33
_symmetry_space_group_name_H-M   'P 1'
_cell_length_a   3.82657816
_cell_length_b   11.66463021
_cell_length_c   15.69221106
_cell_angle_alpha   91.50719107
_cell_angle_beta   90.00000000
_cell_angle_gamma   99.44059002
_symmetry_Int_Tables_number   1
_chemical_formula_structural   NaNb13O33
_chemical_formula_sum   'Na1 Nb13 O33'
_cell_volume   690.69940345
_cell_formula_units_Z   1
loop_
 _symmetry_equiv_pos_site_id
 _symmetry_equiv_pos_as_xyz
  1  'x, y, z'
loop_
 _atom_site_type_symbol
 _atom_site_label
 _atom_site_symmetry_multiplicity
 _atom_site_fract_x
 _atom_site_fract_y
 _atom_site_fract_z
 _atom_site_occupancy
  Na  Na0  1  0.50000000  0.00000000  0.50000000  1
  Nb  Nb1  1  0.00000000  0.00000000  0.00000000  1
  Nb  Nb2  1  0.07142297  0.14284594  0.22730176  1
  Nb  Nb3  1  0.92857703  0.85715406  0.77269824  1
  Nb  Nb4  1  0.22445841  0.44891682  0.13695464  1
  Nb  Nb5  1  0.77554159  0.55108318  0.86304536  1
  Nb  Nb6  1  0.15378184  0.30756368  0.90374338  1
  Nb  Nb7  1  0.84621816  0.69243632  0.09625662  1
  Nb  Nb8  1  0.13706609  0.27413219  0.46758600  1
  Nb  Nb9  1  0.86293391  0.72586781  0.53241400  1
  Nb  Nb10  1  0.29150317  0.58300635  0.37377577  1
  Nb  Nb11  1  0.70849683  0.41699365  0.62622423  1
  Nb  Nb12  1  0.08548193  0.17096385  0.67469225  1
  Nb  Nb13  1  0.91451807  0.82903615  0.32530775  1
  O  O14  1  0.08119723  0.16239446  0.95208222  1
  O  O15  1  0.91880277  0.83760554  0.04791778  1
  O  O16  1  0.50000000  0.00000000  0.00000000  1
  O  O17  1  0.32072456  0.64144912  0.09873082  1
  O  O18  1  0.67927544  0.35855088  0.90126918  1
  O  O19  1  0.25040431  0.50080862  0.86314190  1
  O  O20  1  0.74959569  0.49919138  0.13685810  1
  O  O21  1  0.15284434  0.30568868  0.19513990  1
  O  O22  1  0.84715566  0.69431132  0.80486010  1
  O  O23  1  0.43101418  0.86202836  0.74471573  1
  O  O24  1  0.56898582  0.13797164  0.25528427  1
  O  O25  1  0.19408627  0.38817254  0.02745017  1
  O  O26  1  0.80591373  0.61182746  0.97254983  1
  O  O27  1  0.03543288  0.07086575  0.11922338  1
  O  O28  1  0.96456712  0.92913425  0.88077662  1
  O  O29  1  0.12732594  0.25465188  0.78767225  1
  O  O30  1  0.87267406  0.74534812  0.21232775  1
  O  O31  1  0.26696393  0.53392786  0.26336390  1
  O  O32  1  0.73303607  0.46607214  0.73663610  1
  O  O33  1  0.10031022  0.20062043  0.36557305  1
  O  O34  1  0.89968978  0.79937957  0.63442695  1
  O  O35  1  0.01154764  0.02309527  0.71002261  1
  O  O36  1  0.98845236  0.97690473  0.28997739  1
  O  O37  1  0.39016912  0.78033824  0.33628634  1
  O  O38  1  0.60983088  0.21966176  0.66371366  1
  O  O39  1  0.18270794  0.36541587  0.61197634  1
  O  O40  1  0.81729206  0.63458413  0.38802366  1
  O  O41  1  0.22209449  0.44418898  0.43037363  1
  O  O42  1  0.77790551  0.55581102  0.56962637  1
  O  O43  1  0.34708949  0.69417899  0.50304753  1
  O  O44  1  0.65291051  0.30582101  0.49695247  1
  O  O45  1  0.06883034  0.13766068  0.54479393  1
  O  O46  1  0.93116966  0.86233932  0.45520607  1
