# generated using pymatgen
data_CuAs2H3OF13
_symmetry_space_group_name_H-M   'P 1'
_cell_length_a   7.01679458
_cell_length_b   10.70513787
_cell_length_c   14.63996824
_cell_angle_alpha   90.00000000
_cell_angle_beta   90.00000000
_cell_angle_gamma   90.00000000
_symmetry_Int_Tables_number   1
_chemical_formula_structural   CuAs2H3OF13
_chemical_formula_sum   'Cu4 As8 H12 O4 F52'
_cell_volume   1099.69224387
_cell_formula_units_Z   4
loop_
 _symmetry_equiv_pos_site_id
 _symmetry_equiv_pos_as_xyz
  1  'x, y, z'
loop_
 _atom_site_type_symbol
 _atom_site_label
 _atom_site_symmetry_multiplicity
 _atom_site_fract_x
 _atom_site_fract_y
 _atom_site_fract_z
 _atom_site_occupancy
  Cu  Cu0  1  -0.00000000  0.00000000  -0.00000000  1
  Cu  Cu1  1  0.50000000  0.50000000  0.50000000  1
  Cu  Cu2  1  0.50000000  -0.00000000  -0.00000000  1
  Cu  Cu3  1  -0.00000000  0.50000000  0.50000000  1
  As  As4  1  0.25000000  0.74950699  0.14659596  1
  As  As5  1  0.25000000  0.75049301  0.64659596  1
  As  As6  1  0.75000000  0.25049301  0.85340404  1
  As  As7  1  0.75000000  0.24950699  0.35340404  1
  As  As8  1  0.75000000  0.73818720  0.90166113  1
  As  As9  1  0.75000000  0.76181280  0.40166113  1
  As  As10  1  0.25000000  0.26181280  0.09833887  1
  As  As11  1  0.25000000  0.23818720  0.59833887  1
  H  H12  1  0.62892928  0.58263620  0.15413120  1
  H  H13  1  0.87107072  0.91736380  0.65413120  1
  H  H14  1  0.12892928  0.41736380  0.84586880  1
  H  H15  1  0.37107072  0.08263620  0.34586880  1
  H  H16  1  0.37107072  0.41736380  0.84586880  1
  H  H17  1  0.12892928  0.08263620  0.34586880  1
  H  H18  1  0.87107072  0.58263620  0.15413120  1
  H  H19  1  0.62892928  0.91736380  0.65413120  1
  H  H20  1  0.75000000  0.49225687  0.08503384  1
  H  H21  1  0.75000000  0.00774313  0.58503384  1
  H  H22  1  0.25000000  0.50774313  0.91496616  1
  H  H23  1  0.25000000  0.99225687  0.41496616  1
  O  O24  1  0.75000000  0.53217947  0.14511265  1
  O  O25  1  0.75000000  0.96782053  0.64511265  1
  O  O26  1  0.25000000  0.46782053  0.85488735  1
  O  O27  1  0.25000000  0.03217947  0.35488735  1
  F  F28  1  0.93060139  0.86256893  0.90840865  1
  F  F29  1  0.56939861  0.63743107  0.40840865  1
  F  F30  1  0.43060139  0.13743107  0.09159135  1
  F  F31  1  0.06939861  0.36256893  0.59159135  1
  F  F32  1  0.06939861  0.13743107  0.09159135  1
  F  F33  1  0.43060139  0.36256893  0.59159135  1
  F  F34  1  0.56939861  0.86256893  0.90840865  1
  F  F35  1  0.93060139  0.63743107  0.40840865  1
  F  F36  1  0.06957216  0.86213522  0.12277563  1
  F  F37  1  0.43042784  0.63786478  0.62277563  1
  F  F38  1  0.56957216  0.13786478  0.87722437  1
  F  F39  1  0.93042784  0.36213522  0.37722437  1
  F  F40  1  0.93042784  0.13786478  0.87722437  1
  F  F41  1  0.56957216  0.36213522  0.37722437  1
  F  F42  1  0.43042784  0.86213522  0.12277563  1
  F  F43  1  0.06957216  0.63786478  0.62277563  1
  F  F44  1  0.75000000  0.01130117  0.04522816  1
  F  F45  1  0.75000000  0.48869883  0.54522816  1
  F  F46  1  0.25000000  0.98869883  0.95477184  1
  F  F47  1  0.25000000  0.51130117  0.45477184  1
  F  F48  1  0.25000000  0.79018974  0.26132049  1
  F  F49  1  0.25000000  0.70981026  0.76132049  1
  F  F50  1  0.75000000  0.20981026  0.73867951  1
  F  F51  1  0.75000000  0.29018974  0.23867951  1
  F  F52  1  0.42793144  0.63278600  0.17012627  1
  F  F53  1  0.07206856  0.86721400  0.67012627  1
  F  F54  1  0.92793144  0.36721400  0.82987373  1
  F  F55  1  0.57206856  0.13278600  0.32987373  1
  F  F56  1  0.57206856  0.36721400  0.82987373  1
  F  F57  1  0.92793144  0.13278600  0.32987373  1
  F  F58  1  0.07206856  0.63278600  0.17012627  1
  F  F59  1  0.42793144  0.86721400  0.67012627  1
  F  F60  1  0.25000000  0.70279010  0.03142227  1
  F  F61  1  0.25000000  0.79720990  0.53142227  1
  F  F62  1  0.75000000  0.29720990  0.96857773  1
  F  F63  1  0.75000000  0.20279010  0.46857773  1
  F  F64  1  0.56905727  0.62614406  0.89711460  1
  F  F65  1  0.93094273  0.87385594  0.39711460  1
  F  F66  1  0.06905727  0.37385594  0.10288540  1
  F  F67  1  0.43094273  0.12614406  0.60288540  1
  F  F68  1  0.43094273  0.37385594  0.10288540  1
  F  F69  1  0.06905727  0.12614406  0.60288540  1
  F  F70  1  0.93094273  0.62614406  0.89711460  1
  F  F71  1  0.56905727  0.87385594  0.39711460  1
  F  F72  1  0.75000000  0.73324806  0.02177445  1
  F  F73  1  0.75000000  0.76675194  0.52177445  1
  F  F74  1  0.25000000  0.26675194  0.97822555  1
  F  F75  1  0.25000000  0.23324806  0.47822555  1
  F  F76  1  0.75000000  0.75909107  0.78348411  1
  F  F77  1  0.75000000  0.74090893  0.28348411  1
  F  F78  1  0.25000000  0.24090893  0.21651589  1
  F  F79  1  0.25000000  0.25909107  0.71651589  1
