# generated using pymatgen
data_Tl2Cu(SO3)2
_symmetry_space_group_name_H-M   'P 1'
_cell_length_a   5.22337893
_cell_length_b   5.60275019
_cell_length_c   7.49856507
_cell_angle_alpha   92.99234855
_cell_angle_beta   110.38040175
_cell_angle_gamma   117.79832413
_symmetry_Int_Tables_number   1
_chemical_formula_structural   Tl2Cu(SO3)2
_chemical_formula_sum   'Tl2 Cu1 S2 O6'
_cell_volume   175.77017064
_cell_formula_units_Z   1
loop_
 _symmetry_equiv_pos_site_id
 _symmetry_equiv_pos_as_xyz
  1  'x, y, z'
loop_
 _atom_site_type_symbol
 _atom_site_label
 _atom_site_symmetry_multiplicity
 _atom_site_fract_x
 _atom_site_fract_y
 _atom_site_fract_z
 _atom_site_occupancy
  O  O0  1  0.93665385  0.65592072  0.71725565  1
  O  O1  1  0.93979776  0.22019975  0.68648171  1
  S  S2  1  0.27335528  0.65120510  0.39581605  1
  O  O3  1  0.06317238  0.34411998  0.28230276  1
  O  O4  1  0.53322745  0.78035012  0.31389561  1
  Tl  Tl5  1  0.57621063  0.77911315  0.87360926  1
  O  O6  1  0.46706187  0.21984543  0.68634366  1
  O  O7  1  0.06041528  0.78001902  0.31366101  1
  Cu  Cu8  1  -0.00002660  0.99960038  0.50036039  1
  Tl  Tl9  1  0.42351316  0.22085763  0.12615665  1
  S  S10  1  0.72661894  0.34876873  0.60411726  1
