# generated using pymatgen
data_Ca9Mg(PO4)7
_symmetry_space_group_name_H-M   'P 1'
_cell_length_a   10.45039116
_cell_length_b   10.45039116
_cell_length_c   13.86278463
_cell_angle_alpha   67.85681545
_cell_angle_beta   67.85681545
_cell_angle_gamma   60.00000469
_symmetry_Int_Tables_number   1
_chemical_formula_structural   Ca9Mg(PO4)7
_chemical_formula_sum   'Ca18 Mg2 P14 O56'
_cell_volume   1180.43525862
_cell_formula_units_Z   2
loop_
 _symmetry_equiv_pos_site_id
 _symmetry_equiv_pos_as_xyz
  1  'x, y, z'
loop_
 _atom_site_type_symbol
 _atom_site_label
 _atom_site_symmetry_multiplicity
 _atom_site_fract_x
 _atom_site_fract_y
 _atom_site_fract_z
 _atom_site_occupancy
  Ca  Ca0  1  0.96582135  0.53062116  0.51558067  1
  Ca  Ca1  1  0.53062116  0.98797682  0.51558067  1
  Ca  Ca2  1  0.98797682  0.96582135  0.51558067  1
  Ca  Ca3  1  0.46582135  0.48797682  0.01558067  1
  Ca  Ca4  1  0.48797682  0.03062116  0.01558067  1
  Ca  Ca5  1  0.03062116  0.46582135  0.01558067  1
  Ca  Ca6  1  0.06924822  0.65431939  0.19454949  1
  Ca  Ca7  1  0.65431939  0.08188289  0.19454949  1
  Ca  Ca8  1  0.08188289  0.06924822  0.19454949  1
  Ca  Ca9  1  0.56924822  0.58188289  0.69454949  1
  Ca  Ca10  1  0.58188289  0.15431939  0.69454949  1
  Ca  Ca11  1  0.15431939  0.56924822  0.69454949  1
  Ca  Ca12  1  0.93999647  0.34465958  0.80378976  1
  Ca  Ca13  1  0.34465958  0.91155419  0.80378976  1
  Ca  Ca14  1  0.91155419  0.93999647  0.80378976  1
  Ca  Ca15  1  0.43999647  0.41155419  0.30378976  1
  Ca  Ca16  1  0.41155419  0.84465958  0.30378976  1
  Ca  Ca17  1  0.84465958  0.43999647  0.30378976  1
  Mg  Mg18  1  0.50019873  0.50019873  0.49940380  1
  Mg  Mg19  1  0.00019873  0.00019873  0.99940380  1
  P  P20  1  0.74611182  0.74611182  0.76166455  1
  P  P21  1  0.24611182  0.24611182  0.26166455  1
  P  P22  1  0.81029561  0.31864144  0.09199136  1
  P  P23  1  0.31864144  0.77907159  0.09199136  1
  P  P24  1  0.77907159  0.81029561  0.09199136  1
  P  P25  1  0.31029561  0.27907159  0.59199136  1
  P  P26  1  0.27907159  0.81864144  0.59199136  1
  P  P27  1  0.81864144  0.31029561  0.59199136  1
  P  P28  1  0.72622666  0.18127822  0.40178928  1
  P  P29  1  0.18127822  0.69070585  0.40178928  1
  P  P30  1  0.69070585  0.72622666  0.40178928  1
  P  P31  1  0.22622666  0.19070585  0.90178928  1
  P  P32  1  0.19070585  0.68127822  0.90178928  1
  P  P33  1  0.68127822  0.22622666  0.90178928  1
  O  O34  1  0.70456154  0.70456154  0.88631539  1
  O  O35  1  0.20456154  0.20456154  0.38631539  1
  O  O36  1  0.60889244  0.78068592  0.72180512  1
  O  O37  1  0.78068592  0.88861652  0.72180512  1
  O  O38  1  0.88861652  0.60889244  0.72180512  1
  O  O39  1  0.10889244  0.38861652  0.22180512  1
  O  O40  1  0.38861652  0.28068592  0.22180512  1
  O  O41  1  0.28068592  0.10889244  0.22180512  1
  O  O42  1  0.86133020  0.39754887  0.97469376  1
  O  O43  1  0.39754887  0.76642717  0.97469376  1
  O  O44  1  0.76642717  0.86133020  0.97469376  1
  O  O45  1  0.36133020  0.26642717  0.47469376  1
  O  O46  1  0.26642717  0.89754887  0.47469376  1
  O  O47  1  0.89754887  0.36133020  0.47469376  1
  O  O48  1  0.63604719  0.37557505  0.13202706  1
  O  O49  1  0.37557505  0.85635069  0.13202706  1
  O  O50  1  0.85635069  0.63604719  0.13202706  1
  O  O51  1  0.13604719  0.35635069  0.63202706  1
  O  O52  1  0.35635069  0.87557505  0.63202706  1
  O  O53  1  0.87557505  0.13604719  0.63202706  1
  O  O54  1  0.88498458  0.34018361  0.15987325  1
  O  O55  1  0.34018361  0.61495857  0.15987325  1
  O  O56  1  0.61495857  0.88498458  0.15987325  1
  O  O57  1  0.38498458  0.11495857  0.65987325  1
  O  O58  1  0.11495857  0.84018361  0.65987325  1
  O  O59  1  0.84018361  0.38498458  0.65987325  1
  O  O60  1  0.87856725  0.14190157  0.10574805  1
  O  O61  1  0.14190157  0.87378313  0.10574805  1
  O  O62  1  0.87378313  0.87856725  0.10574805  1
  O  O63  1  0.37856725  0.37378313  0.60574805  1
  O  O64  1  0.37378313  0.64190157  0.60574805  1
  O  O65  1  0.64190157  0.37856725  0.60574805  1
  O  O66  1  0.70196079  0.08591321  0.51990525  1
  O  O67  1  0.08591321  0.69222076  0.51990525  1
  O  O68  1  0.69222076  0.70196079  0.51990525  1
  O  O69  1  0.20196079  0.19222076  0.01990525  1
  O  O70  1  0.19222076  0.58591321  0.01990525  1
  O  O71  1  0.58591321  0.20196079  0.01990525  1
  O  O72  1  0.89796128  0.14662135  0.36144445  1
  O  O73  1  0.14662135  0.59397292  0.36144445  1
  O  O74  1  0.59397292  0.89796128  0.36144445  1
  O  O75  1  0.39796128  0.09397292  0.86144445  1
  O  O76  1  0.09397292  0.64662135  0.86144445  1
  O  O77  1  0.64662135  0.39796128  0.86144445  1
  O  O78  1  0.66543234  0.13881819  0.33813653  1
  O  O79  1  0.13881819  0.85761294  0.33813653  1
  O  O80  1  0.85761294  0.66543234  0.33813653  1
  O  O81  1  0.16543234  0.35761294  0.83813653  1
  O  O82  1  0.35761294  0.63881819  0.83813653  1
  O  O83  1  0.63881819  0.16543234  0.83813653  1
  O  O84  1  0.63591750  0.35709238  0.39243805  1
  O  O85  1  0.35709238  0.61455207  0.39243805  1
  O  O86  1  0.61455207  0.63591750  0.39243805  1
  O  O87  1  0.13591750  0.11455207  0.89243805  1
  O  O88  1  0.11455207  0.85709238  0.89243805  1
  O  O89  1  0.85709238  0.13591750  0.89243805  1
