# generated using pymatgen
data_Tm11Ge10
_symmetry_space_group_name_H-M   'P 1'
_cell_length_a   10.80815626
_cell_length_b   10.80815626
_cell_length_c   11.12893930
_cell_angle_alpha   119.05099936
_cell_angle_beta   119.05099936
_cell_angle_gamma   90.00000000
_symmetry_Int_Tables_number   1
_chemical_formula_structural   Tm11Ge10
_chemical_formula_sum   'Tm22 Ge20'
_cell_volume   945.02215615
_cell_formula_units_Z   2
loop_
 _symmetry_equiv_pos_site_id
 _symmetry_equiv_pos_as_xyz
  1  'x, y, z'
loop_
 _atom_site_type_symbol
 _atom_site_label
 _atom_site_symmetry_multiplicity
 _atom_site_fract_x
 _atom_site_fract_y
 _atom_site_fract_z
 _atom_site_occupancy
  Tm  Tm0  1  0.93747429  0.18999531  0.37999062  1
  Tm  Tm1  1  0.44251633  0.18999531  0.37999062  1
  Tm  Tm2  1  0.18999531  0.44251633  0.37999062  1
  Tm  Tm3  1  0.18999531  0.93747429  0.37999062  1
  Tm  Tm4  1  0.06252571  0.81000469  0.62000938  1
  Tm  Tm5  1  0.55748367  0.81000469  0.62000938  1
  Tm  Tm6  1  0.81000469  0.55748367  0.62000938  1
  Tm  Tm7  1  0.81000469  0.06252571  0.62000938  1
  Tm  Tm8  1  0.82320483  0.17679517  0.00000000  1
  Tm  Tm9  1  0.17679517  0.82320483  0.00000000  1
  Tm  Tm10  1  0.17679517  0.17679517  0.00000000  1
  Tm  Tm11  1  0.82320483  0.82320483  1.00000000  1
  Tm  Tm12  1  0.33964251  0.33964251  0.67928501  1
  Tm  Tm13  1  0.66035749  0.66035749  0.32071499  1
  Tm  Tm14  1  0.07337403  0.39723262  0.79446524  1
  Tm  Tm15  1  0.72109121  0.39723262  0.79446524  1
  Tm  Tm16  1  0.39723262  0.72109121  0.79446524  1
  Tm  Tm17  1  0.39723262  0.07337403  0.79446524  1
  Tm  Tm18  1  0.92662597  0.60276738  0.20553476  1
  Tm  Tm19  1  0.27890879  0.60276738  0.20553476  1
  Tm  Tm20  1  0.60276738  0.27890879  0.20553476  1
  Tm  Tm21  1  0.60276738  0.92662597  0.20553476  1
  Ge  Ge22  1  1.00000000  0.36099148  1.00000000  1
  Ge  Ge23  1  0.00000000  0.63900852  0.00000000  1
  Ge  Ge24  1  0.36099148  1.00000000  1.00000000  1
  Ge  Ge25  1  0.63900852  0.00000000  0.00000000  1
  Ge  Ge26  1  0.11482822  0.11482822  0.22965644  1
  Ge  Ge27  1  0.88517178  0.88517178  0.77034356  1
  Ge  Ge28  1  0.62097954  0.37902046  -0.00000000  1
  Ge  Ge29  1  0.37902046  0.62097954  -0.00000000  1
  Ge  Ge30  1  0.37902046  0.37902046  0.00000000  1
  Ge  Ge31  1  0.62097954  0.62097954  1.00000000  1
  Ge  Ge32  1  0.75000000  0.25000000  0.50000000  1
  Ge  Ge33  1  0.25000000  0.75000000  0.50000000  1
  Ge  Ge34  1  0.10947008  0.52916997  0.63864005  1
  Ge  Ge35  1  0.52916997  0.10947008  0.63864005  1
  Ge  Ge36  1  0.52916997  0.52916997  0.63864005  1
  Ge  Ge37  1  0.10947008  0.10947008  0.63864005  1
  Ge  Ge38  1  0.89052992  0.47083003  0.36135995  1
  Ge  Ge39  1  0.47083003  0.89052992  0.36135995  1
  Ge  Ge40  1  0.47083003  0.47083003  0.36135995  1
  Ge  Ge41  1  0.89052992  0.89052992  0.36135995  1
