# generated using pymatgen
data_MnH4(NO4)2
_symmetry_space_group_name_H-M   'P 1'
_cell_length_a   6.17901977
_cell_length_b   8.98473935
_cell_length_c   23.31704524
_cell_angle_alpha   90.00000000
_cell_angle_beta   90.00000000
_cell_angle_gamma   90.00000000
_symmetry_Int_Tables_number   1
_chemical_formula_structural   MnH4(NO4)2
_chemical_formula_sum   'Mn8 H32 N16 O64'
_cell_volume   1294.48965086
_cell_formula_units_Z   8
loop_
 _symmetry_equiv_pos_site_id
 _symmetry_equiv_pos_as_xyz
  1  'x, y, z'
loop_
 _atom_site_type_symbol
 _atom_site_label
 _atom_site_symmetry_multiplicity
 _atom_site_fract_x
 _atom_site_fract_y
 _atom_site_fract_z
 _atom_site_occupancy
  Mn  Mn0  1  0.66183309  0.97470688  0.46576162  1
  Mn  Mn1  1  0.83816691  0.02529312  0.96576162  1
  Mn  Mn2  1  0.16183309  0.52529312  0.53423838  1
  Mn  Mn3  1  0.33816691  0.47470688  0.03423838  1
  Mn  Mn4  1  0.76497864  0.86599030  0.21939234  1
  Mn  Mn5  1  0.73502136  0.13400970  0.71939234  1
  Mn  Mn6  1  0.26497864  0.63400970  0.78060766  1
  Mn  Mn7  1  0.23502136  0.36599030  0.28060766  1
  H  H8  1  0.88798049  0.94770192  0.35675538  1
  H  H9  1  0.61201951  0.05229808  0.85675538  1
  H  H10  1  0.38798049  0.55229808  0.64324462  1
  H  H11  1  0.11201951  0.44770192  0.14324462  1
  H  H12  1  0.92999771  0.10304385  0.38677185  1
  H  H13  1  0.57000229  0.89695615  0.88677185  1
  H  H14  1  0.42999771  0.39695615  0.61322815  1
  H  H15  1  0.07000229  0.60304385  0.11322815  1
  H  H16  1  0.34568170  0.99974365  0.38574610  1
  H  H17  1  0.15431830  0.00025635  0.88574610  1
  H  H18  1  0.84568170  0.50025635  0.61425390  1
  H  H19  1  0.65431830  0.49974365  0.11425390  1
  H  H20  1  0.32323185  0.83638109  0.40816910  1
  H  H21  1  0.17676815  0.16361891  0.90816910  1
  H  H22  1  0.82323185  0.66361891  0.59183090  1
  H  H23  1  0.67676815  0.33638109  0.09183090  1
  H  H24  1  0.00773163  0.91269787  0.11831667  1
  H  H25  1  0.49226837  0.08730213  0.61831667  1
  H  H26  1  0.50773163  0.58730213  0.88168333  1
  H  H27  1  0.99226837  0.41269787  0.38168333  1
  H  H28  1  0.17729015  0.87032861  0.16505670  1
  H  H29  1  0.32270985  0.12967139  0.66505670  1
  H  H30  1  0.67729015  0.62967139  0.83494330  1
  H  H31  1  0.82270985  0.37032861  0.33494330  1
  H  H32  1  0.51585077  0.84898918  0.11896740  1
  H  H33  1  0.98414923  0.15101082  0.61896740  1
  H  H34  1  0.01585077  0.65101082  0.88103260  1
  H  H35  1  0.48414923  0.34898918  0.38103260  1
  H  H36  1  0.49664253  0.01095622  0.14430157  1
  H  H37  1  0.00335747  0.98904378  0.64430157  1
  H  H38  1  0.99664253  0.48904378  0.85569843  1
  H  H39  1  0.50335747  0.51095622  0.35569843  1
  N  N40  1  0.84230704  0.66180607  0.44592855  1
  N  N41  1  0.65769296  0.33819393  0.94592855  1
  N  N42  1  0.34230704  0.83819393  0.55407145  1
  N  N43  1  0.15769296  0.16180607  0.05407145  1
  N  N44  1  0.50961847  0.31088679  0.48845652  1
  N  N45  1  0.99038153  0.68911321  0.98845652  1
  N  N46  1  0.00961847  0.18911321  0.51154348  1
  N  N47  1  0.49038153  0.81088679  0.01154348  1
  N  N48  1  0.58707656  0.57650877  0.21745238  1
  N  N49  1  0.91292344  0.42349123  0.71745238  1
  N  N50  1  0.08707656  0.92349123  0.78254762  1
  N  N51  1  0.41292344  0.07650877  0.28254762  1
  N  N52  1  0.90805701  0.20334474  0.19793029  1
  N  N53  1  0.59194299  0.79665526  0.69793029  1
  N  N54  1  0.40805701  0.29665526  0.80206971  1
  N  N55  1  0.09194299  0.70334474  0.30206971  1
  O  O56  1  0.71556153  0.67014231  0.40446361  1
  O  O57  1  0.78443847  0.32985769  0.90446361  1
  O  O58  1  0.21556153  0.82985769  0.59553639  1
  O  O59  1  0.28443847  0.17014231  0.09553639  1
  O  O60  1  0.85767024  0.76736737  0.48233322  1
  O  O61  1  0.64232976  0.23263263  0.98233322  1
  O  O62  1  0.35767024  0.73263263  0.51766678  1
  O  O63  1  0.14232976  0.26736737  0.01766678  1
  O  O64  1  0.96349844  0.54690858  0.45263336  1
  O  O65  1  0.53650156  0.45309142  0.95263336  1
  O  O66  1  0.46349844  0.95309142  0.54736664  1
  O  O67  1  0.03650156  0.04690858  0.04736664  1
  O  O68  1  0.54877663  0.27393054  0.53866066  1
  O  O69  1  0.95122337  0.72606946  0.03866066  1
  O  O70  1  0.04877663  0.22606946  0.46133934  1
  O  O71  1  0.45122337  0.77393054  0.96133934  1
  O  O72  1  0.41599650  0.43353622  0.47612739  1
  O  O73  1  0.08400350  0.56646378  0.97612739  1
  O  O74  1  0.91599650  0.06646378  0.52387261  1
  O  O75  1  0.58400350  0.93353622  0.02387261  1
  O  O76  1  0.56240636  0.22616410  0.44621666  1
  O  O77  1  0.93759364  0.77383590  0.94621666  1
  O  O78  1  0.06240636  0.27383590  0.55378334  1
  O  O79  1  0.43759364  0.72616410  0.05378334  1
  O  O80  1  0.49094298  0.45318342  0.21790249  1
  O  O81  1  0.00905702  0.54681658  0.71790249  1
  O  O82  1  0.99094298  0.04681658  0.78209751  1
  O  O83  1  0.50905702  0.95318342  0.28209751  1
  O  O84  1  0.58370195  0.66381335  0.26013872  1
  O  O85  1  0.91629805  0.33618665  0.76013872  1
  O  O86  1  0.08370195  0.83618665  0.73986128  1
  O  O87  1  0.41629805  0.16381335  0.23986128  1
  O  O88  1  0.69256887  0.61765347  0.17322103  1
  O  O89  1  0.80743113  0.38234653  0.67322103  1
  O  O90  1  0.19256887  0.88234653  0.82677897  1
  O  O91  1  0.30743113  0.11765347  0.32677897  1
  O  O92  1  0.81444926  0.18664103  0.15103636  1
  O  O93  1  0.68555074  0.81335897  0.65103636  1
  O  O94  1  0.31444926  0.31335897  0.84896364  1
  O  O95  1  0.18555074  0.68664103  0.34896364  1
  O  O96  1  0.90632651  0.10304595  0.23622482  1
  O  O97  1  0.59367349  0.89695405  0.73622482  1
  O  O98  1  0.40632651  0.39695405  0.76377518  1
  O  O99  1  0.09367349  0.60304595  0.26377518  1
  O  O100  1  0.01015355  0.32572462  0.20842707  1
  O  O101  1  0.48984645  0.67427538  0.70842707  1
  O  O102  1  0.51015355  0.17427538  0.79157293  1
  O  O103  1  0.98984645  0.82572462  0.29157293  1
  O  O104  1  0.82854913  0.01970647  0.38429647  1
  O  O105  1  0.67145087  0.98029353  0.88429647  1
  O  O106  1  0.32854913  0.48029353  0.61570353  1
  O  O107  1  0.17145087  0.51970647  0.11570353  1
  O  O108  1  0.36244237  0.93673679  0.42042636  1
  O  O109  1  0.13755763  0.06326321  0.92042636  1
  O  O110  1  0.86244237  0.56326321  0.57957364  1
  O  O111  1  0.63755763  0.43673679  0.07957364  1
  O  O112  1  0.02500684  0.85601884  0.15421816  1
  O  O113  1  0.47499316  0.14398116  0.65421816  1
  O  O114  1  0.52500684  0.64398116  0.84578184  1
  O  O115  1  0.97499316  0.35601884  0.34578184  1
  O  O116  1  0.50719692  0.90593738  0.15533760  1
  O  O117  1  0.99280308  0.09406262  0.65533760  1
  O  O118  1  0.00719692  0.59406262  0.84466240  1
  O  O119  1  0.49280308  0.40593738  0.34466240  1
