# generated using pymatgen
data_CuAsH3O5
_symmetry_space_group_name_H-M   'P 1'
_cell_length_a   6.51406238
_cell_length_b   8.20453855
_cell_length_c   15.93274888
_cell_angle_alpha   86.07527785
_cell_angle_beta   84.85895460
_cell_angle_gamma   84.99088103
_symmetry_Int_Tables_number   1
_chemical_formula_structural   CuAsH3O5
_chemical_formula_sum   'Cu8 As8 H24 O40'
_cell_volume   843.28068115
_cell_formula_units_Z   8
loop_
 _symmetry_equiv_pos_site_id
 _symmetry_equiv_pos_as_xyz
  1  'x, y, z'
loop_
 _atom_site_type_symbol
 _atom_site_label
 _atom_site_symmetry_multiplicity
 _atom_site_fract_x
 _atom_site_fract_y
 _atom_site_fract_z
 _atom_site_occupancy
  Cu  Cu0  1  0.63425723  0.63738805  0.95904180  1
  Cu  Cu1  1  0.36574277  0.36261195  0.04095820  1
  Cu  Cu2  1  0.11196294  0.14349593  0.55007680  1
  Cu  Cu3  1  0.88803706  0.85650407  0.44992320  1
  Cu  Cu4  1  0.61793880  0.59033680  0.55978328  1
  Cu  Cu5  1  0.38206120  0.40966320  0.44021672  1
  Cu  Cu6  1  0.14242530  0.08584838  0.93315607  1
  Cu  Cu7  1  0.85757470  0.91415162  0.06684393  1
  As  As8  1  0.09104612  0.55568597  0.60126261  1
  As  As9  1  0.90895388  0.44431403  0.39873739  1
  As  As10  1  0.13432023  0.63522200  0.91076446  1
  As  As11  1  0.86567977  0.36477800  0.08923554  1
  As  As12  1  0.60884118  0.14362392  0.59388417  1
  As  As13  1  0.39115882  0.85637608  0.40611583  1
  As  As14  1  0.64163161  0.02719667  0.89699730  1
  As  As15  1  0.35836839  0.97280333  0.10300270  1
  H  H16  1  0.11201513  0.62446353  0.73941974  1
  H  H17  1  0.88798487  0.37553647  0.26058026  1
  H  H18  1  0.36202274  0.82459873  0.86222905  1
  H  H19  1  0.63797726  0.17540127  0.13777095  1
  H  H20  1  0.80199478  0.33990640  0.64309799  1
  H  H21  1  0.19800522  0.66009360  0.35690201  1
  H  H22  1  0.64843894  0.07508256  0.75143685  1
  H  H23  1  0.35156106  0.92491744  0.24856315  1
  H  H24  1  0.65325576  0.38917667  0.79970902  1
  H  H25  1  0.34674424  0.61082333  0.20029098  1
  H  H26  1  0.83035920  0.50015124  0.81401192  1
  H  H27  1  0.16964080  0.49984876  0.18598808  1
  H  H28  1  0.09620949  0.89869347  0.66562268  1
  H  H29  1  0.90379051  0.10130653  0.33437732  1
  H  H30  1  0.26975861  0.01362969  0.67976198  1
  H  H31  1  0.73024139  0.98637031  0.32023802  1
  H  H32  1  0.61494217  0.62325592  0.72084457  1
  H  H33  1  0.38505783  0.37674408  0.27915543  1
  H  H34  1  0.57421311  0.80592078  0.67249907  1
  H  H35  1  0.42578689  0.19407922  0.32750093  1
  H  H36  1  0.03216776  0.17063924  0.78666210  1
  H  H37  1  0.96783224  0.82936076  0.21333790  1
  H  H38  1  0.13237888  0.32074916  0.82311853  1
  H  H39  1  0.86762112  0.67925084  0.17688147  1
  O  O40  1  0.02667772  0.37079266  0.64410074  1
  O  O41  1  0.97332228  0.62920734  0.35589926  1
  O  O42  1  0.90410507  0.65695711  0.54075300  1
  O  O43  1  0.09589493  0.34304289  0.45924700  1
  O  O44  1  0.32575124  0.55168192  0.54075048  1
  O  O45  1  0.67424876  0.44831808  0.45924952  1
  O  O46  1  0.09238802  0.51957499  0.82990697  1
  O  O47  1  0.90761198  0.48042501  0.17009303  1
  O  O48  1  0.91824988  0.67618412  0.97827874  1
  O  O49  1  0.08175012  0.32381588  0.02172126  1
  O  O50  1  0.34445980  0.56781318  0.96784830  1
  O  O51  1  0.65554020  0.43218682  0.03215170  1
  O  O52  1  0.40757871  0.17967494  0.53074384  1
  O  O53  1  0.59242129  0.82032506  0.46925616  1
  O  O54  1  0.83380548  0.08294387  0.53532698  1
  O  O55  1  0.16619452  0.91705613  0.46467302  1
  O  O56  1  0.54654999  0.01121392  0.67898556  1
  O  O57  1  0.45345001  0.98878608  0.32101444  1
  O  O58  1  0.59770324  0.82923666  0.87713834  1
  O  O59  1  0.40229676  0.17076334  0.12286166  1
  O  O60  1  0.42746256  0.13935102  0.93976683  1
  O  O61  1  0.57253744  0.86064898  0.06023317  1
  O  O62  1  0.84407868  0.04896643  0.95766257  1
  O  O63  1  0.15592132  0.95103357  0.04233743  1
  O  O64  1  0.09701849  0.68877822  0.68291315  1
  O  O65  1  0.90298151  0.31122178  0.31708685  1
  O  O66  1  0.20493057  0.82440701  0.86197123  1
  O  O67  1  0.79506943  0.17559299  0.13802877  1
  O  O68  1  0.64519761  0.32924743  0.63906382  1
  O  O69  1  0.35480239  0.67075257  0.36093618  1
  O  O70  1  0.72050664  0.12368191  0.79936048  1
  O  O71  1  0.27949336  0.87631809  0.20063952  1
  O  O72  1  0.67984376  0.50275328  0.80736967  1
  O  O73  1  0.32015624  0.49724672  0.19263033  1
  O  O74  1  0.12518781  0.01603078  0.66333865  1
  O  O75  1  0.87481219  0.98396922  0.33666135  1
  O  O76  1  0.55908508  0.68566257  0.67016190  1
  O  O77  1  0.44091492  0.31433743  0.32983810  1
  O  O78  1  0.14282312  0.19780255  0.82016209  1
  O  O79  1  0.85717688  0.80219745  0.17983791  1
