# generated using pymatgen
data_U3H2OF12
_symmetry_space_group_name_H-M   'P 1'
_cell_length_a   8.54712258
_cell_length_b   8.54712258
_cell_length_c   8.62333584
_cell_angle_alpha   63.25458261
_cell_angle_beta   63.25458261
_cell_angle_gamma   88.39242013
_symmetry_Int_Tables_number   1
_chemical_formula_structural   U3H2OF12
_chemical_formula_sum   'U6 H4 O2 F24'
_cell_volume   490.20993876
_cell_formula_units_Z   2
loop_
 _symmetry_equiv_pos_site_id
 _symmetry_equiv_pos_as_xyz
  1  'x, y, z'
loop_
 _atom_site_type_symbol
 _atom_site_label
 _atom_site_symmetry_multiplicity
 _atom_site_fract_x
 _atom_site_fract_y
 _atom_site_fract_z
 _atom_site_occupancy
  U  U0  1  0.20503880  0.82934809  0.92824938  1
  U  U1  1  0.82934809  0.20503880  0.92824938  1
  U  U2  1  0.32046608  0.97911349  0.32154351  1
  U  U3  1  0.97911349  0.32046608  0.32154351  1
  U  U4  1  0.41107539  0.41107539  0.44116192  1
  U  U5  1  0.78256125  0.78256125  0.76829755  1
  H  H6  1  0.46785689  0.33614665  0.79675948  1
  H  H7  1  0.33614665  0.46785689  0.79675948  1
  H  H8  1  0.78672231  0.65409200  0.47534747  1
  H  H9  1  0.65409200  0.78672231  0.47534747  1
  O  O10  1  0.42963055  0.42963055  0.71050290  1
  O  O11  1  0.73431914  0.73431914  0.52722473  1
  F  F12  1  0.38417807  0.68692260  0.39624666  1
  F  F13  1  0.68692260  0.38417807  0.39624666  1
  F  F14  1  0.28280681  0.89584692  0.11281189  1
  F  F15  1  0.89584692  0.28280681  0.11281189  1
  F  F16  1  0.32239315  0.85830003  0.61264162  1
  F  F17  1  0.85830003  0.32239315  0.61264162  1
  F  F18  1  0.49245549  0.78459900  0.84217311  1
  F  F19  1  0.78459900  0.49245549  0.84217311  1
  F  F20  1  0.34994087  0.11874506  0.69806079  1
  F  F21  1  0.11874506  0.34994087  0.69806079  1
  F  F22  1  0.62791677  0.98524871  0.24017074  1
  F  F23  1  0.98524871  0.62791677  0.24017074  1
  F  F24  1  0.44548494  0.22196179  0.31503672  1
  F  F25  1  0.22196179  0.44548494  0.31503672  1
  F  F26  1  0.53450546  0.19117417  0.98751439  1
  F  F27  1  0.19117417  0.53450546  0.98751439  1
  F  F28  1  0.97729991  0.74932006  0.88454473  1
  F  F29  1  0.74932006  0.97729991  0.88454473  1
  F  F30  1  0.05169714  0.78724063  0.51843395  1
  F  F31  1  0.78724063  0.05169714  0.51843395  1
  F  F32  1  0.99974501  0.99974501  0.99790921  1
  F  F33  1  0.08201403  0.08201403  0.52975516  1
  F  F34  1  0.18045237  0.18045237  0.17406989  1
  F  F35  1  0.60243036  0.60243036  0.11079979  1
