# generated using pymatgen
data_KMo4AsO15
_symmetry_space_group_name_H-M   'P 1'
_cell_length_a   8.24997196
_cell_length_b   12.29504621
_cell_length_c   13.01779326
_cell_angle_alpha   90.00000000
_cell_angle_beta   90.00000000
_cell_angle_gamma   90.00000000
_symmetry_Int_Tables_number   1
_chemical_formula_structural   KMo4AsO15
_chemical_formula_sum   'K4 Mo16 As4 O60'
_cell_volume   1320.44406197
_cell_formula_units_Z   4
loop_
 _symmetry_equiv_pos_site_id
 _symmetry_equiv_pos_as_xyz
  1  'x, y, z'
loop_
 _atom_site_type_symbol
 _atom_site_label
 _atom_site_symmetry_multiplicity
 _atom_site_fract_x
 _atom_site_fract_y
 _atom_site_fract_z
 _atom_site_occupancy
  K  K0  1  0.06418388  0.25563225  0.89763177  1
  K  K1  1  0.43581612  0.74436775  0.39763177  1
  K  K2  1  0.56418388  0.24436775  0.10236823  1
  K  K3  1  0.93581612  0.75563225  0.60236823  1
  Mo  Mo4  1  0.01097797  0.91642931  0.88228053  1
  Mo  Mo5  1  0.48902203  0.08357069  0.38228053  1
  Mo  Mo6  1  0.51097797  0.58357069  0.11771947  1
  Mo  Mo7  1  0.98902203  0.41642931  0.61771947  1
  Mo  Mo8  1  0.21590053  0.14133114  0.59388653  1
  Mo  Mo9  1  0.28409947  0.85866886  0.09388653  1
  Mo  Mo10  1  0.71590053  0.35866886  0.40611347  1
  Mo  Mo11  1  0.78409947  0.64133114  0.90611347  1
  Mo  Mo12  1  0.80552438  0.13641618  0.57029724  1
  Mo  Mo13  1  0.69447562  0.86358382  0.07029724  1
  Mo  Mo14  1  0.30552438  0.36358382  0.42970276  1
  Mo  Mo15  1  0.19447562  0.63641618  0.92970276  1
  Mo  Mo16  1  0.53782777  0.21421903  0.81623238  1
  Mo  Mo17  1  0.96217223  0.78578097  0.31623238  1
  Mo  Mo18  1  0.03782777  0.28578097  0.18376762  1
  Mo  Mo19  1  0.46217223  0.71421903  0.68376762  1
  As  As20  1  0.43664330  0.93919330  0.84754730  1
  As  As21  1  0.06335670  0.06080670  0.34754730  1
  As  As22  1  0.93664330  0.56080670  0.15245270  1
  As  As23  1  0.56335670  0.43919330  0.65245270  1
  O  O24  1  0.23419081  0.00233742  0.58940568  1
  O  O25  1  0.26580919  0.99766258  0.08940568  1
  O  O26  1  0.73419081  0.49766258  0.41059432  1
  O  O27  1  0.76580919  0.50233742  0.91059432  1
  O  O28  1  0.55662522  0.05238871  0.83441056  1
  O  O29  1  0.94337478  0.94761129  0.33441056  1
  O  O30  1  0.05662522  0.44761129  0.16558944  1
  O  O31  1  0.44337478  0.55238871  0.66558944  1
  O  O32  1  0.67023720  0.18038288  0.66828844  1
  O  O33  1  0.82976280  0.81961712  0.16828844  1
  O  O34  1  0.17023720  0.31961712  0.33171156  1
  O  O35  1  0.32976280  0.68038288  0.83171156  1
  O  O36  1  0.33653214  0.17661811  0.70194875  1
  O  O37  1  0.16346786  0.82338189  0.20194875  1
  O  O38  1  0.83653214  0.32338189  0.29805125  1
  O  O39  1  0.66346786  0.67661811  0.79805125  1
  O  O40  1  0.50247390  0.36032498  0.75377481  1
  O  O41  1  0.99752610  0.63967502  0.25377481  1
  O  O42  1  0.00247390  0.13967502  0.24622519  1
  O  O43  1  0.49752610  0.86032498  0.74622519  1
  O  O44  1  0.23699262  0.97448759  0.84022148  1
  O  O45  1  0.26300738  0.02551241  0.34022148  1
  O  O46  1  0.73699262  0.52551241  0.15977852  1
  O  O47  1  0.76300738  0.47448759  0.65977852  1
  O  O48  1  0.71874616  0.24294058  0.87680523  1
  O  O49  1  0.78125384  0.75705942  0.37680523  1
  O  O50  1  0.21874616  0.25705942  0.12319477  1
  O  O51  1  0.28125384  0.74294058  0.62319477  1
  O  O52  1  0.39640915  0.23306330  0.91330642  1
  O  O53  1  0.10359085  0.76693670  0.41330642  1
  O  O54  1  0.89640915  0.26693670  0.08669358  1
  O  O55  1  0.60359085  0.73306330  0.58669358  1
  O  O56  1  0.79218510  0.99739407  0.57455377  1
  O  O57  1  0.70781490  0.00260593  0.07455377  1
  O  O58  1  0.29218510  0.50260593  0.42544623  1
  O  O59  1  0.20781490  0.49739407  0.92544623  1
  O  O60  1  0.00292641  0.16711656  0.64972406  1
  O  O61  1  0.49707359  0.83288344  0.14972406  1
  O  O62  1  0.50292641  0.33288344  0.35027594  1
  O  O63  1  0.99707359  0.66711656  0.85027594  1
  O  O64  1  0.14795454  0.81921556  0.97665289  1
  O  O65  1  0.35204546  0.18078444  0.47665289  1
  O  O66  1  0.64795454  0.68078444  0.02334711  1
  O  O67  1  0.85204546  0.31921556  0.52334711  1
  O  O68  1  0.82352542  0.83642983  0.94593433  1
  O  O69  1  0.67647458  0.16357017  0.44593433  1
  O  O70  1  0.32352542  0.66357017  0.05406567  1
  O  O71  1  0.17647458  0.33642983  0.55406567  1
  O  O72  1  0.47702311  0.87467848  0.96242975  1
  O  O73  1  0.02297689  0.12532152  0.46242975  1
  O  O74  1  0.97702311  0.62532152  0.03757025  1
  O  O75  1  0.52297689  0.37467848  0.53757025  1
  O  O76  1  0.95623189  0.89593217  0.75599504  1
  O  O77  1  0.54376811  0.10406783  0.25599504  1
  O  O78  1  0.45623189  0.60406783  0.24400496  1
  O  O79  1  0.04376811  0.39593217  0.74400496  1
  O  O80  1  0.95156609  0.04568013  0.91636230  1
  O  O81  1  0.54843391  0.95431987  0.41636230  1
  O  O82  1  0.45156609  0.45431987  0.08363770  1
  O  O83  1  0.04843391  0.54568013  0.58363770  1
