# generated using pymatgen
data_Ca3MnH12S2O17
_symmetry_space_group_name_H-M   'P 1'
_cell_length_a   8.60519910
_cell_length_b   8.60434303
_cell_length_c   10.86462421
_cell_angle_alpha   90.00000000
_cell_angle_beta   90.00000000
_cell_angle_gamma   120.00328845
_symmetry_Int_Tables_number   1
_chemical_formula_structural   Ca3MnH12S2O17
_chemical_formula_sum   'Ca6 Mn2 H24 S4 O34'
_cell_volume   696.64189433
_cell_formula_units_Z   2
loop_
 _symmetry_equiv_pos_site_id
 _symmetry_equiv_pos_as_xyz
  1  'x, y, z'
loop_
 _atom_site_type_symbol
 _atom_site_label
 _atom_site_symmetry_multiplicity
 _atom_site_fract_x
 _atom_site_fract_y
 _atom_site_fract_z
 _atom_site_occupancy
  Ca  Ca0  1  0.14548774  0.30261905  0.25000000  1
  Ca  Ca1  1  0.15708952  0.85457553  0.25000000  1
  Ca  Ca2  1  0.69754927  0.84285269  0.25000000  1
  Ca  Ca3  1  0.84286870  0.69738095  0.75000000  1
  Ca  Ca4  1  0.30251399  0.14542447  0.75000000  1
  Ca  Ca5  1  0.85469658  0.15714731  0.75000000  1
  Mn  Mn6  1  0.99993004  0.00000000  0.00000000  1
  Mn  Mn7  1  0.99993004  0.00000000  0.50000000  1
  H  H8  1  0.83733824  0.15001196  0.05766715  1
  H  H9  1  0.31248781  0.16255462  0.05764360  1
  H  H10  1  0.85007358  0.68734032  0.05765849  1
  H  H11  1  0.83733824  0.15001196  0.44233285  1
  H  H12  1  0.31248781  0.16255462  0.44235640  1
  H  H13  1  0.85007358  0.68734032  0.44234151  1
  H  H14  1  0.68732628  0.84998804  0.55766715  1
  H  H15  1  0.14993319  0.83744538  0.55764360  1
  H  H16  1  0.16273326  0.31265968  0.55765849  1
  H  H17  1  0.68732628  0.84998804  0.94233285  1
  H  H18  1  0.14993319  0.83744538  0.94235640  1
  H  H19  1  0.16273326  0.31265968  0.94234151  1
  H  H20  1  0.54104232  0.44027980  0.18019780  1
  H  H21  1  0.89931218  0.45903856  0.18019976  1
  H  H22  1  0.55977662  0.10082549  0.18021838  1
  H  H23  1  0.54104232  0.44027980  0.31980220  1
  H  H24  1  0.89931218  0.45903856  0.31980024  1
  H  H25  1  0.55977662  0.10082549  0.31978162  1
  H  H26  1  0.10076252  0.55972020  0.68019780  1
  H  H27  1  0.44027362  0.54096144  0.68019976  1
  H  H28  1  0.45895114  0.89917451  0.68021838  1
  H  H29  1  0.10076252  0.55972020  0.81980220  1
  H  H30  1  0.44027362  0.54096144  0.81980024  1
  H  H31  1  0.45895114  0.89917451  0.81978162  1
  S  S32  1  0.33336375  0.66659832  0.02537289  1
  S  S33  1  0.33336375  0.66659832  0.47462711  1
  S  S34  1  0.66676542  0.33340168  0.52537289  1
  S  S35  1  0.66676542  0.33340168  0.97462711  1
  O  O36  1  0.33336396  0.66670919  0.88799366  1
  O  O37  1  0.33336396  0.66670919  0.61200634  1
  O  O38  1  0.66665477  0.33329081  0.38799366  1
  O  O39  1  0.66665477  0.33329081  0.11200634  1
  O  O40  1  0.23931516  0.47740001  0.06860097  1
  O  O41  1  0.23811659  0.76078660  0.06866513  1
  O  O42  1  0.52265953  0.76191416  0.06865269  1
  O  O43  1  0.23931516  0.47740001  0.43139903  1
  O  O44  1  0.23811659  0.76078660  0.43133487  1
  O  O45  1  0.52265953  0.76191416  0.43134731  1
  O  O46  1  0.76191515  0.52259999  0.56860097  1
  O  O47  1  0.47733000  0.23921340  0.56866513  1
  O  O48  1  0.76074536  0.23808584  0.56865269  1
  O  O49  1  0.76191515  0.52259999  0.93139903  1
  O  O50  1  0.47733000  0.23921340  0.93133487  1
  O  O51  1  0.76074536  0.23808584  0.93134731  1
  O  O52  1  0.89547767  0.10043296  0.11081063  1
  O  O53  1  0.20481494  0.10442313  0.11078208  1
  O  O54  1  0.89947192  0.79520400  0.11066457  1
  O  O55  1  0.89547767  0.10043296  0.38918937  1
  O  O56  1  0.20481494  0.10442313  0.38921792  1
  O  O57  1  0.89947192  0.79520400  0.38933543  1
  O  O58  1  0.79504471  0.89956704  0.61081063  1
  O  O59  1  0.10039181  0.89557687  0.61078208  1
  O  O60  1  0.10426792  0.20479600  0.61066457  1
  O  O61  1  0.79504471  0.89956704  0.88918937  1
  O  O62  1  0.10039181  0.89557687  0.88921792  1
  O  O63  1  0.10426792  0.20479600  0.88933543  1
  O  O64  1  0.49834094  0.48291517  0.25000000  1
  O  O65  1  0.98465880  0.50163112  0.25000000  1
  O  O66  1  0.51704904  0.01543596  0.25000000  1
  O  O67  1  0.01542577  0.51708483  0.75000000  1
  O  O68  1  0.48302768  0.49836888  0.75000000  1
  O  O69  1  0.50161308  0.98456404  0.75000000  1
