# generated using pymatgen
data_CaH12(ClO7)2
_symmetry_space_group_name_H-M   'P 1'
_cell_length_a   8.08503400
_cell_length_b   11.15575516
_cell_length_c   27.26213295
_cell_angle_alpha   90.00000000
_cell_angle_beta   90.00000000
_cell_angle_gamma   90.00000000
_symmetry_Int_Tables_number   1
_chemical_formula_structural   CaH12(ClO7)2
_chemical_formula_sum   'Ca8 H96 Cl16 O112'
_cell_volume   2458.89880587
_cell_formula_units_Z   8
loop_
 _symmetry_equiv_pos_site_id
 _symmetry_equiv_pos_as_xyz
  1  'x, y, z'
loop_
 _atom_site_type_symbol
 _atom_site_label
 _atom_site_symmetry_multiplicity
 _atom_site_fract_x
 _atom_site_fract_y
 _atom_site_fract_z
 _atom_site_occupancy
  Ca  Ca0  1  0.02908040  0.62199363  0.70771169  1
  Ca  Ca1  1  0.97091960  0.37800637  0.20771169  1
  Ca  Ca2  1  0.02908040  0.87800637  0.20771169  1
  Ca  Ca3  1  0.97091960  0.12199363  0.70771169  1
  Ca  Ca4  1  0.47740387  0.62190800  0.92502786  1
  Ca  Ca5  1  0.52259613  0.37809200  0.42502786  1
  Ca  Ca6  1  0.47740387  0.87809200  0.42502786  1
  Ca  Ca7  1  0.52259613  0.12190800  0.92502786  1
  H  H8  1  0.31849240  0.77809642  0.73128011  1
  H  H9  1  0.68150760  0.22190358  0.23128011  1
  H  H10  1  0.31849240  0.72190358  0.23128011  1
  H  H11  1  0.68150760  0.27809642  0.73128011  1
  H  H12  1  0.21756544  0.85929787  0.69355112  1
  H  H13  1  0.78243456  0.14070213  0.19355112  1
  H  H14  1  0.21756544  0.64070213  0.19355112  1
  H  H15  1  0.78243456  0.35929787  0.69355112  1
  H  H16  1  0.79606137  0.83319522  0.69913450  1
  H  H17  1  0.20393863  0.16680478  0.19913450  1
  H  H18  1  0.79606137  0.66680478  0.19913450  1
  H  H19  1  0.20393863  0.33319522  0.69913450  1
  H  H20  1  0.70649117  0.73951571  0.73434083  1
  H  H21  1  0.29350883  0.26048429  0.23434083  1
  H  H22  1  0.70649117  0.76048429  0.23434083  1
  H  H23  1  0.29350883  0.23951571  0.73434083  1
  H  H24  1  0.57567605  0.51462219  0.02691619  1
  H  H25  1  0.42432395  0.48537781  0.52691619  1
  H  H26  1  0.57567605  0.98537781  0.52691619  1
  H  H27  1  0.42432395  0.01462219  0.02691619  1
  H  H28  1  0.38282786  0.52299147  0.02835780  1
  H  H29  1  0.61717214  0.47700853  0.52835780  1
  H  H30  1  0.38282786  0.97700853  0.52835780  1
  H  H31  1  0.61717214  0.02299147  0.02835780  1
  H  H32  1  0.26706360  0.39379680  0.93954030  1
  H  H33  1  0.73293640  0.60620320  0.43954030  1
  H  H34  1  0.26706360  0.10620320  0.43954030  1
  H  H35  1  0.73293640  0.89379680  0.93954030  1
  H  H36  1  0.17432371  0.47958377  0.90165905  1
  H  H37  1  0.82567629  0.52041623  0.40165905  1
  H  H38  1  0.17432371  0.02041623  0.40165905  1
  H  H39  1  0.82567629  0.97958377  0.90165905  1
  H  H40  1  0.56430484  0.73643531  0.83054817  1
  H  H41  1  0.43569516  0.26356469  0.33054817  1
  H  H42  1  0.56430484  0.76356469  0.33054817  1
  H  H43  1  0.43569516  0.23643531  0.83054817  1
  H  H44  1  0.63886737  0.82511731  0.87013533  1
  H  H45  1  0.36113263  0.17488269  0.37013533  1
  H  H46  1  0.63886737  0.67488269  0.37013533  1
  H  H47  1  0.36113263  0.32511731  0.87013533  1
  H  H48  1  0.93888329  0.51415131  0.80321961  1
  H  H49  1  0.06111671  0.48584869  0.30321961  1
  H  H50  1  0.93888329  0.98584869  0.30321961  1
  H  H51  1  0.06111671  0.01415131  0.80321961  1
  H  H52  1  0.87741235  0.41892669  0.76440094  1
  H  H53  1  0.12258765  0.58107331  0.26440094  1
  H  H54  1  0.87741235  0.08107331  0.26440094  1
  H  H55  1  0.12258765  0.91892669  0.76440094  1
  H  H56  1  0.82772019  0.48249442  0.62661380  1
  H  H57  1  0.17227981  0.51750558  0.12661380  1
  H  H58  1  0.82772019  0.01750558  0.12661380  1
  H  H59  1  0.17227981  0.98249442  0.62661380  1
  H  H60  1  0.70399552  0.53794562  0.66412076  1
  H  H61  1  0.29600448  0.46205438  0.16412076  1
  H  H62  1  0.70399552  0.96205438  0.16412076  1
  H  H63  1  0.29600448  0.03794562  0.66412076  1
  H  H64  1  0.91947864  0.71460282  0.60495326  1
  H  H65  1  0.08052136  0.28539718  0.10495326  1
  H  H66  1  0.91947864  0.78539718  0.10495326  1
  H  H67  1  0.08052136  0.21460282  0.60495326  1
  H  H68  1  0.11288185  0.71286292  0.60193493  1
  H  H69  1  0.88711815  0.28713708  0.10193493  1
  H  H70  1  0.11288185  0.78713708  0.10193493  1
  H  H71  1  0.88711815  0.21286292  0.60193493  1
  H  H72  1  0.18133136  0.46431263  0.62738862  1
  H  H73  1  0.81866864  0.53568737  0.12738862  1
  H  H74  1  0.18133136  0.03568737  0.12738862  1
  H  H75  1  0.81866864  0.96431263  0.62738862  1
  H  H76  1  0.32159755  0.49298854  0.66495881  1
  H  H77  1  0.67840245  0.50701146  0.16495881  1
  H  H78  1  0.32159755  0.00701146  0.16495881  1
  H  H79  1  0.67840245  0.99298854  0.66495881  1
  H  H80  1  0.33109186  0.78163094  0.00483882  1
  H  H81  1  0.66890814  0.21836906  0.50483882  1
  H  H82  1  0.33109186  0.71836906  0.50483882  1
  H  H83  1  0.66890814  0.28163094  0.00483882  1
  H  H84  1  0.18634074  0.74041694  0.97128802  1
  H  H85  1  0.81365926  0.25958306  0.47128802  1
  H  H86  1  0.18634074  0.75958306  0.47128802  1
  H  H87  1  0.81365926  0.24041694  0.97128802  1
  H  H88  1  0.66926037  0.76384273  0.00646390  1
  H  H89  1  0.33073963  0.23615727  0.50646390  1
  H  H90  1  0.66926037  0.73615727  0.50646390  1
  H  H91  1  0.33073963  0.26384273  0.00646390  1
  H  H92  1  0.79613152  0.70529476  0.97106783  1
  H  H93  1  0.20386848  0.29470524  0.47106783  1
  H  H94  1  0.79613152  0.79470524  0.47106783  1
  H  H95  1  0.20386848  0.20529476  0.97106783  1
  H  H96  1  0.71980577  0.41413745  0.93190742  1
  H  H97  1  0.28019423  0.58586255  0.43190742  1
  H  H98  1  0.71980577  0.08586255  0.43190742  1
  H  H99  1  0.28019423  0.91413745  0.93190742  1
  H  H100  1  0.80958950  0.51588665  0.90093319  1
  H  H101  1  0.19041050  0.48411335  0.40093319  1
  H  H102  1  0.80958950  0.98411335  0.40093319  1
  H  H103  1  0.19041050  0.01588665  0.90093319  1
  Cl  Cl104  1  0.50201398  0.72126280  0.60261495  1
  Cl  Cl105  1  0.49798602  0.27873720  0.10261495  1
  Cl  Cl106  1  0.50201398  0.77873720  0.10261495  1
  Cl  Cl107  1  0.49798602  0.22126280  0.60261495  1
  Cl  Cl108  1  0.06744021  0.69941605  0.86186469  1
  Cl  Cl109  1  0.93255979  0.30058395  0.36186469  1
  Cl  Cl110  1  0.06744021  0.80058395  0.36186469  1
  Cl  Cl111  1  0.93255979  0.19941605  0.86186469  1
  Cl  Cl112  1  0.43589435  0.55091352  0.77020812  1
  Cl  Cl113  1  0.56410565  0.44908648  0.27020812  1
  Cl  Cl114  1  0.43589435  0.94908648  0.27020812  1
  Cl  Cl115  1  0.56410565  0.05091352  0.77020812  1
  Cl  Cl116  1  0.99953861  0.47182579  0.52938008  1
  Cl  Cl117  1  0.00046139  0.52817421  0.02938008  1
  Cl  Cl118  1  0.99953861  0.02817421  0.02938008  1
  Cl  Cl119  1  0.00046139  0.97182579  0.52938008  1
  O  O120  1  0.20892344  0.79108994  0.71685072  1
  O  O121  1  0.79107656  0.20891006  0.21685072  1
  O  O122  1  0.20892344  0.70891006  0.21685072  1
  O  O123  1  0.79107656  0.29108994  0.71685072  1
  O  O124  1  0.80914076  0.75649736  0.71671916  1
  O  O125  1  0.19085924  0.24350264  0.21671916  1
  O  O126  1  0.80914076  0.74350264  0.21671916  1
  O  O127  1  0.19085924  0.25649736  0.71671916  1
  O  O128  1  0.47823973  0.52485299  0.00622184  1
  O  O129  1  0.52176027  0.47514701  0.50622184  1
  O  O130  1  0.47823973  0.97514701  0.50622184  1
  O  O131  1  0.52176027  0.02485299  0.00622184  1
  O  O132  1  0.28283623  0.45977549  0.91573025  1
  O  O133  1  0.71716377  0.54022451  0.41573025  1
  O  O134  1  0.28283623  0.04022451  0.41573025  1
  O  O135  1  0.71716377  0.95977549  0.91573025  1
  O  O136  1  0.60441548  0.74193948  0.86442506  1
  O  O137  1  0.39558452  0.25806052  0.36442506  1
  O  O138  1  0.60441548  0.75806052  0.36442506  1
  O  O139  1  0.39558452  0.24193948  0.86442506  1
  O  O140  1  0.90268088  0.50417687  0.76911386  1
  O  O141  1  0.09731912  0.49582313  0.26911386  1
  O  O142  1  0.90268088  0.99582313  0.26911386  1
  O  O143  1  0.09731912  0.00417687  0.76911386  1
  O  O144  1  0.81256374  0.49868317  0.66191116  1
  O  O145  1  0.18743626  0.50131683  0.16191116  1
  O  O146  1  0.81256374  0.00131683  0.16191116  1
  O  O147  1  0.18743626  0.99868317  0.66191116  1
  O  O148  1  0.01976307  0.71027157  0.62483806  1
  O  O149  1  0.98023693  0.28972843  0.12483806  1
  O  O150  1  0.01976307  0.78972843  0.12483806  1
  O  O151  1  0.98023693  0.21027157  0.62483806  1
  O  O152  1  0.00684478  0.57331491  0.86684045  1
  O  O153  1  0.99315522  0.42668509  0.36684045  1
  O  O154  1  0.00684478  0.92668509  0.36684045  1
  O  O155  1  0.99315522  0.07331491  0.86684045  1
  O  O156  1  0.99514692  0.77272990  0.90019439  1
  O  O157  1  0.00485308  0.22727010  0.40019439  1
  O  O158  1  0.99514692  0.72727010  0.40019439  1
  O  O159  1  0.00485308  0.27272990  0.90019439  1
  O  O160  1  0.49730642  0.67641858  0.76648561  1
  O  O161  1  0.50269358  0.32358142  0.26648561  1
  O  O162  1  0.49730642  0.82358142  0.26648561  1
  O  O163  1  0.50269358  0.17641858  0.76648561  1
  O  O164  1  0.50764791  0.47900458  0.73111645  1
  O  O165  1  0.49235209  0.52099542  0.23111645  1
  O  O166  1  0.50764791  0.02099542  0.23111645  1
  O  O167  1  0.49235209  0.97900458  0.73111645  1
  O  O168  1  0.50489678  0.64174826  0.64514738  1
  O  O169  1  0.49510322  0.35825174  0.14514738  1
  O  O170  1  0.50489678  0.85825174  0.14514738  1
  O  O171  1  0.49510322  0.14174826  0.64514738  1
  O  O172  1  0.20277621  0.47605261  0.66267278  1
  O  O173  1  0.79722379  0.52394739  0.16267278  1
  O  O174  1  0.20277621  0.02394739  0.16267278  1
  O  O175  1  0.79722379  0.97605261  0.66267278  1
  O  O176  1  0.02336515  0.74379375  0.81378221  1
  O  O177  1  0.97663485  0.25620625  0.31378221  1
  O  O178  1  0.02336515  0.75620625  0.31378221  1
  O  O179  1  0.97663485  0.24379375  0.81378221  1
  O  O180  1  0.00021320  0.38915159  0.48763757  1
  O  O181  1  0.99978680  0.61084841  0.98763757  1
  O  O182  1  0.00021320  0.11084841  0.98763757  1
  O  O183  1  0.99978680  0.88915159  0.48763757  1
  O  O184  1  0.65385362  0.70221882  0.57374707  1
  O  O185  1  0.34614638  0.29778118  0.07374707  1
  O  O186  1  0.65385362  0.79778118  0.07374707  1
  O  O187  1  0.34614638  0.20221882  0.57374707  1
  O  O188  1  0.35777483  0.68961503  0.57185176  1
  O  O189  1  0.64222517  0.31038497  0.07185176  1
  O  O190  1  0.35777483  0.81038497  0.07185176  1
  O  O191  1  0.64222517  0.18961503  0.57185176  1
  O  O192  1  0.85112504  0.44745924  0.55934124  1
  O  O193  1  0.14887496  0.55254076  0.05934124  1
  O  O194  1  0.85112504  0.05254076  0.05934124  1
  O  O195  1  0.14887496  0.94745924  0.55934124  1
  O  O196  1  0.14796202  0.44995039  0.55917892  1
  O  O197  1  0.85203798  0.55004961  0.05917892  1
  O  O198  1  0.14796202  0.05004961  0.05917892  1
  O  O199  1  0.85203798  0.94995039  0.55917892  1
  O  O200  1  0.47846100  0.50260917  0.81776075  1
  O  O201  1  0.52153900  0.49739083  0.31776075  1
  O  O202  1  0.47846100  0.99739083  0.31776075  1
  O  O203  1  0.52153900  0.00260917  0.81776075  1
  O  O204  1  0.24770324  0.69790034  0.86741473  1
  O  O205  1  0.75229676  0.30209966  0.36741473  1
  O  O206  1  0.24770324  0.80209966  0.36741473  1
  O  O207  1  0.75229676  0.19790034  0.86741473  1
  O  O208  1  0.25558193  0.55272467  0.76441752  1
  O  O209  1  0.74441807  0.44727533  0.26441752  1
  O  O210  1  0.25558193  0.94727533  0.26441752  1
  O  O211  1  0.74441807  0.05272467  0.76441752  1
  O  O212  1  0.30296291  0.76478763  0.97031320  1
  O  O213  1  0.69703709  0.23521237  0.47031320  1
  O  O214  1  0.30296291  0.73521237  0.47031320  1
  O  O215  1  0.69703709  0.26478763  0.97031320  1
  O  O216  1  0.99674861  0.59478259  0.51239497  1
  O  O217  1  0.00325139  0.40521741  0.01239497  1
  O  O218  1  0.99674861  0.90521741  0.01239497  1
  O  O219  1  0.00325139  0.09478259  0.51239497  1
  O  O220  1  0.49004702  0.84507590  0.61793043  1
  O  O221  1  0.50995298  0.15492410  0.11793043  1
  O  O222  1  0.49004702  0.65492410  0.11793043  1
  O  O223  1  0.50995298  0.34507590  0.61793043  1
  O  O224  1  0.68865605  0.74668107  0.97146128  1
  O  O225  1  0.31134395  0.25331893  0.47146128  1
  O  O226  1  0.68865605  0.75331893  0.47146128  1
  O  O227  1  0.31134395  0.24668107  0.97146128  1
  O  O228  1  0.70570843  0.49384978  0.91713049  1
  O  O229  1  0.29429157  0.50615022  0.41713049  1
  O  O230  1  0.70570843  0.00615022  0.41713049  1
  O  O231  1  0.29429157  0.99384978  0.91713049  1
