# generated using pymatgen
data_Nd6Al43Cr4
_symmetry_space_group_name_H-M   'P 1'
_cell_length_a   11.07203674
_cell_length_b   11.07183028
_cell_length_c   17.82837263
_cell_angle_alpha   89.99991743
_cell_angle_beta   90.00016516
_cell_angle_gamma   120.00061634
_symmetry_Int_Tables_number   1
_chemical_formula_structural   Nd6Al43Cr4
_chemical_formula_sum   'Nd12 Al86 Cr8'
_cell_volume   1892.72088716
_cell_formula_units_Z   2
loop_
 _symmetry_equiv_pos_site_id
 _symmetry_equiv_pos_as_xyz
  1  'x, y, z'
loop_
 _atom_site_type_symbol
 _atom_site_label
 _atom_site_symmetry_multiplicity
 _atom_site_fract_x
 _atom_site_fract_y
 _atom_site_fract_z
 _atom_site_occupancy
  Nd  Nd0  1  0.52867624  1.00000000  0.59494358  1
  Nd  Nd1  1  0.47134038  0.47134384  0.59494437  1
  Nd  Nd2  1  -0.00000346  0.52865616  0.59494437  1
  Nd  Nd3  1  0.47132376  0.00000000  0.40505642  1
  Nd  Nd4  1  0.52865962  0.52865616  0.40505563  1
  Nd  Nd5  1  0.00000346  0.47134384  0.40505563  1
  Nd  Nd6  1  0.47133414  0.00000000  0.09492020  1
  Nd  Nd7  1  0.52865356  0.52865104  0.09492423  1
  Nd  Nd8  1  0.00000252  0.47134896  0.09492423  1
  Nd  Nd9  1  0.52866586  1.00000000  0.90507980  1
  Nd  Nd10  1  0.47134644  0.47134896  0.90507577  1
  Nd  Nd11  1  -0.00000252  0.52865104  0.90507577  1
  Al  Al12  1  0.15774275  0.38901767  0.66694181  1
  Al  Al13  1  0.23125009  0.84219946  0.66692501  1
  Al  Al14  1  0.61088768  0.76878594  0.66692600  1
  Al  Al15  1  0.76872508  0.61098233  0.66694181  1
  Al  Al16  1  0.38905063  0.15780054  0.66692501  1
  Al  Al17  1  0.84210174  0.23121406  0.66692600  1
  Al  Al18  1  0.84225725  0.61098233  0.33305819  1
  Al  Al19  1  0.76874991  0.15780054  0.33307499  1
  Al  Al20  1  0.38911232  0.23121406  0.33307400  1
  Al  Al21  1  0.23127492  0.38901767  0.33305819  1
  Al  Al22  1  0.61094937  0.84219946  0.33307499  1
  Al  Al23  1  0.15789826  0.76878594  0.33307400  1
  Al  Al24  1  0.84225725  0.61098270  0.16694160  1
  Al  Al25  1  0.76874999  0.15780063  0.16692482  1
  Al  Al26  1  0.38911183  0.23121374  0.16692582  1
  Al  Al27  1  0.23127454  0.38901730  0.16694160  1
  Al  Al28  1  0.61094936  0.84219937  0.16692482  1
  Al  Al29  1  0.15789809  0.76878626  0.16692582  1
  Al  Al30  1  0.15774275  0.38901730  0.83305840  1
  Al  Al31  1  0.23125001  0.84219937  0.83307518  1
  Al  Al32  1  0.61088817  0.76878626  0.83307418  1
  Al  Al33  1  0.76872546  0.61098270  0.83305840  1
  Al  Al34  1  0.38905064  0.15780063  0.83307518  1
  Al  Al35  1  0.84210191  0.23121374  0.83307418  1
  Al  Al36  1  0.15508393  0.00000000  0.11551415  1
  Al  Al37  1  0.84505265  0.84502341  0.11551869  1
  Al  Al38  1  0.00002924  0.15497659  0.11551869  1
  Al  Al39  1  0.84491607  1.00000000  0.88448585  1
  Al  Al40  1  0.15494735  0.15497659  0.88448131  1
  Al  Al41  1  0.99997076  0.84502341  0.88448131  1
  Al  Al42  1  0.84493186  1.00000000  0.61550813  1
  Al  Al43  1  0.15493224  0.15496127  0.61551104  1
  Al  Al44  1  0.99997097  0.84503873  0.61551104  1
  Al  Al45  1  0.15506814  0.00000000  0.38449187  1
  Al  Al46  1  0.84506776  0.84503873  0.38448896  1
  Al  Al47  1  0.00002903  0.15496127  0.38448896  1
  Al  Al48  1  0.24865244  1.00000000  0.53138270  1
  Al  Al49  1  0.75133568  0.75137128  0.53142374  1
  Al  Al50  1  0.99996440  0.24862872  0.53142374  1
  Al  Al51  1  0.75134756  0.00000000  0.46861730  1
  Al  Al52  1  0.24866432  0.24862872  0.46857626  1
  Al  Al53  1  0.00003560  0.75137128  0.46857626  1
  Al  Al54  1  0.75133815  0.00000000  0.03138143  1
  Al  Al55  1  0.24867277  0.24863687  0.03142345  1
  Al  Al56  1  0.00003591  0.75136313  0.03142345  1
  Al  Al57  1  0.24866185  1.00000000  0.96861857  1
  Al  Al58  1  0.75132723  0.75136313  0.96857655  1
  Al  Al59  1  0.99996409  0.24863687  0.96857655  1
  Al  Al60  1  0.14317102  0.59822443  0.74999956  1
  Al  Al61  1  0.45510966  0.85687344  0.74999970  1
  Al  Al62  1  0.40177946  0.54496713  0.74999962  1
  Al  Al63  1  0.54494659  0.40177557  0.74999956  1
  Al  Al64  1  0.59823622  0.14312656  0.74999970  1
  Al  Al65  1  0.85681233  0.45503287  0.74999962  1
  Al  Al66  1  0.85682898  0.40177557  0.25000044  1
  Al  Al67  1  0.54489034  0.14312656  0.25000030  1
  Al  Al68  1  0.59822054  0.45503287  0.25000038  1
  Al  Al69  1  0.45505341  0.59822443  0.25000044  1
  Al  Al70  1  0.40176378  0.85687344  0.25000030  1
  Al  Al71  1  0.14318767  0.54496713  0.25000038  1
  Al  Al72  1  0.24753509  0.49507017  0.50000000  1
  Al  Al73  1  0.24752404  0.75248616  0.50000699  1
  Al  Al74  1  0.50496212  0.75248616  0.49999301  1
  Al  Al75  1  0.75246491  0.50492983  0.50000000  1
  Al  Al76  1  0.49503788  0.24751384  0.50000699  1
  Al  Al77  1  0.75247596  0.24751384  0.49999301  1
  Al  Al78  1  0.75246597  0.50493194  0.00000000  1
  Al  Al79  1  0.75247648  0.24751241  0.00000703  1
  Al  Al80  1  0.49503593  0.24751241  0.99999297  1
  Al  Al81  1  0.24753403  0.49506806  -0.00000000  1
  Al  Al82  1  0.50496407  0.75248759  0.00000703  1
  Al  Al83  1  0.24752352  0.75248759  0.99999297  1
  Al  Al84  1  0.33336118  0.66670620  0.63037685  1
  Al  Al85  1  0.66665498  0.33329380  0.63037685  1
  Al  Al86  1  0.66663882  0.33329380  0.36962315  1
  Al  Al87  1  0.33334502  0.66670620  0.36962315  1
  Al  Al88  1  0.66663895  0.33329367  0.13037669  1
  Al  Al89  1  0.33334527  0.66670633  0.13037669  1
  Al  Al90  1  0.33336105  0.66670633  0.86962331  1
  Al  Al91  1  0.66665473  0.33329367  0.86962331  1
  Al  Al92  1  0.14385840  0.00000000  0.74999975  1
  Al  Al93  1  0.85603819  0.85600324  0.74999895  1
  Al  Al94  1  0.00003494  0.14399676  0.74999895  1
  Al  Al95  1  0.85614160  1.00000000  0.25000025  1
  Al  Al96  1  0.14396181  0.14399676  0.25000105  1
  Al  Al97  1  -0.00003494  0.85600324  0.25000105  1
  Cr  Cr98  1  0.73448677  0.00000000  0.74992319  1
  Cr  Cr99  1  0.26510147  0.26518001  0.75001054  1
  Cr  Cr100  1  0.99992146  0.73481999  0.75001054  1
  Cr  Cr101  1  0.26551323  1.00000000  0.25007681  1
  Cr  Cr102  1  0.73489853  0.73481999  0.24998946  1
  Cr  Cr103  1  0.00007854  0.26518001  0.24998946  1
  Cr  Cr104  1  0.00000000  0.00000000  0.50000000  1
  Cr  Cr105  1  0.00000000  0.00000000  0.00000000  1
