# generated using pymatgen
data_Yb2(Ni2B)5
_symmetry_space_group_name_H-M   'P 1'
_cell_length_a   8.89324787
_cell_length_b   9.42295709
_cell_length_c   17.38290314
_cell_angle_alpha   90.00000000
_cell_angle_beta   90.00000000
_cell_angle_gamma   90.00000000
_symmetry_Int_Tables_number   1
_chemical_formula_structural   Yb2(Ni2B)5
_chemical_formula_sum   'Yb16 Ni80 B40'
_cell_volume   1456.69933070
_cell_formula_units_Z   8
loop_
 _symmetry_equiv_pos_site_id
 _symmetry_equiv_pos_as_xyz
  1  'x, y, z'
loop_
 _atom_site_type_symbol
 _atom_site_label
 _atom_site_symmetry_multiplicity
 _atom_site_fract_x
 _atom_site_fract_y
 _atom_site_fract_z
 _atom_site_occupancy
  Yb  Yb0  1  0.12372756  0.85852989  0.27818865  1
  Yb  Yb1  1  0.37627244  0.14147011  0.77818865  1
  Yb  Yb2  1  0.62372756  0.64147011  0.72181135  1
  Yb  Yb3  1  0.87627244  0.35852989  0.22181135  1
  Yb  Yb4  1  0.87627244  0.14147011  0.72181135  1
  Yb  Yb5  1  0.62372756  0.85852989  0.22181135  1
  Yb  Yb6  1  0.37627244  0.35852989  0.27818865  1
  Yb  Yb7  1  0.12372756  0.64147011  0.77818865  1
  Yb  Yb8  1  0.21975034  0.88665248  0.48001160  1
  Yb  Yb9  1  0.28024966  0.11334752  0.98001160  1
  Yb  Yb10  1  0.71975034  0.61334752  0.51998840  1
  Yb  Yb11  1  0.78024966  0.38665248  0.01998840  1
  Yb  Yb12  1  0.78024966  0.11334752  0.51998840  1
  Yb  Yb13  1  0.71975034  0.88665248  0.01998840  1
  Yb  Yb14  1  0.28024966  0.38665248  0.48001160  1
  Yb  Yb15  1  0.21975034  0.61334752  0.98001160  1
  Ni  Ni16  1  0.12040369  0.96233278  0.72637658  1
  Ni  Ni17  1  0.37959631  0.03766722  0.22637658  1
  Ni  Ni18  1  0.62040369  0.53766722  0.27362342  1
  Ni  Ni19  1  0.87959631  0.46233278  0.77362342  1
  Ni  Ni20  1  0.87959631  0.03766722  0.27362342  1
  Ni  Ni21  1  0.62040369  0.96233278  0.77362342  1
  Ni  Ni22  1  0.37959631  0.46233278  0.72637658  1
  Ni  Ni23  1  0.12040369  0.53766722  0.22637658  1
  Ni  Ni24  1  0.12700166  0.17624994  0.23678087  1
  Ni  Ni25  1  0.37299834  0.82375006  0.73678087  1
  Ni  Ni26  1  0.62700166  0.32375006  0.76321913  1
  Ni  Ni27  1  0.87299834  0.67624994  0.26321913  1
  Ni  Ni28  1  0.87299834  0.82375006  0.76321913  1
  Ni  Ni29  1  0.62700166  0.17624994  0.26321913  1
  Ni  Ni30  1  0.37299834  0.67624994  0.23678087  1
  Ni  Ni31  1  0.12700166  0.32375006  0.73678087  1
  Ni  Ni32  1  0.07858432  0.88530411  0.01561172  1
  Ni  Ni33  1  0.42141568  0.11469589  0.51561172  1
  Ni  Ni34  1  0.57858432  0.61469589  0.98438828  1
  Ni  Ni35  1  0.92141568  0.38530411  0.48438828  1
  Ni  Ni36  1  0.92141568  0.11469589  0.98438828  1
  Ni  Ni37  1  0.57858432  0.88530411  0.48438828  1
  Ni  Ni38  1  0.42141568  0.38530411  0.01561172  1
  Ni  Ni39  1  0.07858432  0.61469589  0.51561172  1
  Ni  Ni40  1  0.16257433  0.78116798  0.62761615  1
  Ni  Ni41  1  0.33742567  0.21883202  0.12761615  1
  Ni  Ni42  1  0.66257433  0.71883202  0.37238385  1
  Ni  Ni43  1  0.83742567  0.28116798  0.87238385  1
  Ni  Ni44  1  0.83742567  0.21883202  0.37238385  1
  Ni  Ni45  1  0.66257433  0.78116798  0.87238385  1
  Ni  Ni46  1  0.33742567  0.28116798  0.62761615  1
  Ni  Ni47  1  0.16257433  0.71883202  0.12761615  1
  Ni  Ni48  1  0.17809446  0.99393356  0.13109999  1
  Ni  Ni49  1  0.32190554  0.00606644  0.63109999  1
  Ni  Ni50  1  0.67809446  0.50606644  0.86890001  1
  Ni  Ni51  1  0.82190554  0.49393356  0.36890001  1
  Ni  Ni52  1  0.82190554  0.00606644  0.86890001  1
  Ni  Ni53  1  0.67809446  0.99393356  0.36890001  1
  Ni  Ni54  1  0.32190554  0.49393356  0.13109999  1
  Ni  Ni55  1  0.17809446  0.50606644  0.63109999  1
  Ni  Ni56  1  0.23121463  0.89363309  0.86523805  1
  Ni  Ni57  1  0.26878537  0.10636691  0.36523805  1
  Ni  Ni58  1  0.73121463  0.60636691  0.13476195  1
  Ni  Ni59  1  0.76878537  0.39363309  0.63476195  1
  Ni  Ni60  1  0.76878537  0.10636691  0.13476195  1
  Ni  Ni61  1  0.73121463  0.89363309  0.63476195  1
  Ni  Ni62  1  0.26878537  0.39363309  0.86523805  1
  Ni  Ni63  1  0.23121463  0.60636691  0.36523805  1
  Ni  Ni64  1  0.08904093  0.14633778  0.84928181  1
  Ni  Ni65  1  0.41095907  0.85366222  0.34928181  1
  Ni  Ni66  1  0.58904093  0.35366222  0.15071819  1
  Ni  Ni67  1  0.91095907  0.64633778  0.65071819  1
  Ni  Ni68  1  0.91095907  0.85366222  0.15071819  1
  Ni  Ni69  1  0.58904093  0.14633778  0.65071819  1
  Ni  Ni70  1  0.41095907  0.64633778  0.84928181  1
  Ni  Ni71  1  0.08904093  0.35366222  0.34928181  1
  Ni  Ni72  1  0.04163991  0.02163686  0.59560230  1
  Ni  Ni73  1  0.45836009  0.97836314  0.09560230  1
  Ni  Ni74  1  0.54163991  0.47836314  0.40439770  1
  Ni  Ni75  1  0.95836009  0.52163686  0.90439770  1
  Ni  Ni76  1  0.95836009  0.97836314  0.40439770  1
  Ni  Ni77  1  0.54163991  0.02163686  0.90439770  1
  Ni  Ni78  1  0.45836009  0.52163686  0.59560230  1
  Ni  Ni79  1  0.04163991  0.47836314  0.09560230  1
  Ni  Ni80  1  0.04398327  0.21861124  0.09858760  1
  Ni  Ni81  1  0.45601673  0.78138876  0.59858760  1
  Ni  Ni82  1  0.54398327  0.28138876  0.90141240  1
  Ni  Ni83  1  0.95601673  0.71861124  0.40141240  1
  Ni  Ni84  1  0.95601673  0.78138876  0.90141240  1
  Ni  Ni85  1  0.54398327  0.21861124  0.40141240  1
  Ni  Ni86  1  0.45601673  0.71861124  0.09858760  1
  Ni  Ni87  1  0.04398327  0.28138876  0.59858760  1
  Ni  Ni88  1  0.08082475  0.16865862  0.46888743  1
  Ni  Ni89  1  0.41917525  0.83134138  0.96888743  1
  Ni  Ni90  1  0.58082475  0.33134138  0.53111257  1
  Ni  Ni91  1  0.91917525  0.66865862  0.03111257  1
  Ni  Ni92  1  0.91917525  0.83134138  0.53111257  1
  Ni  Ni93  1  0.58082475  0.16865862  0.03111257  1
  Ni  Ni94  1  0.41917525  0.66865862  0.46888743  1
  Ni  Ni95  1  0.08082475  0.33134138  0.96888743  1
  B  B96  1  0.97669117  0.06378111  0.17661395  1
  B  B97  1  0.52330883  0.93621889  0.67661395  1
  B  B98  1  0.47669117  0.43621889  0.82338605  1
  B  B99  1  0.02330883  0.56378111  0.32338605  1
  B  B100  1  0.02330883  0.93621889  0.82338605  1
  B  B101  1  0.47669117  0.06378111  0.32338605  1
  B  B102  1  0.52330883  0.56378111  0.17661395  1
  B  B103  1  0.97669117  0.43621889  0.67661395  1
  B  B104  1  0.16571514  0.14849663  0.66712885  1
  B  B105  1  0.33428486  0.85150337  0.16712885  1
  B  B106  1  0.66571514  0.35150337  0.33287115  1
  B  B107  1  0.83428486  0.64849663  0.83287115  1
  B  B108  1  0.83428486  0.85150337  0.33287115  1
  B  B109  1  0.66571514  0.14849663  0.83287115  1
  B  B110  1  0.33428486  0.64849663  0.66712885  1
  B  B111  1  0.16571514  0.35150337  0.16712885  1
  B  B112  1  0.04680560  0.14244961  0.34485566  1
  B  B113  1  0.45319440  0.85755039  0.84485566  1
  B  B114  1  0.54680560  0.35755039  0.65514434  1
  B  B115  1  0.95319440  0.64244961  0.15514434  1
  B  B116  1  0.95319440  0.85755039  0.65514434  1
  B  B117  1  0.54680560  0.14244961  0.15514434  1
  B  B118  1  0.45319440  0.64244961  0.34485566  1
  B  B119  1  0.04680560  0.35755039  0.84485566  1
  B  B120  1  0.21254063  0.14741852  0.56119084  1
  B  B121  1  0.28745937  0.85258148  0.06119084  1
  B  B122  1  0.71254063  0.35258148  0.43880916  1
  B  B123  1  0.78745937  0.64741852  0.93880916  1
  B  B124  1  0.78745937  0.85258148  0.43880916  1
  B  B125  1  0.71254063  0.14741852  0.93880916  1
  B  B126  1  0.28745937  0.64741852  0.56119084  1
  B  B127  1  0.21254063  0.35258148  0.06119084  1
  B  B128  1  0.03817428  0.98163684  0.91835502  1
  B  B129  1  0.46182572  0.01836316  0.41835502  1
  B  B130  1  0.53817428  0.51836316  0.08164498  1
  B  B131  1  0.96182572  0.48163684  0.58164498  1
  B  B132  1  0.96182572  0.01836316  0.08164498  1
  B  B133  1  0.53817428  0.98163684  0.58164498  1
  B  B134  1  0.46182572  0.48163684  0.91835502  1
  B  B135  1  0.03817428  0.51836316  0.41835502  1
