# generated using pymatgen
data_Tl2Ag3(PO4)3
_symmetry_space_group_name_H-M   'P 1'
_cell_length_a   6.83893549
_cell_length_b   9.38634098
_cell_length_c   9.38634098
_cell_angle_alpha   91.05912943
_cell_angle_beta   72.45995612
_cell_angle_gamma   72.45995612
_symmetry_Int_Tables_number   1
_chemical_formula_structural   Tl2Ag3(PO4)3
_chemical_formula_sum   'Tl4 Ag6 P6 O24'
_cell_volume   543.83447541
_cell_formula_units_Z   2
loop_
 _symmetry_equiv_pos_site_id
 _symmetry_equiv_pos_as_xyz
  1  'x, y, z'
loop_
 _atom_site_type_symbol
 _atom_site_label
 _atom_site_symmetry_multiplicity
 _atom_site_fract_x
 _atom_site_fract_y
 _atom_site_fract_z
 _atom_site_occupancy
  Tl  Tl0  1  0.16474361  0.61018647  0.91902477  1
  Tl  Tl1  1  0.33525639  0.08097523  0.38981353  1
  Tl  Tl2  1  0.83525639  0.38981353  0.08097523  1
  Tl  Tl3  1  0.66474361  0.91902477  0.61018647  1
  Ag  Ag4  1  0.75000000  0.27314224  0.72685776  1
  Ag  Ag5  1  0.25000000  0.72685776  0.27314224  1
  Ag  Ag6  1  0.50000000  0.50000000  0.50000000  1
  Ag  Ag7  1  -0.00000000  0.50000000  0.50000000  1
  Ag  Ag8  1  0.25000000  0.99216419  0.00783581  1
  Ag  Ag9  1  0.75000000  0.00783581  0.99216419  1
  P  P10  1  0.25000000  0.26266920  0.73733080  1
  P  P11  1  0.75000000  0.73733080  0.26266920  1
  P  P12  1  0.85531154  0.14356754  0.34523585  1
  P  P13  1  0.64468846  0.65476415  0.85643246  1
  P  P14  1  0.14468846  0.85643246  0.65476415  1
  P  P15  1  0.35531154  0.34523585  0.14356754  1
  O  O16  1  0.29608481  0.41585791  0.74558061  1
  O  O17  1  0.20391519  0.25441939  0.58414209  1
  O  O18  1  0.70391519  0.58414209  0.25441939  1
  O  O19  1  0.79608481  0.74558061  0.41585791  1
  O  O20  1  0.82377071  0.28878452  0.43901883  1
  O  O21  1  0.67622929  0.56098117  0.71121548  1
  O  O22  1  0.17622929  0.71121548  0.56098117  1
  O  O23  1  0.32377071  0.43901883  0.28878452  1
  O  O24  1  0.04725065  0.24904434  0.86064314  1
  O  O25  1  0.45274935  0.13935686  0.75095566  1
  O  O26  1  0.95274935  0.75095566  0.13935686  1
  O  O27  1  0.54725065  0.86064314  0.24904434  1
  O  O28  1  0.42751480  0.66378006  0.98179887  1
  O  O29  1  0.07248520  0.01820113  0.33621994  1
  O  O30  1  0.57248520  0.33621994  0.01820113  1
  O  O31  1  0.92751480  0.98179887  0.66378006  1
  O  O32  1  0.13604769  0.83196191  0.82224058  1
  O  O33  1  0.36395231  0.17775942  0.16803809  1
  O  O34  1  0.86395231  0.16803809  0.17775942  1
  O  O35  1  0.63604769  0.82224058  0.83196191  1
  O  O36  1  0.66832699  0.07634271  0.41482653  1
  O  O37  1  0.83167301  0.58517347  0.92365729  1
  O  O38  1  0.33167301  0.92365729  0.58517347  1
  O  O39  1  0.16832699  0.41482653  0.07634271  1
