# generated using pymatgen
data_Re2S2O13
_symmetry_space_group_name_H-M   'P 1'
_cell_length_a   7.44147897
_cell_length_b   7.38108642
_cell_length_c   17.19680848
_cell_angle_alpha   90.00000000
_cell_angle_beta   90.00000000
_cell_angle_gamma   90.00000000
_symmetry_Int_Tables_number   1
_chemical_formula_structural   Re2S2O13
_chemical_formula_sum   'Re8 S8 O52'
_cell_volume   944.55533110
_cell_formula_units_Z   4
loop_
 _symmetry_equiv_pos_site_id
 _symmetry_equiv_pos_as_xyz
  1  'x, y, z'
loop_
 _atom_site_type_symbol
 _atom_site_label
 _atom_site_symmetry_multiplicity
 _atom_site_fract_x
 _atom_site_fract_y
 _atom_site_fract_z
 _atom_site_occupancy
  Re  Re0  1  0.26159398  0.34670435  0.10073528  1
  Re  Re1  1  0.73840602  0.65329565  0.60073528  1
  Re  Re2  1  0.26159398  0.15329565  0.89926472  1
  Re  Re3  1  0.73840602  0.84670435  0.39926472  1
  Re  Re4  1  0.73840602  0.65329565  0.89926472  1
  Re  Re5  1  0.26159398  0.34670435  0.39926472  1
  Re  Re6  1  0.73840602  0.84670435  0.10073528  1
  Re  Re7  1  0.26159398  0.15329565  0.60073528  1
  S  S8  1  0.86497433  0.25000000  -0.00000000  1
  S  S9  1  0.13502567  0.75000000  0.50000000  1
  S  S10  1  0.13502567  0.75000000  -0.00000000  1
  S  S11  1  0.86497433  0.25000000  0.50000000  1
  S  S12  1  0.23512193  0.62305594  0.25000000  1
  S  S13  1  0.76487807  0.37694406  0.75000000  1
  S  S14  1  0.23512193  0.87694406  0.75000000  1
  S  S15  1  0.76487807  0.12305594  0.25000000  1
  O  O16  1  0.30220399  0.25000000  -0.00000000  1
  O  O17  1  0.69779601  0.75000000  0.50000000  1
  O  O18  1  0.69779601  0.75000000  -0.00000000  1
  O  O19  1  0.30220399  0.25000000  0.50000000  1
  O  O20  1  0.22715534  0.14868277  0.14943105  1
  O  O21  1  0.77284466  0.85131723  0.64943105  1
  O  O22  1  0.22715534  0.35131723  0.85056895  1
  O  O23  1  0.77284466  0.64868277  0.35056895  1
  O  O24  1  0.77284466  0.85131723  0.85056895  1
  O  O25  1  0.22715534  0.14868277  0.35056895  1
  O  O26  1  0.77284466  0.64868277  0.14943105  1
  O  O27  1  0.22715534  0.35131723  0.64943105  1
  O  O28  1  0.48188502  0.39162461  0.12160227  1
  O  O29  1  0.51811498  0.60837539  0.62160227  1
  O  O30  1  0.48188502  0.10837539  0.87839773  1
  O  O31  1  0.51811498  0.89162461  0.37839773  1
  O  O32  1  0.51811498  0.60837539  0.87839773  1
  O  O33  1  0.48188502  0.39162461  0.37839773  1
  O  O34  1  0.51811498  0.89162461  0.12160227  1
  O  O35  1  0.48188502  0.10837539  0.62160227  1
  O  O36  1  0.97978870  0.33945308  0.06007109  1
  O  O37  1  0.02021130  0.66054692  0.56007109  1
  O  O38  1  0.97978870  0.16054692  0.93992891  1
  O  O39  1  0.02021130  0.83945308  0.43992891  1
  O  O40  1  0.02021130  0.66054692  0.93992891  1
  O  O41  1  0.97978870  0.33945308  0.43992891  1
  O  O42  1  0.02021130  0.83945308  0.06007109  1
  O  O43  1  0.97978870  0.16054692  0.56007109  1
  O  O44  1  0.13586646  0.78797895  0.25000000  1
  O  O45  1  0.86413354  0.21202105  0.75000000  1
  O  O46  1  0.13586646  0.71202105  0.75000000  1
  O  O47  1  0.86413354  0.28797895  0.25000000  1
  O  O48  1  0.42765702  0.61908987  0.25000000  1
  O  O49  1  0.57234298  0.38091013  0.75000000  1
  O  O50  1  0.42765702  0.88091013  0.75000000  1
  O  O51  1  0.57234298  0.11908987  0.25000000  1
  O  O52  1  0.16109145  0.50466587  0.17970309  1
  O  O53  1  0.83890855  0.49533413  0.67970309  1
  O  O54  1  0.16109145  0.99533413  0.82029691  1
  O  O55  1  0.83890855  0.00466587  0.32029691  1
  O  O56  1  0.83890855  0.49533413  0.82029691  1
  O  O57  1  0.16109145  0.50466587  0.32029691  1
  O  O58  1  0.83890855  0.00466587  0.17970309  1
  O  O59  1  0.16109145  0.99533413  0.67970309  1
  O  O60  1  0.74520028  0.38778890  0.96470620  1
  O  O61  1  0.25479972  0.61221110  0.46470620  1
  O  O62  1  0.74520028  0.11221110  0.03529380  1
  O  O63  1  0.25479972  0.88778890  0.53529380  1
  O  O64  1  0.25479972  0.61221110  0.03529380  1
  O  O65  1  0.74520028  0.38778890  0.53529380  1
  O  O66  1  0.25479972  0.88778890  0.96470620  1
  O  O67  1  0.74520028  0.11221110  0.46470620  1
