# generated using pymatgen
data_KUHSO7
_symmetry_space_group_name_H-M   'P 1'
_cell_length_a   8.54904728
_cell_length_b   11.19340868
_cell_length_c   13.72540792
_cell_angle_alpha   90.00000000
_cell_angle_beta   90.00000000
_cell_angle_gamma   90.00000000
_symmetry_Int_Tables_number   1
_chemical_formula_structural   KUHSO7
_chemical_formula_sum   'K8 U8 H8 S8 O56'
_cell_volume   1313.42518599
_cell_formula_units_Z   8
loop_
 _symmetry_equiv_pos_site_id
 _symmetry_equiv_pos_as_xyz
  1  'x, y, z'
loop_
 _atom_site_type_symbol
 _atom_site_label
 _atom_site_symmetry_multiplicity
 _atom_site_fract_x
 _atom_site_fract_y
 _atom_site_fract_z
 _atom_site_occupancy
  K  K0  1  0.76202782  0.48579084  0.81136293  1
  K  K1  1  0.26202782  0.01420916  0.18863707  1
  K  K2  1  0.23797218  0.98579084  0.68863707  1
  K  K3  1  0.73797218  0.51420916  0.31136293  1
  K  K4  1  0.23797218  0.51420916  0.18863707  1
  K  K5  1  0.73797218  0.98579084  0.81136293  1
  K  K6  1  0.76202782  0.01420916  0.31136293  1
  K  K7  1  0.26202782  0.48579084  0.68863707  1
  U  U8  1  0.59871867  0.74210358  0.04614066  1
  U  U9  1  0.09871867  0.75789642  0.95385934  1
  U  U10  1  0.40128133  0.24210358  0.45385934  1
  U  U11  1  0.90128133  0.25789642  0.54614066  1
  U  U12  1  0.40128133  0.25789642  0.95385934  1
  U  U13  1  0.90128133  0.24210358  0.04614066  1
  U  U14  1  0.59871867  0.75789642  0.54614066  1
  U  U15  1  0.09871867  0.74210358  0.45385934  1
  H  H16  1  0.34420087  0.59277068  0.99041396  1
  H  H17  1  0.84420087  0.90722932  0.00958604  1
  H  H18  1  0.65579913  0.09277068  0.50958604  1
  H  H19  1  0.15579913  0.40722932  0.49041396  1
  H  H20  1  0.65579913  0.40722932  0.00958604  1
  H  H21  1  0.15579913  0.09277068  0.99041396  1
  H  H22  1  0.34420087  0.90722932  0.49041396  1
  H  H23  1  0.84420087  0.59277068  0.50958604  1
  S  S24  1  0.45439908  0.74392769  0.79837349  1
  S  S25  1  0.95439908  0.75607231  0.20162651  1
  S  S26  1  0.54560092  0.24392769  0.70162651  1
  S  S27  1  0.04560092  0.25607231  0.29837349  1
  S  S28  1  0.54560092  0.25607231  0.20162651  1
  S  S29  1  0.04560092  0.24392769  0.79837349  1
  S  S30  1  0.45439908  0.75607231  0.29837349  1
  S  S31  1  0.95439908  0.74392769  0.70162651  1
  O  O32  1  0.34011279  0.67720694  0.01095008  1
  O  O33  1  0.84011279  0.82279306  0.98904992  1
  O  O34  1  0.65988721  0.17720694  0.48904992  1
  O  O35  1  0.15988721  0.32279306  0.51095008  1
  O  O36  1  0.65988721  0.32279306  0.98904992  1
  O  O37  1  0.15988721  0.17720694  0.01095008  1
  O  O38  1  0.34011279  0.82279306  0.51095008  1
  O  O39  1  0.84011279  0.67720694  0.48904992  1
  O  O40  1  0.65760352  0.59110810  0.01185150  1
  O  O41  1  0.15760352  0.90889190  0.98814850  1
  O  O42  1  0.34239648  0.09110810  0.48814850  1
  O  O43  1  0.84239648  0.40889190  0.51185150  1
  O  O44  1  0.34239648  0.40889190  0.98814850  1
  O  O45  1  0.84239648  0.09110810  0.01185150  1
  O  O46  1  0.65760352  0.90889190  0.51185150  1
  O  O47  1  0.15760352  0.59110810  0.48814850  1
  O  O48  1  0.55682497  0.79613931  0.87659169  1
  O  O49  1  0.05682497  0.70386069  0.12340831  1
  O  O50  1  0.44317503  0.29613931  0.62340831  1
  O  O51  1  0.94317503  0.20386069  0.37659169  1
  O  O52  1  0.44317503  0.20386069  0.12340831  1
  O  O53  1  0.94317503  0.29613931  0.87659169  1
  O  O54  1  0.55682497  0.70386069  0.37659169  1
  O  O55  1  0.05682497  0.79613931  0.62340831  1
  O  O56  1  0.48607730  0.81224725  0.70615411  1
  O  O57  1  0.98607730  0.68775275  0.29384589  1
  O  O58  1  0.51392270  0.31224725  0.79384589  1
  O  O59  1  0.01392270  0.18775275  0.20615411  1
  O  O60  1  0.51392270  0.18775275  0.29384589  1
  O  O61  1  0.01392270  0.31224725  0.70615411  1
  O  O62  1  0.48607730  0.68775275  0.20615411  1
  O  O63  1  0.98607730  0.81224725  0.79384589  1
  O  O64  1  0.28685411  0.76895607  0.82219769  1
  O  O65  1  0.78685411  0.73104393  0.17780231  1
  O  O66  1  0.71314589  0.26895607  0.67780231  1
  O  O67  1  0.21314589  0.23104393  0.32219769  1
  O  O68  1  0.71314589  0.23104393  0.17780231  1
  O  O69  1  0.21314589  0.26895607  0.82219769  1
  O  O70  1  0.28685411  0.73104393  0.32219769  1
  O  O71  1  0.78685411  0.76895607  0.67780231  1
  O  O72  1  0.53880352  0.89206555  0.07584440  1
  O  O73  1  0.03880352  0.60793445  0.92415560  1
  O  O74  1  0.46119648  0.39206555  0.42415560  1
  O  O75  1  0.96119648  0.10793445  0.57584440  1
  O  O76  1  0.46119648  0.10793445  0.92415560  1
  O  O77  1  0.96119648  0.39206555  0.07584440  1
  O  O78  1  0.53880352  0.60793445  0.57584440  1
  O  O79  1  0.03880352  0.89206555  0.42415560  1
  O  O80  1  0.48287087  0.61586886  0.78843269  1
  O  O81  1  0.98287087  0.88413114  0.21156731  1
  O  O82  1  0.51712913  0.11586886  0.71156731  1
  O  O83  1  0.01712913  0.38413114  0.28843269  1
  O  O84  1  0.51712913  0.38413114  0.21156731  1
  O  O85  1  0.01712913  0.11586886  0.78843269  1
  O  O86  1  0.48287087  0.88413114  0.28843269  1
  O  O87  1  0.98287087  0.61586886  0.71156731  1
