# generated using pymatgen
data_In2AsSe
_symmetry_space_group_name_H-M   'P 1'
_cell_length_a   9.05200838
_cell_length_b   11.99506016
_cell_length_c   7.87036147
_cell_angle_alpha   29.17672898
_cell_angle_beta   54.89550362
_cell_angle_gamma   41.00565985
_symmetry_Int_Tables_number   1
_chemical_formula_structural   In2AsSe
_chemical_formula_sum   'In4 As2 Se2'
_cell_volume   263.79312048
_cell_formula_units_Z   2
loop_
 _symmetry_equiv_pos_site_id
 _symmetry_equiv_pos_as_xyz
  1  'x, y, z'
loop_
 _atom_site_type_symbol
 _atom_site_label
 _atom_site_symmetry_multiplicity
 _atom_site_fract_x
 _atom_site_fract_y
 _atom_site_fract_z
 _atom_site_occupancy
  In  In0  1  1.00000000  0.98920961  0.01079039  1
  In  In1  1  0.50000000  0.01079039  0.98920961  1
  In  In2  1  0.26079039  0.48920961  0.01079039  1
  In  In3  1  0.73920961  0.51079039  0.98920961  1
  As  As4  1  0.62500000  0.00000000  0.25000000  1
  As  As5  1  0.37500000  0.50000000  0.25000000  1
  Se  Se6  1  0.12500000  0.00000000  0.25000000  1
  Se  Se7  1  0.87500000  0.50000000  0.25000000  1
