# generated using pymatgen
data_Zn2Cr5(PO4)6
_symmetry_space_group_name_H-M   'P 1'
_cell_length_a   6.38504868
_cell_length_b   7.98186475
_cell_length_c   9.43702413
_cell_angle_alpha   105.41380054
_cell_angle_beta   108.09125232
_cell_angle_gamma   101.32707233
_symmetry_Int_Tables_number   1
_chemical_formula_structural   Zn2Cr5(PO4)6
_chemical_formula_sum   'Zn2 Cr5 P6 O24'
_cell_volume   419.81774914
_cell_formula_units_Z   1
loop_
 _symmetry_equiv_pos_site_id
 _symmetry_equiv_pos_as_xyz
  1  'x, y, z'
loop_
 _atom_site_type_symbol
 _atom_site_label
 _atom_site_symmetry_multiplicity
 _atom_site_fract_x
 _atom_site_fract_y
 _atom_site_fract_z
 _atom_site_occupancy
  Zn  Zn0  1  0.29166468  0.31531302  0.79523978  1
  Zn  Zn1  1  0.70833532  0.68468698  0.20476022  1
  Cr  Cr2  1  0.04905918  0.21667272  0.02362082  1
  Cr  Cr3  1  0.95094082  0.78332728  0.97637918  1
  Cr  Cr4  1  0.00000000  0.50000000  0.50000000  1
  Cr  Cr5  1  0.61940550  0.04290717  0.39067878  1
  Cr  Cr6  1  0.38059450  0.95709283  0.60932122  1
  P  P7  1  0.22538541  0.64787070  0.26516732  1
  P  P8  1  0.77461459  0.35212930  0.73483268  1
  P  P9  1  0.60480455  0.26535123  0.13086267  1
  P  P10  1  0.39519545  0.73464877  0.86913733  1
  P  P11  1  0.09376283  0.09456218  0.33320071  1
  P  P12  1  0.90623717  0.90543782  0.66679929  1
  O  O13  1  0.11958174  0.03453788  0.65968387  1
  O  O14  1  0.88041826  0.96546212  0.34031613  1
  O  O15  1  0.07097098  0.04832795  0.15556695  1
  O  O16  1  0.92902902  0.95167205  0.84443305  1
  O  O17  1  0.31452340  0.04287923  0.41873567  1
  O  O18  1  0.68547660  0.95712077  0.58126433  1
  O  O19  1  0.20817598  0.44798311  0.20339126  1
  O  O20  1  0.79182402  0.55201689  0.79660874  1
  O  O21  1  0.11902711  0.29036287  0.41596863  1
  O  O22  1  0.88097289  0.70963713  0.58403137  1
  O  O23  1  0.45542580  0.76646422  0.26868936  1
  O  O24  1  0.54457420  0.23353578  0.73131064  1
  O  O25  1  0.22456391  0.70137612  0.43782316  1
  O  O26  1  0.77543609  0.29862388  0.56217684  1
  O  O27  1  0.55316945  0.13314721  0.21560007  1
  O  O28  1  0.44683055  0.86685279  0.78439993  1
  O  O29  1  0.01407301  0.68760605  0.15636244  1
  O  O30  1  0.98592699  0.31239395  0.84363756  1
  O  O31  1  0.75063055  0.21389489  0.03517861  1
  O  O32  1  0.24936945  0.78610511  0.96482139  1
  O  O33  1  0.36771334  0.25795049  0.00556252  1
  O  O34  1  0.63228666  0.74204951  0.99443748  1
  O  O35  1  0.72211578  0.46294078  0.25678320  1
  O  O36  1  0.27788422  0.53705922  0.74321680  1
