# generated using pymatgen
data_Nd2Ge2Ru
_symmetry_space_group_name_H-M   'P 1'
_cell_length_a   4.36612799
_cell_length_b   6.02968516
_cell_length_c   9.49424329
_cell_angle_alpha   82.85665940
_cell_angle_beta   76.70672622
_cell_angle_gamma   68.77369032
_symmetry_Int_Tables_number   1
_chemical_formula_structural   Nd2Ge2Ru
_chemical_formula_sum   'Nd4 Ge4 Ru2'
_cell_volume   226.51621998
_cell_formula_units_Z   2
loop_
 _symmetry_equiv_pos_site_id
 _symmetry_equiv_pos_as_xyz
  1  'x, y, z'
loop_
 _atom_site_type_symbol
 _atom_site_label
 _atom_site_symmetry_multiplicity
 _atom_site_fract_x
 _atom_site_fract_y
 _atom_site_fract_z
 _atom_site_occupancy
  Nd  Nd0  1  0.99947604  0.67344505  0.32760287  1
  Nd  Nd1  1  0.00052396  0.32655495  0.67239713  1
  Nd  Nd2  1  0.81495791  0.25966643  0.11041776  1
  Nd  Nd3  1  0.18504209  0.74033357  0.88958224  1
  Ge  Ge4  1  0.65336962  0.26086595  0.43239481  1
  Ge  Ge5  1  0.34663038  0.73913405  0.56760519  1
  Ge  Ge6  1  0.50427810  0.86474460  0.12669920  1
  Ge  Ge7  1  0.49572190  0.13525540  0.87330080  1
  Ru  Ru8  1  0.72564966  0.92536069  0.62333998  1
  Ru  Ru9  1  0.27435034  0.07463931  0.37666002  1
