# generated using pymatgen
data_TmMnSi
_symmetry_space_group_name_H-M   'P 1'
_cell_length_a   4.01496449
_cell_length_b   6.85058864
_cell_length_c   7.65036253
_cell_angle_alpha   90.00000000
_cell_angle_beta   90.00000000
_cell_angle_gamma   90.00000000
_symmetry_Int_Tables_number   1
_chemical_formula_structural   TmMnSi
_chemical_formula_sum   'Tm4 Mn4 Si4'
_cell_volume   210.42222780
_cell_formula_units_Z   4
loop_
 _symmetry_equiv_pos_site_id
 _symmetry_equiv_pos_as_xyz
  1  'x, y, z'
loop_
 _atom_site_type_symbol
 _atom_site_label
 _atom_site_symmetry_multiplicity
 _atom_site_fract_x
 _atom_site_fract_y
 _atom_site_fract_z
 _atom_site_occupancy
  Tm  Tm0  1  0.75000000  0.98146568  0.31615795  1
  Tm  Tm1  1  0.25000000  0.01853432  0.68384205  1
  Tm  Tm2  1  0.25000000  0.51853432  0.81615795  1
  Tm  Tm3  1  0.75000000  0.48146568  0.18384205  1
  Mn  Mn4  1  0.75000000  0.86243288  0.94253343  1
  Mn  Mn5  1  0.25000000  0.13756712  0.05746657  1
  Mn  Mn6  1  0.25000000  0.63756712  0.44253343  1
  Mn  Mn7  1  0.75000000  0.36243288  0.55746657  1
  Si  Si8  1  0.75000000  0.71783018  0.61456390  1
  Si  Si9  1  0.25000000  0.28216982  0.38543610  1
  Si  Si10  1  0.25000000  0.78216982  0.11456390  1
  Si  Si11  1  0.75000000  0.21783018  0.88543610  1
