# generated using pymatgen
data_VCoO3
_symmetry_space_group_name_H-M   'P 1'
_cell_length_a   5.12512069
_cell_length_b   5.15483072
_cell_length_c   5.52680444
_cell_angle_alpha   61.78372277
_cell_angle_beta   88.46367095
_cell_angle_gamma   58.26862552
_symmetry_Int_Tables_number   1
_chemical_formula_structural   VCoO3
_chemical_formula_sum   'V2 Co2 O6'
_cell_volume   104.52596962
_cell_formula_units_Z   2
loop_
 _symmetry_equiv_pos_site_id
 _symmetry_equiv_pos_as_xyz
  1  'x, y, z'
loop_
 _atom_site_type_symbol
 _atom_site_label
 _atom_site_symmetry_multiplicity
 _atom_site_fract_x
 _atom_site_fract_y
 _atom_site_fract_z
 _atom_site_occupancy
  V  V0  1  0.35611109  0.30435910  0.04636553  1
  V  V1  1  0.64388891  0.69564090  0.95363447  1
  Co  Co2  1  0.13910185  0.72025983  0.42711216  1
  Co  Co3  1  0.86089815  0.27974017  0.57288784  1
  O  O4  1  0.04752276  0.22514655  0.23788238  1
  O  O5  1  0.95247724  0.77485345  0.76211762  1
  O  O6  1  0.27868544  0.16187648  0.76631660  1
  O  O7  1  0.72131456  0.83812352  0.23368340  1
  O  O8  1  0.44561882  0.49254393  0.23693756  1
  O  O9  1  0.55438118  0.50745607  0.76306244  1
