# generated using pymatgen
data_YTl(MoO4)2
_symmetry_space_group_name_H-M   'P 1'
_cell_length_a   6.13545856
_cell_length_b   15.53291616
_cell_length_c   9.16363109
_cell_angle_alpha   90.00000000
_cell_angle_beta   90.00000000
_cell_angle_gamma   90.00000000
_symmetry_Int_Tables_number   1
_chemical_formula_structural   YTl(MoO4)2
_chemical_formula_sum   'Y4 Tl4 Mo8 O32'
_cell_volume   873.30836944
_cell_formula_units_Z   4
loop_
 _symmetry_equiv_pos_site_id
 _symmetry_equiv_pos_as_xyz
  1  'x, y, z'
loop_
 _atom_site_type_symbol
 _atom_site_label
 _atom_site_symmetry_multiplicity
 _atom_site_fract_x
 _atom_site_fract_y
 _atom_site_fract_z
 _atom_site_occupancy
  Y  Y0  1  0.75000000  0.89419311  0.69542452  1
  Y  Y1  1  0.25000000  0.10580689  0.30457548  1
  Y  Y2  1  0.25000000  0.60580689  0.19542452  1
  Y  Y3  1  0.75000000  0.39419311  0.80457548  1
  Tl  Tl4  1  0.75000000  0.62575001  0.56060285  1
  Tl  Tl5  1  0.25000000  0.37424999  0.43939715  1
  Tl  Tl6  1  0.25000000  0.87424999  0.06060285  1
  Tl  Tl7  1  0.75000000  0.12575001  0.93939715  1
  Mo  Mo8  1  0.75000000  0.96032906  0.28100839  1
  Mo  Mo9  1  0.25000000  0.03967094  0.71899161  1
  Mo  Mo10  1  0.25000000  0.53967094  0.78100839  1
  Mo  Mo11  1  0.75000000  0.46032906  0.21899161  1
  Mo  Mo12  1  0.75000000  0.71575277  0.99442581  1
  Mo  Mo13  1  0.25000000  0.28424723  0.00557419  1
  Mo  Mo14  1  0.25000000  0.78424723  0.49442581  1
  Mo  Mo15  1  0.75000000  0.21575277  0.50557419  1
  O  O16  1  0.75000000  0.85361482  0.22025409  1
  O  O17  1  0.25000000  0.14638518  0.77974591  1
  O  O18  1  0.25000000  0.64638518  0.72025409  1
  O  O19  1  0.75000000  0.35361482  0.27974591  1
  O  O20  1  0.75000000  0.96290028  0.47656644  1
  O  O21  1  0.25000000  0.03709972  0.52343356  1
  O  O22  1  0.25000000  0.53709972  0.97656644  1
  O  O23  1  0.75000000  0.46290028  0.02343356  1
  O  O24  1  0.75000000  0.64132208  0.85101427  1
  O  O25  1  0.25000000  0.35867792  0.14898573  1
  O  O26  1  0.25000000  0.85867792  0.35101427  1
  O  O27  1  0.75000000  0.14132208  0.64898573  1
  O  O28  1  0.75000000  0.82119099  0.90844007  1
  O  O29  1  0.25000000  0.17880901  0.09155993  1
  O  O30  1  0.25000000  0.67880901  0.40844007  1
  O  O31  1  0.75000000  0.32119099  0.59155993  1
  O  O32  1  0.00438961  0.80335656  0.60032381  1
  O  O33  1  0.99561039  0.19664344  0.39967619  1
  O  O34  1  0.99561039  0.69664344  0.10032381  1
  O  O35  1  0.50438961  0.19664344  0.39967619  1
  O  O36  1  0.00438961  0.30335656  0.89967619  1
  O  O37  1  0.49561039  0.80335656  0.60032381  1
  O  O38  1  0.49561039  0.30335656  0.89967619  1
  O  O39  1  0.50438961  0.69664344  0.10032381  1
  O  O40  1  0.48958026  0.98387440  0.79135519  1
  O  O41  1  0.51041974  0.01612560  0.20864481  1
  O  O42  1  0.51041974  0.51612560  0.29135519  1
  O  O43  1  0.98958026  0.01612560  0.20864481  1
  O  O44  1  0.48958026  0.48387440  0.70864481  1
  O  O45  1  0.01041974  0.98387440  0.79135519  1
  O  O46  1  0.01041974  0.48387440  0.70864481  1
  O  O47  1  0.98958026  0.51612560  0.29135519  1
