# generated using pymatgen
data_PrPH5CO7
_symmetry_space_group_name_H-M   'P 1'
_cell_length_a   6.76178932
_cell_length_b   7.14648382
_cell_length_c   7.84359745
_cell_angle_alpha   110.54253476
_cell_angle_beta   95.79501411
_cell_angle_gamma   89.49575965
_symmetry_Int_Tables_number   1
_chemical_formula_structural   PrPH5CO7
_chemical_formula_sum   'Pr2 P2 H10 C2 O14'
_cell_volume   352.96662541
_cell_formula_units_Z   2
loop_
 _symmetry_equiv_pos_site_id
 _symmetry_equiv_pos_as_xyz
  1  'x, y, z'
loop_
 _atom_site_type_symbol
 _atom_site_label
 _atom_site_symmetry_multiplicity
 _atom_site_fract_x
 _atom_site_fract_y
 _atom_site_fract_z
 _atom_site_occupancy
  Pr  Pr0  1  0.13215070  0.22329001  0.93512472  1
  Pr  Pr1  1  0.86784930  0.77670999  0.06487528  1
  P  P2  1  0.67586138  0.25356461  0.01848175  1
  P  P3  1  0.32413862  0.74643539  0.98151825  1
  H  H4  1  0.55090490  0.15935265  0.43554041  1
  H  H5  1  0.44909510  0.84064735  0.56445959  1
  H  H6  1  0.71378719  0.66678798  0.63653548  1
  H  H7  1  0.28621281  0.33321202  0.36346452  1
  H  H8  1  0.83193343  0.48150050  0.67042431  1
  H  H9  1  0.62845738  0.29075025  0.19788751  1
  H  H10  1  0.16806657  0.51849950  0.32957569  1
  H  H11  1  0.46609723  0.25649604  0.62355725  1
  H  H12  1  0.37154262  0.70924975  0.80211249  1
  H  H13  1  0.53390277  0.74350396  0.37644275  1
  C  C14  1  0.06543175  0.91064189  0.50109682  1
  C  C15  1  0.93456825  0.08935811  0.49890318  1
  O  O16  1  0.81891701  0.42477515  0.02540663  1
  O  O17  1  0.82627036  0.07077182  0.35254280  1
  O  O18  1  0.17372964  0.92922818  0.64745720  1
  O  O19  1  0.43235833  0.22214754  0.49151770  1
  O  O20  1  0.79311609  0.62164046  0.72846936  1
  O  O21  1  0.20688391  0.37835954  0.27153064  1
  O  O22  1  0.19799838  0.93748247  0.03672905  1
  O  O23  1  0.48104254  0.23462233  0.89621625  1
  O  O24  1  0.80200162  0.06251753  0.96327095  1
  O  O25  1  0.94540832  0.24096142  0.64559538  1
  O  O26  1  0.51895746  0.76537767  0.10378375  1
  O  O27  1  0.18108299  0.57522485  0.97459337  1
  O  O28  1  0.56764167  0.77785246  0.50848230  1
  O  O29  1  0.05459168  0.75903858  0.35440462  1
