# generated using pymatgen
data_Sr(MgIn)2
_symmetry_space_group_name_H-M   'P 1'
_cell_length_a   4.69455144
_cell_length_b   4.69455144
_cell_length_c   7.30621197
_cell_angle_alpha   108.73982463
_cell_angle_beta   108.73982463
_cell_angle_gamma   90.00000000
_symmetry_Int_Tables_number   1
_chemical_formula_structural   Sr(MgIn)2
_chemical_formula_sum   'Sr1 Mg2 In2'
_cell_volume   143.44088640
_cell_formula_units_Z   1
loop_
 _symmetry_equiv_pos_site_id
 _symmetry_equiv_pos_as_xyz
  1  'x, y, z'
loop_
 _atom_site_type_symbol
 _atom_site_label
 _atom_site_symmetry_multiplicity
 _atom_site_fract_x
 _atom_site_fract_y
 _atom_site_fract_z
 _atom_site_occupancy
  Sr  Sr0  1  0.00000000  0.00000000  0.00000000  1
  Mg  Mg1  1  0.25000000  0.75000000  0.50000000  1
  Mg  Mg2  1  0.75000000  0.25000000  0.50000000  1
  In  In3  1  0.38970788  0.38970788  0.77941576  1
  In  In4  1  0.61029212  0.61029212  0.22058424  1
