# generated using pymatgen
data_Sr4Mn3BO10
_symmetry_space_group_name_H-M   'P 1'
_cell_length_a   3.82385831
_cell_length_b   7.79431613
_cell_length_c   8.91823025
_cell_angle_alpha   115.91185011
_cell_angle_beta   90.00000000
_cell_angle_gamma   90.00000000
_symmetry_Int_Tables_number   1
_chemical_formula_structural   Sr4Mn3BO10
_chemical_formula_sum   'Sr4 Mn3 B1 O10'
_cell_volume   239.08037317
_cell_formula_units_Z   1
loop_
 _symmetry_equiv_pos_site_id
 _symmetry_equiv_pos_as_xyz
  1  'x, y, z'
loop_
 _atom_site_type_symbol
 _atom_site_label
 _atom_site_symmetry_multiplicity
 _atom_site_fract_x
 _atom_site_fract_y
 _atom_site_fract_z
 _atom_site_occupancy
  Sr  Sr0  1  0.50000000  0.59973702  0.74168415  1
  Sr  Sr1  1  0.50000000  0.85805287  0.25831585  1
  Sr  Sr2  1  0.50000000  0.37874822  0.26257710  1
  Sr  Sr3  1  0.50000000  0.11617113  0.73742290  1
  Mn  Mn4  1  -0.00000000  0.49292830  0.00000000  1
  Mn  Mn5  1  0.00000000  0.73964907  0.49870999  1
  Mn  Mn6  1  0.00000000  0.24093908  0.50129001  1
  B  B7  1  0.00000000  0.95801679  0.00000000  1
  O  O8  1  0.00000000  0.77513902  0.00000000  1
  O  O9  1  -0.00000000  0.96461677  0.84694957  1
  O  O10  1  -0.00000000  0.11766720  0.15305043  1
  O  O11  1  0.00000000  0.60140253  0.24072463  1
  O  O12  1  0.00000000  0.36067791  0.75927537  1
  O  O13  1  0.50000000  0.75677774  0.53384470  1
  O  O14  1  0.50000000  0.22293304  0.46615530  1
  O  O15  1  0.50000000  0.44596301  0.00000000  1
  O  O16  1  0.00000000  0.49956493  0.51684955  1
  O  O17  1  0.00000000  0.98271538  0.48315045  1
