# generated using pymatgen
data_Y10B7C10
_symmetry_space_group_name_H-M   'P 1'
_cell_length_a   8.00184398
_cell_length_b   8.00184398
_cell_length_c   23.73265212
_cell_angle_alpha   84.11627384
_cell_angle_beta   84.11627384
_cell_angle_gamma   88.70378717
_symmetry_Int_Tables_number   1
_chemical_formula_structural   Y10B7C10
_chemical_formula_sum   'Y40 B28 C40'
_cell_volume   1503.50903820
_cell_formula_units_Z   4
loop_
 _symmetry_equiv_pos_site_id
 _symmetry_equiv_pos_as_xyz
  1  'x, y, z'
loop_
 _atom_site_type_symbol
 _atom_site_label
 _atom_site_symmetry_multiplicity
 _atom_site_fract_x
 _atom_site_fract_y
 _atom_site_fract_z
 _atom_site_occupancy
  Y  Y0  1  0.22372697  0.17337540  0.92444337  1
  Y  Y1  1  0.77627303  0.82662460  0.07555663  1
  Y  Y2  1  0.82662460  0.77627303  0.57555663  1
  Y  Y3  1  0.17337540  0.22372697  0.42444337  1
  Y  Y4  1  0.35364588  0.91379071  0.81801761  1
  Y  Y5  1  0.64635412  0.08620929  0.18198239  1
  Y  Y6  1  0.08620929  0.64635412  0.68198239  1
  Y  Y7  1  0.91379071  0.35364588  0.31801761  1
  Y  Y8  1  0.62516929  0.17763640  0.57736329  1
  Y  Y9  1  0.37483071  0.82236360  0.42263671  1
  Y  Y10  1  0.82236360  0.37483071  0.92263671  1
  Y  Y11  1  0.17763640  0.62516929  0.07736329  1
  Y  Y12  1  0.62511022  0.97220991  0.92247669  1
  Y  Y13  1  0.37488978  0.02779009  0.07752331  1
  Y  Y14  1  0.02779009  0.37488978  0.57752331  1
  Y  Y15  1  0.97220991  0.62511022  0.42247669  1
  Y  Y16  1  0.54509105  0.30348758  0.81872572  1
  Y  Y17  1  0.45490895  0.69651242  0.18127428  1
  Y  Y18  1  0.69651242  0.45490895  0.68127428  1
  Y  Y19  1  0.30348758  0.54509105  0.31872572  1
  Y  Y20  1  0.29145036  0.24183619  0.69544743  1
  Y  Y21  1  0.70854964  0.75816381  0.30455257  1
  Y  Y22  1  0.75816381  0.70854964  0.80455257  1
  Y  Y23  1  0.24183619  0.29145036  0.19544743  1
  Y  Y24  1  0.42640905  0.57582238  0.57701518  1
  Y  Y25  1  0.57359095  0.42417762  0.42298482  1
  Y  Y26  1  0.42417762  0.57359095  0.92298482  1
  Y  Y27  1  0.57582238  0.42640905  0.07701518  1
  Y  Y28  1  0.10631727  0.96361975  0.31824417  1
  Y  Y29  1  0.89368273  0.03638025  0.68175583  1
  Y  Y30  1  0.03638025  0.89368273  0.18175583  1
  Y  Y31  1  0.96361975  0.10631727  0.81824417  1
  Y  Y32  1  0.22732969  0.97799108  0.57747964  1
  Y  Y33  1  0.77267031  0.02200892  0.42252036  1
  Y  Y34  1  0.02200892  0.77267031  0.92252036  1
  Y  Y35  1  0.97799108  0.22732969  0.07747964  1
  Y  Y36  1  0.50444392  0.84464498  0.68161917  1
  Y  Y37  1  0.49555608  0.15535502  0.31838083  1
  Y  Y38  1  0.15535502  0.49555608  0.81838083  1
  Y  Y39  1  0.84464498  0.50444392  0.18161917  1
  B  B40  1  0.62081497  0.07064094  0.75024983  1
  B  B41  1  0.37918503  0.92935906  0.24975017  1
  B  B42  1  0.92935906  0.37918503  0.74975017  1
  B  B43  1  0.07064094  0.62081497  0.25024983  1
  B  B44  1  0.54143680  0.89801362  0.51973568  1
  B  B45  1  0.45856320  0.10198638  0.48026432  1
  B  B46  1  0.10198638  0.45856320  0.98026432  1
  B  B47  1  0.89801362  0.54143680  0.01973568  1
  B  B48  1  0.90920772  0.05470150  0.97956780  1
  B  B49  1  0.09079228  0.94529850  0.02043220  1
  B  B50  1  0.94529850  0.09079228  0.52043220  1
  B  B51  1  0.05470150  0.90920772  0.47956780  1
  B  B52  1  0.31053199  0.85313755  0.97929390  1
  B  B53  1  0.68946801  0.14686245  0.02070610  1
  B  B54  1  0.14686245  0.68946801  0.52070610  1
  B  B55  1  0.85313755  0.31053199  0.47929390  1
  B  B56  1  0.51057082  0.25557115  0.98068839  1
  B  B57  1  0.48942918  0.74442885  0.01931161  1
  B  B58  1  0.74442885  0.48942918  0.51931161  1
  B  B59  1  0.25557115  0.51057082  0.48068839  1
  B  B60  1  0.42819601  0.57180399  0.75000000  1
  B  B61  1  0.57180399  0.42819601  0.25000000  1
  B  B62  1  0.12168014  0.87831986  0.75000000  1
  B  B63  1  0.87831986  0.12168014  0.25000000  1
  B  B64  1  0.70655619  0.65766567  0.97579468  1
  B  B65  1  0.29344381  0.34233433  0.02420532  1
  B  B66  1  0.34233433  0.29344381  0.52420532  1
  B  B67  1  0.65766567  0.70655619  0.47579468  1
  C  C68  1  0.45529322  0.60848413  0.80773742  1
  C  C69  1  0.54470678  0.39151587  0.19226258  1
  C  C70  1  0.39151587  0.54470678  0.69226258  1
  C  C71  1  0.60848413  0.45529322  0.30773742  1
  C  C72  1  0.32641441  0.87325140  0.91639997  1
  C  C73  1  0.67358559  0.12674860  0.08360003  1
  C  C74  1  0.12674860  0.67358559  0.58360003  1
  C  C75  1  0.87325140  0.32641441  0.41639997  1
  C  C76  1  0.59417942  0.14287666  0.69259835  1
  C  C77  1  0.40582058  0.85712334  0.30740165  1
  C  C78  1  0.85712334  0.40582058  0.80740165  1
  C  C79  1  0.14287666  0.59417942  0.19259835  1
  C  C80  1  0.19317568  0.94063135  0.69242368  1
  C  C81  1  0.80682432  0.05936865  0.30757632  1
  C  C82  1  0.05936865  0.80682432  0.80757632  1
  C  C83  1  0.94063135  0.19317568  0.19242368  1
  C  C84  1  0.65751940  0.00971220  0.80837220  1
  C  C85  1  0.34248060  0.99028780  0.19162780  1
  C  C86  1  0.99028780  0.34248060  0.69162780  1
  C  C87  1  0.00971220  0.65751940  0.30837220  1
  C  C88  1  0.52636590  0.27706030  0.91749831  1
  C  C89  1  0.47363410  0.72293970  0.08250169  1
  C  C90  1  0.72293970  0.47363410  0.58250169  1
  C  C91  1  0.27706030  0.52636590  0.41749831  1
  C  C92  1  0.07423325  0.92384492  0.41659719  1
  C  C93  1  0.92576675  0.07615508  0.58340281  1
  C  C94  1  0.07615508  0.92576675  0.08340281  1
  C  C95  1  0.92384492  0.07423325  0.91659719  1
  C  C96  1  0.25450553  0.20492024  0.81803661  1
  C  C97  1  0.74549447  0.79507976  0.18196339  1
  C  C98  1  0.79507976  0.74549447  0.68196339  1
  C  C99  1  0.20492024  0.25450553  0.31803661  1
  C  C100  1  0.32389399  0.27356463  0.58764231  1
  C  C101  1  0.67610601  0.72643537  0.41235769  1
  C  C102  1  0.72643537  0.67610601  0.91235769  1
  C  C103  1  0.27356463  0.32389399  0.08764231  1
  C  C104  1  0.52318924  0.87539978  0.58281305  1
  C  C105  1  0.47681076  0.12460022  0.41718695  1
  C  C106  1  0.12460022  0.47681076  0.91718695  1
  C  C107  1  0.87539978  0.52318924  0.08281305  1
