# generated using pymatgen
data_TbZr6(PO4)9
_symmetry_space_group_name_H-M   'P 1'
_cell_length_a   8.93908549
_cell_length_b   8.93908549
_cell_length_c   22.98719885
_cell_angle_alpha   90.00000000
_cell_angle_beta   90.00000000
_cell_angle_gamma   119.99999580
_symmetry_Int_Tables_number   1
_chemical_formula_structural   TbZr6(PO4)9
_chemical_formula_sum   'Tb2 Zr12 P18 O72'
_cell_volume   1590.75348919
_cell_formula_units_Z   2
loop_
 _symmetry_equiv_pos_site_id
 _symmetry_equiv_pos_as_xyz
  1  'x, y, z'
loop_
 _atom_site_type_symbol
 _atom_site_label
 _atom_site_symmetry_multiplicity
 _atom_site_fract_x
 _atom_site_fract_y
 _atom_site_fract_z
 _atom_site_occupancy
  Tb  Tb0  1  -0.00000000  0.00000000  0.00000000  1
  Tb  Tb1  1  -0.00000000  0.00000000  0.50000000  1
  Zr  Zr2  1  0.66666700  0.33333300  0.97176447  1
  Zr  Zr3  1  0.33333300  0.66666700  0.02823553  1
  Zr  Zr4  1  0.33333300  0.66666700  0.52823553  1
  Zr  Zr5  1  0.66666700  0.33333300  0.47176447  1
  Zr  Zr6  1  -0.00000000  0.00000000  0.85053898  1
  Zr  Zr7  1  -0.00000000  0.00000000  0.14946102  1
  Zr  Zr8  1  -0.00000000  0.00000000  0.64946102  1
  Zr  Zr9  1  -0.00000000  0.00000000  0.35053898  1
  Zr  Zr10  1  0.66666700  0.33333300  0.68687336  1
  Zr  Zr11  1  0.33333300  0.66666700  0.31312664  1
  Zr  Zr12  1  0.33333300  0.66666700  0.81312664  1
  Zr  Zr13  1  0.66666700  0.33333300  0.18687336  1
  P  P14  1  0.62672127  0.94537493  0.92106026  1
  P  P15  1  0.37327873  0.05462507  0.07893974  1
  P  P16  1  0.31865366  0.37327873  0.92106026  1
  P  P17  1  0.68134634  0.05462507  0.57893974  1
  P  P18  1  0.68134634  0.62672127  0.07893974  1
  P  P19  1  0.31865366  0.94537493  0.42106026  1
  P  P20  1  0.05462507  0.68134634  0.92106026  1
  P  P21  1  0.94537493  0.62672127  0.57893974  1
  P  P22  1  0.94537493  0.31865366  0.07893974  1
  P  P23  1  0.05462507  0.37327873  0.42106026  1
  P  P24  1  0.37327873  0.31865366  0.57893974  1
  P  P25  1  0.62672127  0.68134634  0.42106026  1
  P  P26  1  0.70798160  0.70798160  0.75000000  1
  P  P27  1  0.29201840  0.29201840  0.25000000  1
  P  P28  1  1.00000000  0.29201840  0.75000000  1
  P  P29  1  0.00000000  0.70798160  0.25000000  1
  P  P30  1  0.29201840  1.00000000  0.75000000  1
  P  P31  1  0.70798160  0.00000000  0.25000000  1
  O  O32  1  0.54456972  0.82712076  0.97369854  1
  O  O33  1  0.45543028  0.17287924  0.02630146  1
  O  O34  1  0.28255103  0.45543028  0.97369854  1
  O  O35  1  0.71744897  0.17287924  0.52630146  1
  O  O36  1  0.71744897  0.54456972  0.02630146  1
  O  O37  1  0.28255103  0.82712076  0.47369854  1
  O  O38  1  0.17287924  0.71744897  0.97369854  1
  O  O39  1  0.82712076  0.54456972  0.52630146  1
  O  O40  1  0.82712076  0.28255103  0.02630146  1
  O  O41  1  0.17287924  0.45543028  0.47369854  1
  O  O42  1  0.45543028  0.28255103  0.52630146  1
  O  O43  1  0.54456972  0.71744897  0.47369854  1
  O  O44  1  0.62433158  0.11572941  0.92584768  1
  O  O45  1  0.37566842  0.88427059  0.07415232  1
  O  O46  1  0.49139783  0.37566842  0.92584768  1
  O  O47  1  0.50860217  0.88427059  0.57415232  1
  O  O48  1  0.50860217  0.62433158  0.07415232  1
  O  O49  1  0.49139783  0.11572941  0.42584768  1
  O  O50  1  0.88427059  0.50860217  0.92584768  1
  O  O51  1  0.11572941  0.62433158  0.57415232  1
  O  O52  1  0.11572941  0.49139783  0.07415232  1
  O  O53  1  0.88427059  0.37566842  0.42584768  1
  O  O54  1  0.37566842  0.49139783  0.57415232  1
  O  O55  1  0.62433158  0.50860217  0.42584768  1
  O  O56  1  0.82330347  0.99138724  0.92135912  1
  O  O57  1  0.17669653  0.00861276  0.07864088  1
  O  O58  1  0.16808377  0.17669653  0.92135912  1
  O  O59  1  0.83191623  0.00861276  0.57864088  1
  O  O60  1  0.83191623  0.82330347  0.07864088  1
  O  O61  1  0.16808377  0.99138724  0.42135912  1
  O  O62  1  0.00861276  0.83191623  0.92135912  1
  O  O63  1  0.99138724  0.82330347  0.57864088  1
  O  O64  1  0.99138724  0.16808377  0.07864088  1
  O  O65  1  0.00861276  0.17669653  0.42135912  1
  O  O66  1  0.17669653  0.16808377  0.57864088  1
  O  O67  1  0.82330347  0.83191623  0.42135912  1
  O  O68  1  0.96884611  0.17389174  0.80405417  1
  O  O69  1  0.03115389  0.82610826  0.19594583  1
  O  O70  1  0.20504562  0.03115389  0.80405417  1
  O  O71  1  0.79495438  0.82610826  0.69594583  1
  O  O72  1  0.79495438  0.96884611  0.19594583  1
  O  O73  1  0.20504562  0.17389174  0.30405417  1
  O  O74  1  0.82610826  0.79495438  0.80405417  1
  O  O75  1  0.17389174  0.96884611  0.69594583  1
  O  O76  1  0.17389174  0.20504562  0.19594583  1
  O  O77  1  0.82610826  0.03115389  0.30405417  1
  O  O78  1  0.03115389  0.20504562  0.69594583  1
  O  O79  1  0.96884611  0.79495438  0.30405417  1
  O  O80  1  0.53973641  0.85349000  0.86423786  1
  O  O81  1  0.46026359  0.14651000  0.13576214  1
  O  O82  1  0.31375360  0.46026359  0.86423786  1
  O  O83  1  0.68624640  0.14651000  0.63576214  1
  O  O84  1  0.68624640  0.53973641  0.13576214  1
  O  O85  1  0.31375360  0.85349000  0.36423786  1
  O  O86  1  0.14651000  0.68624640  0.86423786  1
  O  O87  1  0.85349000  0.53973641  0.63576214  1
  O  O88  1  0.85349000  0.31375360  0.13576214  1
  O  O89  1  0.14651000  0.46026359  0.36423786  1
  O  O90  1  0.46026359  0.31375360  0.63576214  1
  O  O91  1  0.53973641  0.68624640  0.36423786  1
  O  O92  1  0.53198215  0.69090967  0.76021171  1
  O  O93  1  0.46801785  0.30909033  0.23978829  1
  O  O94  1  0.15892752  0.46801785  0.76021171  1
  O  O95  1  0.84107248  0.30909033  0.73978829  1
  O  O96  1  0.84107248  0.53198215  0.23978829  1
  O  O97  1  0.15892752  0.69090967  0.26021171  1
  O  O98  1  0.30909033  0.84107248  0.76021171  1
  O  O99  1  0.69090967  0.53198215  0.73978829  1
  O  O100  1  0.69090967  0.15892752  0.23978829  1
  O  O101  1  0.30909033  0.46801785  0.26021171  1
  O  O102  1  0.46801785  0.15892752  0.73978829  1
  O  O103  1  0.53198215  0.84107248  0.26021171  1
