# generated using pymatgen
data_Rb2Ti2(PO4)3
_symmetry_space_group_name_H-M   'P 1'
_cell_length_a   10.08629480
_cell_length_b   10.08629480
_cell_length_c   10.08629480
_cell_angle_alpha   90.00000000
_cell_angle_beta   90.00000000
_cell_angle_gamma   90.00000000
_symmetry_Int_Tables_number   1
_chemical_formula_structural   Rb2Ti2(PO4)3
_chemical_formula_sum   'Rb8 Ti8 P12 O48'
_cell_volume   1026.11248639
_cell_formula_units_Z   4
loop_
 _symmetry_equiv_pos_site_id
 _symmetry_equiv_pos_as_xyz
  1  'x, y, z'
loop_
 _atom_site_type_symbol
 _atom_site_label
 _atom_site_symmetry_multiplicity
 _atom_site_fract_x
 _atom_site_fract_y
 _atom_site_fract_z
 _atom_site_occupancy
  Rb  Rb0  1  0.04229089  0.04229089  0.04229089  1
  Rb  Rb1  1  0.45770911  0.95770911  0.54229089  1
  Rb  Rb2  1  0.95770911  0.54229089  0.45770911  1
  Rb  Rb3  1  0.54229089  0.45770911  0.95770911  1
  Rb  Rb4  1  0.82025933  0.82025933  0.82025933  1
  Rb  Rb5  1  0.67974067  0.17974067  0.32025933  1
  Rb  Rb6  1  0.17974067  0.32025933  0.67974067  1
  Rb  Rb7  1  0.32025933  0.67974067  0.17974067  1
  Ti  Ti8  1  0.60759323  0.60759323  0.60759323  1
  Ti  Ti9  1  0.89240677  0.39240677  0.10759323  1
  Ti  Ti10  1  0.39240677  0.10759323  0.89240677  1
  Ti  Ti11  1  0.10759323  0.89240677  0.39240677  1
  Ti  Ti12  1  0.33628805  0.33628805  0.33628805  1
  Ti  Ti13  1  0.16371195  0.66371195  0.83628805  1
  Ti  Ti14  1  0.66371195  0.83628805  0.16371195  1
  Ti  Ti15  1  0.83628805  0.16371195  0.66371195  1
  P  P16  1  0.02090627  0.20703664  0.37560838  1
  P  P17  1  0.47909373  0.79296336  0.87560838  1
  P  P18  1  0.97909373  0.70703664  0.12439162  1
  P  P19  1  0.37560838  0.02090627  0.20703664  1
  P  P20  1  0.52090627  0.29296336  0.62439162  1
  P  P21  1  0.87560838  0.47909373  0.79296336  1
  P  P22  1  0.12439162  0.97909373  0.70703664  1
  P  P23  1  0.62439162  0.52090627  0.29296336  1
  P  P24  1  0.20703664  0.37560838  0.02090627  1
  P  P25  1  0.70703664  0.12439162  0.97909373  1
  P  P26  1  0.29296336  0.62439162  0.52090627  1
  P  P27  1  0.79296336  0.87560838  0.47909373  1
  O  O28  1  0.01704514  0.05904159  0.33430127  1
  O  O29  1  0.48295486  0.94095841  0.83430127  1
  O  O30  1  0.98295486  0.55904159  0.16569873  1
  O  O31  1  0.33430127  0.01704514  0.05904159  1
  O  O32  1  0.51704514  0.44095841  0.66569873  1
  O  O33  1  0.83430127  0.48295486  0.94095841  1
  O  O34  1  0.16569873  0.98295486  0.55904159  1
  O  O35  1  0.66569873  0.51704514  0.44095841  1
  O  O36  1  0.05904159  0.33430127  0.01704514  1
  O  O37  1  0.55904159  0.16569873  0.98295486  1
  O  O38  1  0.44095841  0.66569873  0.51704514  1
  O  O39  1  0.94095841  0.83430127  0.48295486  1
  O  O40  1  0.16439351  0.25623147  0.39755175  1
  O  O41  1  0.33560649  0.74376853  0.89755175  1
  O  O42  1  0.83560649  0.75623147  0.10244825  1
  O  O43  1  0.39755175  0.16439351  0.25623147  1
  O  O44  1  0.66439351  0.24376853  0.60244825  1
  O  O45  1  0.89755175  0.33560649  0.74376853  1
  O  O46  1  0.10244825  0.83560649  0.75623147  1
  O  O47  1  0.60244825  0.66439351  0.24376853  1
  O  O48  1  0.25623147  0.39755175  0.16439351  1
  O  O49  1  0.75623147  0.10244825  0.83560649  1
  O  O50  1  0.24376853  0.60244825  0.66439351  1
  O  O51  1  0.74376853  0.89755175  0.33560649  1
  O  O52  1  0.27065108  0.49533686  0.44012798  1
  O  O53  1  0.22934892  0.50466314  0.94012798  1
  O  O54  1  0.72934892  0.99533686  0.05987202  1
  O  O55  1  0.44012798  0.27065108  0.49533686  1
  O  O56  1  0.77065108  0.00466314  0.55987202  1
  O  O57  1  0.94012798  0.22934892  0.50466314  1
  O  O58  1  0.05987202  0.72934892  0.99533686  1
  O  O59  1  0.55987202  0.77065108  0.00466314  1
  O  O60  1  0.49533686  0.44012798  0.27065108  1
  O  O61  1  0.99533686  0.05987202  0.72934892  1
  O  O62  1  0.00466314  0.55987202  0.77065108  1
  O  O63  1  0.50466314  0.94012798  0.22934892  1
  O  O64  1  0.04735946  0.79059686  0.23384374  1
  O  O65  1  0.45264054  0.20940314  0.73384374  1
  O  O66  1  0.95264054  0.29059686  0.26615626  1
  O  O67  1  0.23384374  0.04735946  0.79059686  1
  O  O68  1  0.54735946  0.70940314  0.76615626  1
  O  O69  1  0.73384374  0.45264054  0.20940314  1
  O  O70  1  0.26615626  0.95264054  0.29059686  1
  O  O71  1  0.76615626  0.54735946  0.70940314  1
  O  O72  1  0.79059686  0.23384374  0.04735946  1
  O  O73  1  0.29059686  0.26615626  0.95264054  1
  O  O74  1  0.70940314  0.76615626  0.54735946  1
  O  O75  1  0.20940314  0.73384374  0.45264054  1
