# generated using pymatgen
data_Pr4OsI5
_symmetry_space_group_name_H-M   'P 1'
_cell_length_a   4.30851921
_cell_length_b   9.37729441
_cell_length_c   10.27047438
_cell_angle_alpha   102.71238014
_cell_angle_beta   102.10785782
_cell_angle_gamma   90.00000000
_symmetry_Int_Tables_number   1
_chemical_formula_structural   Pr4OsI5
_chemical_formula_sum   'Pr4 Os1 I5'
_cell_volume   395.31040566
_cell_formula_units_Z   1
loop_
 _symmetry_equiv_pos_site_id
 _symmetry_equiv_pos_as_xyz
  1  'x, y, z'
loop_
 _atom_site_type_symbol
 _atom_site_label
 _atom_site_symmetry_multiplicity
 _atom_site_fract_x
 _atom_site_fract_y
 _atom_site_fract_z
 _atom_site_occupancy
  Pr  Pr0  1  0.13947204  0.07218981  0.27894408  1
  Pr  Pr1  1  0.86052796  0.92781019  0.72105592  1
  Pr  Pr2  1  0.49973222  0.20894878  0.99946445  1
  Pr  Pr3  1  0.50026778  0.79105122  0.00053555  1
  Os  Os4  1  0.00000000  -0.00000000  0.00000000  1
  I  I5  1  0.32827015  0.16847983  0.65654030  1
  I  I6  1  0.67172985  0.83152017  0.34345970  1
  I  I7  1  0.33429923  0.66312272  0.66859847  1
  I  I8  1  0.66570077  0.33687728  0.33140153  1
  I  I9  1  0.00000000  0.50000000  0.00000000  1
