# generated using pymatgen
data_Ni10SbP3
_symmetry_space_group_name_H-M   'P 1'
_cell_length_a   7.66158289
_cell_length_b   7.66158289
_cell_length_c   9.64046053
_cell_angle_alpha   90.00000000
_cell_angle_beta   90.00000000
_cell_angle_gamma   120.00000458
_symmetry_Int_Tables_number   1
_chemical_formula_structural   Ni10SbP3
_chemical_formula_sum   'Ni30 Sb3 P9'
_cell_volume   490.07821957
_cell_formula_units_Z   3
loop_
 _symmetry_equiv_pos_site_id
 _symmetry_equiv_pos_as_xyz
  1  'x, y, z'
loop_
 _atom_site_type_symbol
 _atom_site_label
 _atom_site_symmetry_multiplicity
 _atom_site_fract_x
 _atom_site_fract_y
 _atom_site_fract_z
 _atom_site_occupancy
  Ni  Ni0  1  0.66325075  0.66325075  0.50000000  1
  Ni  Ni1  1  0.33674925  0.33674925  0.50000000  1
  Ni  Ni2  1  1.00000000  0.33674925  0.50000000  1
  Ni  Ni3  1  0.00000000  0.66325075  0.50000000  1
  Ni  Ni4  1  0.33674925  1.00000000  0.50000000  1
  Ni  Ni5  1  0.66325075  0.00000000  0.50000000  1
  Ni  Ni6  1  0.00000000  -0.00000000  0.61964155  1
  Ni  Ni7  1  0.00000000  -0.00000000  0.38035845  1
  Ni  Ni8  1  0.18858098  0.37716196  0.92775210  1
  Ni  Ni9  1  0.81141902  0.62283804  0.07224790  1
  Ni  Ni10  1  0.18858098  0.81141902  0.92775210  1
  Ni  Ni11  1  0.81141902  0.18858098  0.07224790  1
  Ni  Ni12  1  0.62283804  0.81141902  0.92775210  1
  Ni  Ni13  1  0.37716196  0.18858098  0.07224790  1
  Ni  Ni14  1  0.66666700  0.33333300  0.90251914  1
  Ni  Ni15  1  0.33333300  0.66666700  0.09748086  1
  Ni  Ni16  1  0.49179970  0.98359940  0.75960795  1
  Ni  Ni17  1  0.50820030  0.01640060  0.24039205  1
  Ni  Ni18  1  0.49179970  0.50820030  0.75960795  1
  Ni  Ni19  1  0.50820030  0.49179970  0.24039205  1
  Ni  Ni20  1  0.01640060  0.50820030  0.75960795  1
  Ni  Ni21  1  0.98359940  0.49179970  0.24039205  1
  Ni  Ni22  1  0.66666700  0.33333300  0.38826257  1
  Ni  Ni23  1  0.33333300  0.66666700  0.61173743  1
  Ni  Ni24  1  0.86337004  0.72674008  0.80168818  1
  Ni  Ni25  1  0.13662996  0.27325992  0.19831182  1
  Ni  Ni26  1  0.86337004  0.13662996  0.80168818  1
  Ni  Ni27  1  0.13662996  0.86337004  0.19831182  1
  Ni  Ni28  1  0.27325992  0.13662996  0.80168818  1
  Ni  Ni29  1  0.72674008  0.86337004  0.19831182  1
  Sb  Sb30  1  0.66666700  0.33333300  0.63991372  1
  Sb  Sb31  1  0.33333300  0.66666700  0.36008628  1
  Sb  Sb32  1  0.00000000  -0.00000000  0.00000000  1
  P  P33  1  0.50000000  0.50000000  0.00000000  1
  P  P34  1  0.00000000  0.50000000  0.00000000  1
  P  P35  1  0.50000000  -0.00000000  -0.00000000  1
  P  P36  1  0.16463379  0.32926758  0.69081838  1
  P  P37  1  0.83536621  0.67073242  0.30918162  1
  P  P38  1  0.16463379  0.83536621  0.69081838  1
  P  P39  1  0.83536621  0.16463379  0.30918162  1
  P  P40  1  0.67073242  0.83536621  0.69081838  1
  P  P41  1  0.32926758  0.16463379  0.30918162  1
