# generated using pymatgen
data_NaAl5FeP4(H5O12)2
_symmetry_space_group_name_H-M   'P 1'
_cell_length_a   5.09852603
_cell_length_b   12.91149715
_cell_length_c   13.65070887
_cell_angle_alpha   110.57191856
_cell_angle_beta   90.00000000
_cell_angle_gamma   101.38737625
_symmetry_Int_Tables_number   1
_chemical_formula_structural   NaAl5FeP4(H5O12)2
_chemical_formula_sum   'Na2 Al10 Fe2 P8 H20 O48'
_cell_volume   822.39610937
_cell_formula_units_Z   2
loop_
 _symmetry_equiv_pos_site_id
 _symmetry_equiv_pos_as_xyz
  1  'x, y, z'
loop_
 _atom_site_type_symbol
 _atom_site_label
 _atom_site_symmetry_multiplicity
 _atom_site_fract_x
 _atom_site_fract_y
 _atom_site_fract_z
 _atom_site_occupancy
  Na  Na0  1  0.85356208  1.00000000  0.75000000  1
  Na  Na1  1  0.14643792  0.00000000  0.25000000  1
  Al  Al2  1  0.63561361  0.71829319  0.65007957  1
  Al  Al3  1  0.36438639  0.28170681  0.34992043  1
  Al  Al4  1  0.91732042  0.28170681  0.84992043  1
  Al  Al5  1  0.08267958  0.71829319  0.15007957  1
  Al  Al6  1  0.82886208  0.69646316  0.89152753  1
  Al  Al7  1  0.17113792  0.30353684  0.10847247  1
  Al  Al8  1  0.13239892  0.30353684  0.60847247  1
  Al  Al9  1  0.86760108  0.69646316  0.39152753  1
  Al  Al10  1  -0.00000000  -0.00000000  -0.00000000  1
  Al  Al11  1  -0.00000000  -0.00000000  0.50000000  1
  Fe  Fe12  1  0.50000000  0.50000000  0.50000000  1
  Fe  Fe13  1  -0.00000000  0.50000000  -0.00000000  1
  P  P14  1  0.35674046  0.16176740  0.89461229  1
  P  P15  1  0.64325954  0.83823260  0.10538771  1
  P  P16  1  0.19497305  0.83823260  0.60538771  1
  P  P17  1  0.80502695  0.16176740  0.39461229  1
  P  P18  1  0.48272441  0.43094436  0.82654604  1
  P  P19  1  0.51727559  0.56905564  0.17345396  1
  P  P20  1  0.05178005  0.56905564  0.67345396  1
  P  P21  1  0.94821995  0.43094436  0.32654604  1
  H  H22  1  0.42968089  0.70800207  0.80374012  1
  H  H23  1  0.57031911  0.29199793  0.19625988  1
  H  H24  1  0.72167882  0.29199793  0.69625988  1
  H  H25  1  0.27832118  0.70800207  0.30374012  1
  H  H26  1  0.54841890  0.30938384  0.52228630  1
  H  H27  1  0.45158110  0.69061616  0.47771370  1
  H  H28  1  0.23903506  0.69061616  0.97771370  1
  H  H29  1  0.76096494  0.30938384  0.02228630  1
  H  H30  1  0.30452443  0.15303160  0.62782327  1
  H  H31  1  0.69547557  0.84696840  0.37217673  1
  H  H32  1  0.15149283  0.84696840  0.87217673  1
  H  H33  1  0.84850717  0.15303160  0.12782327  1
  H  H34  1  0.53479368  0.99194344  0.90510238  1
  H  H35  1  0.46520632  0.00805656  0.09489762  1
  H  H36  1  0.54285024  0.00805656  0.59489762  1
  H  H37  1  0.45714976  0.99194344  0.40510238  1
  H  H38  1  0.64680882  0.87115126  0.86021504  1
  H  H39  1  0.35319118  0.12884874  0.13978496  1
  H  H40  1  0.77565756  0.12884874  0.63978496  1
  H  H41  1  0.22434244  0.87115126  0.36021504  1
  O  O42  1  0.21204064  0.41594467  0.87815999  1
  O  O43  1  0.78795936  0.58405533  0.12184001  1
  O  O44  1  0.79609597  0.58405533  0.62184001  1
  O  O45  1  0.20390403  0.41594467  0.37815999  1
  O  O46  1  0.59004828  0.55480573  0.84286773  1
  O  O47  1  0.40995172  0.44519427  0.15713227  1
  O  O48  1  0.03524255  0.44519427  0.65713227  1
  O  O49  1  0.96475745  0.55480573  0.34286773  1
  O  O50  1  0.46321571  0.83988502  0.65854464  1
  O  O51  1  0.53678429  0.16011498  0.34145536  1
  O  O52  1  0.62333069  0.16011498  0.84145536  1
  O  O53  1  0.37666931  0.83988502  0.15854464  1
  O  O54  1  0.61830045  0.74197965  0.79641277  1
  O  O55  1  0.38169955  0.25802035  0.20358723  1
  O  O56  1  0.87632080  0.25802035  0.70358723  1
  O  O57  1  0.12367920  0.74197965  0.29641277  1
  O  O58  1  0.24529461  0.04238769  0.90175068  1
  O  O59  1  0.75470539  0.95761231  0.09824932  1
  O  O60  1  0.20290691  0.95761231  0.59824932  1
  O  O61  1  0.79709309  0.04238769  0.40175068  1
  O  O62  1  0.80022485  0.85002634  0.43324407  1
  O  O63  1  0.19977515  0.14997366  0.56675593  1
  O  O64  1  0.95019852  0.14997366  0.06675593  1
  O  O65  1  0.04980148  0.85002634  0.93324407  1
  O  O66  1  0.69215975  0.39005245  0.87955917  1
  O  O67  1  0.30784025  0.60994755  0.12044083  1
  O  O68  1  0.30210731  0.60994755  0.62044083  1
  O  O69  1  0.69789269  0.39005245  0.37955917  1
  O  O70  1  0.69717556  0.95791385  0.89783194  1
  O  O71  1  0.30282444  0.04208615  0.10216806  1
  O  O72  1  0.73926171  0.04208615  0.60216806  1
  O  O73  1  0.26073829  0.95791385  0.39783194  1
  O  O74  1  0.43151975  0.35152601  0.70979145  1
  O  O75  1  0.56848025  0.64847399  0.29020855  1
  O  O76  1  0.07999374  0.64847399  0.79020855  1
  O  O77  1  0.92000626  0.35152601  0.20979145  1
  O  O78  1  0.14756860  0.18347958  0.82603024  1
  O  O79  1  0.85243140  0.81652042  0.17396976  1
  O  O80  1  0.96408902  0.81652042  0.67396976  1
  O  O81  1  0.03591098  0.18347958  0.32603024  1
  O  O82  1  0.59253991  0.74801541  0.99395343  1
  O  O83  1  0.40746009  0.25198459  0.00604657  1
  O  O84  1  0.84452450  0.25198459  0.50604657  1
  O  O85  1  0.15547550  0.74801541  0.49395343  1
  O  O86  1  0.61958559  0.66910241  0.49352144  1
  O  O87  1  0.38041441  0.33089759  0.50647856  1
  O  O88  1  0.95048318  0.33089759  0.00647856  1
  O  O89  1  0.04951682  0.66910241  0.99352144  1
