# generated using pymatgen
data_AsC2N(OF3)2
_symmetry_space_group_name_H-M   'P 1'
_cell_length_a   5.41794922
_cell_length_b   8.82367696
_cell_length_c   15.39582219
_cell_angle_alpha   100.38957801
_cell_angle_beta   90.00000000
_cell_angle_gamma   90.00000000
_symmetry_Int_Tables_number   1
_chemical_formula_structural   AsC2N(OF3)2
_chemical_formula_sum   'As4 C8 N4 O8 F24'
_cell_volume   723.94876474
_cell_formula_units_Z   4
loop_
 _symmetry_equiv_pos_site_id
 _symmetry_equiv_pos_as_xyz
  1  'x, y, z'
loop_
 _atom_site_type_symbol
 _atom_site_label
 _atom_site_symmetry_multiplicity
 _atom_site_fract_x
 _atom_site_fract_y
 _atom_site_fract_z
 _atom_site_occupancy
  As  As0  1  0.76073125  0.20699670  0.90151761  1
  As  As1  1  0.73926875  0.20699670  0.40151761  1
  As  As2  1  0.23926875  0.79300330  0.09848239  1
  As  As3  1  0.26073125  0.79300330  0.59848239  1
  C  C4  1  0.35113368  0.13721917  0.64153385  1
  C  C5  1  0.85113368  0.86278083  0.85846615  1
  C  C6  1  0.64886632  0.86278083  0.35846615  1
  C  C7  1  0.14886632  0.13721917  0.14153385  1
  C  C8  1  0.41245251  0.35045013  0.16665210  1
  C  C9  1  0.91245251  0.64954987  0.33334790  1
  C  C10  1  0.58754749  0.64954987  0.83334790  1
  C  C11  1  0.08754749  0.35045013  0.66665210  1
  N  N12  1  0.20814443  0.28684935  0.15917893  1
  N  N13  1  0.70814443  0.71315065  0.34082107  1
  N  N14  1  0.29185557  0.28684935  0.65917893  1
  N  N15  1  0.79185557  0.71315065  0.84082107  1
  O  O16  1  0.58935982  0.42587363  0.17679087  1
  O  O17  1  0.70171865  0.97097030  0.87569139  1
  O  O18  1  0.91064018  0.42587363  0.67679087  1
  O  O19  1  0.79828135  0.97097030  0.37569139  1
  O  O20  1  0.20171865  0.02902970  0.62430861  1
  O  O21  1  0.41064018  0.57412637  0.82320913  1
  O  O22  1  0.08935982  0.57412637  0.32320913  1
  O  O23  1  0.29828135  0.02902970  0.12430861  1
  F  F24  1  0.42825294  0.79813878  0.00665520  1
  F  F25  1  0.94461018  0.17932848  0.80567046  1
  F  F26  1  0.50254027  0.79066151  0.16416418  1
  F  F27  1  0.99745973  0.79066151  0.66416418  1
  F  F28  1  0.59088653  0.11261472  0.64412696  1
  F  F29  1  0.44461018  0.82067152  0.69432954  1
  F  F30  1  0.20403132  0.59398652  0.07764881  1
  F  F31  1  0.07174706  0.79813878  0.50665520  1
  F  F32  1  0.55538982  0.17932848  0.30567046  1
  F  F33  1  0.40911347  0.88738528  0.35587304  1
  F  F34  1  0.29596868  0.59398652  0.57764881  1
  F  F35  1  0.57174706  0.20186122  0.99334480  1
  F  F36  1  0.01877927  0.17331464  0.96414530  1
  F  F37  1  0.51877927  0.82668536  0.53585470  1
  F  F38  1  0.05538982  0.82067152  0.19432954  1
  F  F39  1  0.49745973  0.20933849  0.83583582  1
  F  F40  1  0.70403132  0.40601348  0.42235119  1
  F  F41  1  0.48122073  0.17331464  0.46414530  1
  F  F42  1  0.98122073  0.82668536  0.03585470  1
  F  F43  1  0.00254027  0.20933849  0.33583582  1
  F  F44  1  0.79596868  0.40601348  0.92235119  1
  F  F45  1  0.92825294  0.20186122  0.49334480  1
  F  F46  1  0.90911347  0.11261472  0.14412696  1
  F  F47  1  0.09088653  0.88738528  0.85587304  1
