# generated using pymatgen
data_Rb2HoCl5
_symmetry_space_group_name_H-M   'P 1'
_cell_length_a   7.42820548
_cell_length_b   9.57961703
_cell_length_c   14.92784537
_cell_angle_alpha   90.00000000
_cell_angle_beta   90.00000000
_cell_angle_gamma   90.00000000
_symmetry_Int_Tables_number   1
_chemical_formula_structural   Rb2HoCl5
_chemical_formula_sum   'Rb8 Ho4 Cl20'
_cell_volume   1062.25597822
_cell_formula_units_Z   4
loop_
 _symmetry_equiv_pos_site_id
 _symmetry_equiv_pos_as_xyz
  1  'x, y, z'
loop_
 _atom_site_type_symbol
 _atom_site_label
 _atom_site_symmetry_multiplicity
 _atom_site_fract_x
 _atom_site_fract_y
 _atom_site_fract_z
 _atom_site_occupancy
  Rb  Rb0  1  0.75000000  0.83608634  0.58319403  1
  Rb  Rb1  1  0.25000000  0.16391366  0.41680597  1
  Rb  Rb2  1  0.25000000  0.66391366  0.08319403  1
  Rb  Rb3  1  0.75000000  0.33608634  0.91680597  1
  Rb  Rb4  1  0.75000000  0.52328313  0.28743516  1
  Rb  Rb5  1  0.25000000  0.47671687  0.71256484  1
  Rb  Rb6  1  0.25000000  0.97671687  0.78743516  1
  Rb  Rb7  1  0.75000000  0.02328313  0.21256484  1
  Ho  Ho8  1  0.75000000  0.82073044  0.93433120  1
  Ho  Ho9  1  0.25000000  0.17926956  0.06566880  1
  Ho  Ho10  1  0.25000000  0.67926956  0.43433120  1
  Ho  Ho11  1  0.75000000  0.32073044  0.56566880  1
  Cl  Cl12  1  0.75000000  0.98072815  0.79541398  1
  Cl  Cl13  1  0.25000000  0.01927185  0.20458602  1
  Cl  Cl14  1  0.25000000  0.51927185  0.29541398  1
  Cl  Cl15  1  0.75000000  0.48072815  0.70458602  1
  Cl  Cl16  1  0.49271634  0.66495089  0.88144304  1
  Cl  Cl17  1  0.50728366  0.33504911  0.11855696  1
  Cl  Cl18  1  0.50728366  0.83504911  0.38144304  1
  Cl  Cl19  1  0.99271634  0.33504911  0.11855696  1
  Cl  Cl20  1  0.49271634  0.16495089  0.61855696  1
  Cl  Cl21  1  0.00728366  0.66495089  0.88144304  1
  Cl  Cl22  1  0.00728366  0.16495089  0.61855696  1
  Cl  Cl23  1  0.99271634  0.83504911  0.38144304  1
  Cl  Cl24  1  0.75000000  0.71290216  0.09690373  1
  Cl  Cl25  1  0.25000000  0.28709784  0.90309627  1
  Cl  Cl26  1  0.25000000  0.78709784  0.59690373  1
  Cl  Cl27  1  0.75000000  0.21290216  0.40309627  1
  Cl  Cl28  1  0.00000000  -0.00000000  0.00000000  1
  Cl  Cl29  1  0.00000000  0.50000000  0.50000000  1
  Cl  Cl30  1  0.50000000  0.00000000  0.00000000  1
  Cl  Cl31  1  0.50000000  0.50000000  0.50000000  1
