# generated using pymatgen
data_Nb13AgO33
_symmetry_space_group_name_H-M   'P 1'
_cell_length_a   3.82254249
_cell_length_b   11.62848408
_cell_length_c   15.74115596
_cell_angle_alpha   91.84338927
_cell_angle_beta   90.00000000
_cell_angle_gamma   99.46012551
_symmetry_Int_Tables_number   1
_chemical_formula_structural   Nb13AgO33
_chemical_formula_sum   'Nb13 Ag1 O33'
_cell_volume   689.81741294
_cell_formula_units_Z   1
loop_
 _symmetry_equiv_pos_site_id
 _symmetry_equiv_pos_as_xyz
  1  'x, y, z'
loop_
 _atom_site_type_symbol
 _atom_site_label
 _atom_site_symmetry_multiplicity
 _atom_site_fract_x
 _atom_site_fract_y
 _atom_site_fract_z
 _atom_site_occupancy
  Nb  Nb0  1  0.70831553  0.41663106  0.62588541  1
  Nb  Nb1  1  0.29168447  0.58336894  0.37411459  1
  Nb  Nb2  1  0.91490721  0.82981443  0.32512767  1
  Nb  Nb3  1  0.08509279  0.17018557  0.67487233  1
  Nb  Nb4  1  0.15368331  0.30736662  0.90384541  1
  Nb  Nb5  1  0.84631669  0.69263338  0.09615459  1
  Nb  Nb6  1  0.92870156  0.85740312  0.77350719  1
  Nb  Nb7  1  0.07129844  0.14259688  0.22649281  1
  Nb  Nb8  1  0.77548897  0.55097793  0.86296810  1
  Nb  Nb9  1  0.22451103  0.44902207  0.13703190  1
  Nb  Nb10  1  0.86328030  0.72656059  0.53374705  1
  Nb  Nb11  1  0.13671970  0.27343941  0.46625295  1
  Nb  Nb12  1  0.00000000  0.00000000  0.00000000  1
  Ag  Ag13  1  0.50000000  0.00000000  0.50000000  1
  O  O14  1  0.08112153  0.16224306  0.95184455  1
  O  O15  1  0.91887847  0.83775694  0.04815545  1
  O  O16  1  0.43069481  0.86138963  0.74568841  1
  O  O17  1  0.56930519  0.13861037  0.25431159  1
  O  O18  1  0.73257412  0.46514823  0.73599639  1
  O  O19  1  0.26742588  0.53485177  0.26400361  1
  O  O20  1  0.67943811  0.35887623  0.90132618  1
  O  O21  1  0.32056189  0.64112377  0.09867382  1
  O  O22  1  0.65267666  0.30535332  0.49696010  1
  O  O23  1  0.34732334  0.69464668  0.50303990  1
  O  O24  1  0.25025891  0.50051782  0.86299997  1
  O  O25  1  0.74974109  0.49948218  0.13700003  1
  O  O26  1  0.80597202  0.61194403  0.97227933  1
  O  O27  1  0.19402798  0.38805597  0.02772067  1
  O  O28  1  0.89910682  0.79821364  0.63579182  1
  O  O29  1  0.10089318  0.20178636  0.36420818  1
  O  O30  1  0.60982607  0.21965214  0.66288783  1
  O  O31  1  0.39017393  0.78034786  0.33711217  1
  O  O32  1  0.96464894  0.92929787  0.88146319  1
  O  O33  1  0.03535106  0.07070213  0.11853681  1
  O  O34  1  0.87286065  0.74572130  0.21231354  1
  O  O35  1  0.12713935  0.25427870  0.78768646  1
  O  O36  1  0.93247959  0.86495918  0.45591375  1
  O  O37  1  0.06752041  0.13504082  0.54408625  1
  O  O38  1  0.84706456  0.69412911  0.80501064  1
  O  O39  1  0.15293544  0.30587089  0.19498936  1
  O  O40  1  0.77805516  0.55611032  0.56949574  1
  O  O41  1  0.22194484  0.44388968  0.43050426  1
  O  O42  1  0.81766406  0.63532812  0.38832847  1
  O  O43  1  0.18233594  0.36467188  0.61167153  1
  O  O44  1  0.50000000  0.00000000  0.00000000  1
  O  O45  1  0.98867219  0.97734439  0.28913196  1
  O  O46  1  0.01132781  0.02265561  0.71086804  1
