# generated using pymatgen
data_RbH2CN5
_symmetry_space_group_name_H-M   'P 1'
_cell_length_a   6.77237408
_cell_length_b   8.22654811
_cell_length_c   9.12597978
_cell_angle_alpha   90.00000000
_cell_angle_beta   90.00000000
_cell_angle_gamma   90.00000000
_symmetry_Int_Tables_number   1
_chemical_formula_structural   RbH2CN5
_chemical_formula_sum   'Rb4 H8 C4 N20'
_cell_volume   508.43809508
_cell_formula_units_Z   4
loop_
 _symmetry_equiv_pos_site_id
 _symmetry_equiv_pos_as_xyz
  1  'x, y, z'
loop_
 _atom_site_type_symbol
 _atom_site_label
 _atom_site_symmetry_multiplicity
 _atom_site_fract_x
 _atom_site_fract_y
 _atom_site_fract_z
 _atom_site_occupancy
  Rb  Rb0  1  0.75000000  0.98094625  0.28960696  1
  Rb  Rb1  1  0.25000000  0.01905375  0.71039304  1
  Rb  Rb2  1  0.25000000  0.51905375  0.78960696  1
  Rb  Rb3  1  0.75000000  0.48094625  0.21039304  1
  H  H4  1  0.87703926  0.72088804  0.57023657  1
  H  H5  1  0.12296074  0.27911196  0.42976343  1
  H  H6  1  0.12296074  0.77911196  0.07023657  1
  H  H7  1  0.37703926  0.27911196  0.42976343  1
  H  H8  1  0.87703926  0.22088804  0.92976343  1
  H  H9  1  0.62296074  0.72088804  0.57023657  1
  H  H10  1  0.62296074  0.22088804  0.92976343  1
  H  H11  1  0.37703926  0.77911196  0.07023657  1
  C  C12  1  0.75000000  0.78553441  0.76051702  1
  C  C13  1  0.25000000  0.21446559  0.23948298  1
  C  C14  1  0.25000000  0.71446559  0.26051702  1
  C  C15  1  0.75000000  0.28553441  0.73948298  1
  N  N16  1  0.91516193  0.79415897  0.84294990  1
  N  N17  1  0.08483807  0.20584103  0.15705010  1
  N  N18  1  0.08483807  0.70584103  0.34294990  1
  N  N19  1  0.41516193  0.20584103  0.15705010  1
  N  N20  1  0.91516193  0.29415897  0.65705010  1
  N  N21  1  0.58483807  0.79415897  0.84294990  1
  N  N22  1  0.58483807  0.29415897  0.65705010  1
  N  N23  1  0.41516193  0.70584103  0.34294990  1
  N  N24  1  0.75000000  0.77261583  0.60954862  1
  N  N25  1  0.25000000  0.22738417  0.39045138  1
  N  N26  1  0.25000000  0.72738417  0.10954862  1
  N  N27  1  0.75000000  0.27261583  0.89045138  1
  N  N28  1  0.84701621  0.80719772  0.98253589  1
  N  N29  1  0.15298379  0.19280228  0.01746411  1
  N  N30  1  0.15298379  0.69280228  0.48253589  1
  N  N31  1  0.34701621  0.19280228  0.01746411  1
  N  N32  1  0.84701621  0.30719772  0.51746411  1
  N  N33  1  0.65298379  0.80719772  0.98253589  1
  N  N34  1  0.65298379  0.30719772  0.51746411  1
  N  N35  1  0.34701621  0.69280228  0.48253589  1
