# generated using pymatgen
data_NdCrSb3
_symmetry_space_group_name_H-M   'P 1'
_cell_length_a   6.10927897
_cell_length_b   6.24026978
_cell_length_c   13.17837124
_cell_angle_alpha   90.00000000
_cell_angle_beta   90.00000000
_cell_angle_gamma   90.00000000
_symmetry_Int_Tables_number   1
_chemical_formula_structural   NdCrSb3
_chemical_formula_sum   'Nd4 Cr4 Sb12'
_cell_volume   502.40628084
_cell_formula_units_Z   4
loop_
 _symmetry_equiv_pos_site_id
 _symmetry_equiv_pos_as_xyz
  1  'x, y, z'
loop_
 _atom_site_type_symbol
 _atom_site_label
 _atom_site_symmetry_multiplicity
 _atom_site_fract_x
 _atom_site_fract_y
 _atom_site_fract_z
 _atom_site_occupancy
  Nd  Nd0  1  0.75000000  0.99506630  0.69206782  1
  Nd  Nd1  1  0.25000000  0.00493370  0.30793218  1
  Nd  Nd2  1  0.75000000  0.49506630  0.30793218  1
  Nd  Nd3  1  0.25000000  0.50493370  0.69206782  1
  Cr  Cr4  1  0.00000000  0.75000000  0.09314905  1
  Cr  Cr5  1  -0.00000000  0.25000000  0.90685095  1
  Cr  Cr6  1  0.50000000  0.25000000  0.90685095  1
  Cr  Cr7  1  0.50000000  0.75000000  0.09314905  1
  Sb  Sb8  1  0.00000000  0.75000000  0.49861497  1
  Sb  Sb9  1  -0.00000000  0.25000000  0.50138503  1
  Sb  Sb10  1  0.50000000  0.25000000  0.50138503  1
  Sb  Sb11  1  0.50000000  0.75000000  0.49861497  1
  Sb  Sb12  1  0.75000000  0.90030175  0.93823224  1
  Sb  Sb13  1  0.25000000  0.09969825  0.06176776  1
  Sb  Sb14  1  0.75000000  0.40030175  0.06176776  1
  Sb  Sb15  1  0.25000000  0.59969825  0.93823224  1
  Sb  Sb16  1  0.75000000  0.50109176  0.78122915  1
  Sb  Sb17  1  0.25000000  0.49890824  0.21877085  1
  Sb  Sb18  1  0.75000000  0.00109176  0.21877085  1
  Sb  Sb19  1  0.25000000  0.99890824  0.78122915  1
