# generated using pymatgen
data_Rb3NdCl6
_symmetry_space_group_name_H-M   'P 1'
_cell_length_a   8.12438252
_cell_length_b   13.22957194
_cell_length_c   13.88418584
_cell_angle_alpha   99.00782858
_cell_angle_beta   107.01228928
_cell_angle_gamma   90.00000000
_symmetry_Int_Tables_number   1
_chemical_formula_structural   Rb3NdCl6
_chemical_formula_sum   'Rb12 Nd4 Cl24'
_cell_volume   1407.74331623
_cell_formula_units_Z   4
loop_
 _symmetry_equiv_pos_site_id
 _symmetry_equiv_pos_as_xyz
  1  'x, y, z'
loop_
 _atom_site_type_symbol
 _atom_site_label
 _atom_site_symmetry_multiplicity
 _atom_site_fract_x
 _atom_site_fract_y
 _atom_site_fract_z
 _atom_site_occupancy
  Rb  Rb0  1  0.69841767  0.06638537  0.90084810  1
  Rb  Rb1  1  0.30158233  0.93361463  0.09915190  1
  Rb  Rb2  1  0.79756956  0.43361463  0.09915190  1
  Rb  Rb3  1  0.20243044  0.56638537  0.90084810  1
  Rb  Rb4  1  0.53540650  0.35671505  0.69231460  1
  Rb  Rb5  1  0.46459350  0.64328495  0.30768540  1
  Rb  Rb6  1  0.84309190  0.14328495  0.30768540  1
  Rb  Rb7  1  0.15690810  0.85671505  0.69231460  1
  Rb  Rb8  1  0.34973448  0.30008540  0.32414892  1
  Rb  Rb9  1  0.65026552  0.69991460  0.67585108  1
  Rb  Rb10  1  0.02558556  0.19991460  0.67585108  1
  Rb  Rb11  1  0.97441444  0.80008540  0.32414892  1
  Nd  Nd12  1  0.21674251  0.25000000  0.00000000  1
  Nd  Nd13  1  0.78325749  0.75000000  1.00000000  1
  Nd  Nd14  1  0.50000000  0.00000000  0.50000000  1
  Nd  Nd15  1  -0.00000000  0.50000000  0.50000000  1
  Cl  Cl16  1  0.37595861  0.08149209  0.65939363  1
  Cl  Cl17  1  0.62404139  0.91850791  0.34060637  1
  Cl  Cl18  1  0.71656498  0.41850791  0.34060637  1
  Cl  Cl19  1  0.28343502  0.58149209  0.65939363  1
  Cl  Cl20  1  0.50786119  0.17581017  0.12071085  1
  Cl  Cl21  1  0.49213881  0.82418983  0.87928915  1
  Cl  Cl22  1  0.38715034  0.32418983  0.87928915  1
  Cl  Cl23  1  0.61284966  0.67581017  0.12071085  1
  Cl  Cl24  1  0.20991091  0.03325051  0.34991991  1
  Cl  Cl25  1  0.79008909  0.96674949  0.65008009  1
  Cl  Cl26  1  0.85999100  0.46674949  0.65008009  1
  Cl  Cl27  1  0.14000900  0.53325051  0.34991991  1
  Cl  Cl28  1  0.09674096  0.69933380  0.12181622  1
  Cl  Cl29  1  0.90325904  0.30066620  0.87818378  1
  Cl  Cl30  1  0.97492474  0.80066620  0.87818378  1
  Cl  Cl31  1  0.02507526  0.19933380  0.12181622  1
  Cl  Cl32  1  0.28352472  0.43828742  0.11753172  1
  Cl  Cl33  1  0.71647528  0.56171258  0.88246828  1
  Cl  Cl34  1  0.16599299  0.06171258  0.88246828  1
  Cl  Cl35  1  0.83400701  0.93828742  0.11753172  1
  Cl  Cl36  1  0.64439047  0.18935410  0.49866082  1
  Cl  Cl37  1  0.35560953  0.81064590  0.50133918  1
  Cl  Cl38  1  0.14572965  0.31064590  0.50133918  1
  Cl  Cl39  1  0.85427035  0.68935410  0.49866082  1
