# generated using pymatgen
data_Ho(GaCo)6
_symmetry_space_group_name_H-M   'P 1'
_cell_length_a   5.01488690
_cell_length_b   6.45391490
_cell_length_c   6.45391490
_cell_angle_alpha   83.94305499
_cell_angle_beta   67.13785932
_cell_angle_gamma   67.13785932
_symmetry_Int_Tables_number   1
_chemical_formula_structural   Ho(GaCo)6
_chemical_formula_sum   'Ho1 Ga6 Co6'
_cell_volume   177.10117047
_cell_formula_units_Z   1
loop_
 _symmetry_equiv_pos_site_id
 _symmetry_equiv_pos_as_xyz
  1  'x, y, z'
loop_
 _atom_site_type_symbol
 _atom_site_label
 _atom_site_symmetry_multiplicity
 _atom_site_fract_x
 _atom_site_fract_y
 _atom_site_fract_z
 _atom_site_occupancy
  Ho  Ho0  1  -0.00000000  0.00000000  0.00000000  1
  Ga  Ga1  1  -0.00000000  0.34540166  0.65459834  1
  Ga  Ga2  1  0.00000000  0.65459834  0.34540166  1
  Ga  Ga3  1  0.34225378  0.65774622  0.65774622  1
  Ga  Ga4  1  0.65774622  0.34225378  0.34225378  1
  Ga  Ga5  1  0.50000000  0.18622605  0.81377395  1
  Ga  Ga6  1  0.50000000  0.81377395  0.18622605  1
  Co  Co7  1  0.26182429  0.23817571  0.23817571  1
  Co  Co8  1  0.73817571  0.76182429  0.76182429  1
  Co  Co9  1  0.50000000  0.00000000  0.50000000  1
  Co  Co10  1  0.50000000  0.50000000  0.00000000  1
  Co  Co11  1  -0.00000000  0.50000000  0.00000000  1
  Co  Co12  1  -0.00000000  0.00000000  0.50000000  1
