# generated using pymatgen
data_ErSiRh2
_symmetry_space_group_name_H-M   'P 1'
_cell_length_a   5.55389091
_cell_length_b   5.55389091
_cell_length_c   14.99452491
_cell_angle_alpha   90.00000000
_cell_angle_beta   90.00000000
_cell_angle_gamma   119.99998967
_symmetry_Int_Tables_number   1
_chemical_formula_structural   ErSiRh2
_chemical_formula_sum   'Er6 Si6 Rh12'
_cell_volume   400.55123717
_cell_formula_units_Z   6
loop_
 _symmetry_equiv_pos_site_id
 _symmetry_equiv_pos_as_xyz
  1  'x, y, z'
loop_
 _atom_site_type_symbol
 _atom_site_label
 _atom_site_symmetry_multiplicity
 _atom_site_fract_x
 _atom_site_fract_y
 _atom_site_fract_z
 _atom_site_occupancy
  Er  Er0  1  0.66666700  0.33333300  0.46265968  1
  Er  Er1  1  0.33333300  0.66666700  0.53734032  1
  Er  Er2  1  0.33333300  0.66666700  0.96265968  1
  Er  Er3  1  0.66666700  0.33333300  0.03734032  1
  Er  Er4  1  0.66666700  0.33333300  0.25000000  1
  Er  Er5  1  0.33333300  0.66666700  0.75000000  1
  Si  Si6  1  0.00000000  0.00000000  0.75000000  1
  Si  Si7  1  0.00000000  0.00000000  0.25000000  1
  Si  Si8  1  0.66666700  0.33333300  0.75000000  1
  Si  Si9  1  0.33333300  0.66666700  0.25000000  1
  Si  Si10  1  0.00000000  0.00000000  0.00000000  1
  Si  Si11  1  0.00000000  0.00000000  0.50000000  1
  Rh  Rh12  1  0.83294093  0.16705907  0.87004742  1
  Rh  Rh13  1  0.16705907  0.83294093  0.12995258  1
  Rh  Rh14  1  0.33411813  0.16705907  0.87004742  1
  Rh  Rh15  1  0.16705907  0.83294093  0.37004742  1
  Rh  Rh16  1  0.66588187  0.83294093  0.12995258  1
  Rh  Rh17  1  0.83294093  0.16705907  0.62995258  1
  Rh  Rh18  1  0.83294093  0.66588187  0.87004742  1
  Rh  Rh19  1  0.66588187  0.83294093  0.37004742  1
  Rh  Rh20  1  0.16705907  0.33411813  0.12995258  1
  Rh  Rh21  1  0.33411813  0.16705907  0.62995258  1
  Rh  Rh22  1  0.16705907  0.33411813  0.37004742  1
  Rh  Rh23  1  0.83294093  0.66588187  0.62995258  1
