# generated using pymatgen
data_Er3(GeRh)2
_symmetry_space_group_name_H-M   'P 1'
_cell_length_a   5.54178040
_cell_length_b   7.83021285
_cell_length_c   13.16464927
_cell_angle_alpha   90.00000000
_cell_angle_beta   90.00000000
_cell_angle_gamma   90.00000000
_symmetry_Int_Tables_number   1
_chemical_formula_structural   Er3(GeRh)2
_chemical_formula_sum   'Er12 Ge8 Rh8'
_cell_volume   571.25783978
_cell_formula_units_Z   4
loop_
 _symmetry_equiv_pos_site_id
 _symmetry_equiv_pos_as_xyz
  1  'x, y, z'
loop_
 _atom_site_type_symbol
 _atom_site_label
 _atom_site_symmetry_multiplicity
 _atom_site_fract_x
 _atom_site_fract_y
 _atom_site_fract_z
 _atom_site_occupancy
  Er  Er0  1  0.63530254  0.25119057  0.25000000  1
  Er  Er1  1  0.36469746  0.74880943  0.75000000  1
  Er  Er2  1  0.36469746  0.75119057  0.25000000  1
  Er  Er3  1  0.63530254  0.24880943  0.75000000  1
  Er  Er4  1  0.14772265  0.39324564  0.10075777  1
  Er  Er5  1  0.85227735  0.60675436  0.89924223  1
  Er  Er6  1  0.85227735  0.60675436  0.60075777  1
  Er  Er7  1  0.85227735  0.89324564  0.39924223  1
  Er  Er8  1  0.14772265  0.39324564  0.39924223  1
  Er  Er9  1  0.14772265  0.10675436  0.60075777  1
  Er  Er10  1  0.14772265  0.10675436  0.89924223  1
  Er  Er11  1  0.85227735  0.89324564  0.10075777  1
  Ge  Ge12  1  0.13033799  0.10907063  0.25000000  1
  Ge  Ge13  1  0.86966201  0.89092937  0.75000000  1
  Ge  Ge14  1  0.86966201  0.60907063  0.25000000  1
  Ge  Ge15  1  0.13033799  0.39092937  0.75000000  1
  Ge  Ge16  1  0.65837788  0.25000000  0.00000000  1
  Ge  Ge17  1  0.34162212  0.75000000  0.00000000  1
  Ge  Ge18  1  0.34162212  0.75000000  0.50000000  1
  Ge  Ge19  1  0.65837788  0.25000000  0.50000000  1
  Rh  Rh20  1  0.37442003  0.03607319  0.09342826  1
  Rh  Rh21  1  0.62557997  0.96392681  0.90657174  1
  Rh  Rh22  1  0.62557997  0.96392681  0.59342826  1
  Rh  Rh23  1  0.62557997  0.53607319  0.40657174  1
  Rh  Rh24  1  0.37442003  0.03607319  0.40657174  1
  Rh  Rh25  1  0.37442003  0.46392681  0.59342826  1
  Rh  Rh26  1  0.37442003  0.46392681  0.90657174  1
  Rh  Rh27  1  0.62557997  0.53607319  0.09342826  1
