# generated using pymatgen
data_Na3Mg5Si8(HO12)2
_symmetry_space_group_name_H-M   'P 1'
_cell_length_a   5.34739251
_cell_length_b   10.00307733
_cell_length_c   18.28244079
_cell_angle_alpha   90.00000000
_cell_angle_beta   90.00000000
_cell_angle_gamma   103.22505073
_symmetry_Int_Tables_number   1
_chemical_formula_structural   Na3Mg5Si8(HO12)2
_chemical_formula_sum   'Na6 Mg10 Si16 H4 O48'
_cell_volume   951.99888353
_cell_formula_units_Z   2
loop_
 _symmetry_equiv_pos_site_id
 _symmetry_equiv_pos_as_xyz
  1  'x, y, z'
loop_
 _atom_site_type_symbol
 _atom_site_label
 _atom_site_symmetry_multiplicity
 _atom_site_fract_x
 _atom_site_fract_y
 _atom_site_fract_z
 _atom_site_occupancy
  Na  Na0  1  0.44677205  0.72785706  0.75000000  1
  Na  Na1  1  0.55322795  0.27214294  0.25000000  1
  Na  Na2  1  0.98242021  0.74058197  0.97673685  1
  Na  Na3  1  0.01757979  0.25941803  0.02326315  1
  Na  Na4  1  0.01757979  0.25941803  0.47673685  1
  Na  Na5  1  0.98242021  0.74058197  0.52326315  1
  Mg  Mg6  1  0.98579951  0.75332494  0.33921169  1
  Mg  Mg7  1  0.01420049  0.24667506  0.66078831  1
  Mg  Mg8  1  0.01420049  0.24667506  0.83921169  1
  Mg  Mg9  1  0.98579951  0.75332494  0.16078831  1
  Mg  Mg10  1  0.48727131  0.75036713  0.42904123  1
  Mg  Mg11  1  0.51272869  0.24963287  0.57095877  1
  Mg  Mg12  1  0.51272869  0.24963287  0.92904123  1
  Mg  Mg13  1  0.48727131  0.75036713  0.07095877  1
  Mg  Mg14  1  0.51506413  0.24603008  0.75000000  1
  Mg  Mg15  1  0.48493587  0.75396992  0.25000000  1
  Si  Si16  1  0.80116872  0.52540858  0.83418969  1
  Si  Si17  1  0.19883128  0.47459142  0.16581031  1
  Si  Si18  1  0.19883128  0.47459142  0.33418969  1
  Si  Si19  1  0.80116872  0.52540858  0.66581031  1
  Si  Si20  1  0.30750618  0.53523804  0.91831823  1
  Si  Si21  1  0.69249382  0.46476196  0.08168177  1
  Si  Si22  1  0.69249382  0.46476196  0.41831823  1
  Si  Si23  1  0.30750618  0.53523804  0.58168177  1
  Si  Si24  1  0.72046346  0.96194827  0.91922824  1
  Si  Si25  1  0.27953654  0.03805173  0.08077176  1
  Si  Si26  1  0.27953654  0.03805173  0.41922824  1
  Si  Si27  1  0.72046346  0.96194827  0.58077176  1
  Si  Si28  1  0.22888229  0.96991819  0.83491174  1
  Si  Si29  1  0.77111771  0.03008181  0.16508826  1
  Si  Si30  1  0.77111771  0.03008181  0.33491174  1
  Si  Si31  1  0.22888229  0.96991819  0.66508826  1
  H  H32  1  0.75530814  0.04090885  0.75000000  1
  H  H33  1  0.24469186  0.95909115  0.25000000  1
  H  H34  1  0.26638784  0.44838174  0.75000000  1
  H  H35  1  0.73361216  0.55161826  0.25000000  1
  O  O36  1  0.59545024  0.59463155  0.87897321  1
  O  O37  1  0.40454976  0.40536845  0.12102679  1
  O  O38  1  0.40454976  0.40536845  0.37897321  1
  O  O39  1  0.59545024  0.59463155  0.62102679  1
  O  O40  1  0.45603938  0.90191085  0.86910722  1
  O  O41  1  0.54396062  0.09808915  0.13089278  1
  O  O42  1  0.54396062  0.09808915  0.36910722  1
  O  O43  1  0.45603938  0.90191085  0.63089278  1
  O  O44  1  0.20632214  0.90936272  0.75000000  1
  O  O45  1  0.79367786  0.09063728  0.25000000  1
  O  O46  1  0.90094356  0.41074723  0.36120886  1
  O  O47  1  0.09905644  0.58925277  0.63879114  1
  O  O48  1  0.09905644  0.58925277  0.86120886  1
  O  O49  1  0.90094356  0.41074723  0.13879114  1
  O  O50  1  0.22239386  0.34935204  0.75000000  1
  O  O51  1  0.77760614  0.65064796  0.25000000  1
  O  O52  1  0.76223522  0.63101727  0.41790657  1
  O  O53  1  0.23776478  0.36898273  0.58209343  1
  O  O54  1  0.23776478  0.36898273  0.91790657  1
  O  O55  1  0.76223522  0.63101727  0.08209343  1
  O  O56  1  0.80418940  0.14005120  0.75000000  1
  O  O57  1  0.19581060  0.85994880  0.25000000  1
  O  O58  1  0.72844410  0.35946614  0.83638828  1
  O  O59  1  0.27155590  0.64053386  0.16361172  1
  O  O60  1  0.27155590  0.64053386  0.33638828  1
  O  O61  1  0.72844410  0.35946614  0.66361172  1
  O  O62  1  0.78124597  0.58436376  0.75000000  1
  O  O63  1  0.21875403  0.41563624  0.25000000  1
  O  O64  1  0.69878409  0.86425213  0.33655738  1
  O  O65  1  0.30121591  0.13574787  0.66344262  1
  O  O66  1  0.30121591  0.13574787  0.83655738  1
  O  O67  1  0.69878409  0.86425213  0.16344262  1
  O  O68  1  0.95277089  0.90578487  0.87460967  1
  O  O69  1  0.04722911  0.09421513  0.12539033  1
  O  O70  1  0.04722911  0.09421513  0.37460967  1
  O  O71  1  0.95277089  0.90578487  0.62539033  1
  O  O72  1  0.70218325  0.38616529  0.00522822  1
  O  O73  1  0.29781675  0.61383471  0.99477178  1
  O  O74  1  0.29781675  0.61383471  0.50522822  1
  O  O75  1  0.70218325  0.38616529  0.49477178  1
  O  O76  1  0.68771974  0.88257593  0.99651537  1
  O  O77  1  0.31228026  0.11742407  0.00348463  1
  O  O78  1  0.31228026  0.11742407  0.49651537  1
  O  O79  1  0.68771974  0.88257593  0.50348463  1
  O  O80  1  0.78801713  0.12847661  0.91913611  1
  O  O81  1  0.21198287  0.87152339  0.08086389  1
  O  O82  1  0.21198287  0.87152339  0.41913611  1
  O  O83  1  0.78801713  0.12847661  0.58086389  1
