# generated using pymatgen
data_VS2Br2N3
_symmetry_space_group_name_H-M   'P 1'
_cell_length_a   6.05690586
_cell_length_b   7.86800798
_cell_length_c   8.30653936
_cell_angle_alpha   87.86843238
_cell_angle_beta   80.33920315
_cell_angle_gamma   71.95795962
_symmetry_Int_Tables_number   1
_chemical_formula_structural   VS2Br2N3
_chemical_formula_sum   'V2 S4 Br4 N6'
_cell_volume   371.00637726
_cell_formula_units_Z   2
loop_
 _symmetry_equiv_pos_site_id
 _symmetry_equiv_pos_as_xyz
  1  'x, y, z'
loop_
 _atom_site_type_symbol
 _atom_site_label
 _atom_site_symmetry_multiplicity
 _atom_site_fract_x
 _atom_site_fract_y
 _atom_site_fract_z
 _atom_site_occupancy
  V  V0  1  0.24050226  0.99669659  0.86518526  1
  V  V1  1  0.75949774  0.00330341  0.13481474  1
  S  S2  1  0.78666834  0.29098712  0.79793567  1
  S  S3  1  0.77845884  0.73360393  0.41789881  1
  S  S4  1  0.22154116  0.26639607  0.58210119  1
  S  S5  1  0.21333166  0.70901288  0.20206433  1
  Br  Br6  1  0.26383639  0.72207974  0.73056399  1
  Br  Br7  1  0.66349866  0.79936987  0.93674509  1
  Br  Br8  1  0.33650134  0.20063013  0.06325491  1
  Br  Br9  1  0.73616361  0.27792026  0.26943601  1
  N  N10  1  0.33374212  0.10561400  0.69402577  1
  N  N11  1  0.66625788  0.89438600  0.30597423  1
  N  N12  1  0.07062849  0.87529679  0.10574288  1
  N  N13  1  0.94454300  0.34974924  0.64758186  1
  N  N14  1  0.05545700  0.65025076  0.35241814  1
  N  N15  1  0.92937151  0.12470321  0.89425712  1
