# generated using pymatgen
data_InSbSe3
_symmetry_space_group_name_H-M   'P 1'
_cell_length_a   4.08703997
_cell_length_b   9.99367978
_cell_length_c   14.10391553
_cell_angle_alpha   90.00000000
_cell_angle_beta   90.00000000
_cell_angle_gamma   90.00000000
_symmetry_Int_Tables_number   1
_chemical_formula_structural   InSbSe3
_chemical_formula_sum   'In4 Sb4 Se12'
_cell_volume   576.06834692
_cell_formula_units_Z   4
loop_
 _symmetry_equiv_pos_site_id
 _symmetry_equiv_pos_as_xyz
  1  'x, y, z'
loop_
 _atom_site_type_symbol
 _atom_site_label
 _atom_site_symmetry_multiplicity
 _atom_site_fract_x
 _atom_site_fract_y
 _atom_site_fract_z
 _atom_site_occupancy
  In  In0  1  0.75000000  0.85242296  0.95344421  1
  In  In1  1  0.25000000  0.14757704  0.04655579  1
  In  In2  1  0.25000000  0.64757704  0.45344421  1
  In  In3  1  0.75000000  0.35242296  0.54655579  1
  Sb  Sb4  1  0.75000000  0.97196569  0.36266534  1
  Sb  Sb5  1  0.25000000  0.02803431  0.63733466  1
  Sb  Sb6  1  0.25000000  0.52803431  0.86266534  1
  Sb  Sb7  1  0.75000000  0.47196569  0.13733466  1
  Se  Se8  1  0.75000000  0.49715472  0.38209694  1
  Se  Se9  1  0.25000000  0.50284528  0.61790306  1
  Se  Se10  1  0.25000000  0.00284528  0.88209694  1
  Se  Se11  1  0.75000000  0.99715472  0.11790306  1
  Se  Se12  1  0.75000000  0.68790451  0.79672888  1
  Se  Se13  1  0.25000000  0.31209549  0.20327112  1
  Se  Se14  1  0.25000000  0.81209549  0.29672888  1
  Se  Se15  1  0.75000000  0.18790451  0.70327112  1
  Se  Se16  1  0.75000000  0.83897488  0.52571016  1
  Se  Se17  1  0.25000000  0.16102512  0.47428984  1
  Se  Se18  1  0.25000000  0.66102512  0.02571016  1
  Se  Se19  1  0.75000000  0.33897488  0.97428984  1
