# generated using pymatgen
data_GaPbF5
_symmetry_space_group_name_H-M   'P 1'
_cell_length_a   7.51047758
_cell_length_b   11.08751968
_cell_length_c   11.08751968
_cell_angle_alpha   83.41302360
_cell_angle_beta   70.20287913
_cell_angle_gamma   70.20287913
_symmetry_Int_Tables_number   1
_chemical_formula_structural   GaPbF5
_chemical_formula_sum   'Ga8 Pb8 F40'
_cell_volume   817.37482645
_cell_formula_units_Z   8
loop_
 _symmetry_equiv_pos_site_id
 _symmetry_equiv_pos_as_xyz
  1  'x, y, z'
loop_
 _atom_site_type_symbol
 _atom_site_label
 _atom_site_symmetry_multiplicity
 _atom_site_fract_x
 _atom_site_fract_y
 _atom_site_fract_z
 _atom_site_occupancy
  Ga  Ga0  1  0.28429953  1.00000000  1.00000000  1
  Ga  Ga1  1  0.35503306  0.85031532  0.48271575  1
  Ga  Ga2  1  0.68806413  0.14968468  0.51728425  1
  Ga  Ga3  1  0.83774881  0.51728425  0.85031532  1
  Ga  Ga4  1  0.20534838  0.48271575  0.14968468  1
  Ga  Ga5  1  0.78180172  0.00000000  0.00000000  1
  Ga  Ga6  1  0.02782791  0.50000000  0.50000000  1
  Ga  Ga7  1  0.52782791  0.50000000  0.50000000  1
  Pb  Pb8  1  0.06061390  0.17807274  0.72467316  1
  Pb  Pb9  1  0.96335979  0.82192726  0.27532684  1
  Pb  Pb10  1  0.78528706  0.27532684  0.17807274  1
  Pb  Pb11  1  0.23868664  0.72467316  0.82192726  1
  Pb  Pb12  1  0.27272084  0.17433455  0.31020116  1
  Pb  Pb13  1  0.75725655  0.82566545  0.68979884  1
  Pb  Pb14  1  0.58292200  0.68979884  0.17433455  1
  Pb  Pb15  1  0.44705539  0.31020116  0.82566545  1
  F  F16  1  0.48808294  0.81147875  0.60949451  1
  F  F17  1  0.90905620  0.18852125  0.39050549  1
  F  F18  1  0.09757745  0.39050549  0.81147875  1
  F  F19  1  0.29956169  0.60949451  0.18852125  1
  F  F20  1  0.27663793  0.50000000  0.50000000  1
  F  F21  1  0.77663793  0.50000000  0.50000000  1
  F  F22  1  0.53257439  1.00000000  1.00000000  1
  F  F23  1  0.59013225  0.86257314  0.34618408  1
  F  F24  1  0.79888947  0.13742686  0.65381592  1
  F  F25  1  0.93631633  0.65381592  0.86257314  1
  F  F26  1  0.45270539  0.34618408  0.13742686  1
  F  F27  1  0.24475045  0.03062902  0.50981262  1
  F  F28  1  0.78519209  0.96937098  0.49018738  1
  F  F29  1  0.75456307  0.49018738  0.03062902  1
  F  F30  1  0.27537947  0.50981262  0.96937098  1
  F  F31  1  0.44819950  0.14217424  0.64869962  1
  F  F32  1  0.23907336  0.85782576  0.35130038  1
  F  F33  1  0.09689912  0.35130038  0.14217424  1
  F  F34  1  0.59037375  0.64869962  0.85782576  1
  F  F35  1  0.03430967  0.00000000  0.00000000  1
  F  F36  1  0.08777321  0.32175166  0.54917405  1
  F  F37  1  0.95869892  0.67824834  0.45082595  1
  F  F38  1  0.63694726  0.45082595  0.32175166  1
  F  F39  1  0.40952487  0.54917405  0.67824834  1
  F  F40  1  0.66830633  0.07346165  0.16750127  1
  F  F41  1  0.90926926  0.92653835  0.83249873  1
  F  F42  1  0.83580761  0.83249873  0.07346165  1
  F  F43  1  0.74176798  0.16750127  0.92653835  1
  F  F44  1  0.48282693  0.66718067  0.42882624  1
  F  F45  1  0.57883384  0.33281933  0.57117376  1
  F  F46  1  0.91165318  0.57117376  0.66718067  1
  F  F47  1  0.15000760  0.42882624  0.33281933  1
  F  F48  1  0.40115423  0.92251665  0.83442205  1
  F  F49  1  0.15809293  0.07748335  0.16557795  1
  F  F50  1  0.23557628  0.16557795  0.92251665  1
  F  F51  1  0.32367088  0.83442205  0.07748335  1
  F  F52  1  0.56207721  0.19884524  0.38606165  1
  F  F53  1  0.14698410  0.80115476  0.61393835  1
  F  F54  1  0.94813886  0.61393835  0.19884524  1
  F  F55  1  0.76092245  0.38606165  0.80115476  1
