# generated using pymatgen
data_Na2Co3H10(SO6)3
_symmetry_space_group_name_H-M   'P 1'
_cell_length_a   7.39961239
_cell_length_b   10.09000255
_cell_length_c   10.68117066
_cell_angle_alpha   90.00000000
_cell_angle_beta   110.26641509
_cell_angle_gamma   90.00000000
_symmetry_Int_Tables_number   1
_chemical_formula_structural   Na2Co3H10(SO6)3
_chemical_formula_sum   'Na4 Co6 H20 S6 O36'
_cell_volume   748.10851229
_cell_formula_units_Z   2
loop_
 _symmetry_equiv_pos_site_id
 _symmetry_equiv_pos_as_xyz
  1  'x, y, z'
loop_
 _atom_site_type_symbol
 _atom_site_label
 _atom_site_symmetry_multiplicity
 _atom_site_fract_x
 _atom_site_fract_y
 _atom_site_fract_z
 _atom_site_occupancy
  Na  Na0  1  0.42190184  0.01619271  0.33462367  1
  Na  Na1  1  0.57809816  0.51619271  0.66537633  1
  Na  Na2  1  0.91272183  0.51619271  0.33462367  1
  Na  Na3  1  0.08727817  0.01619271  0.66537633  1
  Co  Co4  1  0.47086636  0.22258981  0.84201159  1
  Co  Co5  1  0.52913364  0.72258981  0.15798841  1
  Co  Co6  1  0.37114522  0.72258981  0.84201159  1
  Co  Co7  1  0.62885478  0.22258981  0.15798841  1
  Co  Co8  1  0.21440180  0.43365828  0.00000000  1
  Co  Co9  1  0.78559820  0.93365828  0.00000000  1
  H  H10  1  0.54679576  0.43336546  0.00000000  1
  H  H11  1  0.45320424  0.93336546  -0.00000000  1
  H  H12  1  0.73414538  0.25305075  0.70949670  1
  H  H13  1  0.26585462  0.75305075  0.29050330  1
  H  H14  1  0.97535132  0.75305075  0.70949670  1
  H  H15  1  0.02464868  0.25305075  0.29050330  1
  H  H16  1  0.89827455  0.28382272  0.57635046  1
  H  H17  1  0.10172545  0.78382272  0.42364954  1
  H  H18  1  0.67807590  0.78382272  0.57635046  1
  H  H19  1  0.32192410  0.28382272  0.42364954  1
  H  H20  1  0.19489698  0.67246723  0.00000000  1
  H  H21  1  0.80510302  0.17246723  0.00000000  1
  H  H22  1  0.26490409  0.16371757  0.49175535  1
  H  H23  1  0.73509591  0.66371757  0.50824465  1
  H  H24  1  0.22685126  0.66371757  0.49175535  1
  H  H25  1  0.77314874  0.16371757  0.50824465  1
  H  H26  1  0.81621107  0.32907159  0.84557074  1
  H  H27  1  0.18378893  0.82907159  0.15442926  1
  H  H28  1  0.02935967  0.82907159  0.84557074  1
  H  H29  1  0.97064033  0.32907159  0.15442926  1
  S  S30  1  0.18779379  0.11552679  -0.00000000  1
  S  S31  1  0.81220621  0.61552679  -0.00000000  1
  S  S32  1  0.47460298  0.45162071  0.31796638  1
  S  S33  1  0.52539702  0.95162071  0.68203362  1
  S  S34  1  0.84336339  0.95162071  0.31796638  1
  S  S35  1  0.15663661  0.45162071  0.68203362  1
  O  O36  1  0.07501228  0.23899206  -0.00000000  1
  O  O37  1  0.92498772  0.73899206  0.00000000  1
  O  O38  1  0.60569199  0.34234924  0.30865597  1
  O  O39  1  0.39430801  0.84234924  0.69134403  1
  O  O40  1  0.70296397  0.84234924  0.30865597  1
  O  O41  1  0.29703603  0.34234924  0.69134403  1
  O  O42  1  0.42485403  0.08097826  0.68314385  1
  O  O43  1  0.57514597  0.58097826  0.31685615  1
  O  O44  1  0.25828982  0.58097826  0.68314385  1
  O  O45  1  0.74171018  0.08097826  0.31685615  1
  O  O46  1  0.69489200  0.30645850  0.77465327  1
  O  O47  1  0.30510800  0.80645850  0.22534673  1
  O  O48  1  0.07976127  0.80645850  0.77465327  1
  O  O49  1  0.92023873  0.30645850  0.22534673  1
  O  O50  1  0.68517005  0.13134651  0.00000000  1
  O  O51  1  0.31482995  0.63134651  -0.00000000  1
  O  O52  1  0.07175041  0.99618362  -0.00000000  1
  O  O53  1  0.92824959  0.49618362  -0.00000000  1
  O  O54  1  0.28720001  0.44459258  0.20570570  1
  O  O55  1  0.71279999  0.94459258  0.79429430  1
  O  O56  1  0.91850569  0.94459258  0.20570570  1
  O  O57  1  0.08149431  0.44459258  0.79429430  1
  O  O58  1  0.43799349  0.43891894  0.44538254  1
  O  O59  1  0.56200651  0.93891894  0.55461746  1
  O  O60  1  0.00738905  0.93891894  0.44538254  1
  O  O61  1  0.99261095  0.43891894  0.55461746  1
  O  O62  1  0.36676224  0.11266163  0.12126149  1
  O  O63  1  0.63323776  0.61266163  0.87873851  1
  O  O64  1  0.75449925  0.61266163  0.12126149  1
  O  O65  1  0.24550075  0.11266163  0.87873851  1
  O  O66  1  0.47237157  0.35362608  0.00000000  1
  O  O67  1  0.52762843  0.85362608  -0.00000000  1
  O  O68  1  0.25561582  0.19640198  0.40334733  1
  O  O69  1  0.74438418  0.69640198  0.59665267  1
  O  O70  1  0.14773152  0.69640198  0.40334733  1
  O  O71  1  0.85226848  0.19640198  0.59665267  1
