# generated using pymatgen
data_EuMgGa
_symmetry_space_group_name_H-M   'P 1'
_cell_length_a   4.94968349
_cell_length_b   7.85221377
_cell_length_c   7.89799659
_cell_angle_alpha   90.00000000
_cell_angle_beta   90.00000000
_cell_angle_gamma   90.00000000
_symmetry_Int_Tables_number   1
_chemical_formula_structural   EuMgGa
_chemical_formula_sum   'Eu4 Mg4 Ga4'
_cell_volume   306.96332109
_cell_formula_units_Z   4
loop_
 _symmetry_equiv_pos_site_id
 _symmetry_equiv_pos_as_xyz
  1  'x, y, z'
loop_
 _atom_site_type_symbol
 _atom_site_label
 _atom_site_symmetry_multiplicity
 _atom_site_fract_x
 _atom_site_fract_y
 _atom_site_fract_z
 _atom_site_occupancy
  Eu  Eu0  1  0.75000000  0.02037682  0.29078073  1
  Eu  Eu1  1  0.25000000  0.97962318  0.70921927  1
  Eu  Eu2  1  0.25000000  0.47962318  0.79078073  1
  Eu  Eu3  1  0.75000000  0.52037682  0.20921927  1
  Mg  Mg4  1  0.75000000  0.69085336  0.60467766  1
  Mg  Mg5  1  0.25000000  0.30914664  0.39532234  1
  Mg  Mg6  1  0.25000000  0.80914664  0.10467766  1
  Mg  Mg7  1  0.75000000  0.19085336  0.89532234  1
  Ga  Ga8  1  0.75000000  0.81497872  0.93266755  1
  Ga  Ga9  1  0.25000000  0.18502128  0.06733245  1
  Ga  Ga10  1  0.25000000  0.68502128  0.43266755  1
  Ga  Ga11  1  0.75000000  0.31497872  0.56733245  1
