# generated using pymatgen
data_Ca2Mn3Si3H3O14
_symmetry_space_group_name_H-M   'P 1'
_cell_length_a   6.20288171
_cell_length_b   9.08309366
_cell_length_c   10.35615330
_cell_angle_alpha   111.37361798
_cell_angle_beta   90.00000000
_cell_angle_gamma   90.00000000
_symmetry_Int_Tables_number   1
_chemical_formula_structural   Ca2Mn3Si3H3O14
_chemical_formula_sum   'Ca4 Mn6 Si6 H6 O28'
_cell_volume   543.35015382
_cell_formula_units_Z   2
loop_
 _symmetry_equiv_pos_site_id
 _symmetry_equiv_pos_as_xyz
  1  'x, y, z'
loop_
 _atom_site_type_symbol
 _atom_site_label
 _atom_site_symmetry_multiplicity
 _atom_site_fract_x
 _atom_site_fract_y
 _atom_site_fract_z
 _atom_site_occupancy
  Ca  Ca0  1  0.75000000  0.20430052  0.82009647  1
  Ca  Ca1  1  0.25000000  0.79569948  0.17990353  1
  Ca  Ca2  1  0.75000000  0.33001814  0.18738033  1
  Ca  Ca3  1  0.25000000  0.66998186  0.81261967  1
  Mn  Mn4  1  -0.00000000  0.50000000  0.50000000  1
  Mn  Mn5  1  0.50000000  0.50000000  0.50000000  1
  Mn  Mn6  1  0.00000000  -0.00000000  -0.00000000  1
  Mn  Mn7  1  0.50000000  -0.00000000  -0.00000000  1
  Mn  Mn8  1  -0.00000000  -0.00000000  0.50000000  1
  Mn  Mn9  1  0.50000000  -0.00000000  0.50000000  1
  Si  Si10  1  0.75000000  0.66397912  0.99522228  1
  Si  Si11  1  0.25000000  0.33602088  0.00477772  1
  Si  Si12  1  0.75000000  0.70746333  0.30140225  1
  Si  Si13  1  0.25000000  0.29253667  0.69859775  1
  Si  Si14  1  0.75000000  0.80673243  0.68819556  1
  Si  Si15  1  0.25000000  0.19326757  0.31180444  1
  H  H16  1  0.75000000  0.08467923  0.33711426  1
  H  H17  1  0.25000000  0.91532077  0.66288574  1
  H  H18  1  0.75000000  0.49184793  0.76309877  1
  H  H19  1  0.25000000  0.50815207  0.23690123  1
  H  H20  1  0.75000000  0.29117463  0.51411991  1
  H  H21  1  0.25000000  0.70882537  0.48588009  1
  O  O22  1  0.75000000  0.06097762  0.11685583  1
  O  O23  1  0.25000000  0.93902238  0.88314417  1
  O  O24  1  0.96521246  0.69309896  0.66379501  1
  O  O25  1  0.03478754  0.30690104  0.33620499  1
  O  O26  1  0.46521246  0.30690104  0.33620499  1
  O  O27  1  0.53478754  0.69309896  0.66379501  1
  O  O28  1  0.75000000  0.49117363  0.85876923  1
  O  O29  1  0.25000000  0.50882637  0.14123077  1
  O  O30  1  0.96943841  0.81615849  0.33181687  1
  O  O31  1  0.03056159  0.18384151  0.66818313  1
  O  O32  1  0.46943841  0.18384151  0.66818313  1
  O  O33  1  0.53056159  0.81615849  0.33181687  1
  O  O34  1  0.75000000  0.91401265  0.59075843  1
  O  O35  1  0.25000000  0.08598735  0.40924157  1
  O  O36  1  0.75000000  0.94560789  0.84641803  1
  O  O37  1  0.25000000  0.05439211  0.15358197  1
  O  O38  1  0.75000000  0.57418570  0.37269482  1
  O  O39  1  0.25000000  0.42581430  0.62730518  1
  O  O40  1  0.75000000  0.60261282  0.12936251  1
  O  O41  1  0.25000000  0.39738718  0.87063749  1
  O  O42  1  0.75000000  0.10518890  0.43732733  1
  O  O43  1  0.25000000  0.89481110  0.56267267  1
  O  O44  1  0.97712934  0.75767574  0.99622379  1
  O  O45  1  0.02287066  0.24232426  0.00377621  1
  O  O46  1  0.47712934  0.24232426  0.00377621  1
  O  O47  1  0.52287066  0.75767574  0.99622379  1
  O  O48  1  0.75000000  0.41151089  0.56324695  1
  O  O49  1  0.25000000  0.58848911  0.43675305  1
