# generated using pymatgen
data_Ca2Nd3Si3O13
_symmetry_space_group_name_H-M   'P 1'
_cell_length_a   7.08576198
_cell_length_b   9.62198620
_cell_length_c   9.62198620
_cell_angle_alpha   119.99999683
_cell_angle_beta   90.00000000
_cell_angle_gamma   90.00000000
_symmetry_Int_Tables_number   1
_chemical_formula_structural   Ca2Nd3Si3O13
_chemical_formula_sum   'Ca4 Nd6 Si6 O26'
_cell_volume   568.12861578
_cell_formula_units_Z   2
loop_
 _symmetry_equiv_pos_site_id
 _symmetry_equiv_pos_as_xyz
  1  'x, y, z'
loop_
 _atom_site_type_symbol
 _atom_site_label
 _atom_site_symmetry_multiplicity
 _atom_site_fract_x
 _atom_site_fract_y
 _atom_site_fract_z
 _atom_site_occupancy
  Ca  Ca0  1  0.00324321  0.66666700  0.33333300  1
  Ca  Ca1  1  0.99675679  0.33333300  0.66666700  1
  Ca  Ca2  1  0.50324321  0.33333300  0.66666700  1
  Ca  Ca3  1  0.49675679  0.66666700  0.33333300  1
  Nd  Nd4  1  0.75000000  0.74860857  0.98884479  1
  Nd  Nd5  1  0.25000000  0.25139143  0.01115521  1
  Nd  Nd6  1  0.75000000  0.24023622  0.25139143  1
  Nd  Nd7  1  0.25000000  0.75976378  0.74860857  1
  Nd  Nd8  1  0.75000000  0.01115521  0.75976378  1
  Nd  Nd9  1  0.25000000  0.98884479  0.24023622  1
  Si  Si10  1  0.75000000  0.97161578  0.37065203  1
  Si  Si11  1  0.25000000  0.02838422  0.62934797  1
  Si  Si12  1  0.75000000  0.39903625  0.02838422  1
  Si  Si13  1  0.25000000  0.60096375  0.97161578  1
  Si  Si14  1  0.75000000  0.62934797  0.60096375  1
  Si  Si15  1  0.25000000  0.37065203  0.39903625  1
  O  O16  1  0.75000000  0.87476067  0.47043402  1
  O  O17  1  0.25000000  0.12523933  0.52956598  1
  O  O18  1  0.75000000  0.59567335  0.12523933  1
  O  O19  1  0.25000000  0.40432665  0.87476067  1
  O  O20  1  0.75000000  0.52956598  0.40432665  1
  O  O21  1  0.25000000  0.47043402  0.59567335  1
  O  O22  1  0.93258184  0.91029298  0.24715604  1
  O  O23  1  0.06741816  0.08970702  0.75284396  1
  O  O24  1  0.93258184  0.33686306  0.08970702  1
  O  O25  1  0.43258184  0.08970702  0.75284396  1
  O  O26  1  0.06741816  0.66313694  0.91029298  1
  O  O27  1  0.56741816  0.91029298  0.24715604  1
  O  O28  1  0.93258184  0.75284396  0.66313694  1
  O  O29  1  0.43258184  0.66313694  0.91029298  1
  O  O30  1  0.06741816  0.24715604  0.33686306  1
  O  O31  1  0.56741816  0.33686306  0.08970702  1
  O  O32  1  0.43258184  0.24715604  0.33686306  1
  O  O33  1  0.56741816  0.75284396  0.66313694  1
  O  O34  1  0.75000000  0.51722565  0.68375368  1
  O  O35  1  0.25000000  0.48277435  0.31624632  1
  O  O36  1  0.75000000  0.16652803  0.48277435  1
  O  O37  1  0.25000000  0.83347197  0.51722565  1
  O  O38  1  0.75000000  0.31624632  0.83347197  1
  O  O39  1  0.25000000  0.68375368  0.16652803  1
  O  O40  1  0.75000000  0.00000000  0.00000000  1
  O  O41  1  0.25000000  0.00000000  0.00000000  1
