# generated using pymatgen
data_CsYb(SO4)2
_symmetry_space_group_name_H-M   'P 1'
_cell_length_a   4.63667581
_cell_length_b   9.70633131
_cell_length_c   8.21917014
_cell_angle_alpha   94.79225747
_cell_angle_beta   90.00000000
_cell_angle_gamma   90.00000000
_symmetry_Int_Tables_number   1
_chemical_formula_structural   CsYb(SO4)2
_chemical_formula_sum   'Cs2 Yb2 S4 O16'
_cell_volume   368.61154114
_cell_formula_units_Z   2
loop_
 _symmetry_equiv_pos_site_id
 _symmetry_equiv_pos_as_xyz
  1  'x, y, z'
loop_
 _atom_site_type_symbol
 _atom_site_label
 _atom_site_symmetry_multiplicity
 _atom_site_fract_x
 _atom_site_fract_y
 _atom_site_fract_z
 _atom_site_occupancy
  Cs  Cs0  1  0.40636397  0.50000000  0.75000000  1
  Cs  Cs1  1  0.59363603  0.50000000  0.25000000  1
  Yb  Yb2  1  0.51222700  0.00000000  0.75000000  1
  Yb  Yb3  1  0.48777300  0.00000000  0.25000000  1
  S  S4  1  0.00135144  0.79949116  0.47092351  1
  S  S5  1  0.99864856  0.20050884  0.52907649  1
  S  S6  1  0.00135144  0.20050884  0.02907649  1
  S  S7  1  0.99864856  0.79949116  0.97092351  1
  O  O8  1  0.80423853  0.82750599  0.33138941  1
  O  O9  1  0.19576147  0.17249401  0.66861059  1
  O  O10  1  0.80423853  0.17249401  0.16861059  1
  O  O11  1  0.19576147  0.82750599  0.83138941  1
  O  O12  1  0.89826002  0.65567108  0.95303637  1
  O  O13  1  0.10173998  0.34432892  0.04696363  1
  O  O14  1  0.89826002  0.34432892  0.54696363  1
  O  O15  1  0.10173998  0.65567108  0.45303637  1
  O  O16  1  0.75506922  0.89896613  0.98121266  1
  O  O17  1  0.24493078  0.10103387  0.01878734  1
  O  O18  1  0.75506922  0.10103387  0.51878734  1
  O  O19  1  0.24493078  0.89896613  0.48121266  1
  O  O20  1  0.80640374  0.82261815  0.61707142  1
  O  O21  1  0.19359626  0.17738185  0.38292858  1
  O  O22  1  0.80640374  0.17738185  0.88292858  1
  O  O23  1  0.19359626  0.82261815  0.11707142  1
