# generated using pymatgen
data_HoZr6(PO4)9
_symmetry_space_group_name_H-M   'P 1'
_cell_length_a   8.94211368
_cell_length_b   8.94211368
_cell_length_c   22.89237059
_cell_angle_alpha   90.00000000
_cell_angle_beta   90.00000000
_cell_angle_gamma   119.99999765
_symmetry_Int_Tables_number   1
_chemical_formula_structural   HoZr6(PO4)9
_chemical_formula_sum   'Ho2 Zr12 P18 O72'
_cell_volume   1585.26467930
_cell_formula_units_Z   2
loop_
 _symmetry_equiv_pos_site_id
 _symmetry_equiv_pos_as_xyz
  1  'x, y, z'
loop_
 _atom_site_type_symbol
 _atom_site_label
 _atom_site_symmetry_multiplicity
 _atom_site_fract_x
 _atom_site_fract_y
 _atom_site_fract_z
 _atom_site_occupancy
  Ho  Ho0  1  0.00000000  0.00000000  0.00000000  1
  Ho  Ho1  1  0.00000000  0.00000000  0.50000000  1
  Zr  Zr2  1  0.66666700  0.33333300  0.97007192  1
  Zr  Zr3  1  0.33333300  0.66666700  0.02992808  1
  Zr  Zr4  1  0.33333300  0.66666700  0.52992808  1
  Zr  Zr5  1  0.66666700  0.33333300  0.47007192  1
  Zr  Zr6  1  0.00000000  0.00000000  0.85114298  1
  Zr  Zr7  1  0.00000000  0.00000000  0.14885702  1
  Zr  Zr8  1  0.00000000  0.00000000  0.64885702  1
  Zr  Zr9  1  0.00000000  0.00000000  0.35114298  1
  Zr  Zr10  1  0.66666700  0.33333300  0.68713040  1
  Zr  Zr11  1  0.33333300  0.66666700  0.31286960  1
  Zr  Zr12  1  0.33333300  0.66666700  0.81286960  1
  Zr  Zr13  1  0.66666700  0.33333300  0.18713040  1
  P  P14  1  0.62616506  0.94340691  0.92136988  1
  P  P15  1  0.37383494  0.05659309  0.07863012  1
  P  P16  1  0.31724186  0.37383494  0.92136988  1
  P  P17  1  0.68275814  0.05659309  0.57863012  1
  P  P18  1  0.68275814  0.62616506  0.07863012  1
  P  P19  1  0.31724186  0.94340691  0.42136988  1
  P  P20  1  0.05659309  0.68275814  0.92136988  1
  P  P21  1  0.94340691  0.62616506  0.57863012  1
  P  P22  1  0.94340691  0.31724186  0.07863012  1
  P  P23  1  0.05659309  0.37383494  0.42136988  1
  P  P24  1  0.37383494  0.31724186  0.57863012  1
  P  P25  1  0.62616506  0.68275814  0.42136988  1
  P  P26  1  0.70833489  0.70833489  0.75000000  1
  P  P27  1  0.29166511  0.29166511  0.25000000  1
  P  P28  1  1.00000000  0.29166511  0.75000000  1
  P  P29  1  0.00000000  0.70833489  0.25000000  1
  P  P30  1  0.29166511  1.00000000  0.75000000  1
  P  P31  1  0.70833489  0.00000000  0.25000000  1
  O  O32  1  0.54204114  0.82855163  0.97492017  1
  O  O33  1  0.45795886  0.17144837  0.02507983  1
  O  O34  1  0.28651049  0.45795886  0.97492017  1
  O  O35  1  0.71348951  0.17144837  0.52507983  1
  O  O36  1  0.71348951  0.54204114  0.02507983  1
  O  O37  1  0.28651049  0.82855163  0.47492017  1
  O  O38  1  0.17144837  0.71348951  0.97492017  1
  O  O39  1  0.82855163  0.54204114  0.52507983  1
  O  O40  1  0.82855163  0.28651049  0.02507983  1
  O  O41  1  0.17144837  0.45795886  0.47492017  1
  O  O42  1  0.45795886  0.28651049  0.52507983  1
  O  O43  1  0.54204114  0.71348951  0.47492017  1
  O  O44  1  0.62556736  0.11489203  0.92449711  1
  O  O45  1  0.37443264  0.88510797  0.07550289  1
  O  O46  1  0.48932467  0.37443264  0.92449711  1
  O  O47  1  0.51067533  0.88510797  0.57550289  1
  O  O48  1  0.51067533  0.62556736  0.07550289  1
  O  O49  1  0.48932467  0.11489203  0.42449711  1
  O  O50  1  0.88510797  0.51067533  0.92449711  1
  O  O51  1  0.11489203  0.62556736  0.57550289  1
  O  O52  1  0.11489203  0.48932467  0.07550289  1
  O  O53  1  0.88510797  0.37443264  0.42449711  1
  O  O54  1  0.37443264  0.48932467  0.57550289  1
  O  O55  1  0.62556736  0.51067533  0.42449711  1
  O  O56  1  0.82203978  0.98764411  0.92306795  1
  O  O57  1  0.17796022  0.01235589  0.07693205  1
  O  O58  1  0.16560433  0.17796022  0.92306795  1
  O  O59  1  0.83439567  0.01235589  0.57693205  1
  O  O60  1  0.83439567  0.82203978  0.07693205  1
  O  O61  1  0.16560433  0.98764411  0.42306795  1
  O  O62  1  0.01235589  0.83439567  0.92306795  1
  O  O63  1  0.98764411  0.82203978  0.57693205  1
  O  O64  1  0.98764411  0.16560433  0.07693205  1
  O  O65  1  0.01235589  0.17796022  0.42306795  1
  O  O66  1  0.17796022  0.16560433  0.57693205  1
  O  O67  1  0.82203978  0.83439567  0.42306795  1
  O  O68  1  0.96817767  0.17271327  0.80403890  1
  O  O69  1  0.03182233  0.82728673  0.19596110  1
  O  O70  1  0.20453560  0.03182233  0.80403890  1
  O  O71  1  0.79546440  0.82728673  0.69596110  1
  O  O72  1  0.79546440  0.96817767  0.19596110  1
  O  O73  1  0.20453560  0.17271327  0.30403890  1
  O  O74  1  0.82728673  0.79546440  0.80403890  1
  O  O75  1  0.17271327  0.96817767  0.69596110  1
  O  O76  1  0.17271327  0.20453560  0.19596110  1
  O  O77  1  0.82728673  0.03182233  0.30403890  1
  O  O78  1  0.03182233  0.20453560  0.69596110  1
  O  O79  1  0.96817767  0.79546440  0.30403890  1
  O  O80  1  0.54155250  0.84960927  0.86459861  1
  O  O81  1  0.45844750  0.15039073  0.13540139  1
  O  O82  1  0.30805677  0.45844750  0.86459861  1
  O  O83  1  0.69194323  0.15039073  0.63540139  1
  O  O84  1  0.69194323  0.54155250  0.13540139  1
  O  O85  1  0.30805677  0.84960927  0.36459861  1
  O  O86  1  0.15039073  0.69194323  0.86459861  1
  O  O87  1  0.84960927  0.54155250  0.63540139  1
  O  O88  1  0.84960927  0.30805677  0.13540139  1
  O  O89  1  0.15039073  0.45844750  0.36459861  1
  O  O90  1  0.45844750  0.30805677  0.63540139  1
  O  O91  1  0.54155250  0.69194323  0.36459861  1
  O  O92  1  0.53216121  0.69076802  0.76001414  1
  O  O93  1  0.46783879  0.30923198  0.23998586  1
  O  O94  1  0.15860681  0.46783879  0.76001414  1
  O  O95  1  0.84139319  0.30923198  0.73998586  1
  O  O96  1  0.84139319  0.53216121  0.23998586  1
  O  O97  1  0.15860681  0.69076802  0.26001414  1
  O  O98  1  0.30923198  0.84139319  0.76001414  1
  O  O99  1  0.69076802  0.53216121  0.73998586  1
  O  O100  1  0.69076802  0.15860681  0.23998586  1
  O  O101  1  0.30923198  0.46783879  0.26001414  1
  O  O102  1  0.46783879  0.15860681  0.73998586  1
  O  O103  1  0.53216121  0.84139319  0.26001414  1
