# generated using pymatgen
data_S5N2ClO6
_symmetry_space_group_name_H-M   'P 1'
_cell_length_a   6.85133417
_cell_length_b   7.89040548
_cell_length_c   10.96954484
_cell_angle_alpha   91.49684520
_cell_angle_beta   100.57041285
_cell_angle_gamma   113.79502060
_symmetry_Int_Tables_number   1
_chemical_formula_structural   S5N2ClO6
_chemical_formula_sum   'S10 N4 Cl2 O12'
_cell_volume   530.07882535
_cell_formula_units_Z   2
loop_
 _symmetry_equiv_pos_site_id
 _symmetry_equiv_pos_as_xyz
  1  'x, y, z'
loop_
 _atom_site_type_symbol
 _atom_site_label
 _atom_site_symmetry_multiplicity
 _atom_site_fract_x
 _atom_site_fract_y
 _atom_site_fract_z
 _atom_site_occupancy
  S  S0  1  0.57408693  0.83121660  0.21116241  1
  S  S1  1  0.00151230  0.23163085  0.97759803  1
  S  S2  1  0.96759550  0.69666956  0.76918833  1
  S  S3  1  0.79570224  0.64072300  0.38050698  1
  S  S4  1  0.74058521  0.82787658  0.90195047  1
  S  S5  1  0.42591307  0.16878340  0.78883759  1
  S  S6  1  0.20429776  0.35927700  0.61949302  1
  S  S7  1  0.99848770  0.76836915  0.02240197  1
  S  S8  1  0.03240450  0.30333044  0.23081167  1
  S  S9  1  0.25941479  0.17212342  0.09804953  1
  N  N10  1  0.07606014  0.69840714  0.90975499  1
  N  N11  1  0.92393986  0.30159286  0.09024501  1
  N  N12  1  0.21890658  0.23513798  0.22721228  1
  N  N13  1  0.78109342  0.76486202  0.77278772  1
  Cl  Cl14  1  0.88904522  0.16470762  0.59548489  1
  Cl  Cl15  1  0.11095478  0.83529238  0.40451511  1
  O  O16  1  0.75454623  0.51848829  0.27031148  1
  O  O17  1  0.24545377  0.48151171  0.72968852  1
  O  O18  1  0.66299571  0.76400390  0.36002165  1
  O  O19  1  0.77087409  0.56975124  0.49820689  1
  O  O20  1  0.53647111  0.98629885  0.25642023  1
  O  O21  1  0.22912591  0.43024876  0.50179311  1
  O  O22  1  0.33700429  0.23599610  0.63997835  1
  O  O23  1  0.61429747  0.33551228  0.84697434  1
  O  O24  1  0.46352889  0.01370115  0.74357977  1
  O  O25  1  0.76387007  0.88189401  0.15358566  1
  O  O26  1  0.23612993  0.11810599  0.84641434  1
  O  O27  1  0.38570253  0.66448772  0.15302566  1
