# generated using pymatgen
data_Eu3VGeO9
_symmetry_space_group_name_H-M   'P 1'
_cell_length_a   7.04824623
_cell_length_b   9.40377263
_cell_length_c   12.56997516
_cell_angle_alpha   90.00000000
_cell_angle_beta   90.00000000
_cell_angle_gamma   107.59776299
_symmetry_Int_Tables_number   1
_chemical_formula_structural   Eu3VGeO9
_chemical_formula_sum   'Eu12 V4 Ge4 O36'
_cell_volume   794.15041587
_cell_formula_units_Z   4
loop_
 _symmetry_equiv_pos_site_id
 _symmetry_equiv_pos_as_xyz
  1  'x, y, z'
loop_
 _atom_site_type_symbol
 _atom_site_label
 _atom_site_symmetry_multiplicity
 _atom_site_fract_x
 _atom_site_fract_y
 _atom_site_fract_z
 _atom_site_occupancy
  Eu  Eu0  1  0.67360191  0.62664221  0.36757514  1
  Eu  Eu1  1  0.32639809  0.37335779  0.63242486  1
  Eu  Eu2  1  0.82639809  0.87335779  0.86757514  1
  Eu  Eu3  1  0.17360191  0.12664221  0.13242486  1
  Eu  Eu4  1  0.23770313  0.84878865  0.36645787  1
  Eu  Eu5  1  0.76229687  0.15121135  0.63354213  1
  Eu  Eu6  1  0.26229687  0.65121135  0.86645787  1
  Eu  Eu7  1  0.73770313  0.34878865  0.13354213  1
  Eu  Eu8  1  0.50564016  0.87673018  0.10870589  1
  Eu  Eu9  1  0.49435984  0.12326982  0.89129411  1
  Eu  Eu10  1  0.99435984  0.62326982  0.60870589  1
  Eu  Eu11  1  0.00564016  0.37673018  0.39129411  1
  V  V12  1  0.19722592  0.97788087  0.66424668  1
  V  V13  1  0.80277408  0.02211913  0.33575332  1
  V  V14  1  0.30277408  0.52211913  0.16424668  1
  V  V15  1  0.69722592  0.47788087  0.83575332  1
  Ge  Ge16  1  0.95546771  0.76264832  0.10153950  1
  Ge  Ge17  1  0.04453229  0.23735168  0.89846050  1
  Ge  Ge18  1  0.54453229  0.73735168  0.60153950  1
  Ge  Ge19  1  0.45546771  0.26264832  0.39846050  1
  O  O20  1  0.90132897  0.87302998  0.33953232  1
  O  O21  1  0.09867103  0.12697002  0.66046768  1
  O  O22  1  0.59867103  0.62697002  0.83953232  1
  O  O23  1  0.40132897  0.37302998  0.16046768  1
  O  O24  1  0.65787632  0.59135767  0.57463860  1
  O  O25  1  0.34212368  0.40864233  0.42536140  1
  O  O26  1  0.84212368  0.90864233  0.07463860  1
  O  O27  1  0.15787632  0.09135767  0.92536140  1
  O  O28  1  0.16664207  0.87744552  0.54620439  1
  O  O29  1  0.83335793  0.12255448  0.45379561  1
  O  O30  1  0.33335793  0.62255448  0.04620439  1
  O  O31  1  0.66664207  0.37744552  0.95379561  1
  O  O32  1  0.79334422  0.61755439  0.17506779  1
  O  O33  1  0.20665578  0.38244561  0.82493221  1
  O  O34  1  0.70665578  0.88244561  0.67506779  1
  O  O35  1  0.29334422  0.11755439  0.32493221  1
  O  O36  1  0.08065571  0.83822259  0.75435291  1
  O  O37  1  0.91934429  0.16177741  0.24564709  1
  O  O38  1  0.41934429  0.66177741  0.25435291  1
  O  O39  1  0.58065571  0.33822259  0.74564709  1
  O  O40  1  0.99678117  0.61707121  0.42302651  1
  O  O41  1  0.00321883  0.38292879  0.57697349  1
  O  O42  1  0.50321883  0.88292879  0.92302651  1
  O  O43  1  0.49678117  0.11707121  0.07697349  1
  O  O44  1  0.18023911  0.86626237  0.16888581  1
  O  O45  1  0.81976089  0.13373763  0.83111419  1
  O  O46  1  0.31976089  0.63373763  0.66888581  1
  O  O47  1  0.68023911  0.36626237  0.33111419  1
  O  O48  1  0.56091239  0.95934212  0.28845918  1
  O  O49  1  0.43908761  0.04065788  0.71154082  1
  O  O50  1  0.93908761  0.54065788  0.78845918  1
  O  O51  1  0.06091239  0.45934212  0.21154082  1
  O  O52  1  0.49226862  0.77596596  0.46905453  1
  O  O53  1  0.50773138  0.22403404  0.53094547  1
  O  O54  1  0.00773138  0.72403404  0.96905453  1
  O  O55  1  0.99226862  0.27596596  0.03094547  1
