# generated using pymatgen
data_Eu2Sb3
_symmetry_space_group_name_H-M   'P 1'
_cell_length_a   6.42366093
_cell_length_b   13.14661069
_cell_length_c   14.92243853
_cell_angle_alpha   89.89222227
_cell_angle_beta   90.00000000
_cell_angle_gamma   90.00000000
_symmetry_Int_Tables_number   1
_chemical_formula_structural   Eu2Sb3
_chemical_formula_sum   'Eu16 Sb24'
_cell_volume   1260.18829483
_cell_formula_units_Z   8
loop_
 _symmetry_equiv_pos_site_id
 _symmetry_equiv_pos_as_xyz
  1  'x, y, z'
loop_
 _atom_site_type_symbol
 _atom_site_label
 _atom_site_symmetry_multiplicity
 _atom_site_fract_x
 _atom_site_fract_y
 _atom_site_fract_z
 _atom_site_occupancy
  Eu  Eu0  1  0.95067444  0.25000000  0.75000000  1
  Eu  Eu1  1  0.04932556  0.75000000  0.25000000  1
  Eu  Eu2  1  0.55044152  0.00431607  0.74895197  1
  Eu  Eu3  1  0.44955848  0.99568393  0.25104803  1
  Eu  Eu4  1  0.55044152  0.49568393  0.75104803  1
  Eu  Eu5  1  0.44955848  0.50431607  0.24895197  1
  Eu  Eu6  1  0.93048311  0.75000000  0.75000000  1
  Eu  Eu7  1  0.06951689  0.25000000  0.25000000  1
  Eu  Eu8  1  0.75104480  0.37688107  0.49719183  1
  Eu  Eu9  1  0.24895520  0.62311893  0.50280817  1
  Eu  Eu10  1  0.75104480  0.12311893  0.00280817  1
  Eu  Eu11  1  0.24895520  0.87688107  0.99719183  1
  Eu  Eu12  1  0.74530999  0.62628198  0.99878971  1
  Eu  Eu13  1  0.25469001  0.37371802  0.00121029  1
  Eu  Eu14  1  0.74530999  0.87371802  0.50121029  1
  Eu  Eu15  1  0.25469001  0.12628198  0.49878971  1
  Sb  Sb16  1  0.93823501  0.52664313  0.33937397  1
  Sb  Sb17  1  0.06176499  0.47335687  0.66062603  1
  Sb  Sb18  1  0.93823501  0.97335687  0.16062603  1
  Sb  Sb19  1  0.06176499  0.02664313  0.83937397  1
  Sb  Sb20  1  0.74806119  0.12839809  0.57095810  1
  Sb  Sb21  1  0.25193881  0.87160191  0.42904190  1
  Sb  Sb22  1  0.74806119  0.37160191  0.92904190  1
  Sb  Sb23  1  0.25193881  0.62839809  0.07095810  1
  Sb  Sb24  1  0.75485163  0.87920684  0.93027201  1
  Sb  Sb25  1  0.24514837  0.12079316  0.06972799  1
  Sb  Sb26  1  0.75485163  0.62079316  0.56972799  1
  Sb  Sb27  1  0.24514837  0.37920684  0.43027201  1
  Sb  Sb28  1  0.43147412  0.28017850  0.65277841  1
  Sb  Sb29  1  0.56852588  0.71982150  0.34722159  1
  Sb  Sb30  1  0.43147412  0.21982150  0.84722159  1
  Sb  Sb31  1  0.56852588  0.78017850  0.15277841  1
  Sb  Sb32  1  0.91449393  0.04034530  0.35069331  1
  Sb  Sb33  1  0.08550607  0.95965470  0.64930669  1
  Sb  Sb34  1  0.91449393  0.45965470  0.14930669  1
  Sb  Sb35  1  0.08550607  0.54034530  0.85069331  1
  Sb  Sb36  1  0.41563510  0.71539813  0.84395423  1
  Sb  Sb37  1  0.58436490  0.28460187  0.15604577  1
  Sb  Sb38  1  0.41563510  0.78460187  0.65604577  1
  Sb  Sb39  1  0.58436490  0.21539813  0.34395423  1
