# generated using pymatgen
data_BaSm2(MoO4)4
_symmetry_space_group_name_H-M   'P 1'
_cell_length_a   5.40031836
_cell_length_b   6.98871963
_cell_length_c   19.68761745
_cell_angle_alpha   89.50143333
_cell_angle_beta   88.70948596
_cell_angle_gamma   67.27182182
_symmetry_Int_Tables_number   1
_chemical_formula_structural   BaSm2(MoO4)4
_chemical_formula_sum   'Ba2 Sm4 Mo8 O32'
_cell_volume   685.16452760
_cell_formula_units_Z   2
loop_
 _symmetry_equiv_pos_site_id
 _symmetry_equiv_pos_as_xyz
  1  'x, y, z'
loop_
 _atom_site_type_symbol
 _atom_site_label
 _atom_site_symmetry_multiplicity
 _atom_site_fract_x
 _atom_site_fract_y
 _atom_site_fract_z
 _atom_site_occupancy
  Ba  Ba0  1  0.46805512  0.06388976  0.75000000  1
  Ba  Ba1  1  0.53194488  0.93611024  0.25000000  1
  Sm  Sm2  1  0.35455360  0.29633866  0.53282947  1
  Sm  Sm3  1  0.64544640  0.70366134  0.46717053  1
  Sm  Sm4  1  0.34910774  0.29633866  0.96717053  1
  Sm  Sm5  1  0.65089226  0.70366134  0.03282947  1
  Mo  Mo6  1  0.06810242  0.88449794  0.90886152  1
  Mo  Mo7  1  0.93189758  0.11550206  0.09113848  1
  Mo  Mo8  1  0.04739963  0.88449794  0.59113848  1
  Mo  Mo9  1  0.95260037  0.11550206  0.40886152  1
  Mo  Mo10  1  0.75681601  0.47917004  0.85003986  1
  Mo  Mo11  1  0.24318399  0.52082996  0.14996014  1
  Mo  Mo12  1  0.76401395  0.47917004  0.64996014  1
  Mo  Mo13  1  0.23598605  0.52082996  0.35003986  1
  O  O14  1  0.32017205  0.65967097  0.95385950  1
  O  O15  1  0.67982795  0.34032903  0.04614050  1
  O  O16  1  0.02015698  0.65967097  0.54614050  1
  O  O17  1  0.97984302  0.34032903  0.45385950  1
  O  O18  1  0.58257236  0.51567303  0.56778272  1
  O  O19  1  0.41742764  0.48432697  0.43221728  1
  O  O20  1  0.90175461  0.51567303  0.93221728  1
  O  O21  1  0.09824539  0.48432697  0.06778272  1
  O  O22  1  0.19901341  0.83640467  0.66978744  1
  O  O23  1  0.80098659  0.16359533  0.33021256  1
  O  O24  1  0.96458192  0.83640467  0.83021256  1
  O  O25  1  0.03541808  0.16359533  0.16978744  1
  O  O26  1  0.27714443  0.90851163  0.39680994  1
  O  O27  1  0.72285557  0.09148837  0.60319006  1
  O  O28  1  0.81434394  0.90851163  0.10319006  1
  O  O29  1  0.18565606  0.09148837  0.89680994  1
  O  O30  1  0.59063820  0.29755022  0.86468018  1
  O  O31  1  0.40936180  0.70244978  0.13531982  1
  O  O32  1  0.11181158  0.29755022  0.63531982  1
  O  O33  1  0.88818842  0.70244978  0.36468018  1
  O  O34  1  0.27039502  0.96684132  0.53569675  1
  O  O35  1  0.72960498  0.03315868  0.46430325  1
  O  O36  1  0.76276366  0.96684132  0.96430325  1
  O  O37  1  0.23723634  0.03315868  0.03569675  1
  O  O38  1  0.51622055  0.72133274  0.82487681  1
  O  O39  1  0.48377945  0.27866726  0.17512319  1
  O  O40  1  0.76244671  0.72133274  0.67512319  1
  O  O41  1  0.23755329  0.27866726  0.32487681  1
  O  O42  1  0.59674247  0.38828453  0.71189622  1
  O  O43  1  0.40325753  0.61171547  0.28810378  1
  O  O44  1  0.01497301  0.38828453  0.78810378  1
  O  O45  1  0.98502699  0.61171547  0.21189622  1
