# generated using pymatgen
data_DyZr6(PO4)9
_symmetry_space_group_name_H-M   'P 1'
_cell_length_a   8.94437819
_cell_length_b   8.94437819
_cell_length_c   22.94867823
_cell_angle_alpha   90.00000000
_cell_angle_beta   90.00000000
_cell_angle_gamma   119.99999906
_symmetry_Int_Tables_number   1
_chemical_formula_structural   DyZr6(PO4)9
_chemical_formula_sum   'Dy2 Zr12 P18 O72'
_cell_volume   1589.96886748
_cell_formula_units_Z   2
loop_
 _symmetry_equiv_pos_site_id
 _symmetry_equiv_pos_as_xyz
  1  'x, y, z'
loop_
 _atom_site_type_symbol
 _atom_site_label
 _atom_site_symmetry_multiplicity
 _atom_site_fract_x
 _atom_site_fract_y
 _atom_site_fract_z
 _atom_site_occupancy
  Dy  Dy0  1  -0.00000000  0.00000000  0.00000000  1
  Dy  Dy1  1  -0.00000000  0.00000000  0.50000000  1
  Zr  Zr2  1  0.66666700  0.33333300  0.97153971  1
  Zr  Zr3  1  0.33333300  0.66666700  0.02846029  1
  Zr  Zr4  1  0.33333300  0.66666700  0.52846029  1
  Zr  Zr5  1  0.66666700  0.33333300  0.47153971  1
  Zr  Zr6  1  -0.00000000  0.00000000  0.85067505  1
  Zr  Zr7  1  -0.00000000  0.00000000  0.14932495  1
  Zr  Zr8  1  -0.00000000  0.00000000  0.64932495  1
  Zr  Zr9  1  -0.00000000  0.00000000  0.35067505  1
  Zr  Zr10  1  0.66666700  0.33333300  0.68716272  1
  Zr  Zr11  1  0.33333300  0.66666700  0.31283728  1
  Zr  Zr12  1  0.33333300  0.66666700  0.81283728  1
  Zr  Zr13  1  0.66666700  0.33333300  0.18716272  1
  P  P14  1  0.62653316  0.94522155  0.92103391  1
  P  P15  1  0.37346684  0.05477845  0.07896609  1
  P  P16  1  0.31868840  0.37346684  0.92103391  1
  P  P17  1  0.68131160  0.05477845  0.57896609  1
  P  P18  1  0.68131160  0.62653316  0.07896609  1
  P  P19  1  0.31868840  0.94522155  0.42103391  1
  P  P20  1  0.05477845  0.68131160  0.92103391  1
  P  P21  1  0.94522155  0.62653316  0.57896609  1
  P  P22  1  0.94522155  0.31868840  0.07896609  1
  P  P23  1  0.05477845  0.37346684  0.42103391  1
  P  P24  1  0.37346684  0.31868840  0.57896609  1
  P  P25  1  0.62653316  0.68131160  0.42103391  1
  P  P26  1  0.70826816  0.70826816  0.75000000  1
  P  P27  1  0.29173184  0.29173184  0.25000000  1
  P  P28  1  1.00000000  0.29173184  0.75000000  1
  P  P29  1  0.00000000  0.70826816  0.25000000  1
  P  P30  1  0.29173184  1.00000000  0.75000000  1
  P  P31  1  0.70826816  0.00000000  0.25000000  1
  O  O32  1  0.54514018  0.82818076  0.97421400  1
  O  O33  1  0.45485982  0.17181924  0.02578600  1
  O  O34  1  0.28304058  0.45485982  0.97421400  1
  O  O35  1  0.71695942  0.17181924  0.52578600  1
  O  O36  1  0.71695942  0.54514018  0.02578600  1
  O  O37  1  0.28304058  0.82818076  0.47421400  1
  O  O38  1  0.17181924  0.71695942  0.97421400  1
  O  O39  1  0.82818076  0.54514018  0.52578600  1
  O  O40  1  0.82818076  0.28304058  0.02578600  1
  O  O41  1  0.17181924  0.45485982  0.47421400  1
  O  O42  1  0.45485982  0.28304058  0.52578600  1
  O  O43  1  0.54514018  0.71695942  0.47421400  1
  O  O44  1  0.62433233  0.11560528  0.92539023  1
  O  O45  1  0.37566767  0.88439472  0.07460977  1
  O  O46  1  0.49127295  0.37566767  0.92539023  1
  O  O47  1  0.50872705  0.88439472  0.57460977  1
  O  O48  1  0.50872705  0.62433233  0.07460977  1
  O  O49  1  0.49127295  0.11560528  0.42539023  1
  O  O50  1  0.88439472  0.50872705  0.92539023  1
  O  O51  1  0.11560528  0.62433233  0.57460977  1
  O  O52  1  0.11560528  0.49127295  0.07460977  1
  O  O53  1  0.88439472  0.37566767  0.42539023  1
  O  O54  1  0.37566767  0.49127295  0.57460977  1
  O  O55  1  0.62433233  0.50872705  0.42539023  1
  O  O56  1  0.82271566  0.99054569  0.92161770  1
  O  O57  1  0.17728434  0.00945431  0.07838230  1
  O  O58  1  0.16783003  0.17728434  0.92161770  1
  O  O59  1  0.83216997  0.00945431  0.57838230  1
  O  O60  1  0.83216997  0.82271566  0.07838230  1
  O  O61  1  0.16783003  0.99054569  0.42161770  1
  O  O62  1  0.00945431  0.83216997  0.92161770  1
  O  O63  1  0.99054569  0.82271566  0.57838230  1
  O  O64  1  0.99054569  0.16783003  0.07838230  1
  O  O65  1  0.00945431  0.17728434  0.42161770  1
  O  O66  1  0.17728434  0.16783003  0.57838230  1
  O  O67  1  0.82271566  0.83216997  0.42161770  1
  O  O68  1  0.96914561  0.17398899  0.80399028  1
  O  O69  1  0.03085439  0.82601101  0.19600972  1
  O  O70  1  0.20484337  0.03085439  0.80399028  1
  O  O71  1  0.79515663  0.82601101  0.69600972  1
  O  O72  1  0.79515663  0.96914561  0.19600972  1
  O  O73  1  0.20484337  0.17398899  0.30399028  1
  O  O74  1  0.82601101  0.79515663  0.80399028  1
  O  O75  1  0.17398899  0.96914561  0.69600972  1
  O  O76  1  0.17398899  0.20484337  0.19600972  1
  O  O77  1  0.82601101  0.03085439  0.30399028  1
  O  O78  1  0.03085439  0.20484337  0.69600972  1
  O  O79  1  0.96914561  0.79515663  0.30399028  1
  O  O80  1  0.53914412  0.85267338  0.86431969  1
  O  O81  1  0.46085588  0.14732662  0.13568031  1
  O  O82  1  0.31352926  0.46085588  0.86431969  1
  O  O83  1  0.68647074  0.14732662  0.63568031  1
  O  O84  1  0.68647074  0.53914412  0.13568031  1
  O  O85  1  0.31352926  0.85267338  0.36431969  1
  O  O86  1  0.14732662  0.68647074  0.86431969  1
  O  O87  1  0.85267338  0.53914412  0.63568031  1
  O  O88  1  0.85267338  0.31352926  0.13568031  1
  O  O89  1  0.14732662  0.46085588  0.36431969  1
  O  O90  1  0.46085588  0.31352926  0.63568031  1
  O  O91  1  0.53914412  0.68647074  0.36431969  1
  O  O92  1  0.53182940  0.69090796  0.75996978  1
  O  O93  1  0.46817060  0.30909204  0.24003022  1
  O  O94  1  0.15907856  0.46817060  0.75996978  1
  O  O95  1  0.84092144  0.30909204  0.74003022  1
  O  O96  1  0.84092144  0.53182940  0.24003022  1
  O  O97  1  0.15907856  0.69090796  0.25996978  1
  O  O98  1  0.30909204  0.84092144  0.75996978  1
  O  O99  1  0.69090796  0.53182940  0.74003022  1
  O  O100  1  0.69090796  0.15907856  0.24003022  1
  O  O101  1  0.30909204  0.46817060  0.25996978  1
  O  O102  1  0.46817060  0.15907856  0.74003022  1
  O  O103  1  0.53182940  0.84092144  0.25996978  1
