# generated using pymatgen
data_Ag3Mo3AsO13
_symmetry_space_group_name_H-M   'P 1'
_cell_length_a   8.18517680
_cell_length_b   8.36960224
_cell_length_c   9.86523896
_cell_angle_alpha   113.87092126
_cell_angle_beta   99.02782775
_cell_angle_gamma   105.65107600
_symmetry_Int_Tables_number   1
_chemical_formula_structural   Ag3Mo3AsO13
_chemical_formula_sum   'Ag6 Mo6 As2 O26'
_cell_volume   567.28748118
_cell_formula_units_Z   2
loop_
 _symmetry_equiv_pos_site_id
 _symmetry_equiv_pos_as_xyz
  1  'x, y, z'
loop_
 _atom_site_type_symbol
 _atom_site_label
 _atom_site_symmetry_multiplicity
 _atom_site_fract_x
 _atom_site_fract_y
 _atom_site_fract_z
 _atom_site_occupancy
  Ag  Ag0  1  0.39146858  0.65401810  0.41994099  1
  Ag  Ag1  1  0.60853142  0.34598190  0.58005901  1
  Ag  Ag2  1  0.08965759  0.34905140  0.55829855  1
  Ag  Ag3  1  0.91034241  0.65094860  0.44170145  1
  Ag  Ag4  1  0.25641225  0.52973867  0.03525156  1
  Ag  Ag5  1  0.74358775  0.47026133  0.96474844  1
  Mo  Mo6  1  0.30198154  0.08893840  0.75595926  1
  Mo  Mo7  1  0.69801846  0.91106160  0.24404074  1
  Mo  Mo8  1  0.11666078  0.94338245  0.23233291  1
  Mo  Mo9  1  0.88333922  0.05661755  0.76766709  1
  Mo  Mo10  1  0.48695122  0.21025873  0.14170896  1
  Mo  Mo11  1  0.51304878  0.78974127  0.85829104  1
  As  As12  1  0.94684029  0.27668581  0.16865504  1
  As  As13  1  0.05315971  0.72331419  0.83134496  1
  O  O14  1  0.21798602  0.78824647  0.24288624  1
  O  O15  1  0.78201398  0.21175353  0.75711376  1
  O  O16  1  0.46146068  0.26208014  0.73676882  1
  O  O17  1  0.53853932  0.73791986  0.26323118  1
  O  O18  1  0.40936107  0.31620061  0.03077025  1
  O  O19  1  0.59063893  0.68379939  0.96922975  1
  O  O20  1  0.08085809  0.46058240  0.34581369  1
  O  O21  1  0.91914191  0.53941760  0.65418631  1
  O  O22  1  0.91464650  0.06675048  0.17673412  1
  O  O23  1  0.08535350  0.93324952  0.82326588  1
  O  O24  1  0.74800721  0.31533943  0.13055141  1
  O  O25  1  0.25199279  0.68466057  0.86944859  1
  O  O26  1  0.03010749  0.26832174  0.01800317  1
  O  O27  1  0.96989251  0.73167826  0.98199683  1
  O  O28  1  0.44156506  0.00830431  0.87692459  1
  O  O29  1  0.55843494  0.99169569  0.12307541  1
  O  O30  1  0.26240678  0.06636056  0.13684158  1
  O  O31  1  0.73759322  0.93363944  0.86315842  1
  O  O32  1  0.55802963  0.37587877  0.34075766  1
  O  O33  1  0.44197037  0.62412123  0.65924234  1
  O  O34  1  0.76497529  0.11135893  0.42442201  1
  O  O35  1  0.23502471  0.88864107  0.57557799  1
  O  O36  1  0.11293977  0.18728125  0.74755406  1
  O  O37  1  0.88706023  0.81271875  0.25244594  1
  O  O38  1  0.21013917  0.13951106  0.42021214  1
  O  O39  1  0.78986083  0.86048894  0.57978786  1
