# generated using pymatgen
data_BaGe(AsO4)2
_symmetry_space_group_name_H-M   'P 1'
_cell_length_a   4.99947553
_cell_length_b   4.99947553
_cell_length_c   7.95084005
_cell_angle_alpha   87.41760088
_cell_angle_beta   87.41760088
_cell_angle_gamma   65.22567249
_symmetry_Int_Tables_number   1
_chemical_formula_structural   BaGe(AsO4)2
_chemical_formula_sum   'Ba1 Ge1 As2 O8'
_cell_volume   180.18100058
_cell_formula_units_Z   1
loop_
 _symmetry_equiv_pos_site_id
 _symmetry_equiv_pos_as_xyz
  1  'x, y, z'
loop_
 _atom_site_type_symbol
 _atom_site_label
 _atom_site_symmetry_multiplicity
 _atom_site_fract_x
 _atom_site_fract_y
 _atom_site_fract_z
 _atom_site_occupancy
  Ba  Ba0  1  0.00000000  0.00000000  0.50000000  1
  Ge  Ge1  1  0.00000000  0.00000000  -0.00000000  1
  As  As2  1  0.36172567  0.36172567  0.80512262  1
  As  As3  1  0.63827433  0.63827433  0.19487738  1
  O  O4  1  0.30940216  0.30940216  0.60305028  1
  O  O5  1  0.69059784  0.69059784  0.39694972  1
  O  O6  1  0.74260727  0.22536388  0.82320136  1
  O  O7  1  0.25739273  0.77463612  0.17679864  1
  O  O8  1  0.77463612  0.25739273  0.17679864  1
  O  O9  1  0.22536388  0.74260727  0.82320136  1
  O  O10  1  0.22182998  0.22182998  0.96907566  1
  O  O11  1  0.77817002  0.77817002  0.03092434  1
