# generated using pymatgen
data_Ba2CaFe2CoF14
_symmetry_space_group_name_H-M   'P 1'
_cell_length_a   5.43278260
_cell_length_b   7.47302050
_cell_length_c   15.07457118
_cell_angle_alpha   91.19489981
_cell_angle_beta   90.00000000
_cell_angle_gamma   111.31487418
_symmetry_Int_Tables_number   1
_chemical_formula_structural   Ba2CaFe2CoF14
_chemical_formula_sum   'Ba4 Ca2 Fe4 Co2 F28'
_cell_volume   570.01025040
_cell_formula_units_Z   2
loop_
 _symmetry_equiv_pos_site_id
 _symmetry_equiv_pos_as_xyz
  1  'x, y, z'
loop_
 _atom_site_type_symbol
 _atom_site_label
 _atom_site_symmetry_multiplicity
 _atom_site_fract_x
 _atom_site_fract_y
 _atom_site_fract_z
 _atom_site_occupancy
  Ba  Ba0  1  0.64451754  0.38305269  0.61984285  1
  Ba  Ba1  1  0.35548246  0.61694731  0.38015715  1
  Ba  Ba2  1  0.26146485  0.61694731  0.88015715  1
  Ba  Ba3  1  0.73853515  0.38305269  0.11984285  1
  Ca  Ca4  1  0.94163030  -0.00000000  0.75000000  1
  Ca  Ca5  1  0.05836970  -0.00000000  0.25000000  1
  Fe  Fe6  1  0.61135627  0.23561109  0.87672379  1
  Fe  Fe7  1  0.38864373  0.76438891  0.12327621  1
  Fe  Fe8  1  0.37574518  0.76438891  0.62327621  1
  Fe  Fe9  1  0.62425482  0.23561109  0.37672379  1
  Co  Co10  1  -0.00000000  -0.00000000  -0.00000000  1
  Co  Co11  1  -0.00000000  -0.00000000  0.50000000  1
  F  F12  1  0.33947974  0.25088041  0.79705491  1
  F  F13  1  0.66052026  0.74911959  0.20294509  1
  F  F14  1  0.08859932  0.74911959  0.70294509  1
  F  F15  1  0.91140068  0.25088041  0.29705491  1
  F  F16  1  0.39497952  0.16429178  0.98407949  1
  F  F17  1  0.60502048  0.83570822  0.01592051  1
  F  F18  1  0.23068774  0.83570822  0.51592051  1
  F  F19  1  0.76931226  0.16429178  0.48407949  1
  F  F20  1  0.69356638  0.50033141  0.91412532  1
  F  F21  1  0.30643362  0.49966859  0.08587468  1
  F  F22  1  0.19323497  0.49966859  0.58587468  1
  F  F23  1  0.80676503  0.50033141  0.41412532  1
  F  F24  1  0.86221765  0.88805206  0.38120232  1
  F  F25  1  0.13778235  0.11194794  0.61879768  1
  F  F26  1  0.97416559  0.11194794  0.11879768  1
  F  F27  1  0.02583441  0.88805206  0.88120232  1
  F  F28  1  0.57744895  0.97803547  0.84178737  1
  F  F29  1  0.42255105  0.02196453  0.15821263  1
  F  F30  1  0.59941348  0.02196453  0.65821263  1
  F  F31  1  0.40058652  0.97803547  0.34178737  1
  F  F32  1  0.54737798  0.67635475  0.72163294  1
  F  F33  1  0.45262202  0.32364525  0.27836706  1
  F  F34  1  0.87102323  0.32364525  0.77836706  1
  F  F35  1  0.12897677  0.67635475  0.22163294  1
  F  F36  1  0.67092861  0.75021967  0.54798588  1
  F  F37  1  0.32907139  0.24978033  0.45201412  1
  F  F38  1  0.92070894  0.24978033  0.95201412  1
  F  F39  1  0.07929106  0.75021967  0.04798588  1
