# generated using pymatgen
data_Ba3TiO5
_symmetry_space_group_name_H-M   'P 1'
_cell_length_a   7.41747417
_cell_length_b   7.41747417
_cell_length_c   7.97121893
_cell_angle_alpha   117.72743793
_cell_angle_beta   117.72743793
_cell_angle_gamma   90.00000000
_symmetry_Int_Tables_number   1
_chemical_formula_structural   Ba3TiO5
_chemical_formula_sum   'Ba6 Ti2 O10'
_cell_volume   330.25504319
_cell_formula_units_Z   2
loop_
 _symmetry_equiv_pos_site_id
 _symmetry_equiv_pos_as_xyz
  1  'x, y, z'
loop_
 _atom_site_type_symbol
 _atom_site_label
 _atom_site_symmetry_multiplicity
 _atom_site_fract_x
 _atom_site_fract_y
 _atom_site_fract_z
 _atom_site_occupancy
  Ba  Ba0  1  0.25000000  0.25000000  0.50000000  1
  Ba  Ba1  1  0.75000000  0.75000000  0.50000000  1
  Ba  Ba2  1  0.68140335  0.18140335  0.00000000  1
  Ba  Ba3  1  0.31859665  0.81859665  0.00000000  1
  Ba  Ba4  1  0.81859665  0.68140335  0.00000000  1
  Ba  Ba5  1  0.18140335  0.31859665  0.00000000  1
  Ti  Ti6  1  0.25000000  0.75000000  0.50000000  1
  Ti  Ti7  1  0.75000000  0.25000000  0.50000000  1
  O  O8  1  0.29549679  0.79549679  0.31432288  1
  O  O9  1  0.70450321  0.20450321  0.68567712  1
  O  O10  1  0.01882609  0.51882609  0.31432288  1
  O  O11  1  0.51882609  0.29549679  0.31432288  1
  O  O12  1  0.20450321  0.98117391  0.68567712  1
  O  O13  1  0.98117391  0.48117391  0.68567712  1
  O  O14  1  0.48117391  0.70450321  0.68567712  1
  O  O15  1  0.79549679  0.01882609  0.31432288  1
  O  O16  1  0.00000000  0.00000000  0.00000000  1
  O  O17  1  0.50000000  0.50000000  0.00000000  1
