# generated using pymatgen
data_ZrTiCuS4
_symmetry_space_group_name_H-M   'P 1'
_cell_length_a   7.25169270
_cell_length_b   7.21115373
_cell_length_c   7.30357731
_cell_angle_alpha   90.00000000
_cell_angle_beta   59.76303666
_cell_angle_gamma   119.81524676
_symmetry_Int_Tables_number   1
_chemical_formula_structural   ZrTiCuS4
_chemical_formula_sum   'Zr2 Ti2 Cu2 S8'
_cell_volume   269.84589132
_cell_formula_units_Z   2
loop_
 _symmetry_equiv_pos_site_id
 _symmetry_equiv_pos_as_xyz
  1  'x, y, z'
loop_
 _atom_site_type_symbol
 _atom_site_label
 _atom_site_symmetry_multiplicity
 _atom_site_fract_x
 _atom_site_fract_y
 _atom_site_fract_z
 _atom_site_occupancy
  Zr  Zr0  1  -0.00000000  -0.00000000  0.50000000  1
  Zr  Zr1  1  -0.00000000  -0.00000000  0.00000000  1
  Ti  Ti2  1  0.50000000  0.50000000  0.00000000  1
  Ti  Ti3  1  0.50000000  -0.00000000  0.00000000  1
  Cu  Cu4  1  0.74518994  0.37259497  0.37740503  1
  Cu  Cu5  1  0.25481006  0.62740503  0.62259497  1
  S  S6  1  0.01644139  0.75762937  0.24177931  1
  S  S7  1  0.01644139  0.25881202  0.24177931  1
  S  S8  1  0.50383019  0.25191510  0.76206812  1
  S  S9  1  0.50383019  0.25191510  0.23410169  1
  S  S10  1  0.98355861  0.24237063  0.75822069  1
  S  S11  1  0.98355861  0.74118798  0.75822069  1
  S  S12  1  0.49616981  0.74808490  0.23793188  1
  S  S13  1  0.49616981  0.74808490  0.76589831  1
