# generated using pymatgen
data_AsPb2S3I
_symmetry_space_group_name_H-M   'P 1'
_cell_length_a   6.84606848
_cell_length_b   11.92286423
_cell_length_c   9.71653249
_cell_angle_alpha   90.00000000
_cell_angle_beta   90.00000000
_cell_angle_gamma   90.00000000
_symmetry_Int_Tables_number   1
_chemical_formula_structural   AsPb2S3I
_chemical_formula_sum   'As4 Pb8 S12 I4'
_cell_volume   793.10948674
_cell_formula_units_Z   4
loop_
 _symmetry_equiv_pos_site_id
 _symmetry_equiv_pos_as_xyz
  1  'x, y, z'
loop_
 _atom_site_type_symbol
 _atom_site_label
 _atom_site_symmetry_multiplicity
 _atom_site_fract_x
 _atom_site_fract_y
 _atom_site_fract_z
 _atom_site_occupancy
  As  As0  1  0.75000000  0.91960753  0.96523411  1
  As  As1  1  0.25000000  0.08039247  0.03476589  1
  As  As2  1  0.25000000  0.58039247  0.46523411  1
  As  As3  1  0.75000000  0.41960753  0.53476589  1
  Pb  Pb4  1  0.75000000  0.62526177  0.20627712  1
  Pb  Pb5  1  0.25000000  0.37473823  0.79372288  1
  Pb  Pb6  1  0.25000000  0.87473823  0.70627712  1
  Pb  Pb7  1  0.75000000  0.12526177  0.29372288  1
  Pb  Pb8  1  0.75000000  0.67824399  0.72271411  1
  Pb  Pb9  1  0.25000000  0.32175601  0.27728589  1
  Pb  Pb10  1  0.25000000  0.82175601  0.22271411  1
  Pb  Pb11  1  0.75000000  0.17824399  0.77728589  1
  S  S12  1  0.99515675  0.79511038  0.91862077  1
  S  S13  1  0.00484325  0.20488962  0.08137923  1
  S  S14  1  0.00484325  0.70488962  0.41862077  1
  S  S15  1  0.49515675  0.20488962  0.08137923  1
  S  S16  1  0.99515675  0.29511038  0.58137923  1
  S  S17  1  0.50484325  0.79511038  0.91862077  1
  S  S18  1  0.50484325  0.29511038  0.58137923  1
  S  S19  1  0.49515675  0.70488962  0.41862077  1
  S  S20  1  0.75000000  0.90239585  0.19670890  1
  S  S21  1  0.25000000  0.09760415  0.80329110  1
  S  S22  1  0.25000000  0.59760415  0.69670890  1
  S  S23  1  0.75000000  0.40239585  0.30329110  1
  I  I24  1  0.75000000  0.95337426  0.59888032  1
  I  I25  1  0.25000000  0.04662574  0.40111968  1
  I  I26  1  0.25000000  0.54662574  0.09888032  1
  I  I27  1  0.75000000  0.45337426  0.90111968  1
