# generated using pymatgen
data_Al2Te4O11
_symmetry_space_group_name_H-M   'P 1'
_cell_length_a   6.94876052
_cell_length_b   7.62873694
_cell_length_c   9.67766078
_cell_angle_alpha   90.00000000
_cell_angle_beta   99.97461331
_cell_angle_gamma   90.00000000
_symmetry_Int_Tables_number   1
_chemical_formula_structural   Al2Te4O11
_chemical_formula_sum   'Al4 Te8 O22'
_cell_volume   505.26093855
_cell_formula_units_Z   2
loop_
 _symmetry_equiv_pos_site_id
 _symmetry_equiv_pos_as_xyz
  1  'x, y, z'
loop_
 _atom_site_type_symbol
 _atom_site_label
 _atom_site_symmetry_multiplicity
 _atom_site_fract_x
 _atom_site_fract_y
 _atom_site_fract_z
 _atom_site_occupancy
  Al  Al0  1  0.18174366  0.50302359  0.11471539  1
  Al  Al1  1  0.81825634  0.49697641  0.88528461  1
  Al  Al2  1  0.81825634  0.00302359  0.38528461  1
  Al  Al3  1  0.18174366  0.99697641  0.61471539  1
  Te  Te4  1  0.64536596  0.35983259  0.17711450  1
  Te  Te5  1  0.35463404  0.64016741  0.82288550  1
  Te  Te6  1  0.35463404  0.85983259  0.32288550  1
  Te  Te7  1  0.64536596  0.14016741  0.67711450  1
  Te  Te8  1  0.17583871  0.35609578  0.41390844  1
  Te  Te9  1  0.82416129  0.64390422  0.58609156  1
  Te  Te10  1  0.82416129  0.85609578  0.08609156  1
  Te  Te11  1  0.17583871  0.14390422  0.91390844  1
  O  O12  1  0.33522862  0.64494145  0.01587019  1
  O  O13  1  0.66477138  0.35505855  0.98412981  1
  O  O14  1  0.66477138  0.14494145  0.48412981  1
  O  O15  1  0.33522862  0.85505855  0.51587019  1
  O  O16  1  0.05754746  0.13485861  0.45117789  1
  O  O17  1  0.94245254  0.86514139  0.54882211  1
  O  O18  1  0.94245254  0.63485861  0.04882211  1
  O  O19  1  0.05754746  0.36514139  0.95117789  1
  O  O20  1  0.70823876  0.12014924  0.21568139  1
  O  O21  1  0.29176124  0.87985076  0.78431861  1
  O  O22  1  0.29176124  0.62014924  0.28431861  1
  O  O23  1  0.70823876  0.37985076  0.71568139  1
  O  O24  1  -0.00000000  0.00000000  0.00000000  1
  O  O25  1  0.00000000  0.50000000  0.50000000  1
  O  O26  1  0.03067920  0.37386357  0.23123611  1
  O  O27  1  0.96932080  0.62613643  0.76876389  1
  O  O28  1  0.96932080  0.87386357  0.26876389  1
  O  O29  1  0.03067920  0.12613643  0.73123611  1
  O  O30  1  0.36900225  0.31737658  0.15144536  1
  O  O31  1  0.63099775  0.68262342  0.84855464  1
  O  O32  1  0.63099775  0.81737658  0.34855464  1
  O  O33  1  0.36900225  0.18262342  0.65144536  1
