# generated using pymatgen
data_Ba3Er(BO2)9
_symmetry_space_group_name_H-M   'P 1'
_cell_length_a   7.27135781
_cell_length_b   7.27135780
_cell_length_c   17.42291737
_cell_angle_alpha   90.00000000
_cell_angle_beta   90.00000000
_cell_angle_gamma   120.00000124
_symmetry_Int_Tables_number   1
_chemical_formula_structural   Ba3Er(BO2)9
_chemical_formula_sum   'Ba6 Er2 B18 O36'
_cell_volume   797.77887991
_cell_formula_units_Z   2
loop_
 _symmetry_equiv_pos_site_id
 _symmetry_equiv_pos_as_xyz
  1  'x, y, z'
loop_
 _atom_site_type_symbol
 _atom_site_label
 _atom_site_symmetry_multiplicity
 _atom_site_fract_x
 _atom_site_fract_y
 _atom_site_fract_z
 _atom_site_occupancy
  Ba  Ba0  1  0.66666700  0.33333300  0.86784896  1
  Ba  Ba1  1  0.33333300  0.66666700  0.13215104  1
  Ba  Ba2  1  0.33333300  0.66666700  0.36784896  1
  Ba  Ba3  1  0.66666700  0.33333300  0.63215104  1
  Ba  Ba4  1  0.00000000  0.00000000  0.75000000  1
  Ba  Ba5  1  0.00000000  0.00000000  0.25000000  1
  Er  Er6  1  0.00000000  0.00000000  -0.00000000  1
  Er  Er7  1  0.00000000  0.00000000  0.50000000  1
  B  B8  1  0.55067184  0.83460005  0.91843905  1
  B  B9  1  0.44932816  0.16539995  0.08156095  1
  B  B10  1  0.28392821  0.44932816  0.91843905  1
  B  B11  1  0.44932816  0.16539995  0.41843905  1
  B  B12  1  0.71607179  0.55067184  0.08156095  1
  B  B13  1  0.55067184  0.83460005  0.58156095  1
  B  B14  1  0.16539995  0.71607179  0.91843905  1
  B  B15  1  0.71607179  0.55067184  0.41843905  1
  B  B16  1  0.83460005  0.28392821  0.08156095  1
  B  B17  1  0.28392821  0.44932816  0.58156095  1
  B  B18  1  0.83460005  0.28392821  0.41843905  1
  B  B19  1  0.16539995  0.71607179  0.58156095  1
  B  B20  1  0.50480360  0.62215388  0.75000000  1
  B  B21  1  0.49519640  0.37784612  0.25000000  1
  B  B22  1  0.11735029  0.49519640  0.75000000  1
  B  B23  1  0.88264971  0.50480360  0.25000000  1
  B  B24  1  0.37784612  0.88264971  0.75000000  1
  B  B25  1  0.62215388  0.11735029  0.25000000  1
  O  O26  1  0.54195977  0.83296593  0.75000000  1
  O  O27  1  0.45804023  0.16703407  0.25000000  1
  O  O28  1  0.29100616  0.45804023  0.75000000  1
  O  O29  1  0.70899384  0.54195977  0.25000000  1
  O  O30  1  0.16703407  0.70899384  0.75000000  1
  O  O31  1  0.83296593  0.29100616  0.25000000  1
  O  O32  1  0.91983365  0.33277209  0.75000000  1
  O  O33  1  0.08016635  0.66722791  0.25000000  1
  O  O34  1  0.41293845  0.08016635  0.75000000  1
  O  O35  1  0.58706155  0.91983365  0.25000000  1
  O  O36  1  0.66722791  0.58706155  0.75000000  1
  O  O37  1  0.33277209  0.41293845  0.25000000  1
  O  O38  1  0.75074801  0.99430733  0.91987528  1
  O  O39  1  0.24925199  0.00569267  0.08012472  1
  O  O40  1  0.24355932  0.24925199  0.91987528  1
  O  O41  1  0.24925199  0.00569267  0.41987528  1
  O  O42  1  0.75644068  0.75074801  0.08012472  1
  O  O43  1  0.75074801  0.99430733  0.58012472  1
  O  O44  1  0.00569267  0.75644068  0.91987528  1
  O  O45  1  0.75644068  0.75074801  0.41987528  1
  O  O46  1  0.99430733  0.24355932  0.08012472  1
  O  O47  1  0.24355932  0.24925199  0.58012472  1
  O  O48  1  0.99430733  0.24355932  0.41987528  1
  O  O49  1  0.00569267  0.75644068  0.58012472  1
  O  O50  1  0.49607311  0.61910930  0.91802724  1
  O  O51  1  0.50392689  0.38089070  0.08197276  1
  O  O52  1  0.12303619  0.50392689  0.91802724  1
  O  O53  1  0.50392689  0.38089070  0.41802724  1
  O  O54  1  0.87696381  0.49607311  0.08197276  1
  O  O55  1  0.49607311  0.61910930  0.58197276  1
  O  O56  1  0.38089070  0.87696381  0.91802724  1
  O  O57  1  0.87696381  0.49607311  0.41802724  1
  O  O58  1  0.61910930  0.12303619  0.08197276  1
  O  O59  1  0.12303619  0.50392689  0.58197276  1
  O  O60  1  0.61910930  0.12303619  0.41802724  1
  O  O61  1  0.38089070  0.87696381  0.58197276  1
