# generated using pymatgen
data_Zn5SeS4
_symmetry_space_group_name_H-M   'P 1'
_cell_length_a   3.89215197
_cell_length_b   3.89215197
_cell_length_c   14.02683280
_cell_angle_alpha   97.97491400
_cell_angle_beta   82.02508600
_cell_angle_gamma   90.00000000
_symmetry_Int_Tables_number   1
_chemical_formula_structural   Zn5SeS4
_chemical_formula_sum   'Zn5 Se1 S4'
_cell_volume   208.36004883
_cell_formula_units_Z   1
loop_
 _symmetry_equiv_pos_site_id
 _symmetry_equiv_pos_as_xyz
  1  'x, y, z'
loop_
 _atom_site_type_symbol
 _atom_site_label
 _atom_site_symmetry_multiplicity
 _atom_site_fract_x
 _atom_site_fract_y
 _atom_site_fract_z
 _atom_site_occupancy
  Zn  Zn0  1  0.00347854  0.99652146  0.99304291  1
  Zn  Zn1  1  0.39652146  0.60347854  0.20695709  1
  Zn  Zn2  1  0.79919114  0.20080886  0.40161771  1
  Zn  Zn3  1  0.20000000  0.80000000  0.60000000  1
  Zn  Zn4  1  0.60080886  0.39919114  0.79838229  1
  Se  Se5  1  0.45000000  0.05000000  0.10000000  1
  S  S6  1  0.84807999  0.65192001  0.30384002  1
  S  S7  1  0.24974744  0.25025256  0.50050511  1
  S  S8  1  0.65025256  0.84974744  0.69949489  1
  S  S9  1  0.05192001  0.44807999  0.89615998  1
