# generated using pymatgen
data_Zn11SbRu3
_symmetry_space_group_name_H-M   'P 1'
_cell_length_a   5.26270755
_cell_length_b   5.26270755
_cell_length_c   16.96519573
_cell_angle_alpha   90.00000000
_cell_angle_beta   90.00000000
_cell_angle_gamma   98.01242898
_symmetry_Int_Tables_number   1
_chemical_formula_structural   Zn11SbRu3
_chemical_formula_sum   'Zn22 Sb2 Ru6'
_cell_volume   465.28266595
_cell_formula_units_Z   2
loop_
 _symmetry_equiv_pos_site_id
 _symmetry_equiv_pos_as_xyz
  1  'x, y, z'
loop_
 _atom_site_type_symbol
 _atom_site_label
 _atom_site_symmetry_multiplicity
 _atom_site_fract_x
 _atom_site_fract_y
 _atom_site_fract_z
 _atom_site_occupancy
  Zn  Zn0  1  0.87234476  0.88081385  0.16479061  1
  Zn  Zn1  1  0.11918615  0.12765524  0.83520939  1
  Zn  Zn2  1  0.87234476  0.88081385  0.33520939  1
  Zn  Zn3  1  0.11918615  0.12765524  0.66479061  1
  Zn  Zn4  1  0.49704805  0.50295195  -0.00000000  1
  Zn  Zn5  1  0.49704805  0.50295195  0.50000000  1
  Zn  Zn6  1  0.72576938  0.32867888  0.12300206  1
  Zn  Zn7  1  0.67132112  0.27423062  0.87699794  1
  Zn  Zn8  1  0.72576938  0.32867888  0.37699794  1
  Zn  Zn9  1  0.67132112  0.27423062  0.62300206  1
  Zn  Zn10  1  0.24752755  0.65798736  0.87341860  1
  Zn  Zn11  1  0.34201264  0.75247245  0.12658140  1
  Zn  Zn12  1  0.24752755  0.65798736  0.62658140  1
  Zn  Zn13  1  0.34201264  0.75247245  0.37341860  1
  Zn  Zn14  1  0.99958649  0.00041351  -0.00000000  1
  Zn  Zn15  1  0.99958649  0.00041351  0.50000000  1
  Zn  Zn16  1  0.00161524  0.50189995  0.00110290  1
  Zn  Zn17  1  0.49810005  0.99838476  0.99889710  1
  Zn  Zn18  1  0.00161524  0.50189995  0.49889710  1
  Zn  Zn19  1  0.49810005  0.99838476  0.50110290  1
  Zn  Zn20  1  0.95490636  0.56815857  0.75000000  1
  Zn  Zn21  1  0.43184143  0.04509364  0.25000000  1
  Sb  Sb22  1  0.06975840  0.41071021  0.25000000  1
  Sb  Sb23  1  0.58928979  0.93024160  0.75000000  1
  Ru  Ru24  1  0.23052174  0.23667433  0.11136656  1
  Ru  Ru25  1  0.76332567  0.76947826  0.88863344  1
  Ru  Ru26  1  0.23052174  0.23667433  0.38863344  1
  Ru  Ru27  1  0.76332567  0.76947826  0.61136656  1
  Ru  Ru28  1  0.57943686  0.56195052  0.25000000  1
  Ru  Ru29  1  0.43804948  0.42056314  0.75000000  1
