# generated using pymatgen
data_YMgAlGe2
_symmetry_space_group_name_H-M   'P 1'
_cell_length_a   4.31000206
_cell_length_b   4.31272098
_cell_length_c   6.88346429
_cell_angle_alpha   90.00000000
_cell_angle_beta   90.00287020
_cell_angle_gamma   120.02086678
_symmetry_Int_Tables_number   1
_chemical_formula_structural   YMgAlGe2
_chemical_formula_sum   'Y1 Mg1 Al1 Ge2'
_cell_volume   110.78352470
_cell_formula_units_Z   1
loop_
 _symmetry_equiv_pos_site_id
 _symmetry_equiv_pos_as_xyz
  1  'x, y, z'
loop_
 _atom_site_type_symbol
 _atom_site_label
 _atom_site_symmetry_multiplicity
 _atom_site_fract_x
 _atom_site_fract_y
 _atom_site_fract_z
 _atom_site_occupancy
  Y  Y0  1  0.00002569  0.00001284  0.00587444  1
  Mg  Mg1  1  0.66653409  0.33326704  0.36082725  1
  Al  Al2  1  0.33340187  0.66670094  0.62965139  1
  Ge  Ge3  1  0.33336921  0.66668461  0.24437349  1
  Ge  Ge4  1  0.66666914  0.33333457  0.75927344  1
