# generated using pymatgen
data_YSc(BO3)2
_symmetry_space_group_name_H-M   'P 1'
_cell_length_a   4.91051812
_cell_length_b   4.91051812
_cell_length_c   6.07512338
_cell_angle_alpha   66.16215213
_cell_angle_beta   66.16215216
_cell_angle_gamma   60.00000259
_symmetry_Int_Tables_number   1
_chemical_formula_structural   YSc(BO3)2
_chemical_formula_sum   'Y1 Sc1 B2 O6'
_cell_volume   112.20291330
_cell_formula_units_Z   1
loop_
 _symmetry_equiv_pos_site_id
 _symmetry_equiv_pos_as_xyz
  1  'x, y, z'
loop_
 _atom_site_type_symbol
 _atom_site_label
 _atom_site_symmetry_multiplicity
 _atom_site_fract_x
 _atom_site_fract_y
 _atom_site_fract_z
 _atom_site_occupancy
  Y  Y0  1  0.50000000  0.50000000  0.50000000  1
  Sc  Sc1  1  -0.00000000  0.00000000  0.00000000  1
  B  B2  1  0.74499273  0.74499273  0.76502181  1
  B  B3  1  0.25500727  0.25500727  0.23497819  1
  O  O4  1  0.01845317  0.45412012  0.76096978  1
  O  O5  1  0.45412012  0.76645693  0.76096978  1
  O  O6  1  0.76645693  0.01845317  0.76096978  1
  O  O7  1  0.54587988  0.23354307  0.23903022  1
  O  O8  1  0.23354307  0.98154683  0.23903022  1
  O  O9  1  0.98154683  0.54587988  0.23903022  1
