# generated using pymatgen
data_Y4TiSn3O14
_symmetry_space_group_name_H-M   'P 1'
_cell_length_a   7.35868772
_cell_length_b   7.35868772
_cell_length_c   7.39578389
_cell_angle_alpha   90.00000000
_cell_angle_beta   60.16578478
_cell_angle_gamma   120.00000000
_symmetry_Int_Tables_number   1
_chemical_formula_structural   Y4TiSn3O14
_chemical_formula_sum   'Y4 Ti1 Sn3 O14'
_cell_volume   283.89235604
_cell_formula_units_Z   1
loop_
 _symmetry_equiv_pos_site_id
 _symmetry_equiv_pos_as_xyz
  1  'x, y, z'
loop_
 _atom_site_type_symbol
 _atom_site_label
 _atom_site_symmetry_multiplicity
 _atom_site_fract_x
 _atom_site_fract_y
 _atom_site_fract_z
 _atom_site_occupancy
  Y  Y0  1  0.75000000  0.37500000  0.87500000  1
  Y  Y1  1  0.25000000  0.37500000  0.37500000  1
  Y  Y2  1  0.25000000  0.87500000  0.37500000  1
  Y  Y3  1  0.75000000  0.37500000  0.37500000  1
  Ti  Ti4  1  0.75000000  0.87500000  0.37500000  1
  Sn  Sn5  1  0.25000000  0.87500000  0.87500000  1
  Sn  Sn6  1  0.25000000  0.37500000  0.87500000  1
  Sn  Sn7  1  0.75000000  0.87500000  0.87500000  1
  O  O8  1  0.91098213  0.95549106  0.53841488  1
  O  O9  1  0.50609406  0.55060300  0.53841488  1
  O  O10  1  0.50609406  0.95549106  0.53841488  1
  O  O11  1  0.06593431  0.53296716  0.97084834  1
  O  O12  1  0.49618451  0.96321735  0.97084834  1
  O  O13  1  0.49618451  0.53296716  0.97084834  1
  O  O14  1  0.58901787  0.79450894  0.21158512  1
  O  O15  1  0.99390594  0.19939700  0.21158512  1
  O  O16  1  0.99390594  0.79450894  0.21158512  1
  O  O17  1  0.43406569  0.21703284  0.77915166  1
  O  O18  1  0.00381549  0.78678265  0.77915166  1
  O  O19  1  0.00381549  0.21703284  0.77915166  1
  O  O20  1  0.49814208  0.24907104  0.25278687  1
  O  O21  1  0.00185792  0.50092896  0.49721313  1
