# generated using pymatgen
data_Ho(CrSi)2
_symmetry_space_group_name_H-M   'P 1'
_cell_length_a   3.84000514
_cell_length_b   3.84000513
_cell_length_c   5.98763884
_cell_angle_alpha   108.70290710
_cell_angle_beta   108.70290715
_cell_angle_gamma   90.00000003
_symmetry_Int_Tables_number   1
_chemical_formula_structural   Ho(CrSi)2
_chemical_formula_sum   'Ho1 Cr2 Si2'
_cell_volume   78.69116443
_cell_formula_units_Z   1
loop_
 _symmetry_equiv_pos_site_id
 _symmetry_equiv_pos_as_xyz
  1  'x, y, z'
loop_
 _atom_site_type_symbol
 _atom_site_label
 _atom_site_symmetry_multiplicity
 _atom_site_fract_x
 _atom_site_fract_y
 _atom_site_fract_z
 _atom_site_occupancy
  Si  Si0  1  0.61490991  0.61490991  0.22981982  1
  Si  Si1  1  0.38509009  0.38509009  0.77018018  1
  Cr  Cr2  1  0.25000000  0.75000000  0.50000000  1
  Cr  Cr3  1  0.75000000  0.25000000  0.50000000  1
  Ho  Ho4  1  0.00000000  0.00000000  0.00000000  1
