# generated using pymatgen
data_Y6CoNi
_symmetry_space_group_name_H-M   'P 1'
_cell_length_a   6.25347845
_cell_length_b   6.81652589
_cell_length_c   9.41218629
_cell_angle_alpha   90.00000000
_cell_angle_beta   90.00000000
_cell_angle_gamma   90.00000000
_symmetry_Int_Tables_number   1
_chemical_formula_structural   Y6CoNi
_chemical_formula_sum   'Y12 Co2 Ni2'
_cell_volume   401.21324387
_cell_formula_units_Z   2
loop_
 _symmetry_equiv_pos_site_id
 _symmetry_equiv_pos_as_xyz
  1  'x, y, z'
loop_
 _atom_site_type_symbol
 _atom_site_label
 _atom_site_symmetry_multiplicity
 _atom_site_fract_x
 _atom_site_fract_y
 _atom_site_fract_z
 _atom_site_occupancy
  Y  Y0  1  0.32165844  0.67671729  0.06978772  1
  Y  Y1  1  0.17834156  0.17671729  0.43021228  1
  Y  Y2  1  0.67351896  0.32164901  0.56507838  1
  Y  Y3  1  0.82648104  0.82164901  0.93492162  1
  Y  Y4  1  0.67351896  0.32164901  0.93492162  1
  Y  Y5  1  0.82648104  0.82164901  0.56507838  1
  Y  Y6  1  0.32165844  0.67671729  0.43021228  1
  Y  Y7  1  0.17834156  0.17671729  0.06978772  1
  Y  Y8  1  0.86235269  0.54421088  0.25000000  1
  Y  Y9  1  0.63764731  0.04421088  0.25000000  1
  Y  Y10  1  0.14030319  0.46149256  0.75000000  1
  Y  Y11  1  0.35969681  0.96149256  0.75000000  1
  Co  Co12  1  0.04552779  0.88884384  0.25000000  1
  Co  Co13  1  0.45447221  0.38884384  0.25000000  1
  Ni  Ni14  1  0.94754219  0.10872014  0.75000000  1
  Ni  Ni15  1  0.55245781  0.60872014  0.75000000  1
