# generated using pymatgen
data_ZnCr4CdSe8
_symmetry_space_group_name_H-M   'P 1'
_cell_length_a   7.60712688
_cell_length_b   7.60712688
_cell_length_c   7.60712688
_cell_angle_alpha   90.00000000
_cell_angle_beta   60.00000000
_cell_angle_gamma   120.00000000
_symmetry_Int_Tables_number   1
_chemical_formula_structural   ZnCr4CdSe8
_chemical_formula_sum   'Zn1 Cr4 Cd1 Se8'
_cell_volume   311.27696366
_cell_formula_units_Z   1
loop_
 _symmetry_equiv_pos_site_id
 _symmetry_equiv_pos_as_xyz
  1  'x, y, z'
loop_
 _atom_site_type_symbol
 _atom_site_label
 _atom_site_symmetry_multiplicity
 _atom_site_fract_x
 _atom_site_fract_y
 _atom_site_fract_z
 _atom_site_occupancy
  Zn  Zn0  1  0.25000000  0.62500000  0.62500000  1
  Cr  Cr1  1  0.50026313  0.50039469  0.99986844  1
  Cr  Cr2  1  0.50026313  0.99986844  0.99986844  1
  Cr  Cr3  1  0.99973687  0.99986844  0.50039469  1
  Cr  Cr4  1  0.99973687  0.99986844  0.99986844  1
  Cd  Cd5  1  0.75000000  0.37500000  0.37500000  1
  Se  Se6  1  0.03113270  0.79669904  0.23443365  1
  Se  Se7  1  0.03113270  0.23443365  0.23443365  1
  Se  Se8  1  0.46886730  0.23443365  0.79669904  1
  Se  Se9  1  0.46886730  0.23443365  0.23443365  1
  Se  Se10  1  0.97835482  0.21753223  0.76082259  1
  Se  Se11  1  0.97835482  0.76082259  0.76082259  1
  Se  Se12  1  0.52164518  0.76082259  0.21753223  1
  Se  Se13  1  0.52164518  0.76082259  0.76082259  1
