# generated using pymatgen
data_V9InS12
_symmetry_space_group_name_H-M   'P 1'
_cell_length_a   9.73411138
_cell_length_b   9.73179555
_cell_length_c   9.73788062
_cell_angle_alpha   109.62374847
_cell_angle_beta   70.35843858
_cell_angle_gamma   70.41480618
_symmetry_Int_Tables_number   1
_chemical_formula_structural   V9InS12
_chemical_formula_sum   'V18 In2 S24'
_cell_volume   706.26568082
_cell_formula_units_Z   2
loop_
 _symmetry_equiv_pos_site_id
 _symmetry_equiv_pos_as_xyz
  1  'x, y, z'
loop_
 _atom_site_type_symbol
 _atom_site_label
 _atom_site_symmetry_multiplicity
 _atom_site_fract_x
 _atom_site_fract_y
 _atom_site_fract_z
 _atom_site_occupancy
  V  V0  1  0.62802680  0.99806377  0.88274878  1
  V  V1  1  0.29540907  0.32889593  0.21402094  1
  V  V2  1  0.96239055  0.66319699  0.54812489  1
  V  V3  1  0.45171350  0.03774426  0.66318416  1
  V  V4  1  0.11745644  0.37187177  0.99784850  1
  V  V5  1  0.78585447  0.70482181  0.32897421  1
  V  V6  1  0.67109563  0.21394998  0.70472587  1
  V  V7  1  0.33686009  0.54820174  0.03776916  1
  V  V8  1  0.00199034  0.88260545  0.37201482  1
  V  V9  1  0.03792393  0.33777107  0.45264606  1
  V  V10  1  0.70530620  0.66860323  0.78391822  1
  V  V11  1  0.37094345  0.00346901  0.11854111  1
  V  V12  1  0.21587656  0.29479523  0.66881850  1
  V  V13  1  0.88162050  0.62892174  0.00348184  1
  V  V14  1  0.54747853  0.96184519  0.33769279  1
  V  V15  1  0.99647391  0.11846426  0.62889684  1
  V  V16  1  0.66223737  0.45271702  0.96194113  1
  V  V17  1  0.33134266  0.78406155  0.29465218  1
  In  In18  1  0.16666700  0.83333300  0.83333300  1
  In  In19  1  0.66666700  0.33333300  0.33333300  1
  S  S20  1  0.74978573  0.91692485  0.58374645  1
  S  S21  1  0.41625605  0.25021939  0.91700427  1
  S  S22  1  0.08299418  0.58369948  0.25019883  1
  S  S23  1  0.58354727  0.74974215  0.08292055  1
  S  S24  1  0.25033882  0.08296752  0.41646817  1
  S  S25  1  0.91707795  0.41644661  0.74966173  1
  S  S26  1  0.11759558  0.82963381  0.53568498  1
  S  S27  1  0.78386333  0.16420443  0.87137352  1
  S  S28  1  0.45018742  0.49706945  0.20376742  1
  S  S29  1  0.79616939  0.54990360  0.49704042  1
  S  S30  1  0.46411879  0.88237870  0.82986408  1
  S  S31  1  0.12866302  0.21589468  0.16412260  1
  S  S32  1  0.83596439  0.87147225  0.21601322  1
  S  S33  1  0.50292411  0.20385497  0.54976322  1
  S  S34  1  0.17043431  0.53584285  0.88238968  1
  S  S35  1  0.21573742  0.83703319  0.13098202  1
  S  S36  1  0.88314558  0.16959755  0.46289958  1
  S  S37  1  0.54947067  0.50246157  0.79529248  1
  S  S38  1  0.53716361  0.11676340  0.16962658  1
  S  S39  1  0.20467098  0.45077132  0.50254340  1
  S  S40  1  0.86921421  0.78428830  0.83680292  1
  S  S41  1  0.49736961  0.79519375  0.45065278  1
  S  S42  1  0.16289869  0.13082415  0.78427732  1
  S  S43  1  0.83040889  0.46281203  0.11690378  1
