# generated using pymatgen
data_NdPH5CO7
_symmetry_space_group_name_H-M   'P 1'
_cell_length_a   6.71554488
_cell_length_b   7.10743630
_cell_length_c   7.90832272
_cell_angle_alpha   111.37548824
_cell_angle_beta   96.30031644
_cell_angle_gamma   89.87662635
_symmetry_Int_Tables_number   1
_chemical_formula_structural   NdPH5CO7
_chemical_formula_sum   'Nd2 P2 H10 C2 O14'
_cell_volume   349.08632816
_cell_formula_units_Z   2
loop_
 _symmetry_equiv_pos_site_id
 _symmetry_equiv_pos_as_xyz
  1  'x, y, z'
loop_
 _atom_site_type_symbol
 _atom_site_label
 _atom_site_symmetry_multiplicity
 _atom_site_fract_x
 _atom_site_fract_y
 _atom_site_fract_z
 _atom_site_occupancy
  Nd  Nd0  1  0.87029306  0.77748771  0.06577603  1
  Nd  Nd1  1  0.12970694  0.22251229  0.93422397  1
  P  P2  1  0.32488102  0.74810898  0.98197674  1
  P  P3  1  0.67511898  0.25189102  0.01802326  1
  H  H4  1  0.47509075  0.86984418  0.58618013  1
  H  H5  1  0.71665412  0.66720139  0.64166288  1
  H  H6  1  0.52815149  0.74534877  0.39091831  1
  H  H7  1  0.52490925  0.13015582  0.41381987  1
  H  H8  1  0.28334588  0.33279861  0.35833712  1
  H  H9  1  0.83109943  0.47700413  0.67293836  1
  H  H10  1  0.62915744  0.29264019  0.19710136  1
  H  H11  1  0.16890057  0.52299587  0.32706164  1
  H  H12  1  0.47184851  0.25465123  0.60908169  1
  H  H13  1  0.37084256  0.70735981  0.80289864  1
  C  C14  1  0.06280621  0.90909078  0.50172724  1
  C  C15  1  0.93719379  0.09090922  0.49827276  1
  O  O16  1  0.81876379  0.42518744  0.02459055  1
  O  O17  1  0.83693319  0.07577626  0.34896731  1
  O  O18  1  0.52211347  0.77220033  0.10534097  1
  O  O19  1  0.58318081  0.79570495  0.51990739  1
  O  O20  1  0.47788653  0.22779967  0.89465903  1
  O  O21  1  0.21451299  0.38410920  0.26667021  1
  O  O22  1  0.94458004  0.24206482  0.64772989  1
  O  O23  1  0.18123621  0.57481256  0.97540945  1
  O  O24  1  0.19768523  0.93975227  0.03660288  1
  O  O25  1  0.16306681  0.92422374  0.65103269  1
  O  O26  1  0.80231477  0.06024773  0.96339712  1
  O  O27  1  0.05541996  0.75793518  0.35227011  1
  O  O28  1  0.78548701  0.61589080  0.73332979  1
  O  O29  1  0.41681919  0.20429505  0.48009261  1
