# generated using pymatgen
data_V4ZnCu3O14
_symmetry_space_group_name_H-M   'P 1'
_cell_length_a   5.61740286
_cell_length_b   5.67487232
_cell_length_c   10.19747613
_cell_angle_alpha   104.04829360
_cell_angle_beta   103.28842149
_cell_angle_gamma   92.57424319
_symmetry_Int_Tables_number   1
_chemical_formula_structural   V4ZnCu3O14
_chemical_formula_sum   'V4 Zn1 Cu3 O14'
_cell_volume   305.15853312
_cell_formula_units_Z   1
loop_
 _symmetry_equiv_pos_site_id
 _symmetry_equiv_pos_as_xyz
  1  'x, y, z'
loop_
 _atom_site_type_symbol
 _atom_site_label
 _atom_site_symmetry_multiplicity
 _atom_site_fract_x
 _atom_site_fract_y
 _atom_site_fract_z
 _atom_site_occupancy
  V  V0  1  0.49281250  0.04537832  0.71208336  1
  V  V1  1  0.95548805  0.49857219  0.79023077  1
  V  V2  1  0.49892062  0.95659790  0.28616159  1
  V  V3  1  0.04614896  0.49698063  0.21041409  1
  Zn  Zn4  1  0.90904134  0.75881417  0.52079488  1
  Cu  Cu5  1  0.26505050  0.12192469  0.98707687  1
  Cu  Cu6  1  0.11795450  0.26439269  0.48603079  1
  Cu  Cu7  1  0.73802022  0.87833683  0.01412389  1
  O  O8  1  0.65345539  0.84209165  0.63003445  1
  O  O9  1  0.15572545  0.33474593  0.87239272  1
  O  O10  1  0.33532391  0.15590297  0.37098885  1
  O  O11  1  0.84493787  0.66172131  0.12893850  1
  O  O12  1  0.64837400  0.34488199  0.74913936  1
  O  O13  1  0.35004892  0.65162426  0.25109014  1
  O  O14  1  0.19886967  0.02875584  0.60028265  1
  O  O15  1  0.96116996  0.78750511  0.89675409  1
  O  O16  1  0.78638888  0.97387881  0.39284865  1
  O  O17  1  0.03903110  0.21026116  0.10150889  1
  O  O18  1  0.48467287  0.97996580  0.87174508  1
  O  O19  1  0.03045391  0.50954205  0.63309691  1
  O  O20  1  0.51348007  0.02053880  0.12557161  1
  O  O21  1  0.97463131  0.47758689  0.36869185  1
