# generated using pymatgen
data_Y2Fe17C2
_symmetry_space_group_name_H-M   'P 1'
_cell_length_a   6.46695843
_cell_length_b   6.46695843
_cell_length_c   6.49297650
_cell_angle_alpha   83.66986944
_cell_angle_beta   83.66986944
_cell_angle_gamma   83.23343603
_symmetry_Int_Tables_number   1
_chemical_formula_structural   Y2Fe17C2
_chemical_formula_sum   'Y2 Fe17 C2'
_cell_volume   266.70619416
_cell_formula_units_Z   1
loop_
 _symmetry_equiv_pos_site_id
 _symmetry_equiv_pos_as_xyz
  1  'x, y, z'
loop_
 _atom_site_type_symbol
 _atom_site_label
 _atom_site_symmetry_multiplicity
 _atom_site_fract_x
 _atom_site_fract_y
 _atom_site_fract_z
 _atom_site_occupancy
  Y  Y0  1  0.65480909  0.65480909  0.66219352  1
  Y  Y1  1  0.34519091  0.34519091  0.33780648  1
  Fe  Fe2  1  0.90395099  0.90395099  0.90395097  1
  Fe  Fe3  1  0.09604901  0.09604901  0.09604903  1
  Fe  Fe4  1  0.34368704  0.34368704  0.85170105  1
  Fe  Fe5  1  0.34370742  0.85138470  0.34207743  1
  Fe  Fe6  1  0.85138470  0.34370742  0.34207743  1
  Fe  Fe7  1  0.65631296  0.65631296  0.14829895  1
  Fe  Fe8  1  0.65629258  0.14861530  0.65792257  1
  Fe  Fe9  1  0.14861530  0.65629258  0.65792257  1
  Fe  Fe10  1  0.28865654  0.71134346  0.00000000  1
  Fe  Fe11  1  0.71467444  0.99951144  0.28524568  1
  Fe  Fe12  1  0.00048856  0.28532556  0.71475432  1
  Fe  Fe13  1  0.28532556  0.00048856  0.71475432  1
  Fe  Fe14  1  0.99951144  0.71467444  0.28524568  1
  Fe  Fe15  1  0.71134346  0.28865654  0.00000000  1
  Fe  Fe16  1  0.00000000  0.00000000  0.50000000  1
  Fe  Fe17  1  0.00000000  0.50000000  0.00000000  1
  Fe  Fe18  1  0.50000000  0.00000000  0.00000000  1
  C  C19  1  0.50000000  0.00000000  0.50000000  1
  C  C20  1  0.00000000  0.50000000  0.50000000  1
