# generated using pymatgen
data_V2ZnCuO7
_symmetry_space_group_name_H-M   'P 1'
_cell_length_a   5.64571460
_cell_length_b   5.64571460
_cell_length_c   10.23241405
_cell_angle_alpha   103.77253143
_cell_angle_beta   103.77253143
_cell_angle_gamma   94.00276603
_symmetry_Int_Tables_number   1
_chemical_formula_structural   V2ZnCuO7
_chemical_formula_sum   'V4 Zn2 Cu2 O14'
_cell_volume   304.88595280
_cell_formula_units_Z   2
loop_
 _symmetry_equiv_pos_site_id
 _symmetry_equiv_pos_as_xyz
  1  'x, y, z'
loop_
 _atom_site_type_symbol
 _atom_site_label
 _atom_site_symmetry_multiplicity
 _atom_site_fract_x
 _atom_site_fract_y
 _atom_site_fract_z
 _atom_site_occupancy
  V  V0  1  0.49845940  0.03086151  0.71044640  1
  V  V1  1  0.96913849  0.50154060  0.78955360  1
  V  V2  1  0.50335479  0.96828267  0.29215936  1
  V  V3  1  0.03171733  0.49664521  0.20784064  1
  Zn  Zn4  1  0.09767988  0.24625843  0.48024552  1
  Zn  Zn5  1  0.75374157  0.90232012  0.01975448  1
  Cu  Cu6  1  0.88473518  0.73898545  0.51562342  1
  Cu  Cu7  1  0.26101455  0.11526482  0.98437658  1
  O  O8  1  0.21056993  0.02584803  0.60468641  1
  O  O9  1  0.97415197  0.78943007  0.89531359  1
  O  O10  1  0.79980596  0.97131438  0.39901581  1
  O  O11  1  0.02868562  0.20019404  0.10098419  1
  O  O12  1  0.47612563  0.96752399  0.87027057  1
  O  O13  1  0.03247601  0.52387437  0.62972943  1
  O  O14  1  0.51510090  0.03864669  0.13565961  1
  O  O15  1  0.96135331  0.48489910  0.36434039  1
  O  O16  1  0.66795594  0.33204406  0.75000000  1
  O  O17  1  0.33209315  0.66790685  0.25000000  1
  O  O18  1  0.65017405  0.82757501  0.62286391  1
  O  O19  1  0.17242499  0.34982595  0.87713609  1
  O  O20  1  0.35541348  0.17617213  0.37733742  1
  O  O21  1  0.82382787  0.64458652  0.12266258  1
