# generated using pymatgen
data_TiCrAgS4
_symmetry_space_group_name_H-M   'P 1'
_cell_length_a   3.48848566
_cell_length_b   5.93466113
_cell_length_c   6.54156824
_cell_angle_alpha   91.46918655
_cell_angle_beta   89.99850151
_cell_angle_gamma   90.00094764
_symmetry_Int_Tables_number   1
_chemical_formula_structural   TiCrAgS4
_chemical_formula_sum   'Ti1 Cr1 Ag1 S4'
_cell_volume   135.38543648
_cell_formula_units_Z   1
loop_
 _symmetry_equiv_pos_site_id
 _symmetry_equiv_pos_as_xyz
  1  'x, y, z'
loop_
 _atom_site_type_symbol
 _atom_site_label
 _atom_site_symmetry_multiplicity
 _atom_site_fract_x
 _atom_site_fract_y
 _atom_site_fract_z
 _atom_site_occupancy
  Ti  Ti0  1  0.50000000  0.50000000  0.50000000  1
  Cr  Cr1  1  -0.00000000  0.00000000  0.50000000  1
  Ag  Ag2  1  -0.00000000  0.00000000  0.00000000  1
  S  S3  1  0.00000613  0.32929968  0.28608152  1
  S  S4  1  0.50000178  0.83262389  0.28886748  1
  S  S5  1  0.49999822  0.16737611  0.71113252  1
  S  S6  1  0.99999387  0.67070032  0.71391848  1
