# generated using pymatgen
data_V2Co9W
_symmetry_space_group_name_H-M   'P 1'
_cell_length_a   5.01438831
_cell_length_b   5.01438840
_cell_length_c   6.73741230
_cell_angle_alpha   68.15295119
_cell_angle_beta   111.84704605
_cell_angle_gamma   120.00000062
_symmetry_Int_Tables_number   1
_chemical_formula_structural   V2Co9W
_chemical_formula_sum   'V2 Co9 W1'
_cell_volume   132.47505058
_cell_formula_units_Z   1
loop_
 _symmetry_equiv_pos_site_id
 _symmetry_equiv_pos_as_xyz
  1  'x, y, z'
loop_
 _atom_site_type_symbol
 _atom_site_label
 _atom_site_symmetry_multiplicity
 _atom_site_fract_x
 _atom_site_fract_y
 _atom_site_fract_z
 _atom_site_occupancy
  V  V0  1  0.21808861  0.78191139  0.65426582  1
  V  V1  1  0.00026924  0.99973076  0.00080773  1
  Co  Co2  1  0.71840909  0.28159091  0.67083449  1
  Co  Co3  1  0.23401631  0.28159091  0.67083449  1
  Co  Co4  1  0.71840909  0.76598369  0.67083449  1
  Co  Co5  1  0.28159506  0.71840494  0.33236348  1
  Co  Co6  1  0.76917335  0.71840494  0.33236348  1
  Co  Co7  1  0.28159506  0.23082665  0.33236348  1
  Co  Co8  1  0.00271495  0.50247287  0.99776920  1
  Co  Co9  1  0.49752713  0.99728505  0.99776920  1
  Co  Co10  1  0.49752713  0.50247287  0.99776920  1
  W  W11  1  0.78067498  0.21932502  0.34202495  1
