# generated using pymatgen
data_Y3LuCr4O16
_symmetry_space_group_name_H-M   'P 1'
_cell_length_a   6.27925477
_cell_length_b   7.18197013
_cell_length_c   7.18197013
_cell_angle_alpha   90.00000000
_cell_angle_beta   90.00000000
_cell_angle_gamma   90.00000000
_symmetry_Int_Tables_number   1
_chemical_formula_structural   Y3LuCr4O16
_chemical_formula_sum   'Y3 Lu1 Cr4 O16'
_cell_volume   323.88832479
_cell_formula_units_Z   1
loop_
 _symmetry_equiv_pos_site_id
 _symmetry_equiv_pos_as_xyz
  1  'x, y, z'
loop_
 _atom_site_type_symbol
 _atom_site_label
 _atom_site_symmetry_multiplicity
 _atom_site_fract_x
 _atom_site_fract_y
 _atom_site_fract_z
 _atom_site_occupancy
  Y  Y0  1  0.25000000  -0.00000000  0.50000000  1
  Y  Y1  1  0.99979000  -0.00000000  -0.00000000  1
  Y  Y2  1  0.50021000  0.50000000  0.50000000  1
  Lu  Lu3  1  0.75000000  0.50000000  -0.00000000  1
  Cr  Cr4  1  0.75000000  -0.00000000  0.50000000  1
  Cr  Cr5  1  0.25000000  0.50000000  -0.00000000  1
  Cr  Cr6  1  0.50301138  0.00000000  -0.00000000  1
  Cr  Cr7  1  0.99698862  0.50000000  0.50000000  1
  O  O8  1  0.57547925  0.81535027  0.50000000  1
  O  O9  1  0.07145695  0.31836819  -0.00000000  1
  O  O10  1  0.57547925  0.18464973  0.50000000  1
  O  O11  1  0.07145695  0.68163181  -0.00000000  1
  O  O12  1  0.17432651  0.31641932  0.50000000  1
  O  O13  1  0.67453238  0.81201902  -0.00000000  1
  O  O14  1  0.67453238  0.18798098  -0.00000000  1
  O  O15  1  0.17432651  0.68358068  0.50000000  1
  O  O16  1  0.92452075  0.00000000  0.68464973  1
  O  O17  1  0.42854305  0.50000000  0.18163181  1
  O  O18  1  0.92452075  0.00000000  0.31535027  1
  O  O19  1  0.42854305  0.50000000  0.81836819  1
  O  O20  1  0.32567349  0.00000000  0.18358068  1
  O  O21  1  0.82546762  0.50000000  0.68798098  1
  O  O22  1  0.82546762  0.50000000  0.31201902  1
  O  O23  1  0.32567349  -0.00000000  0.81641932  1
