# generated using pymatgen
data_Tl(V3S4)2
_symmetry_space_group_name_H-M   'P 1'
_cell_length_a   3.23942239
_cell_length_b   9.23770330
_cell_length_c   9.23497485
_cell_angle_alpha   59.99545100
_cell_angle_beta   90.02132402
_cell_angle_gamma   90.00577215
_symmetry_Int_Tables_number   1
_chemical_formula_structural   Tl(V3S4)2
_chemical_formula_sum   'Tl1 V6 S8'
_cell_volume   239.31945006
_cell_formula_units_Z   1
loop_
 _symmetry_equiv_pos_site_id
 _symmetry_equiv_pos_as_xyz
  1  'x, y, z'
loop_
 _atom_site_type_symbol
 _atom_site_label
 _atom_site_symmetry_multiplicity
 _atom_site_fract_x
 _atom_site_fract_y
 _atom_site_fract_z
 _atom_site_occupancy
  Tl  Tl0  1  0.50000000  0.00000000  0.00000000  1
  V  V1  1  0.74814083  0.37387946  0.51025513  1
  V  V2  1  0.74841289  0.11590250  0.37387833  1
  V  V3  1  0.74815820  0.51022019  0.11600577  1
  V  V4  1  0.25185917  0.62612054  0.48974487  1
  V  V5  1  0.25158711  0.88409750  0.62612167  1
  V  V6  1  0.25184180  0.48977981  0.88399423  1
  S  S7  1  0.75115166  0.66660972  0.66668440  1
  S  S8  1  0.24884834  0.33339028  0.33331560  1
  S  S9  1  0.75346376  0.05223567  0.65116397  1
  S  S10  1  0.75346062  0.29645986  0.05234396  1
  S  S11  1  0.75354004  0.65142715  0.29655366  1
  S  S12  1  0.24653624  0.94776433  0.34883603  1
  S  S13  1  0.24653938  0.70354014  0.94765604  1
  S  S14  1  0.24645996  0.34857285  0.70344634  1
