# generated using pymatgen
data_U7Se12
_symmetry_space_group_name_H-M   'P 1'
_cell_length_a   3.92262108
_cell_length_b   11.49725265
_cell_length_c   11.49725265
_cell_angle_alpha   120.00000300
_cell_angle_beta   90.00000000
_cell_angle_gamma   90.00000000
_symmetry_Int_Tables_number   1
_chemical_formula_structural   U7Se12
_chemical_formula_sum   'U7 Se12'
_cell_volume   449.05044030
_cell_formula_units_Z   1
loop_
 _symmetry_equiv_pos_site_id
 _symmetry_equiv_pos_as_xyz
  1  'x, y, z'
loop_
 _atom_site_type_symbol
 _atom_site_label
 _atom_site_symmetry_multiplicity
 _atom_site_fract_x
 _atom_site_fract_y
 _atom_site_fract_z
 _atom_site_occupancy
  U  U0  1  0.75000000  -0.00000000  -0.00000000  1
  U  U1  1  0.75000000  0.42863212  0.28581901  1
  U  U2  1  0.75000000  0.71418099  0.14281311  1
  U  U3  1  0.75000000  0.85718689  0.57136788  1
  U  U4  1  0.25000000  0.55858592  0.70759217  1
  U  U5  1  0.25000000  0.29240783  0.85099375  1
  U  U6  1  0.25000000  0.14900625  0.44141408  1
  Se  Se7  1  0.75000000  0.25168616  0.00070482  1
  Se  Se8  1  0.75000000  0.99929518  0.25098134  1
  Se  Se9  1  0.75000000  0.74901866  0.74831384  1
  Se  Se10  1  0.25000000  0.78848881  0.99878056  1
  Se  Se11  1  0.25000000  0.00121944  0.78970825  1
  Se  Se12  1  0.25000000  0.21029175  0.21151119  1
  Se  Se13  1  0.75000000  0.14495260  0.63118974  1
  Se  Se14  1  0.75000000  0.36881026  0.51376286  1
  Se  Se15  1  0.75000000  0.48623714  0.85504740  1
  Se  Se16  1  0.25000000  0.85569189  0.38101361  1
  Se  Se17  1  0.25000000  0.61898639  0.47467828  1
  Se  Se18  1  0.25000000  0.52532172  0.14430811  1
