# generated using pymatgen
data_V32N3
_symmetry_space_group_name_H-M   'P 1'
_cell_length_a   2.98826544
_cell_length_b   8.65989508
_cell_length_c   17.37400891
_cell_angle_alpha   90.66189389
_cell_angle_beta   90.00000000
_cell_angle_gamma   90.00000000
_symmetry_Int_Tables_number   1
_chemical_formula_structural   V32N3
_chemical_formula_sum   'V32 N3'
_cell_volume   449.57573430
_cell_formula_units_Z   1
loop_
 _symmetry_equiv_pos_site_id
 _symmetry_equiv_pos_as_xyz
  1  'x, y, z'
loop_
 _atom_site_type_symbol
 _atom_site_label
 _atom_site_symmetry_multiplicity
 _atom_site_fract_x
 _atom_site_fract_y
 _atom_site_fract_z
 _atom_site_occupancy
  V  V0  1  0.50000000  0.88831679  0.05654748  1
  V  V1  1  0.50000000  0.88522563  0.55759132  1
  V  V2  1  0.50000000  0.11477437  0.44240868  1
  V  V3  1  0.50000000  0.11168321  0.94345252  1
  V  V4  1  -0.00000000  0.61552110  0.30881265  1
  V  V5  1  -0.00000000  0.61327185  0.80551595  1
  V  V6  1  -0.00000000  0.38672815  0.19448405  1
  V  V7  1  0.00000000  0.38447890  0.69118735  1
  V  V8  1  0.50000000  0.38476881  0.06318035  1
  V  V9  1  0.50000000  0.37609337  0.56129800  1
  V  V10  1  0.50000000  0.62390663  0.43870200  1
  V  V11  1  0.50000000  0.61523119  0.93681965  1
  V  V12  1  -0.00000000  0.11120895  0.31660169  1
  V  V13  1  -0.00000000  0.11349623  0.81164466  1
  V  V14  1  0.00000000  0.88650377  0.18835534  1
  V  V15  1  -0.00000000  0.88879105  0.68339831  1
  V  V16  1  0.50000000  0.12414449  0.19395435  1
  V  V17  1  0.50000000  0.12458933  0.68601941  1
  V  V18  1  0.50000000  0.87541067  0.31398059  1
  V  V19  1  0.50000000  0.87585551  0.80604565  1
  V  V20  1  0.00000000  0.62678007  0.05764668  1
  V  V21  1  0.00000000  0.63092918  0.55481847  1
  V  V22  1  -0.00000000  0.36907082  0.44518153  1
  V  V23  1  -0.00000000  0.37321993  0.94235332  1
  V  V24  1  0.50000000  0.34535926  0.32959901  1
  V  V25  1  0.50000000  0.34042282  0.82722611  1
  V  V26  1  0.50000000  0.65957718  0.17277389  1
  V  V27  1  0.50000000  0.65464074  0.67040099  1
  V  V28  1  -0.00000000  0.15867132  0.07947211  1
  V  V29  1  -0.00000000  0.12994430  0.56479953  1
  V  V30  1  -0.00000000  0.87005570  0.43520047  1
  V  V31  1  -0.00000000  0.84132868  0.92052789  1
  N  N32  1  0.50000000  0.50150109  0.25088244  1
  N  N33  1  0.50000000  0.49849891  0.74911756  1
  N  N34  1  -0.00000000  0.00000000  0.00000000  1
