# generated using pymatgen
data_Th3Fe33C4
_symmetry_space_group_name_H-M   'P 1'
_cell_length_a   6.51170960
_cell_length_b   7.87533103
_cell_length_c   21.76555471
_cell_angle_alpha   93.05526105
_cell_angle_beta   81.54102320
_cell_angle_gamma   114.46990536
_symmetry_Int_Tables_number   1
_chemical_formula_structural   Th3Fe33C4
_chemical_formula_sum   'Th6 Fe66 C8'
_cell_volume   1004.83414243
_cell_formula_units_Z   2
loop_
 _symmetry_equiv_pos_site_id
 _symmetry_equiv_pos_as_xyz
  1  'x, y, z'
loop_
 _atom_site_type_symbol
 _atom_site_label
 _atom_site_symmetry_multiplicity
 _atom_site_fract_x
 _atom_site_fract_y
 _atom_site_fract_z
 _atom_site_occupancy
  Th  Th0  1  0.95491435  0.74262761  0.08348032  1
  Th  Th1  1  0.29334980  0.74770428  0.41604080  1
  Th  Th2  1  0.62641798  0.74759799  0.74918665  1
  Th  Th3  1  0.37841865  0.25737239  0.24985268  1
  Th  Th4  1  0.70691502  0.25240201  0.58414635  1
  Th  Th5  1  0.03998420  0.25229572  0.91729320  1
  Fe  Fe6  1  0.50073331  0.50007302  0.00011679  1
  Fe  Fe7  1  0.83259969  0.49992698  0.33321621  1
  Fe  Fe8  1  0.16666700  0.50000000  0.66666700  1
  Fe  Fe9  1  0.16666700  0.50000000  0.16666700  1
  Fe  Fe10  1  0.49994065  0.50003369  0.49990514  1
  Fe  Fe11  1  0.83339235  0.49996631  0.83342786  1
  Fe  Fe12  1  0.50106643  0.00108520  0.00024985  1
  Fe  Fe13  1  0.83226657  0.99891480  0.33308315  1
  Fe  Fe14  1  0.16666700  0.00000000  0.66666700  1
  Fe  Fe15  1  0.66666700  0.00000000  0.16666700  1
  Fe  Fe16  1  0.99989282  0.00008890  0.49988311  1
  Fe  Fe17  1  0.33344018  -0.00008890  0.83344989  1
  Fe  Fe18  1  0.21089446  0.57461853  0.27622608  1
  Fe  Fe19  1  0.54647371  0.57785143  0.60977619  1
  Fe  Fe20  1  0.87998607  0.57842967  0.94306864  1
  Fe  Fe21  1  0.71838583  0.33311752  0.02690918  1
  Fe  Fe22  1  0.04803495  0.32894748  0.35929981  1
  Fe  Fe23  1  0.38014559  0.32936545  0.69257942  1
  Fe  Fe24  1  0.46826827  0.42473660  0.10916291  1
  Fe  Fe25  1  0.79455059  0.42236468  0.44151047  1
  Fe  Fe26  1  0.12774928  0.42248224  0.77489987  1
  Fe  Fe27  1  0.06281645  0.82362903  0.30668597  1
  Fe  Fe28  1  0.39603934  0.82413546  0.64069747  1
  Fe  Fe29  1  0.72961617  0.82366726  0.97413381  1
  Fe  Fe30  1  0.07363730  0.17804462  0.13987322  1
  Fe  Fe31  1  0.40959823  0.17666310  0.47304640  1
  Fe  Fe32  1  0.74261552  0.17648033  0.80645693  1
  Fe  Fe33  1  0.90496106  0.91567833  0.22442193  1
  Fe  Fe34  1  0.23795393  0.91969009  0.55884178  1
  Fe  Fe35  1  0.57125579  0.91908275  0.89236568  1
  Fe  Fe36  1  0.55212750  0.66751994  0.19340018  1
  Fe  Fe37  1  0.88169038  0.67220408  0.52822072  1
  Fe  Fe38  1  0.21512994  0.67223616  0.86137915  1
  Fe  Fe39  1  0.82229194  0.08416136  0.05795126  1
  Fe  Fe40  1  0.15641025  0.08351811  0.39072463  1
  Fe  Fe41  1  0.48964968  0.08388052  0.72423496  1
  Fe  Fe42  1  0.12243854  0.42538147  0.05710692  1
  Fe  Fe43  1  0.45334793  0.42157033  0.39026536  1
  Fe  Fe44  1  0.78685929  0.42214857  0.72355681  1
  Fe  Fe45  1  0.61494817  0.66688248  0.30642482  1
  Fe  Fe46  1  0.95318741  0.67063455  0.64075358  1
  Fe  Fe47  1  0.28529805  0.67105252  0.97403319  1
  Fe  Fe48  1  0.86506473  0.57526340  0.22417009  1
  Fe  Fe49  1  0.20558372  0.57751776  0.55843313  1
  Fe  Fe50  1  0.53878341  0.57763532  0.89182353  1
  Fe  Fe51  1  0.27051755  0.17637097  0.02664803  1
  Fe  Fe52  1  0.60371683  0.17633274  0.35919919  1
  Fe  Fe53  1  0.93729366  0.17586454  0.69263553  1
  Fe  Fe54  1  0.25969570  0.82195538  0.19345978  1
  Fe  Fe55  1  0.59071848  0.82351967  0.52687707  1
  Fe  Fe56  1  0.92373477  0.82333690  0.86028660  1
  Fe  Fe57  1  0.42837194  0.08432167  0.10891107  1
  Fe  Fe58  1  0.76207821  0.08091725  0.44096832  1
  Fe  Fe59  1  0.09537907  0.08030991  0.77449122  1
  Fe  Fe60  1  0.78120550  0.33248006  0.13993282  1
  Fe  Fe61  1  0.11820306  0.32776384  0.47195385  1
  Fe  Fe62  1  0.45164362  0.32779592  0.80511328  1
  Fe  Fe63  1  0.51104106  0.91583864  0.27538174  1
  Fe  Fe64  1  0.84368332  0.91611948  0.60909804  1
  Fe  Fe65  1  0.17692375  0.91648189  0.94260937  1
  Fe  Fe66  1  0.87691600  0.25322938  0.24995597  1
  Fe  Fe67  1  0.21178499  0.25166691  0.58388512  1
  Fe  Fe68  1  0.54437352  0.25140207  0.91726392  1
  Fe  Fe69  1  0.45641700  0.74677062  0.08337703  1
  Fe  Fe70  1  0.78896048  0.74859793  0.41607008  1
  Fe  Fe71  1  0.12154801  0.74833309  0.74944788  1
  C  C72  1  0.99959314  0.49973336  0.49995157  1
  C  C73  1  0.33373986  0.50026664  0.83338143  1
  C  C74  1  0.99949804  0.99943145  0.00038059  1
  C  C75  1  0.33383496  0.00056855  0.33295241  1
  C  C76  1  0.66666700  0.00000000  0.66666700  1
  C  C77  1  0.16666700  0.00000000  0.16666700  1
  C  C78  1  0.50014416  0.99997329  0.49993180  1
  C  C79  1  0.83318884  0.00002671  0.83340120  1
