# generated using pymatgen
data_USb2OF14
_symmetry_space_group_name_H-M   'P 1'
_cell_length_a   8.14249907
_cell_length_b   10.25893805
_cell_length_c   15.29805947
_cell_angle_alpha   90.00000000
_cell_angle_beta   90.00000000
_cell_angle_gamma   99.96214348
_symmetry_Int_Tables_number   1
_chemical_formula_structural   USb2OF14
_chemical_formula_sum   'U4 Sb8 O4 F56'
_cell_volume   1258.63101062
_cell_formula_units_Z   4
loop_
 _symmetry_equiv_pos_site_id
 _symmetry_equiv_pos_as_xyz
  1  'x, y, z'
loop_
 _atom_site_type_symbol
 _atom_site_label
 _atom_site_symmetry_multiplicity
 _atom_site_fract_x
 _atom_site_fract_y
 _atom_site_fract_z
 _atom_site_occupancy
  U  U0  1  0.77900934  0.30392573  0.64557948  1
  U  U1  1  0.22099066  0.19607427  0.14557948  1
  U  U2  1  0.22099066  0.69607427  0.35442052  1
  U  U3  1  0.77900934  0.80392573  0.85442052  1
  Sb  Sb4  1  0.15717604  0.29882465  0.45216280  1
  Sb  Sb5  1  0.84282396  0.20117535  0.95216280  1
  Sb  Sb6  1  0.84282396  0.70117535  0.54783720  1
  Sb  Sb7  1  0.15717604  0.79882465  0.04783720  1
  Sb  Sb8  1  0.38804934  0.48004501  0.76899805  1
  Sb  Sb9  1  0.61195066  0.01995499  0.26899805  1
  Sb  Sb10  1  0.61195066  0.51995499  0.23100195  1
  Sb  Sb11  1  0.38804934  0.98004501  0.73100195  1
  O  O12  1  0.90424725  0.39116552  0.72930963  1
  O  O13  1  0.09575275  0.10883448  0.22930963  1
  O  O14  1  0.09575275  0.60883448  0.27069037  1
  O  O15  1  0.90424725  0.89116552  0.77069037  1
  F  F16  1  0.02477582  0.33412561  0.55773260  1
  F  F17  1  0.97522418  0.16587439  0.05773260  1
  F  F18  1  0.97522418  0.66587439  0.44226740  1
  F  F19  1  0.02477582  0.83412561  0.94226740  1
  F  F20  1  0.79862661  0.50126422  0.56540076  1
  F  F21  1  0.20137339  0.99873578  0.06540076  1
  F  F22  1  0.20137339  0.49873578  0.43459924  1
  F  F23  1  0.79862661  0.00126422  0.93459924  1
  F  F24  1  0.11389947  0.11619100  0.47515248  1
  F  F25  1  0.88610053  0.38380900  0.97515248  1
  F  F26  1  0.88610053  0.88380900  0.52484752  1
  F  F27  1  0.11389947  0.61619100  0.02484752  1
  F  F28  1  0.21886935  0.54014790  0.83363910  1
  F  F29  1  0.78113065  0.95985210  0.33363910  1
  F  F30  1  0.78113065  0.45985210  0.16636090  1
  F  F31  1  0.21886935  0.04014790  0.66636090  1
  F  F32  1  0.54793719  0.14668381  0.70076755  1
  F  F33  1  0.45206281  0.35331619  0.20076755  1
  F  F34  1  0.45206281  0.85331619  0.29923245  1
  F  F35  1  0.54793719  0.64668381  0.79923245  1
  F  F36  1  0.95790133  0.30329057  0.39010261  1
  F  F37  1  0.04209867  0.19670943  0.89010261  1
  F  F38  1  0.04209867  0.69670943  0.60989739  1
  F  F39  1  0.95790133  0.80329057  0.10989739  1
  F  F40  1  0.58010391  0.42081173  0.70097508  1
  F  F41  1  0.41989609  0.07918827  0.20097508  1
  F  F42  1  0.41989609  0.57918827  0.29902492  1
  F  F43  1  0.58010391  0.92081173  0.79902492  1
  F  F44  1  0.34614921  0.56504112  0.66406504  1
  F  F45  1  0.65385079  0.93495888  0.16406504  1
  F  F46  1  0.65385079  0.43495888  0.33593496  1
  F  F47  1  0.34614921  0.06504112  0.83593496  1
  F  F48  1  0.35087850  0.33012046  0.52185661  1
  F  F49  1  0.64912150  0.16987954  0.02185661  1
  F  F50  1  0.64912150  0.66987954  0.47814339  1
  F  F51  1  0.35087850  0.83012046  0.97814339  1
  F  F52  1  0.25855682  0.31802255  0.73339220  1
  F  F53  1  0.74144318  0.18197745  0.23339220  1
  F  F54  1  0.74144318  0.68197745  0.26660780  1
  F  F55  1  0.25855682  0.81802255  0.76660780  1
  F  F56  1  0.27788058  0.28770639  0.34707397  1
  F  F57  1  0.72211942  0.21229361  0.84707397  1
  F  F58  1  0.72211942  0.71229361  0.65292603  1
  F  F59  1  0.27788058  0.78770639  0.15292603  1
  F  F60  1  0.87065938  0.13665796  0.66844381  1
  F  F61  1  0.12934062  0.36334204  0.16844381  1
  F  F62  1  0.12934062  0.86334204  0.33155619  1
  F  F63  1  0.87065938  0.63665796  0.83155619  1
  F  F64  1  0.47867745  0.40543522  0.86687401  1
  F  F65  1  0.52132255  0.09456478  0.36687401  1
  F  F66  1  0.52132255  0.59456478  0.13312599  1
  F  F67  1  0.47867745  0.90543522  0.63312599  1
  F  F68  1  0.66657638  0.22805313  0.53935388  1
  F  F69  1  0.33342362  0.27194687  0.03935388  1
  F  F70  1  0.33342362  0.77194687  0.46064612  1
  F  F71  1  0.66657638  0.72805313  0.96064612  1
