# generated using pymatgen
data_Ti(Nb2B3)4
_symmetry_space_group_name_H-M   'P 1'
_cell_length_a   3.14131264
_cell_length_b   3.32202414
_cell_length_c   21.28297377
_cell_angle_alpha   94.47615230
_cell_angle_beta   85.76779818
_cell_angle_gamma   90.00000000
_symmetry_Int_Tables_number   1
_chemical_formula_structural   Ti(Nb2B3)4
_chemical_formula_sum   'Ti1 Nb8 B12'
_cell_volume   220.81391310
_cell_formula_units_Z   1
loop_
 _symmetry_equiv_pos_site_id
 _symmetry_equiv_pos_as_xyz
  1  'x, y, z'
loop_
 _atom_site_type_symbol
 _atom_site_label
 _atom_site_symmetry_multiplicity
 _atom_site_fract_x
 _atom_site_fract_y
 _atom_site_fract_z
 _atom_site_occupancy
  Ti  Ti0  1  0.50000000  -0.00000000  -0.00000000  1
  Nb  Nb1  1  0.93911904  0.06088096  0.12176193  1
  Nb  Nb2  1  0.27169633  0.72830367  0.45660635  1
  Nb  Nb3  1  0.60446361  0.39553639  0.79107378  1
  Nb  Nb4  1  0.39553639  0.60446361  0.20892622  1
  Nb  Nb5  1  0.72830367  0.27169633  0.54339365  1
  Nb  Nb6  1  0.06088096  0.93911904  0.87823807  1
  Nb  Nb7  1  0.83355262  0.66644738  0.33289376  1
  Nb  Nb8  1  0.16644738  0.33355262  0.66710624  1
  B  B9  1  0.35501638  0.14498362  0.28996724  1
  B  B10  1  0.68803661  0.81196339  0.62392579  1
  B  B11  1  0.02058730  0.47941270  0.95882640  1
  B  B12  1  0.97941270  0.52058730  0.04117360  1
  B  B13  1  0.31196339  0.18803661  0.37607421  1
  B  B14  1  0.64498362  0.85501638  0.71003276  1
  B  B15  1  0.87758287  0.12241713  0.24483526  1
  B  B16  1  0.21065079  0.78934921  0.57869842  1
  B  B17  1  0.54292340  0.45707660  0.91415220  1
  B  B18  1  0.45707660  0.54292340  0.08584780  1
  B  B19  1  0.78934921  0.21065079  0.42130158  1
  B  B20  1  0.12241713  0.87758287  0.75516474  1
