# generated using pymatgen
data_Te4Mo(OF4)5
_symmetry_space_group_name_H-M   'P 1'
_cell_length_a   9.60532954
_cell_length_b   10.26657582
_cell_length_c   10.56441049
_cell_angle_alpha   71.65856632
_cell_angle_beta   88.12183858
_cell_angle_gamma   82.22697810
_symmetry_Int_Tables_number   1
_chemical_formula_structural   Te4Mo(OF4)5
_chemical_formula_sum   'Te8 Mo2 O10 F40'
_cell_volume   979.73276333
_cell_formula_units_Z   2
loop_
 _symmetry_equiv_pos_site_id
 _symmetry_equiv_pos_as_xyz
  1  'x, y, z'
loop_
 _atom_site_type_symbol
 _atom_site_label
 _atom_site_symmetry_multiplicity
 _atom_site_fract_x
 _atom_site_fract_y
 _atom_site_fract_z
 _atom_site_occupancy
  Te  Te0  1  0.32602090  0.45748901  0.80465216  1
  Te  Te1  1  0.67397910  0.54251099  0.19534784  1
  Te  Te2  1  0.20088025  0.81858721  0.31774864  1
  Te  Te3  1  0.79911975  0.18141279  0.68225136  1
  Te  Te4  1  0.19766541  0.30634757  0.32051411  1
  Te  Te5  1  0.80233459  0.69365243  0.67948589  1
  Te  Te6  1  0.33034943  0.96758222  0.80973434  1
  Te  Te7  1  0.66965057  0.03241778  0.19026566  1
  Mo  Mo8  1  0.22733141  0.15742450  0.05381649  1
  Mo  Mo9  1  0.77266859  0.84257550  0.94618351  1
  O  O10  1  0.28205817  0.24769510  0.17744763  1
  O  O11  1  0.71794183  0.75230490  0.82255237  1
  O  O12  1  0.34419642  0.26989864  0.92157500  1
  O  O13  1  0.65580358  0.73010136  0.07842500  1
  O  O14  1  0.17971861  0.00468039  0.20246573  1
  O  O15  1  0.82028139  0.99531961  0.79753427  1
  O  O16  1  0.06571779  0.24191320  0.00717122  1
  O  O17  1  0.93428221  0.75808680  0.99282878  1
  O  O18  1  0.24776682  0.02554388  0.95029485  1
  O  O19  1  0.75223318  0.97445612  0.04970515  1
  F  F20  1  0.22524893  0.51816943  0.93525572  1
  F  F21  1  0.77475107  0.48183057  0.06474428  1
  F  F22  1  0.49483898  0.48322664  0.87043471  1
  F  F23  1  0.50516102  0.51677336  0.12956529  1
  F  F24  1  0.09544471  0.86936618  0.45028540  1
  F  F25  1  0.90455529  0.13063382  0.54971460  1
  F  F26  1  0.03448958  0.79047789  0.24878546  1
  F  F27  1  0.96551042  0.20952211  0.75121454  1
  F  F28  1  0.42026677  0.91154718  0.67263453  1
  F  F29  1  0.57973323  0.08845282  0.32736547  1
  F  F30  1  0.16952922  0.49064815  0.21102906  1
  F  F31  1  0.83047078  0.50935185  0.78897094  1
  F  F32  1  0.01968116  0.28038812  0.27172598  1
  F  F33  1  0.98031884  0.71961188  0.72827402  1
  F  F34  1  0.30644904  0.64114909  0.69422320  1
  F  F35  1  0.69355096  0.35885091  0.30577680  1
  F  F36  1  0.36549528  0.84456707  0.39093252  1
  F  F37  1  0.63450472  0.15543293  0.60906748  1
  F  F38  1  0.31778207  0.15013737  0.69622097  1
  F  F39  1  0.68221793  0.84986263  0.30377903  1
  F  F40  1  0.42732507  0.40346471  0.67161332  1
  F  F41  1  0.57267493  0.59653529  0.32838668  1
  F  F42  1  0.51416236  0.97942603  0.86774533  1
  F  F43  1  0.48583764  0.02057397  0.13225467  1
  F  F44  1  0.11370846  0.36130236  0.46063173  1
  F  F45  1  0.88629154  0.63869764  0.53936827  1
  F  F46  1  0.22630329  0.12357460  0.43473475  1
  F  F47  1  0.77369671  0.87642540  0.56526525  1
  F  F48  1  0.15712092  0.94600510  0.74934152  1
  F  F49  1  0.84287908  0.05399490  0.25065848  1
  F  F50  1  0.22358253  0.63460945  0.42697341  1
  F  F51  1  0.77641747  0.36539055  0.57302659  1
  F  F52  1  0.35176015  0.78267538  0.91668253  1
  F  F53  1  0.64823985  0.21732462  0.08331747  1
  F  F54  1  0.15838633  0.43499858  0.73292092  1
  F  F55  1  0.84161367  0.56500142  0.26707908  1
  F  F56  1  0.30395929  0.76081290  0.18720323  1
  F  F57  1  0.69604071  0.23918710  0.81279677  1
  F  F58  1  0.37233424  0.33325982  0.37309996  1
  F  F59  1  0.62766576  0.66674018  0.62690004  1
