# generated using pymatgen
data_Tb9Al5Se21
_symmetry_space_group_name_H-M   'P 1'
_cell_length_a   12.01165187
_cell_length_b   12.01176436
_cell_length_c   12.01165683
_cell_angle_alpha   94.25250656
_cell_angle_beta   85.74906899
_cell_angle_gamma   85.74851491
_symmetry_Int_Tables_number   1
_chemical_formula_structural   Tb9Al5Se21
_chemical_formula_sum   'Tb18 Al10 Se42'
_cell_volume   1717.99573083
_cell_formula_units_Z   2
loop_
 _symmetry_equiv_pos_site_id
 _symmetry_equiv_pos_as_xyz
  1  'x, y, z'
loop_
 _atom_site_type_symbol
 _atom_site_label
 _atom_site_symmetry_multiplicity
 _atom_site_fract_x
 _atom_site_fract_y
 _atom_site_fract_z
 _atom_site_occupancy
  Tb  Tb0  1  0.26108190  0.11185839  0.88297859  1
  Tb  Tb1  1  0.92717292  0.45424896  0.22833589  1
  Tb  Tb2  1  0.60489880  0.76688948  0.55590811  1
  Tb  Tb3  1  0.44409412  0.39509820  0.76688778  1
  Tb  Tb4  1  0.11702239  0.73890399  0.11185747  1
  Tb  Tb5  1  0.77167259  0.07282027  0.45425102  1
  Tb  Tb6  1  0.54574817  0.22833218  0.07282524  1
  Tb  Tb7  1  0.23311764  0.55590171  0.39510463  1
  Tb  Tb8  1  0.88814062  0.88298429  0.73892127  1
  Tb  Tb9  1  0.41488394  0.21120197  0.43257745  1
  Tb  Tb10  1  0.06884156  0.54962970  0.77443729  1
  Tb  Tb11  1  0.75334997  0.87516743  0.09811690  1
  Tb  Tb12  1  0.22555837  0.93115242  0.54961586  1
  Tb  Tb13  1  0.90188233  0.24665257  0.87517100  1
  Tb  Tb14  1  0.56742452  0.58512668  0.21119848  1
  Tb  Tb15  1  0.12482657  0.09810254  0.24664420  1
  Tb  Tb16  1  0.78879299  0.43258598  0.58512421  1
  Tb  Tb17  1  0.45037419  0.77444473  0.93114985  1
  Al  Al18  1  0.95255512  0.72043041  0.38760563  1
  Al  Al19  1  0.61240287  0.04744347  0.72044920  1
  Al  Al20  1  0.27955444  0.38759191  0.04744292  1
  Al  Al21  1  0.45218311  0.88252398  0.22400899  1
  Al  Al22  1  0.11747436  0.22401502  0.54781783  1
  Al  Al23  1  0.77599419  0.54782724  0.88251803  1
  Al  Al24  1  0.14399180  0.85600208  0.85600133  1
  Al  Al25  1  0.82856688  0.17142952  0.17143932  1
  Al  Al26  1  0.32974273  0.67026003  0.67026330  1
  Al  Al27  1  0.64300346  0.35699932  0.35699316  1
  Se  Se28  1  0.82637504  0.84330513  0.51056507  1
  Se  Se29  1  0.48943503  0.17362560  0.84331011  1
  Se  Se30  1  0.15669230  0.51056115  0.17362634  1
  Se  Se31  1  0.65746182  0.67442713  0.00952722  1
  Se  Se32  1  0.32557424  0.00952875  0.34252931  1
  Se  Se33  1  0.99046566  0.34254212  0.67442276  1
  Se  Se34  1  0.99384720  0.53795749  0.44930853  1
  Se  Se35  1  0.64885792  0.86604957  0.78482504  1
  Se  Se36  1  0.30969060  0.20194426  0.10698409  1
  Se  Se37  1  0.89301584  0.69030392  0.20194771  1
  Se  Se38  1  0.55070897  0.00616355  0.53796193  1
  Se  Se39  1  0.21517314  0.35114121  0.86604184  1
  Se  Se40  1  0.13395514  0.78480859  0.35114392  1
  Se  Se41  1  0.79805380  0.10698457  0.69031342  1
  Se  Se42  1  0.46203610  0.44929040  0.00616139  1
  Se  Se43  1  0.52323495  0.96428390  0.06049078  1
  Se  Se44  1  0.18748798  0.29807244  0.38011312  1
  Se  Se45  1  0.84072877  0.62976272  0.71520054  1
  Se  Se46  1  0.61988678  0.81252230  0.29808093  1
  Se  Se47  1  0.28479393  0.15927147  0.62975211  1
  Se  Se48  1  0.93951433  0.47677145  0.96428006  1
  Se  Se49  1  0.37024528  0.71520752  0.15926778  1
  Se  Se50  1  0.03571033  0.06049494  0.47676430  1
  Se  Se51  1  0.70192246  0.38012096  0.81251958  1
  Se  Se52  1  0.69088169  0.55803991  0.41241481  1
  Se  Se53  1  0.33939304  0.89415040  0.75978741  1
  Se  Se54  1  0.00604138  0.23917395  0.09941500  1
  Se  Se55  1  0.90059415  0.99395151  0.23917272  1
  Se  Se56  1  0.58758491  0.30912421  0.55803325  1
  Se  Se57  1  0.24021319  0.66060619  0.89413584  1
  Se  Se58  1  0.10584417  0.75980464  0.66060576  1
  Se  Se59  1  0.76082550  0.09941044  0.99395681  1
  Se  Se60  1  0.44197403  0.41241064  0.30911627  1
  Se  Se61  1  0.61842534  0.14999685  0.28405277  1
  Se  Se62  1  0.27071164  0.48378516  0.61819898  1
  Se  Se63  1  0.95843952  0.79204944  0.94138913  1
  Se  Se64  1  0.38180103  0.72928619  0.48378364  1
  Se  Se65  1  0.05860955  0.04156246  0.79206487  1
  Se  Se66  1  0.71594171  0.38158534  0.14999461  1
  Se  Se67  1  0.20794250  0.94137494  0.04155764  1
  Se  Se68  1  0.85000093  0.28405787  0.38158204  1
  Se  Se69  1  0.51622159  0.61819821  0.72928964  1
