# generated using pymatgen
data_Te4As2S(OF6)2
_symmetry_space_group_name_H-M   'P 1'
_cell_length_a   9.18763934
_cell_length_b   10.11248926
_cell_length_c   18.82809693
_cell_angle_alpha   90.00000000
_cell_angle_beta   90.00000000
_cell_angle_gamma   90.00000000
_symmetry_Int_Tables_number   1
_chemical_formula_structural   Te4As2S(OF6)2
_chemical_formula_sum   'Te16 As8 S4 O8 F48'
_cell_volume   1749.31668110
_cell_formula_units_Z   4
loop_
 _symmetry_equiv_pos_site_id
 _symmetry_equiv_pos_as_xyz
  1  'x, y, z'
loop_
 _atom_site_type_symbol
 _atom_site_label
 _atom_site_symmetry_multiplicity
 _atom_site_fract_x
 _atom_site_fract_y
 _atom_site_fract_z
 _atom_site_occupancy
  Te  Te0  1  0.67886819  0.88448357  0.78914057  1
  Te  Te1  1  0.68585373  0.61671326  0.93298395  1
  Te  Te2  1  0.17886819  0.88448357  0.71085943  1
  Te  Te3  1  0.17886819  0.61551643  0.71085943  1
  Te  Te4  1  0.31414627  0.11671326  0.06701605  1
  Te  Te5  1  0.18585373  0.61671326  0.56701605  1
  Te  Te6  1  0.68585373  0.88328674  0.93298395  1
  Te  Te7  1  0.32113181  0.11551643  0.21085943  1
  Te  Te8  1  0.67886819  0.61551643  0.78914057  1
  Te  Te9  1  0.81414627  0.11671326  0.43298395  1
  Te  Te10  1  0.32113181  0.38448357  0.21085943  1
  Te  Te11  1  0.18585373  0.88328674  0.56701605  1
  Te  Te12  1  0.31414627  0.38328674  0.06701605  1
  Te  Te13  1  0.82113181  0.38448357  0.28914057  1
  Te  Te14  1  0.81414627  0.38328674  0.43298395  1
  Te  Te15  1  0.82113181  0.11551643  0.28914057  1
  As  As16  1  0.17597619  0.75000000  0.91889456  1
  As  As17  1  0.60803203  0.75000000  0.14487503  1
  As  As18  1  0.10803203  0.75000000  0.35512497  1
  As  As19  1  0.67597619  0.75000000  0.58110544  1
  As  As20  1  0.39196797  0.25000000  0.85512497  1
  As  As21  1  0.82402381  0.25000000  0.08110544  1
  As  As22  1  0.32402381  0.25000000  0.41889456  1
  As  As23  1  0.89196797  0.25000000  0.64487503  1
  S  S24  1  0.93047214  0.25000000  0.86251252  1
  S  S25  1  0.56952786  0.75000000  0.36251252  1
  S  S26  1  0.43047214  0.25000000  0.63748748  1
  S  S27  1  0.06952786  0.75000000  0.13748748  1
  O  O28  1  0.15154818  0.87257501  0.13985598  1
  O  O29  1  0.34845182  0.12742499  0.63985598  1
  O  O30  1  0.84845182  0.12742499  0.86014402  1
  O  O31  1  0.65154818  0.87257501  0.36014402  1
  O  O32  1  0.34845182  0.37257501  0.63985598  1
  O  O33  1  0.84845182  0.37257501  0.86014402  1
  O  O34  1  0.15154818  0.62742499  0.13985598  1
  O  O35  1  0.65154818  0.62742499  0.36014402  1
  F  F36  1  0.95976891  0.25000000  0.01390155  1
  F  F37  1  0.07817245  0.87317369  0.87109843  1
  F  F38  1  0.49395034  0.37396361  0.90013054  1
  F  F39  1  0.28807859  0.12590110  0.81276805  1
  F  F40  1  0.27446580  0.87405594  0.96449091  1
  F  F41  1  0.92182755  0.12682631  0.12890157  1
  F  F42  1  0.22553420  0.37405594  0.46449091  1
  F  F43  1  0.72553420  0.12594406  0.03550909  1
  F  F44  1  0.92182755  0.37317369  0.12890157  1
  F  F45  1  0.28807859  0.37409890  0.81276805  1
  F  F46  1  0.57817245  0.87317369  0.62890157  1
  F  F47  1  0.45976891  0.25000000  0.48609845  1
  F  F48  1  0.00604966  0.62603639  0.40013054  1
  F  F49  1  0.78807859  0.12590110  0.68723195  1
  F  F50  1  0.76542395  0.25000000  0.57155499  1
  F  F51  1  0.01924222  0.25000000  0.71559676  1
  F  F52  1  0.23457605  0.75000000  0.42844501  1
  F  F53  1  0.68962812  0.25000000  0.15024072  1
  F  F54  1  0.31037188  0.75000000  0.84975928  1
  F  F55  1  0.54023109  0.75000000  0.51390155  1
  F  F56  1  0.71192141  0.62590110  0.18723195  1
  F  F57  1  0.50604966  0.62603639  0.09986946  1
  F  F58  1  0.18962812  0.25000000  0.34975928  1
  F  F59  1  0.04023109  0.75000000  0.98609845  1
  F  F60  1  0.21192141  0.87409890  0.31276805  1
  F  F61  1  0.42182755  0.37317369  0.37109843  1
  F  F62  1  0.50604966  0.87396361  0.09986946  1
  F  F63  1  0.99395034  0.37396361  0.59986946  1
  F  F64  1  0.51924222  0.25000000  0.78440324  1
  F  F65  1  0.73457605  0.75000000  0.07155499  1
  F  F66  1  0.77446580  0.87405594  0.53550909  1
  F  F67  1  0.98075778  0.75000000  0.28440324  1
  F  F68  1  0.77446580  0.62594406  0.53550909  1
  F  F69  1  0.49395034  0.12603639  0.90013054  1
  F  F70  1  0.48075778  0.75000000  0.21559676  1
  F  F71  1  0.99395034  0.12603639  0.59986946  1
  F  F72  1  0.00604966  0.87396361  0.40013054  1
  F  F73  1  0.07817245  0.62682631  0.87109843  1
  F  F74  1  0.57817245  0.62682631  0.62890157  1
  F  F75  1  0.71192141  0.87409890  0.18723195  1
  F  F76  1  0.78807859  0.37409890  0.68723195  1
  F  F77  1  0.22553420  0.12594406  0.46449091  1
  F  F78  1  0.26542395  0.25000000  0.92844501  1
  F  F79  1  0.72553420  0.37405594  0.03550909  1
  F  F80  1  0.21192141  0.62590110  0.31276805  1
  F  F81  1  0.42182755  0.12682631  0.37109843  1
  F  F82  1  0.81037188  0.75000000  0.65024072  1
  F  F83  1  0.27446580  0.62594406  0.96449091  1
