# generated using pymatgen
data_Th5C4
_symmetry_space_group_name_H-M   'P 1'
_cell_length_a   3.76655579
_cell_length_b   3.76655579
_cell_length_c   15.58789827
_cell_angle_alpha   96.93923701
_cell_angle_beta   83.06076299
_cell_angle_gamma   120.00000000
_symmetry_Int_Tables_number   1
_chemical_formula_structural   Th5C4
_chemical_formula_sum   'Th5 C4'
_cell_volume   189.64402693
_cell_formula_units_Z   1
loop_
 _symmetry_equiv_pos_site_id
 _symmetry_equiv_pos_as_xyz
  1  'x, y, z'
loop_
 _atom_site_type_symbol
 _atom_site_label
 _atom_site_symmetry_multiplicity
 _atom_site_fract_x
 _atom_site_fract_y
 _atom_site_fract_z
 _atom_site_occupancy
  Th  Th0  1  0.40055888  0.59944112  0.79832336  1
  Th  Th1  1  0.19944112  0.80055888  0.40167664  1
  Th  Th2  1  0.80000000  0.20000000  0.60000000  1
  Th  Th3  1  0.00259947  0.99740053  0.99220158  1
  Th  Th4  1  0.59740053  0.40259947  0.20779842  1
  C  C5  1  0.90393302  0.09606698  0.28820094  1
  C  C6  1  0.50118098  0.49881902  0.49645706  1
  C  C7  1  0.09881902  0.90118098  0.70354294  1
  C  C8  1  0.69606698  0.30393302  0.91179906  1
