# generated using pymatgen
data_Tb3Ni7P5
_symmetry_space_group_name_H-M   'P 1'
_cell_length_a   3.81640065
_cell_length_b   16.32704494
_cell_length_c   16.32995906
_cell_angle_alpha   119.94373131
_cell_angle_beta   90.00000000
_cell_angle_gamma   90.00000000
_symmetry_Int_Tables_number   1
_chemical_formula_structural   Tb3Ni7P5
_chemical_formula_sum   'Tb12 Ni28 P20'
_cell_volume   881.70487739
_cell_formula_units_Z   4
loop_
 _symmetry_equiv_pos_site_id
 _symmetry_equiv_pos_as_xyz
  1  'x, y, z'
loop_
 _atom_site_type_symbol
 _atom_site_label
 _atom_site_symmetry_multiplicity
 _atom_site_fract_x
 _atom_site_fract_y
 _atom_site_fract_z
 _atom_site_occupancy
  Tb  Tb0  1  0.75000000  0.87921668  0.64445250  1
  Tb  Tb1  1  0.75000000  0.35572324  0.23474695  1
  Tb  Tb2  1  0.75000000  0.76368161  0.12159451  1
  Tb  Tb3  1  0.25000000  0.12165871  0.35742534  1
  Tb  Tb4  1  0.25000000  0.64347601  0.76471575  1
  Tb  Tb5  1  0.25000000  0.23514072  0.87915741  1
  Tb  Tb6  1  0.75000000  0.61589290  0.43991596  1
  Tb  Tb7  1  0.75000000  0.55993107  0.17573977  1
  Tb  Tb8  1  0.75000000  0.82437476  0.38408151  1
  Tb  Tb9  1  0.25000000  0.38370159  0.55945064  1
  Tb  Tb10  1  0.25000000  0.44048447  0.82447876  1
  Tb  Tb11  1  0.25000000  0.17566107  0.61613966  1
  Ni  Ni12  1  0.75000000  0.01370072  0.56678662  1
  Ni  Ni13  1  0.75000000  0.43320058  0.44679415  1
  Ni  Ni14  1  0.75000000  0.55346680  0.98620886  1
  Ni  Ni15  1  0.25000000  0.98580226  0.43243048  1
  Ni  Ni16  1  0.25000000  0.56775392  0.55367927  1
  Ni  Ni17  1  0.25000000  0.44631648  0.01452335  1
  Ni  Ni18  1  0.75000000  0.06804472  0.82245991  1
  Ni  Ni19  1  0.75000000  0.17805396  0.24545739  1
  Ni  Ni20  1  0.75000000  0.74857808  0.92655236  1
  Ni  Ni21  1  0.25000000  0.92642781  0.17774527  1
  Ni  Ni22  1  0.25000000  0.82228494  0.74959664  1
  Ni  Ni23  1  0.25000000  0.25068877  0.07331922  1
  Ni  Ni24  1  0.75000000  0.28492015  0.77308545  1
  Ni  Ni25  1  0.75000000  0.22690309  0.51168628  1
  Ni  Ni26  1  0.75000000  0.48794882  0.71487121  1
  Ni  Ni27  1  0.25000000  0.71471729  0.22669626  1
  Ni  Ni28  1  0.25000000  0.77321369  0.48833290  1
  Ni  Ni29  1  0.25000000  0.51177106  0.28488106  1
  Ni  Ni30  1  0.75000000  0.69737856  0.65496060  1
  Ni  Ni31  1  0.75000000  0.34436617  0.04229561  1
  Ni  Ni32  1  0.75000000  0.95825430  0.30310256  1
  Ni  Ni33  1  0.25000000  0.30307892  0.34598693  1
  Ni  Ni34  1  0.25000000  0.65501253  0.95800770  1
  Ni  Ni35  1  0.25000000  0.04277511  0.69681348  1
  Ni  Ni36  1  0.75000000  0.91293202  0.05930753  1
  Ni  Ni37  1  0.25000000  0.05938784  0.14795937  1
  Ni  Ni38  1  0.25000000  0.85212265  0.91190515  1
  Ni  Ni39  1  0.25000000  0.09089678  0.93878052  1
  P  P40  1  0.75000000  0.33323917  0.66661610  1
  P  P41  1  0.25000000  0.66674843  0.33334202  1
  P  P42  1  0.75000000  0.39049279  0.92637814  1
  P  P43  1  0.75000000  0.07366250  0.46406427  1
  P  P44  1  0.75000000  0.53574804  0.60944182  1
  P  P45  1  0.25000000  0.60919560  0.07328557  1
  P  P46  1  0.25000000  0.92676892  0.53642510  1
  P  P47  1  0.25000000  0.46357062  0.39032350  1
  P  P48  1  0.75000000  0.18130893  0.98017233  1
  P  P49  1  0.75000000  0.02437134  0.20628167  1
  P  P50  1  0.75000000  0.79860817  0.81725650  1
  P  P51  1  0.25000000  0.81672960  0.02314572  1
  P  P52  1  0.25000000  0.97686351  0.79331733  1
  P  P53  1  0.25000000  0.20679162  0.18382804  1
  P  P54  1  0.75000000  0.13098867  0.72286647  1
  P  P55  1  0.75000000  0.27707686  0.40808855  1
  P  P56  1  0.75000000  0.59123686  0.86867671  1
  P  P57  1  0.25000000  0.86845897  0.27724498  1
  P  P58  1  0.25000000  0.72303716  0.59190726  1
  P  P59  1  0.25000000  0.40816140  0.13121301  1
