# generated using pymatgen
data_Te10Rh7
_symmetry_space_group_name_H-M   'P 1'
_cell_length_a   8.86445703
_cell_length_b   10.56689203
_cell_length_c   9.07344702
_cell_angle_alpha   75.74364689
_cell_angle_beta   102.03034782
_cell_angle_gamma   106.07784940
_symmetry_Int_Tables_number   1
_chemical_formula_structural   Te10Rh7
_chemical_formula_sum   'Te20 Rh14'
_cell_volume   782.48988863
_cell_formula_units_Z   2
loop_
 _symmetry_equiv_pos_site_id
 _symmetry_equiv_pos_as_xyz
  1  'x, y, z'
loop_
 _atom_site_type_symbol
 _atom_site_label
 _atom_site_symmetry_multiplicity
 _atom_site_fract_x
 _atom_site_fract_y
 _atom_site_fract_z
 _atom_site_occupancy
  Te  Te0  1  0.21101128  -0.00006334  0.54182239  1
  Te  Te1  1  0.41270973  0.80140335  0.34284594  1
  Te  Te2  1  0.61451786  0.60117341  0.14365531  1
  Te  Te3  1  0.81387723  0.40114186  0.94310122  1
  Te  Te4  1  0.01274359  0.19832055  0.74471200  1
  Te  Te5  1  0.98725641  0.80167945  0.25528800  1
  Te  Te6  1  0.18612277  0.59885814  0.05689878  1
  Te  Te7  1  0.38548214  0.39882659  0.85634469  1
  Te  Te8  1  0.58729027  0.19859665  0.65715406  1
  Te  Te9  1  0.78898872  0.00006334  0.45817761  1
  Te  Te10  1  0.50480985  0.20671283  0.22668766  1
  Te  Te11  1  0.70428983  0.00653505  0.02573930  1
  Te  Te12  1  0.90175418  0.80735796  0.82954343  1
  Te  Te13  1  0.10361212  0.60727220  0.62782900  1
  Te  Te14  1  0.30507187  0.40728957  0.42769075  1
  Te  Te15  1  0.69492813  0.59271043  0.57230925  1
  Te  Te16  1  0.89638788  0.39272780  0.37217100  1
  Te  Te17  1  0.09824582  0.19264204  0.17045657  1
  Te  Te18  1  0.29571017  0.99346495  0.97426070  1
  Te  Te19  1  0.49519015  0.79328717  0.77331234  1
  Rh  Rh20  1  0.25300114  0.99070035  0.26397976  1
  Rh  Rh21  1  0.45602819  0.79368793  0.06704639  1
  Rh  Rh22  1  0.65558974  0.58959599  0.86587215  1
  Rh  Rh23  1  0.85834614  0.39031632  0.66851691  1
  Rh  Rh24  1  0.05812652  0.19445402  0.46933313  1
  Rh  Rh25  1  0.94187348  0.80554598  0.53066687  1
  Rh  Rh26  1  0.14165386  0.60968368  0.33148309  1
  Rh  Rh27  1  0.34441026  0.41040401  0.13412785  1
  Rh  Rh28  1  0.54397181  0.20631207  0.93295361  1
  Rh  Rh29  1  0.74699886  0.00929965  0.73602024  1
  Rh  Rh30  1  0.39911139  0.60069354  0.59913773  1
  Rh  Rh31  1  0.80051694  0.19958046  0.19965622  1
  Rh  Rh32  1  0.19948306  0.80041954  0.80034378  1
  Rh  Rh33  1  0.60088861  0.39930646  0.40086227  1
