# generated using pymatgen
data_TbEr(TiFe11)2
_symmetry_space_group_name_H-M   'P 1'
_cell_length_a   4.71180643
_cell_length_b   6.43091282
_cell_length_c   11.96836674
_cell_angle_alpha   89.91071121
_cell_angle_beta   90.00000000
_cell_angle_gamma   111.49009686
_symmetry_Int_Tables_number   1
_chemical_formula_structural   TbEr(TiFe11)2
_chemical_formula_sum   'Tb1 Er1 Ti2 Fe22'
_cell_volume   337.44407358
_cell_formula_units_Z   1
loop_
 _symmetry_equiv_pos_site_id
 _symmetry_equiv_pos_as_xyz
  1  'x, y, z'
loop_
 _atom_site_type_symbol
 _atom_site_label
 _atom_site_symmetry_multiplicity
 _atom_site_fract_x
 _atom_site_fract_y
 _atom_site_fract_z
 _atom_site_occupancy
  Tb  Tb0  1  0.50287646  0.00575293  0.50303565  1
  Er  Er1  1  0.00313809  0.00627618  0.00295889  1
  Ti  Ti2  1  0.31616139  0.63232278  0.31560803  1
  Ti  Ti3  1  0.81620387  0.63240775  0.81664402  1
  Fe  Fe4  1  0.39043478  0.78086955  0.10842311  1
  Fe  Fe5  1  0.88916041  0.77832082  0.61053427  1
  Fe  Fe6  1  0.11008194  0.22016388  0.38867862  1
  Fe  Fe7  1  0.60891532  0.21783064  0.89050521  1
  Fe  Fe8  1  0.88725787  0.77451574  0.38679849  1
  Fe  Fe9  1  0.38823394  0.77646788  0.88853563  1
  Fe  Fe10  1  0.61492616  0.22985232  0.11469079  1
  Fe  Fe11  1  0.11575410  0.23150820  0.61629540  1
  Fe  Fe12  1  0.25060423  0.00188934  0.24936806  1
  Fe  Fe13  1  0.75109911  0.00194849  0.75073387  1
  Fe  Fe14  1  0.75128510  0.00188934  0.24936806  1
  Fe  Fe15  1  0.25084938  0.00194849  0.75073387  1
  Fe  Fe16  1  0.00032854  0.49987768  0.00106010  1
  Fe  Fe17  1  0.50020753  0.49986265  0.50099434  1
  Fe  Fe18  1  0.49954914  0.49987768  0.00106010  1
  Fe  Fe19  1  0.99965512  0.49986265  0.50099434  1
  Fe  Fe20  1  0.67833561  0.35667122  0.32102260  1
  Fe  Fe21  1  0.17813262  0.35626524  0.82245795  1
  Fe  Fe22  1  0.82186700  0.64373401  0.17750258  1
  Fe  Fe23  1  0.32172689  0.64345378  0.67869227  1
  Fe  Fe24  1  0.17655062  0.35310125  0.17607919  1
  Fe  Fe25  1  0.67666477  0.35332954  0.67722455  1
