# generated using pymatgen
data_Sr3LaMn4O10
_symmetry_space_group_name_H-M   'P 1'
_cell_length_a   3.97456994
_cell_length_b   5.62442168
_cell_length_c   10.84881601
_cell_angle_alpha   90.11752122
_cell_angle_beta   90.00000000
_cell_angle_gamma   90.00000000
_symmetry_Int_Tables_number   1
_chemical_formula_structural   Sr3LaMn4O10
_chemical_formula_sum   'Sr3 La1 Mn4 O10'
_cell_volume   242.52105432
_cell_formula_units_Z   1
loop_
 _symmetry_equiv_pos_site_id
 _symmetry_equiv_pos_as_xyz
  1  'x, y, z'
loop_
 _atom_site_type_symbol
 _atom_site_label
 _atom_site_symmetry_multiplicity
 _atom_site_fract_x
 _atom_site_fract_y
 _atom_site_fract_z
 _atom_site_occupancy
  Sr  Sr0  1  0.50000000  0.21171029  0.86091440  1
  Sr  Sr1  1  0.50000000  0.28797458  0.37110972  1
  Sr  Sr2  1  0.50000000  0.71098923  0.63254115  1
  La  La3  1  0.50000000  0.80024215  0.13448033  1
  Mn  Mn4  1  -0.00000000  0.76497323  0.37767274  1
  Mn  Mn5  1  -0.00000000  0.23428411  0.62261190  1
  Mn  Mn6  1  0.00000000  0.26929836  0.12053305  1
  Mn  Mn7  1  0.00000000  0.73167726  0.87940381  1
  O  O8  1  -0.00000000  0.05317971  0.27539632  1
  O  O9  1  0.00000000  0.95246358  0.72792442  1
  O  O10  1  -0.00000000  0.57406662  0.20848651  1
  O  O11  1  -0.00000000  0.45208982  0.77711555  1
  O  O12  1  -0.00000000  0.49718011  0.49784303  1
  O  O13  1  0.00000000  0.98172902  0.00994960  1
  O  O14  1  0.50000000  0.78538435  0.38651062  1
  O  O15  1  0.50000000  0.20400683  0.60402213  1
  O  O16  1  0.50000000  0.28579573  0.10488464  1
  O  O17  1  0.50000000  0.70295503  0.90860006  1
