# generated using pymatgen
data_SrCa3Hf4O12
_symmetry_space_group_name_H-M   'P 1'
_cell_length_a   5.64676936
_cell_length_b   5.79170128
_cell_length_c   8.08516009
_cell_angle_alpha   90.00000000
_cell_angle_beta   90.00000000
_cell_angle_gamma   90.02560703
_symmetry_Int_Tables_number   1
_chemical_formula_structural   SrCa3Hf4O12
_chemical_formula_sum   'Sr1 Ca3 Hf4 O12'
_cell_volume   264.42029426
_cell_formula_units_Z   1
loop_
 _symmetry_equiv_pos_site_id
 _symmetry_equiv_pos_as_xyz
  1  'x, y, z'
loop_
 _atom_site_type_symbol
 _atom_site_label
 _atom_site_symmetry_multiplicity
 _atom_site_fract_x
 _atom_site_fract_y
 _atom_site_fract_z
 _atom_site_occupancy
  Sr  Sr0  1  0.51135039  0.54133293  0.25000000  1
  Ca  Ca1  1  0.98762338  0.04538265  0.25000000  1
  Ca  Ca2  1  0.48829945  0.45479810  0.75000000  1
  Ca  Ca3  1  0.01047706  0.95632509  0.75000000  1
  Hf  Hf4  1  0.99965568  0.50000165  0.99757812  1
  Hf  Hf5  1  0.50065087  0.00016189  0.50199068  1
  Hf  Hf6  1  0.99965568  0.50000165  0.50242188  1
  Hf  Hf7  1  0.50065087  0.00016189  0.99800932  1
  O  O8  1  0.40070592  0.97939730  0.25000000  1
  O  O9  1  0.07926629  0.46633364  0.25000000  1
  O  O10  1  0.59814742  0.03102096  0.75000000  1
  O  O11  1  0.89868477  0.53403975  0.75000000  1
  O  O12  1  0.79852259  0.79655272  0.05029429  1
  O  O13  1  0.71018664  0.28802680  0.45542577  1
  O  O14  1  0.20644817  0.20684751  0.55390849  1
  O  O15  1  0.29725871  0.70409422  0.94623026  1
  O  O16  1  0.20644817  0.20684751  0.94609151  1
  O  O17  1  0.29725871  0.70409422  0.55376974  1
  O  O18  1  0.79852259  0.79655272  0.44970571  1
  O  O19  1  0.71018664  0.28802680  0.04457423  1
