# generated using pymatgen
data_SrCaPbO4
_symmetry_space_group_name_H-M   'P 1'
_cell_length_a   3.48700068
_cell_length_b   6.06571953
_cell_length_c   10.08676466
_cell_angle_alpha   90.40309055
_cell_angle_beta   90.00000000
_cell_angle_gamma   90.00000000
_symmetry_Int_Tables_number   1
_chemical_formula_structural   SrCaPbO4
_chemical_formula_sum   'Sr2 Ca2 Pb2 O8'
_cell_volume   213.34157524
_cell_formula_units_Z   2
loop_
 _symmetry_equiv_pos_site_id
 _symmetry_equiv_pos_as_xyz
  1  'x, y, z'
loop_
 _atom_site_type_symbol
 _atom_site_label
 _atom_site_symmetry_multiplicity
 _atom_site_fract_x
 _atom_site_fract_y
 _atom_site_fract_z
 _atom_site_occupancy
  Sr  Sr0  1  0.50000000  0.57608819  0.18453986  1
  Sr  Sr1  1  0.50000000  0.42391181  0.81546014  1
  Ca  Ca2  1  0.50000000  0.07394688  0.32131178  1
  Ca  Ca3  1  0.50000000  0.92605312  0.67868822  1
  Pb  Pb4  1  0.00000000  0.50000000  0.50000000  1
  Pb  Pb5  1  -0.00000000  0.00000000  -0.00000000  1
  O  O6  1  -0.00000000  0.87790679  0.20192773  1
  O  O7  1  -0.00000000  0.12209321  0.79807227  1
  O  O8  1  0.00000000  0.35050759  0.30648491  1
  O  O9  1  0.00000000  0.64949241  0.69351509  1
  O  O10  1  0.50000000  0.73637205  0.45008328  1
  O  O11  1  0.50000000  0.26362795  0.54991672  1
  O  O12  1  0.50000000  0.23106289  0.04827766  1
  O  O13  1  0.50000000  0.76893711  0.95172234  1
