# generated using pymatgen
data_Tb(Fe5Re)2
_symmetry_space_group_name_H-M   'P 1'
_cell_length_a   4.69327137
_cell_length_b   6.48583602
_cell_length_c   6.48583602
_cell_angle_alpha   96.51264085
_cell_angle_beta   111.21134874
_cell_angle_gamma   68.78865126
_symmetry_Int_Tables_number   1
_chemical_formula_structural   Tb(Fe5Re)2
_chemical_formula_sum   'Tb1 Fe10 Re2'
_cell_volume   171.54832884
_cell_formula_units_Z   1
loop_
 _symmetry_equiv_pos_site_id
 _symmetry_equiv_pos_as_xyz
  1  'x, y, z'
loop_
 _atom_site_type_symbol
 _atom_site_label
 _atom_site_symmetry_multiplicity
 _atom_site_fract_x
 _atom_site_fract_y
 _atom_site_fract_z
 _atom_site_occupancy
  Tb  Tb0  1  -0.00000000  0.00000000  -0.00000000  1
  Fe  Fe1  1  0.72069803  0.77930197  0.22069803  1
  Fe  Fe2  1  0.27930197  0.22069803  0.77930197  1
  Fe  Fe3  1  0.50000000  0.77089192  0.77089192  1
  Fe  Fe4  1  0.50000000  0.22910808  0.22910808  1
  Fe  Fe5  1  0.50000000  0.00000000  0.50000000  1
  Fe  Fe6  1  -0.00000000  0.00000000  0.50000000  1
  Fe  Fe7  1  0.50000000  0.50000000  -0.00000000  1
  Fe  Fe8  1  -0.00000000  0.50000000  -0.00000000  1
  Fe  Fe9  1  0.64128465  0.35871535  0.64128465  1
  Fe  Fe10  1  0.35871535  0.64128465  0.35871535  1
  Re  Re11  1  0.00000000  0.35715613  0.35715613  1
  Re  Re12  1  -0.00000000  0.64284387  0.64284387  1
