# generated using pymatgen
data_Hg6Cl3O2
_symmetry_space_group_name_H-M   'P 1'
_cell_length_a   14.16764563
_cell_length_b   14.16764572
_cell_length_c   14.16764557
_cell_angle_alpha   109.47121894
_cell_angle_beta   109.47121903
_cell_angle_gamma   109.47122427
_symmetry_Int_Tables_number   1
_chemical_formula_structural   Hg6Cl3O2
_chemical_formula_sum   'Hg48 Cl24 O16'
_cell_volume   2189.12804510
_cell_formula_units_Z   8
loop_
 _symmetry_equiv_pos_site_id
 _symmetry_equiv_pos_as_xyz
  1  'x, y, z'
loop_
 _atom_site_type_symbol
 _atom_site_label
 _atom_site_symmetry_multiplicity
 _atom_site_fract_x
 _atom_site_fract_y
 _atom_site_fract_z
 _atom_site_occupancy
  Hg  Hg0  1  0.00222398  0.18221462  0.66028491  1
  Hg  Hg1  1  0.66028491  0.15806093  0.47807029  1
  Hg  Hg2  1  0.15806093  0.47807029  0.66028491  1
  Hg  Hg3  1  0.81778538  0.33971509  0.99777602  1
  Hg  Hg4  1  0.31778538  0.32000936  0.47807029  1
  Hg  Hg5  1  0.68221462  0.67999064  0.52192971  1
  Hg  Hg6  1  0.32000936  0.34193907  0.00222398  1
  Hg  Hg7  1  0.67999064  0.52192971  0.68221462  1
  Hg  Hg8  1  0.84193907  0.82000936  0.50222398  1
  Hg  Hg9  1  0.49777602  0.83971509  0.31778538  1
  Hg  Hg10  1  0.82000936  0.81778538  0.97807029  1
  Hg  Hg11  1  0.66028491  0.00222398  0.18221462  1
  Hg  Hg12  1  0.47807029  0.31778538  0.32000936  1
  Hg  Hg13  1  0.49777602  0.15806093  0.17999064  1
  Hg  Hg14  1  0.67999064  0.65806093  0.99777602  1
  Hg  Hg15  1  0.97807029  0.65806093  0.16028491  1
  Hg  Hg16  1  0.17999064  0.49777602  0.15806093  1
  Hg  Hg17  1  0.16028491  0.97807029  0.65806093  1
  Hg  Hg18  1  0.32000936  0.47807029  0.31778538  1
  Hg  Hg19  1  0.84193907  0.52192971  0.33971509  1
  Hg  Hg20  1  0.52192971  0.68221462  0.67999064  1
  Hg  Hg21  1  0.82000936  0.50222398  0.84193907  1
  Hg  Hg22  1  0.97807029  0.82000936  0.81778538  1
  Hg  Hg23  1  0.34193907  0.83971509  0.02192971  1
  Hg  Hg24  1  0.65806093  0.99777602  0.67999064  1
  Hg  Hg25  1  0.50222398  0.16028491  0.68221462  1
  Hg  Hg26  1  0.15806093  0.17999064  0.49777602  1
  Hg  Hg27  1  0.02192971  0.34193907  0.83971509  1
  Hg  Hg28  1  0.83971509  0.02192971  0.34193907  1
  Hg  Hg29  1  0.33971509  0.99777602  0.81778538  1
  Hg  Hg30  1  0.18221462  0.66028491  0.00222398  1
  Hg  Hg31  1  0.83971509  0.31778538  0.49777602  1
  Hg  Hg32  1  0.50222398  0.84193907  0.82000936  1
  Hg  Hg33  1  0.17999064  0.18221462  0.02192971  1
  Hg  Hg34  1  0.52192971  0.33971509  0.84193907  1
  Hg  Hg35  1  0.65806093  0.16028491  0.97807029  1
  Hg  Hg36  1  0.16028491  0.68221462  0.50222398  1
  Hg  Hg37  1  0.68221462  0.50222398  0.16028491  1
  Hg  Hg38  1  0.18221462  0.02192971  0.17999064  1
  Hg  Hg39  1  0.31778538  0.49777602  0.83971509  1
  Hg  Hg40  1  0.99777602  0.67999064  0.65806093  1
  Hg  Hg41  1  0.02192971  0.17999064  0.18221462  1
  Hg  Hg42  1  0.81778538  0.97807029  0.82000936  1
  Hg  Hg43  1  0.00222398  0.32000936  0.34193907  1
  Hg  Hg44  1  0.34193907  0.00222398  0.32000936  1
  Hg  Hg45  1  0.99777602  0.81778538  0.33971509  1
  Hg  Hg46  1  0.47807029  0.66028491  0.15806093  1
  Hg  Hg47  1  0.33971509  0.84193907  0.52192971  1
  Cl  Cl48  1  0.26314933  0.23685067  0.75000000  1
  Cl  Cl49  1  0.76314933  0.25000000  0.73685067  1
  Cl  Cl50  1  0.52629866  0.51314933  0.26314933  1
  Cl  Cl51  1  0.73685067  0.47370134  0.48685067  1
  Cl  Cl52  1  0.98685067  0.51314933  0.75000000  1
  Cl  Cl53  1  0.51314933  0.75000000  0.98685067  1
  Cl  Cl54  1  0.47370134  0.48685067  0.73685067  1
  Cl  Cl55  1  0.23685067  0.98685067  0.97370134  1
  Cl  Cl56  1  0.97370134  0.23685067  0.98685067  1
  Cl  Cl57  1  0.01314933  0.02629866  0.76314933  1
  Cl  Cl58  1  0.75000000  0.26314933  0.23685067  1
  Cl  Cl59  1  0.01314933  0.48685067  0.25000000  1
  Cl  Cl60  1  0.75000000  0.98685067  0.51314933  1
  Cl  Cl61  1  0.76314933  0.01314933  0.02629866  1
  Cl  Cl62  1  0.25000000  0.73685067  0.76314933  1
  Cl  Cl63  1  0.02629866  0.76314933  0.01314933  1
  Cl  Cl64  1  0.26314933  0.52629866  0.51314933  1
  Cl  Cl65  1  0.73685067  0.76314933  0.25000000  1
  Cl  Cl66  1  0.25000000  0.01314933  0.48685067  1
  Cl  Cl67  1  0.23685067  0.75000000  0.26314933  1
  Cl  Cl68  1  0.98685067  0.97370134  0.23685067  1
  Cl  Cl69  1  0.48685067  0.73685067  0.47370134  1
  Cl  Cl70  1  0.48685067  0.25000000  0.01314933  1
  Cl  Cl71  1  0.51314933  0.26314933  0.52629866  1
  O  O72  1  1.00000000  0.59690717  0.50000000  1
  O  O73  1  0.00000000  0.40309283  0.50000000  1
  O  O74  1  0.90309283  0.50000000  0.00000000  1
  O  O75  1  0.09690717  0.50000000  1.00000000  1
  O  O76  1  0.50000000  1.00000000  0.40309283  1
  O  O77  1  0.09690717  0.09690717  0.09690717  1
  O  O78  1  0.50000000  0.00000000  0.59690717  1
  O  O79  1  0.00000000  0.90309283  0.50000000  1
  O  O80  1  0.50000000  0.00000000  0.09690717  1
  O  O81  1  0.40309283  0.40309283  0.40309283  1
  O  O82  1  1.00000000  0.09690717  0.50000000  1
  O  O83  1  0.90309283  0.90309283  0.90309283  1
  O  O84  1  0.59690717  0.50000000  1.00000000  1
  O  O85  1  0.59690717  0.59690717  0.59690717  1
  O  O86  1  0.40309283  0.50000000  0.00000000  1
  O  O87  1  0.50000000  1.00000000  0.90309283  1
