# generated using pymatgen
data_SrAlSiN3
_symmetry_space_group_name_H-M   'P 1'
_cell_length_a   5.19754600
_cell_length_b   5.74821617
_cell_length_c   5.75486902
_cell_angle_alpha   119.41001668
_cell_angle_beta   90.00000000
_cell_angle_gamma   90.00000000
_symmetry_Int_Tables_number   1
_chemical_formula_structural   SrAlSiN3
_chemical_formula_sum   'Sr2 Al2 Si2 N6'
_cell_volume   149.77827986
_cell_formula_units_Z   2
loop_
 _symmetry_equiv_pos_site_id
 _symmetry_equiv_pos_as_xyz
  1  'x, y, z'
loop_
 _atom_site_type_symbol
 _atom_site_label
 _atom_site_symmetry_multiplicity
 _atom_site_fract_x
 _atom_site_fract_y
 _atom_site_fract_z
 _atom_site_occupancy
  Sr  Sr0  1  0.00891798  0.68718453  0.68860933  1
  Sr  Sr1  1  0.50891798  0.31281547  0.31139067  1
  Al  Al2  1  0.52733541  0.02533836  0.67368200  1
  Al  Al3  1  0.02733541  0.97466164  0.32631800  1
  Si  Si4  1  0.52244934  0.66957741  0.02713105  1
  Si  Si5  1  0.02244934  0.33042259  0.97286895  1
  N  N6  1  0.51013873  0.78094694  0.79827101  1
  N  N7  1  0.01013873  0.21905306  0.20172899  1
  N  N8  1  0.87596282  0.11838911  0.66521487  1
  N  N9  1  0.85339571  0.63939031  0.10299133  1
  N  N10  1  0.37596282  0.88161089  0.33478513  1
  N  N11  1  0.35339571  0.36060969  0.89700867  1
