# generated using pymatgen
data_Sr5Ca3Si4
_symmetry_space_group_name_H-M   'P 1'
_cell_length_a   4.99073520
_cell_length_b   8.08762365
_cell_length_c   9.24130424
_cell_angle_alpha   90.46310580
_cell_angle_beta   90.00000000
_cell_angle_gamma   90.00000000
_symmetry_Int_Tables_number   1
_chemical_formula_structural   Sr5Ca3Si4
_chemical_formula_sum   'Sr5 Ca3 Si4'
_cell_volume   372.99631646
_cell_formula_units_Z   1
loop_
 _symmetry_equiv_pos_site_id
 _symmetry_equiv_pos_as_xyz
  1  'x, y, z'
loop_
 _atom_site_type_symbol
 _atom_site_label
 _atom_site_symmetry_multiplicity
 _atom_site_fract_x
 _atom_site_fract_y
 _atom_site_fract_z
 _atom_site_occupancy
  Sr  Sr0  1  0.75000000  0.47678484  0.82329347  1
  Sr  Sr1  1  0.75000000  0.97857355  0.68283749  1
  Sr  Sr2  1  0.25000000  0.52420701  0.17367536  1
  Sr  Sr3  1  0.25000000  0.01706875  0.32060424  1
  Sr  Sr4  1  0.75000000  0.34815137  0.42392382  1
  Ca  Ca5  1  0.75000000  0.85388553  0.07236948  1
  Ca  Ca6  1  0.25000000  0.65017349  0.57570987  1
  Ca  Ca7  1  0.25000000  0.14664589  0.92656539  1
  Si  Si8  1  0.75000000  0.23082213  0.09663903  1
  Si  Si9  1  0.75000000  0.74257495  0.39434414  1
  Si  Si10  1  0.25000000  0.76639825  0.89590295  1
  Si  Si11  1  0.25000000  0.26471424  0.61413476  1
