# generated using pymatgen
data_Sr3CaHf4O12
_symmetry_space_group_name_H-M   'P 1'
_cell_length_a   5.74993032
_cell_length_b   5.81383850
_cell_length_c   8.20083317
_cell_angle_alpha   90.00000000
_cell_angle_beta   90.00000000
_cell_angle_gamma   90.04431838
_symmetry_Int_Tables_number   1
_chemical_formula_structural   Sr3CaHf4O12
_chemical_formula_sum   'Sr3 Ca1 Hf4 O12'
_cell_volume   274.14693349
_cell_formula_units_Z   1
loop_
 _symmetry_equiv_pos_site_id
 _symmetry_equiv_pos_as_xyz
  1  'x, y, z'
loop_
 _atom_site_type_symbol
 _atom_site_label
 _atom_site_symmetry_multiplicity
 _atom_site_fract_x
 _atom_site_fract_y
 _atom_site_fract_z
 _atom_site_occupancy
  Sr  Sr0  1  0.99624896  0.02961617  0.25000000  1
  Sr  Sr1  1  0.49305365  0.47307797  0.75000000  1
  Sr  Sr2  1  0.00712264  0.96651961  0.75000000  1
  Ca  Ca3  1  0.49804428  0.53882565  0.25000000  1
  Hf  Hf4  1  0.00009895  0.49914840  0.00251164  1
  Hf  Hf5  1  0.49975458  0.00113659  0.49802571  1
  Hf  Hf6  1  0.00009895  0.49914840  0.49748836  1
  Hf  Hf7  1  0.49975458  0.00113659  0.00197429  1
  O  O8  1  0.43498425  0.96358362  0.25000000  1
  O  O9  1  0.08631694  0.48479874  0.25000000  1
  O  O10  1  0.56713210  0.02223630  0.75000000  1
  O  O11  1  0.93615473  0.50900869  0.75000000  1
  O  O12  1  0.79088260  0.79056014  0.03232711  1
  O  O13  1  0.70274664  0.29725001  0.45313870  1
  O  O14  1  0.20736229  0.20743746  0.53200425  1
  O  O15  1  0.28962617  0.71063403  0.96620617  1
  O  O16  1  0.20736229  0.20743746  0.96799575  1
  O  O17  1  0.28962617  0.71063403  0.53379383  1
  O  O18  1  0.79088260  0.79056014  0.46767289  1
  O  O19  1  0.70274664  0.29725001  0.04686130  1
