# generated using pymatgen
data_Sr4N3
_symmetry_space_group_name_H-M   'P 1'
_cell_length_a   7.08262075
_cell_length_b   7.31943573
_cell_length_c   3.91545532
_cell_angle_alpha   74.43726549
_cell_angle_beta   106.10444619
_cell_angle_gamma   125.83585721
_symmetry_Int_Tables_number   1
_chemical_formula_structural   Sr4N3
_chemical_formula_sum   'Sr4 N3'
_cell_volume   156.63017928
_cell_formula_units_Z   1
loop_
 _symmetry_equiv_pos_site_id
 _symmetry_equiv_pos_as_xyz
  1  'x, y, z'
loop_
 _atom_site_type_symbol
 _atom_site_label
 _atom_site_symmetry_multiplicity
 _atom_site_fract_x
 _atom_site_fract_y
 _atom_site_fract_z
 _atom_site_occupancy
  Sr  Sr0  1  0.88027233  0.99293295  0.15048933  1
  Sr  Sr1  1  0.41972960  0.54470204  0.64436895  1
  Sr  Sr2  1  0.52443931  0.10237542  0.41450956  1
  Sr  Sr3  1  0.98495451  0.55092725  0.92212541  1
  N  N4  1  0.43596256  0.83595843  0.00268327  1
  N  N5  1  0.70312543  0.54805002  0.28231013  1
  N  N6  1  0.96851525  0.25905391  0.56181335  1
