# generated using pymatgen
data_Sc8CuTe3
_symmetry_space_group_name_H-M   'P 1'
_cell_length_a   3.85188118
_cell_length_b   10.74650055
_cell_length_c   20.20460778
_cell_angle_alpha   90.03775860
_cell_angle_beta   90.00000000
_cell_angle_gamma   90.00000000
_symmetry_Int_Tables_number   1
_chemical_formula_structural   Sc8CuTe3
_chemical_formula_sum   'Sc24 Cu3 Te9'
_cell_volume   836.35426712
_cell_formula_units_Z   3
loop_
 _symmetry_equiv_pos_site_id
 _symmetry_equiv_pos_as_xyz
  1  'x, y, z'
loop_
 _atom_site_type_symbol
 _atom_site_label
 _atom_site_symmetry_multiplicity
 _atom_site_fract_x
 _atom_site_fract_y
 _atom_site_fract_z
 _atom_site_occupancy
  Sc  Sc0  1  0.25000000  0.87891658  0.02339870  1
  Sc  Sc1  1  0.25000000  0.62631141  0.52388840  1
  Sc  Sc2  1  0.75000000  0.12022625  0.97629045  1
  Sc  Sc3  1  0.75000000  0.39072480  0.46601365  1
  Sc  Sc4  1  0.25000000  0.39007032  0.99293659  1
  Sc  Sc5  1  0.25000000  0.10748698  0.49074331  1
  Sc  Sc6  1  0.75000000  0.61026294  0.00714656  1
  Sc  Sc7  1  0.75000000  0.88951979  0.50794092  1
  Sc  Sc8  1  0.25000000  0.95994063  0.84569381  1
  Sc  Sc9  1  0.25000000  0.53977491  0.34529992  1
  Sc  Sc10  1  0.75000000  0.04059330  0.15449460  1
  Sc  Sc11  1  0.75000000  0.47063941  0.66261158  1
  Sc  Sc12  1  0.25000000  0.93269306  0.63846648  1
  Sc  Sc13  1  0.25000000  0.56623976  0.13848046  1
  Sc  Sc14  1  0.75000000  0.06455299  0.36210665  1
  Sc  Sc15  1  0.75000000  0.43190376  0.86252712  1
  Sc  Sc16  1  0.25000000  0.25103470  0.72981936  1
  Sc  Sc17  1  0.25000000  0.24883036  0.22900225  1
  Sc  Sc18  1  0.75000000  0.74807351  0.26987600  1
  Sc  Sc19  1  0.75000000  0.75119514  0.77042296  1
  Sc  Sc20  1  0.25000000  0.67926881  0.89339315  1
  Sc  Sc21  1  0.25000000  0.82253699  0.39278151  1
  Sc  Sc22  1  0.75000000  0.32198676  0.10761307  1
  Sc  Sc23  1  0.75000000  0.15872378  0.60847927  1
  Cu  Cu24  1  0.25000000  0.14440737  0.07595936  1
  Cu  Cu25  1  0.75000000  0.64722342  0.42362112  1
  Cu  Cu26  1  0.75000000  0.85601552  0.92398554  1
  Te  Te27  1  0.25000000  0.96509457  0.26286500  1
  Te  Te28  1  0.25000000  0.53669037  0.76492125  1
  Te  Te29  1  0.75000000  0.03295722  0.73848880  1
  Te  Te30  1  0.75000000  0.46557565  0.23756948  1
  Te  Te31  1  0.25000000  0.22561556  0.87511356  1
  Te  Te32  1  0.25000000  0.27174287  0.37358478  1
  Te  Te33  1  0.75000000  0.77405323  0.12522819  1
  Te  Te34  1  0.75000000  0.72428480  0.62518047  1
  Te  Te35  1  0.25000000  0.35483245  0.57405570  1
