# generated using pymatgen
data_Sr4Zn51
_symmetry_space_group_name_H-M   'P 1'
_cell_length_a   8.72452208
_cell_length_b   8.72452208
_cell_length_c   14.96096799
_cell_angle_alpha   73.04766025
_cell_angle_beta   89.99999997
_cell_angle_gamma   120.00000000
_symmetry_Int_Tables_number   1
_chemical_formula_structural   Sr4Zn51
_chemical_formula_sum   'Sr4 Zn51'
_cell_volume   928.64211705
_cell_formula_units_Z   1
loop_
 _symmetry_equiv_pos_site_id
 _symmetry_equiv_pos_as_xyz
  1  'x, y, z'
loop_
 _atom_site_type_symbol
 _atom_site_label
 _atom_site_symmetry_multiplicity
 _atom_site_fract_x
 _atom_site_fract_y
 _atom_site_fract_z
 _atom_site_occupancy
  Sr  Sr0  1  0.87499770  0.74999540  0.37500690  1
  Sr  Sr1  1  0.37440429  0.74880858  0.87678713  1
  Sr  Sr2  1  0.62500230  0.25000460  0.12499310  1
  Sr  Sr3  1  0.12559571  0.25119142  0.62321287  1
  Zn  Zn4  1  0.66806595  0.93829994  0.02983898  1
  Zn  Zn5  1  0.16928279  0.94024150  0.52877677  1
  Zn  Zn6  1  0.71080152  0.30197549  0.34891545  1
  Zn  Zn7  1  0.21024160  0.30049209  0.85010726  1
  Zn  Zn8  1  0.83193405  0.06170006  0.47016102  1
  Zn  Zn9  1  0.33071721  0.05975850  0.97122323  1
  Zn  Zn10  1  0.78919848  0.69802451  0.15108455  1
  Zn  Zn11  1  0.28975840  0.69950791  0.64989274  1
  Zn  Zn12  1  0.28097830  0.79355118  0.27863831  1
  Zn  Zn13  1  0.78237680  0.80260197  0.77926659  1
  Zn  Zn14  1  0.10496827  0.44117168  0.10402342  1
  Zn  Zn15  1  0.59865306  0.44104482  0.59858316  1
  Zn  Zn16  1  0.39503173  0.55882832  0.39597658  1
  Zn  Zn17  1  0.90134694  0.55895518  0.90141684  1
  Zn  Zn18  1  0.21902170  0.20644882  0.22136169  1
  Zn  Zn19  1  0.71762320  0.19739803  0.72073341  1
  Zn  Zn20  1  0.34910906  0.05991059  0.34891545  1
  Zn  Zn21  1  0.84940065  0.05964225  0.85010726  1
  Zn  Zn22  1  0.03186107  0.69992703  0.02983898  1
  Zn  Zn23  1  0.53098173  0.70026452  0.52877677  1
  Zn  Zn24  1  0.15089094  0.94008941  0.15108455  1
  Zn  Zn25  1  0.65059935  0.94035775  0.64989274  1
  Zn  Zn26  1  0.46813893  0.30007297  0.47016102  1
  Zn  Zn27  1  0.96901827  0.29973548  0.97122323  1
  Zn  Zn28  1  0.45480489  0.55977316  0.10402342  1
  Zn  Zn29  1  0.96037202  0.55902508  0.59858316  1
  Zn  Zn30  1  0.92781052  0.20878881  0.27863831  1
  Zn  Zn31  1  0.41813144  0.20050824  0.77926659  1
  Zn  Zn32  1  0.57218948  0.79121119  0.22136169  1
  Zn  Zn33  1  0.08186856  0.79949176  0.72073341  1
  Zn  Zn34  1  0.04519511  0.44022684  0.39597658  1
  Zn  Zn35  1  0.53962798  0.44097492  0.90141684  1
  Zn  Zn36  1  0.22976601  0.69790493  0.47016102  1
  Zn  Zn37  1  0.72904129  0.69805956  0.97122323  1
  Zn  Zn38  1  0.90882603  0.05971697  0.15108455  1
  Zn  Zn39  1  0.40974951  0.06034886  0.64989274  1
  Zn  Zn40  1  0.27023399  0.30209507  0.02983898  1
  Zn  Zn41  1  0.77095871  0.30194044  0.52877677  1
  Zn  Zn42  1  0.59117397  0.94028303  0.34891545  1
  Zn  Zn43  1  0.09025049  0.93965114  0.85010726  1
  Zn  Zn44  1  0.16379659  0.20899169  0.39597658  1
  Zn  Zn45  1  0.65760824  0.19723622  0.90141684  1
  Zn  Zn46  1  0.98742712  0.55961660  0.22136169  1
  Zn  Zn47  1  0.47977483  0.56164338  0.72073341  1
  Zn  Zn48  1  0.51257288  0.44038340  0.27863831  1
  Zn  Zn49  1  0.02022517  0.43835662  0.77926659  1
  Zn  Zn50  1  0.33620341  0.79100831  0.10402342  1
  Zn  Zn51  1  0.84239176  0.80276378  0.59858316  1
  Zn  Zn52  1  0.75000000  0.50000000  0.75000000  1
  Zn  Zn53  1  -0.00007122  -0.00014244  0.00021366  1
  Zn  Zn54  1  0.50007122  0.00014244  0.49978634  1
