# generated using pymatgen
data_Sm8Sb3O8
_symmetry_space_group_name_H-M   'P 1'
_cell_length_a   3.86770174
_cell_length_b   7.11947011
_cell_length_c   15.06220558
_cell_angle_alpha   83.72713606
_cell_angle_beta   82.62338062
_cell_angle_gamma   105.76118994
_symmetry_Int_Tables_number   1
_chemical_formula_structural   Sm8Sb3O8
_chemical_formula_sum   'Sm8 Sb3 O8'
_cell_volume   391.31520276
_cell_formula_units_Z   1
loop_
 _symmetry_equiv_pos_site_id
 _symmetry_equiv_pos_as_xyz
  1  'x, y, z'
loop_
 _atom_site_type_symbol
 _atom_site_label
 _atom_site_symmetry_multiplicity
 _atom_site_fract_x
 _atom_site_fract_y
 _atom_site_fract_z
 _atom_site_occupancy
  Sm  Sm0  1  0.36701134  0.64972285  0.91156305  1
  Sm  Sm1  1  0.62885155  0.35027715  0.08843695  1
  Sm  Sm2  1  0.78785756  0.14497184  0.56944653  1
  Sm  Sm3  1  0.21233225  0.85502816  0.43055347  1
  Sm  Sm4  1  0.46969614  0.59325769  0.65373448  1
  Sm  Sm5  1  0.53017293  0.40674231  0.34626552  1
  Sm  Sm6  1  0.71288156  0.25755888  0.83165553  1
  Sm  Sm7  1  0.28697821  0.74244112  0.16834447  1
  Sb  Sb8  1  0.09704285  0.92393585  0.73284944  1
  Sb  Sb9  1  0.90595643  0.07606415  0.26715056  1
  Sb  Sb10  1  0.96433914  1.00000000  0.00000000  1
  O  O11  1  0.89818920  0.42896056  0.63274696  1
  O  O12  1  0.10197561  0.57103944  0.36725304  1
  O  O13  1  0.31564896  0.43532062  0.79975836  1
  O  O14  1  0.68008669  0.56467938  0.20024164  1
  O  O15  1  0.34945122  0.18427723  0.48593838  1
  O  O16  1  0.65111237  0.81572277  0.51406162  1
  O  O17  1  0.76579734  0.47316328  0.93398458  1
  O  O18  1  0.22661864  0.52683672  0.06601542  1
