# generated using pymatgen
data_Sr10Mg4Fe(MoO6)5
_symmetry_space_group_name_H-M   'P 1'
_cell_length_a   8.04065797
_cell_length_b   9.78796088
_cell_length_c   9.78796088
_cell_angle_alpha   80.28722006
_cell_angle_beta   114.25147358
_cell_angle_gamma   114.25147358
_symmetry_Int_Tables_number   1
_chemical_formula_structural   Sr10Mg4Fe(MoO6)5
_chemical_formula_sum   'Sr10 Mg4 Fe1 Mo5 O30'
_cell_volume   640.36707311
_cell_formula_units_Z   1
loop_
 _symmetry_equiv_pos_site_id
 _symmetry_equiv_pos_as_xyz
  1  'x, y, z'
loop_
 _atom_site_type_symbol
 _atom_site_label
 _atom_site_symmetry_multiplicity
 _atom_site_fract_x
 _atom_site_fract_y
 _atom_site_fract_z
 _atom_site_occupancy
  Sr  Sr0  1  0.45000000  0.10000000  0.30000000  1
  Sr  Sr1  1  0.25139783  0.50010821  0.50032636  1
  Sr  Sr2  1  0.04871038  0.89967364  0.70010821  1
  Sr  Sr3  1  0.84892853  0.30032636  0.89989179  1
  Sr  Sr4  1  0.65096326  0.69989179  0.09967364  1
  Sr  Sr5  1  0.35128962  0.30032636  0.89989179  1
  Sr  Sr6  1  0.14860217  0.69989179  0.09967364  1
  Sr  Sr7  1  0.95000000  0.10000000  0.30000000  1
  Sr  Sr8  1  0.74903674  0.50010821  0.50032636  1
  Sr  Sr9  1  0.55107147  0.89967364  0.70010821  1
  Mg  Mg10  1  0.99949406  0.99963082  0.99935730  1
  Mg  Mg11  1  0.80013676  0.40064270  0.19963082  1
  Mg  Mg12  1  0.59986324  0.79935730  0.40036918  1
  Mg  Mg13  1  0.40050594  0.20036918  0.60064270  1
  Fe  Fe14  1  0.20000000  0.60000000  0.80000000  1
  Mo  Mo15  1  0.50098387  0.00097945  0.00098828  1
  Mo  Mo16  1  0.29999559  0.39901172  0.20097945  1
  Mo  Mo17  1  0.10000441  0.80098828  0.39902055  1
  Mo  Mo18  1  0.89901613  0.19902055  0.59901172  1
  Mo  Mo19  1  0.70000000  0.60000000  0.80000000  1
  O  O20  1  0.54226488  0.39976771  0.20027745  1
  O  O21  1  0.34221972  0.80023229  0.39972255  1
  O  O22  1  0.14198743  0.19972255  0.59976771  1
  O  O23  1  0.94885553  0.60000000  0.80000000  1
  O  O24  1  0.74249717  0.00027745  0.00023229  1
  O  O25  1  0.25801257  0.00027745  0.00023229  1
  O  O26  1  0.05778028  0.39976771  0.20027745  1
  O  O27  1  0.85773512  0.80023229  0.39972255  1
  O  O28  1  0.65750283  0.19972255  0.59976771  1
  O  O29  1  0.45114447  0.60000000  0.80000000  1
  O  O30  1  0.85242427  0.78362557  0.92122296  1
  O  O31  1  0.65144016  0.18203762  0.12084271  1
  O  O32  1  0.45045345  0.58178180  0.31912510  1
  O  O33  1  0.25099949  0.98164833  0.52035064  1
  O  O34  1  0.05288754  0.38422052  0.72155456  1
  O  O35  1  0.54757573  0.41637443  0.67877704  1
  O  O36  1  0.34711246  0.81577948  0.87844544  1
  O  O37  1  0.14900051  0.21835167  0.07964936  1
  O  O38  1  0.94954655  0.61821820  0.28087490  1
  O  O39  1  0.74855984  0.01796238  0.47915729  1
  O  O40  1  0.66879870  0.72122296  0.61637443  1
  O  O41  1  0.46867165  0.11912510  0.81821820  1
  O  O42  1  0.26866702  0.52155456  0.01577948  1
  O  O43  1  0.06940254  0.92084271  0.21796238  1
  O  O44  1  0.86935115  0.32035064  0.41835167  1
  O  O45  1  0.73120130  0.47877704  0.98362557  1
  O  O46  1  0.53064885  0.87964936  0.18164833  1
  O  O47  1  0.33059746  0.27915729  0.38203762  1
  O  O48  1  0.13133298  0.67844544  0.58422052  1
  O  O49  1  0.93132835  0.08087490  0.78178180  1
