# generated using pymatgen
data_SmYCu4
_symmetry_space_group_name_H-M   'P 1'
_cell_length_a   4.34769409
_cell_length_b   5.51800859
_cell_length_c   5.51800859
_cell_angle_alpha   95.80487942
_cell_angle_beta   113.20081576
_cell_angle_gamma   66.79918424
_symmetry_Int_Tables_number   1
_chemical_formula_structural   SmYCu4
_chemical_formula_sum   'Sm1 Y1 Cu4'
_cell_volume   111.60569131
_cell_formula_units_Z   1
loop_
 _symmetry_equiv_pos_site_id
 _symmetry_equiv_pos_as_xyz
  1  'x, y, z'
loop_
 _atom_site_type_symbol
 _atom_site_label
 _atom_site_symmetry_multiplicity
 _atom_site_fract_x
 _atom_site_fract_y
 _atom_site_fract_z
 _atom_site_occupancy
  Sm  Sm0  1  0.75000000  0.70844879  0.20844879  1
  Y  Y1  1  0.25000000  0.28921047  0.78921047  1
  Cu  Cu2  1  0.55220798  0.28513895  0.38955492  1
  Cu  Cu3  1  0.44987280  0.71395063  0.61369624  1
  Cu  Cu4  1  0.05012720  0.11369624  0.21395063  1
  Cu  Cu5  1  0.94779202  0.88955492  0.78513895  1
