# generated using pymatgen
data_Sr2Al3In
_symmetry_space_group_name_H-M   'P 1'
_cell_length_a   4.91360886
_cell_length_b   6.21022905
_cell_length_c   6.15867981
_cell_angle_alpha   98.20393119
_cell_angle_beta   113.51051625
_cell_angle_gamma   66.69622030
_symmetry_Int_Tables_number   1
_chemical_formula_structural   Sr2Al3In
_chemical_formula_sum   'Sr2 Al3 In1'
_cell_volume   158.24515913
_cell_formula_units_Z   1
loop_
 _symmetry_equiv_pos_site_id
 _symmetry_equiv_pos_as_xyz
  1  'x, y, z'
loop_
 _atom_site_type_symbol
 _atom_site_label
 _atom_site_symmetry_multiplicity
 _atom_site_fract_x
 _atom_site_fract_y
 _atom_site_fract_z
 _atom_site_occupancy
  Sr  Sr0  1  0.75076706  0.70116512  0.20269924  1
  Sr  Sr1  1  0.25052925  0.29609701  0.79715551  1
  Al  Al2  1  0.42595186  0.74412692  0.59603063  1
  Al  Al3  1  0.06976361  0.08375806  0.22328529  1
  Al  Al4  1  0.94028355  0.89792344  0.77849054  1
  In  In5  1  0.56270467  0.27692945  0.40233880  1
