# generated using pymatgen
data_Sc3(MnNi2)2
_symmetry_space_group_name_H-M   'P 1'
_cell_length_a   4.91727359
_cell_length_b   4.84608310
_cell_length_c   12.24479318
_cell_angle_alpha   90.81293072
_cell_angle_beta   89.33172319
_cell_angle_gamma   118.32219722
_symmetry_Int_Tables_number   1
_chemical_formula_structural   Sc3(MnNi2)2
_chemical_formula_sum   'Sc6 Mn4 Ni8'
_cell_volume   256.82878874
_cell_formula_units_Z   2
loop_
 _symmetry_equiv_pos_site_id
 _symmetry_equiv_pos_as_xyz
  1  'x, y, z'
loop_
 _atom_site_type_symbol
 _atom_site_label
 _atom_site_symmetry_multiplicity
 _atom_site_fract_x
 _atom_site_fract_y
 _atom_site_fract_z
 _atom_site_occupancy
  Sc  Sc0  1  0.33452275  0.66276225  0.91612734  1
  Sc  Sc1  1  0.00419954  0.00551152  0.24946560  1
  Sc  Sc2  1  0.66891673  0.33289744  0.58281957  1
  Sc  Sc3  1  0.33108327  0.66710256  0.66718043  1
  Sc  Sc4  1  0.99580046  0.99448848  0.00053440  1
  Sc  Sc5  1  0.66547725  0.33723775  0.33387266  1
  Mn  Mn6  1  0.50000000  0.50000000  0.12500000  1
  Mn  Mn7  1  0.16710785  0.83305852  0.45861933  1
  Mn  Mn8  1  0.83289215  0.16694148  0.79138067  1
  Mn  Mn9  1  0.50000000  0.00000000  0.12500000  1
  Ni  Ni10  1  0.16654408  0.33297784  0.45919715  1
  Ni  Ni11  1  0.83345592  0.66702216  0.79080285  1
  Ni  Ni12  1  0.33800925  0.67372581  0.29130785  1
  Ni  Ni13  1  0.00000000  0.00000000  0.62500000  1
  Ni  Ni14  1  0.66199075  0.32627419  0.95869215  1
  Ni  Ni15  1  0.00000000  0.50000000  0.12500000  1
  Ni  Ni16  1  0.66616443  0.83259863  0.45883469  1
  Ni  Ni17  1  0.33383557  0.16740137  0.79116531  1
