# generated using pymatgen
data_Sr2Al3FeO8
_symmetry_space_group_name_H-M   'P 1'
_cell_length_a   5.30345400
_cell_length_b   8.56351873
_cell_length_c   9.00122044
_cell_angle_alpha   90.00000000
_cell_angle_beta   90.00000000
_cell_angle_gamma   93.93340117
_symmetry_Int_Tables_number   1
_chemical_formula_structural   Sr2Al3FeO8
_chemical_formula_sum   'Sr4 Al6 Fe2 O16'
_cell_volume   407.83852821
_cell_formula_units_Z   2
loop_
 _symmetry_equiv_pos_site_id
 _symmetry_equiv_pos_as_xyz
  1  'x, y, z'
loop_
 _atom_site_type_symbol
 _atom_site_label
 _atom_site_symmetry_multiplicity
 _atom_site_fract_x
 _atom_site_fract_y
 _atom_site_fract_z
 _atom_site_occupancy
  Sr  Sr0  1  0.25071704  0.48594835  0.49658838  1
  Sr  Sr1  1  0.74928296  0.51405165  0.99658838  1
  Sr  Sr2  1  0.20056168  0.02951213  0.48613088  1
  Sr  Sr3  1  0.79943832  0.97048787  0.98613088  1
  Al  Al4  1  0.72619451  0.79499165  0.33791079  1
  Al  Al5  1  0.27380549  0.20500835  0.83791079  1
  Al  Al6  1  0.21986904  0.70946157  0.17146843  1
  Al  Al7  1  0.78013096  0.29053843  0.67146843  1
  Al  Al8  1  0.80109615  0.67575607  0.66269439  1
  Al  Al9  1  0.19890385  0.32424393  0.16269439  1
  Fe  Fe10  1  0.71060191  0.19284422  0.32600565  1
  Fe  Fe11  1  0.28939809  0.80715578  0.82600565  1
  O  O12  1  0.61384736  0.73220169  0.81405774  1
  O  O13  1  0.38615264  0.26779831  0.31405774  1
  O  O14  1  0.90555593  0.21038581  0.14967636  1
  O  O15  1  0.09444407  0.78961419  0.64967636  1
  O  O16  1  0.34636903  0.33623012  0.98724308  1
  O  O17  1  0.65363097  0.66376988  0.48724308  1
  O  O18  1  0.63911923  0.98403250  0.39052482  1
  O  O19  1  0.36088077  0.01596750  0.89052482  1
  O  O20  1  0.94545047  0.17349255  0.79511015  1
  O  O21  1  0.05454953  0.82650745  0.29511015  1
  O  O22  1  0.44387894  0.26537620  0.67347407  1
  O  O23  1  0.55612106  0.73462380  0.17347407  1
  O  O24  1  0.88145385  0.48600261  0.71725530  1
  O  O25  1  0.11854615  0.51399739  0.21725530  1
  O  O26  1  0.90663297  0.26586159  0.49075996  1
  O  O27  1  0.09336703  0.73413841  0.99075996  1
