# generated using pymatgen
data_Rb2TiCr2(MoO4)6
_symmetry_space_group_name_H-M   'P 1'
_cell_length_a   8.66416268
_cell_length_b   8.68319536
_cell_length_c   8.67029586
_cell_angle_alpha   99.71742947
_cell_angle_beta   99.73953774
_cell_angle_gamma   99.61638383
_symmetry_Int_Tables_number   1
_chemical_formula_structural   Rb2TiCr2(MoO4)6
_chemical_formula_sum   'Rb2 Ti1 Cr2 Mo6 O24'
_cell_volume   620.68516564
_cell_formula_units_Z   1
loop_
 _symmetry_equiv_pos_site_id
 _symmetry_equiv_pos_as_xyz
  1  'x, y, z'
loop_
 _atom_site_type_symbol
 _atom_site_label
 _atom_site_symmetry_multiplicity
 _atom_site_fract_x
 _atom_site_fract_y
 _atom_site_fract_z
 _atom_site_occupancy
  Rb  Rb0  1  0.18612978  0.18843504  0.18528842  1
  Rb  Rb1  1  0.81383675  0.81156736  0.81472497  1
  Ti  Ti2  1  0.50000675  0.99998995  0.49998898  1
  Cr  Cr3  1  0.00016192  0.49988383  0.50005017  1
  Cr  Cr4  1  0.50004435  0.50003761  0.00000214  1
  Mo  Mo5  1  0.21948783  0.22580688  0.68104541  1
  Mo  Mo6  1  0.22518387  0.67982703  0.21949249  1
  Mo  Mo7  1  0.68122444  0.22071040  0.22593564  1
  Mo  Mo8  1  0.78050229  0.77414979  0.31897009  1
  Mo  Mo9  1  0.77481796  0.32017876  0.78050046  1
  Mo  Mo10  1  0.31877641  0.77934641  0.77407801  1
  O  O11  1  0.05589278  0.08383975  0.69023723  1
  O  O12  1  0.08247945  0.68968443  0.05621077  1
  O  O13  1  0.68934105  0.05814895  0.08187622  1
  O  O14  1  0.94406382  0.91614708  0.30977194  1
  O  O15  1  0.91748491  0.31031055  0.94380348  1
  O  O16  1  0.31068285  0.94188700  0.91819111  1
  O  O17  1  0.31649231  0.32262834  0.88396730  1
  O  O18  1  0.32707208  0.88495361  0.31901643  1
  O  O19  1  0.88499335  0.31493478  0.32380252  1
  O  O20  1  0.68347590  0.67735295  0.11601153  1
  O  O21  1  0.67291242  0.11505301  0.68096787  1
  O  O22  1  0.11498972  0.68511863  0.67623464  1
  O  O23  1  0.35621498  0.12789888  0.57797798  1
  O  O24  1  0.13257179  0.58010858  0.35578992  1
  O  O25  1  0.57965604  0.35668572  0.13414333  1
  O  O26  1  0.64373094  0.87208888  0.42202010  1
  O  O27  1  0.86748781  0.41991721  0.64422372  1
  O  O28  1  0.42030875  0.64330434  0.86577307  1
  O  O29  1  0.15811587  0.36607782  0.56257576  1
  O  O30  1  0.36608015  0.56169422  0.15806516  1
  O  O31  1  0.56052486  0.15513890  0.36785953  1
  O  O32  1  0.84192165  0.63390467  0.43745758  1
  O  O33  1  0.63389940  0.43830892  0.84183549  1
  O  O34  1  0.43946778  0.84491270  0.63214357  1
