# generated using pymatgen
data_Pr2Al3Ge
_symmetry_space_group_name_H-M   'P 1'
_cell_length_a   4.32969549
_cell_length_b   4.36334991
_cell_length_c   7.54475189
_cell_angle_alpha   89.99270117
_cell_angle_beta   90.00000000
_cell_angle_gamma   90.00000000
_symmetry_Int_Tables_number   1
_chemical_formula_structural   Pr2Al3Ge
_chemical_formula_sum   'Pr2 Al3 Ge1'
_cell_volume   142.53527387
_cell_formula_units_Z   1
loop_
 _symmetry_equiv_pos_site_id
 _symmetry_equiv_pos_as_xyz
  1  'x, y, z'
loop_
 _atom_site_type_symbol
 _atom_site_label
 _atom_site_symmetry_multiplicity
 _atom_site_fract_x
 _atom_site_fract_y
 _atom_site_fract_z
 _atom_site_occupancy
  Pr  Pr0  1  0.00000000  0.99998225  0.00155608  1
  Pr  Pr1  1  0.00000000  0.49999575  0.49856031  1
  Al  Al2  1  0.50000000  0.49995144  0.83225069  1
  Al  Al3  1  0.50000000  0.49996164  0.16687379  1
  Al  Al4  1  0.50000000  0.99997212  0.66595987  1
  Ge  Ge5  1  0.50000000  0.99993679  0.33479926  1
