# generated using pymatgen
data_RuRhS4
_symmetry_space_group_name_H-M   'P 1'
_cell_length_a   5.70654026
_cell_length_b   5.70866224
_cell_length_c   5.69658350
_cell_angle_alpha   89.94215703
_cell_angle_beta   90.00000000
_cell_angle_gamma   90.00000000
_symmetry_Int_Tables_number   1
_chemical_formula_structural   RuRhS4
_chemical_formula_sum   'Ru2 Rh2 S8'
_cell_volume   185.57585935
_cell_formula_units_Z   2
loop_
 _symmetry_equiv_pos_site_id
 _symmetry_equiv_pos_as_xyz
  1  'x, y, z'
loop_
 _atom_site_type_symbol
 _atom_site_label
 _atom_site_symmetry_multiplicity
 _atom_site_fract_x
 _atom_site_fract_y
 _atom_site_fract_z
 _atom_site_occupancy
  Ru  Ru0  1  0.50000000  0.50000000  0.00000000  1
  Ru  Ru1  1  -0.00000000  -0.00000000  0.00000000  1
  Rh  Rh2  1  0.50000000  -0.00000000  0.50000000  1
  Rh  Rh3  1  -0.00000000  0.50000000  0.50000000  1
  S  S4  1  0.88291544  0.38293183  0.11030272  1
  S  S5  1  0.38291544  0.11706817  0.88969728  1
  S  S6  1  0.11311202  0.88750914  0.38058180  1
  S  S7  1  0.61311202  0.61249086  0.61941820  1
  S  S8  1  0.11708456  0.61706817  0.88969728  1
  S  S9  1  0.61708456  0.88293183  0.11030272  1
  S  S10  1  0.88688798  0.11249086  0.61941820  1
  S  S11  1  0.38688798  0.38750914  0.38058180  1
