# generated using pymatgen
data_ReGeAs
_symmetry_space_group_name_H-M   'P 1'
_cell_length_a   3.23692388
_cell_length_b   4.87237680
_cell_length_c   6.91518760
_cell_angle_alpha   89.86340833
_cell_angle_beta   76.46469128
_cell_angle_gamma   109.40059529
_symmetry_Int_Tables_number   1
_chemical_formula_structural   ReGeAs
_chemical_formula_sum   'Re2 Ge2 As2'
_cell_volume   99.63063558
_cell_formula_units_Z   2
loop_
 _symmetry_equiv_pos_site_id
 _symmetry_equiv_pos_as_xyz
  1  'x, y, z'
loop_
 _atom_site_type_symbol
 _atom_site_label
 _atom_site_symmetry_multiplicity
 _atom_site_fract_x
 _atom_site_fract_y
 _atom_site_fract_z
 _atom_site_occupancy
  Re  Re0  1  0.05023035  0.88968108  0.78922037  1
  Re  Re1  1  0.94976965  0.11031892  0.21077963  1
  Ge  Ge2  1  0.70747072  0.31081312  0.89587169  1
  Ge  Ge3  1  0.29252928  0.68918688  0.10412831  1
  As  As4  1  0.61357266  0.75467783  0.52753251  1
  As  As5  1  0.38642734  0.24532217  0.47246749  1
