# generated using pymatgen
data_NbFeF6
_symmetry_space_group_name_H-M   'P 1'
_cell_length_a   5.73966331
_cell_length_b   5.73966239
_cell_length_c   5.73966266
_cell_angle_alpha   57.25337413
_cell_angle_beta   57.25337994
_cell_angle_gamma   57.25337525
_symmetry_Int_Tables_number   1
_chemical_formula_structural   NbFeF6
_chemical_formula_sum   'Nb1 Fe1 F6'
_cell_volume   125.24706612
_cell_formula_units_Z   1
loop_
 _symmetry_equiv_pos_site_id
 _symmetry_equiv_pos_as_xyz
  1  'x, y, z'
loop_
 _atom_site_type_symbol
 _atom_site_label
 _atom_site_symmetry_multiplicity
 _atom_site_fract_x
 _atom_site_fract_y
 _atom_site_fract_z
 _atom_site_occupancy
  Nb  Nb0  1  0.50000000  0.50000000  0.50000000  1
  Fe  Fe1  1  0.00000000  0.00000000  0.00000000  1
  F  F2  1  0.34184759  0.16740523  0.74394779  1
  F  F3  1  0.74394779  0.34184759  0.16740523  1
  F  F4  1  0.16740523  0.74394779  0.34184759  1
  F  F5  1  0.65815241  0.83259477  0.25605221  1
  F  F6  1  0.25605221  0.65815241  0.83259477  1
  F  F7  1  0.83259477  0.25605221  0.65815241  1
