# generated using pymatgen
data_Ti4O7
_symmetry_space_group_name_H-M   'P 1'
_cell_length_a   5.63783799
_cell_length_b   7.18364035
_cell_length_c   12.57501466
_cell_angle_alpha   95.12319470
_cell_angle_beta   95.69911689
_cell_angle_gamma   108.89704510
_symmetry_Int_Tables_number   1
_chemical_formula_structural   Ti4O7
_chemical_formula_sum   'Ti16 O28'
_cell_volume   475.45212668
_cell_formula_units_Z   4
loop_
 _symmetry_equiv_pos_site_id
 _symmetry_equiv_pos_as_xyz
  1  'x, y, z'
loop_
 _atom_site_type_symbol
 _atom_site_label
 _atom_site_symmetry_multiplicity
 _atom_site_fract_x
 _atom_site_fract_y
 _atom_site_fract_z
 _atom_site_occupancy
  O  O0  1  0.89273290  0.63743351  0.48338386  1
  O  O1  1  0.10726710  0.36256649  0.51661614  1
  O  O2  1  0.41400923  0.70551422  0.44248229  1
  O  O3  1  0.58599077  0.29448578  0.55751771  1
  O  O4  1  0.14489087  0.00500244  0.41806509  1
  O  O5  1  0.85510913  0.99499756  0.58193491  1
  O  O6  1  0.67180432  0.06254294  0.36137103  1
  O  O7  1  0.32819568  0.93745706  0.63862897  1
  O  O8  1  0.47390698  0.35573815  0.33616698  1
  O  O9  1  0.52609302  0.64426185  0.66383302  1
  O  O10  1  0.96474297  0.43206893  0.30157312  1
  O  O11  1  0.03525703  0.56793107  0.69842688  1
  O  O12  1  0.70463264  0.70984633  0.27660185  1
  O  O13  1  0.29536736  0.29015367  0.72339815  1
  O  O14  1  0.70484083  0.20940222  0.77665532  1
  O  O15  1  0.29515917  0.79059778  0.22334468  1
  O  O16  1  0.10764517  0.86295826  0.01676200  1
  O  O17  1  0.89235483  0.13704174  0.98323800  1
  O  O18  1  0.58607022  0.79435832  0.05757129  1
  O  O19  1  0.41392978  0.20564168  0.94242871  1
  O  O20  1  0.85494255  0.49508146  0.08185458  1
  O  O21  1  0.14505745  0.50491854  0.91814542  1
  O  O22  1  0.32785897  0.43772885  0.13867793  1
  O  O23  1  0.67214103  0.56227115  0.86132207  1
  O  O24  1  0.52595315  0.14468504  0.16377607  1
  O  O25  1  0.47404685  0.85531496  0.83622393  1
  O  O26  1  0.03498805  0.06855547  0.19842091  1
  O  O27  1  0.96501195  0.93144453  0.80157909  1
  Ti  Ti28  1  0.31226684  0.55992890  0.29862883  1
  Ti  Ti29  1  0.68773316  0.44007110  0.70137117  1
  Ti  Ti30  1  0.31728123  0.06231861  0.29872918  1
  Ti  Ti31  1  0.68271877  0.93768139  0.70127082  1
  Ti  Ti32  1  0.31257223  0.05952283  0.79871263  1
  Ti  Ti33  1  0.68742777  0.94047717  0.20128737  1
  Ti  Ti34  1  0.31747938  0.56182260  0.79878706  1
  Ti  Ti35  1  0.68252062  0.43817740  0.20121294  1
  Ti  Ti36  1  0.78379329  0.84935165  0.43412048  1
  Ti  Ti37  1  0.21620671  0.15064835  0.56587952  1
  Ti  Ti38  1  0.78333359  0.34707565  0.43764595  1
  Ti  Ti39  1  0.21666641  0.65292435  0.56235405  1
  Ti  Ti40  1  0.78387795  0.34912085  0.93409173  1
  Ti  Ti41  1  0.21612205  0.65087915  0.06590827  1
  Ti  Ti42  1  0.78343780  0.84669892  0.93763335  1
  Ti  Ti43  1  0.21656220  0.15330108  0.06236665  1
