# generated using pymatgen
data_Nd4Fe4Co12B3C
_symmetry_space_group_name_H-M   'P 1'
_cell_length_a   5.11707565
_cell_length_b   5.11799728
_cell_length_c   13.46937056
_cell_angle_alpha   90.00000000
_cell_angle_beta   90.00000000
_cell_angle_gamma   119.97814971
_symmetry_Int_Tables_number   1
_chemical_formula_structural   Nd4Fe4Co12B3C
_chemical_formula_sum   'Nd4 Fe4 Co12 B3 C1'
_cell_volume   305.55922589
_cell_formula_units_Z   1
loop_
 _symmetry_equiv_pos_site_id
 _symmetry_equiv_pos_as_xyz
  1  'x, y, z'
loop_
 _atom_site_type_symbol
 _atom_site_label
 _atom_site_symmetry_multiplicity
 _atom_site_fract_x
 _atom_site_fract_y
 _atom_site_fract_z
 _atom_site_occupancy
  Nd  Nd0  1  0.99997905  0.00000247  0.00072973  1
  Nd  Nd1  1  0.99997905  0.00000247  0.49927027  1
  Nd  Nd2  1  -0.00003714  -0.00000502  0.25000000  1
  Nd  Nd3  1  0.00004322  0.00002533  0.75000000  1
  Fe  Fe4  1  0.33336459  0.66667692  0.50007596  1
  Fe  Fe5  1  0.33336459  0.66667692  0.99992404  1
  Fe  Fe6  1  0.66659045  0.33332886  0.00190064  1
  Fe  Fe7  1  0.66659045  0.33332886  0.49809936  1
  Co  Co8  1  0.49744980  0.99496139  0.14895444  1
  Co  Co9  1  0.50014291  0.00030431  0.64442198  1
  Co  Co10  1  0.49744358  0.50250450  0.14895558  1
  Co  Co11  1  0.50014098  0.49985054  0.64445234  1
  Co  Co12  1  0.00495571  0.50248305  0.14895836  1
  Co  Co13  1  0.99966493  0.49983936  0.64436588  1
  Co  Co14  1  0.49744980  0.99496139  0.35104556  1
  Co  Co15  1  0.50014291  0.00030431  0.85557802  1
  Co  Co16  1  0.49744358  0.50250450  0.35104442  1
  Co  Co17  1  0.50014098  0.49985054  0.85554766  1
  Co  Co18  1  0.00495571  0.50248305  0.35104164  1
  Co  Co19  1  0.99966493  0.49983936  0.85563412  1
  B  B20  1  0.33357022  0.66668025  0.75000000  1
  B  B21  1  0.66683485  0.33338720  0.25000000  1
  B  B22  1  0.66638153  0.33331419  0.75000000  1
  C  C23  1  0.33334328  0.66669525  0.25000000  1
