# generated using pymatgen
data_Rb3(SeO4)2
_symmetry_space_group_name_H-M   'P 1'
_cell_length_a   6.16928320
_cell_length_b   6.15841375
_cell_length_c   8.39327930
_cell_angle_alpha   91.34037028
_cell_angle_beta   111.56233917
_cell_angle_gamma   59.94160338
_symmetry_Int_Tables_number   1
_chemical_formula_structural   Rb3(SeO4)2
_chemical_formula_sum   'Rb3 Se2 O8'
_cell_volume   251.51898579
_cell_formula_units_Z   1
loop_
 _symmetry_equiv_pos_site_id
 _symmetry_equiv_pos_as_xyz
  1  'x, y, z'
loop_
 _atom_site_type_symbol
 _atom_site_label
 _atom_site_symmetry_multiplicity
 _atom_site_fract_x
 _atom_site_fract_y
 _atom_site_fract_z
 _atom_site_occupancy
  Rb  Rb0  1  0.00275166  1.00000000  1.00000000  1
  Rb  Rb1  1  0.58851339  0.20393475  0.38592173  1
  Rb  Rb2  1  0.40652641  0.79606525  0.61407827  1
  Se  Se3  1  0.16790722  0.41718219  0.77206018  1
  Se  Se4  1  0.81302924  0.58281781  0.22793982  1
  O  O5  1  0.56860070  0.71584231  0.30537039  1
  O  O6  1  0.99748487  0.72052594  0.27904975  1
  O  O7  1  0.01574665  0.26636857  0.30511309  1
  O  O8  1  0.43896106  0.27947406  0.72095025  1
  O  O9  1  0.97907262  0.28415769  0.69462961  1
  O  O10  1  0.97700213  0.73363143  0.69488691  1
  O  O11  1  0.27504296  0.36243050  0.99111238  1
  O  O12  1  0.64636107  0.63756950  0.00888762  1
