# generated using pymatgen
data_Nb2CuS4
_symmetry_space_group_name_H-M   'P 1'
_cell_length_a   3.38653110
_cell_length_b   3.38661234
_cell_length_c   13.23894025
_cell_angle_alpha   90.00002233
_cell_angle_beta   89.99928943
_cell_angle_gamma   59.99922144
_symmetry_Int_Tables_number   1
_chemical_formula_structural   Nb2CuS4
_chemical_formula_sum   'Nb2 Cu1 S4'
_cell_volume   131.49250575
_cell_formula_units_Z   1
loop_
 _symmetry_equiv_pos_site_id
 _symmetry_equiv_pos_as_xyz
  1  'x, y, z'
loop_
 _atom_site_type_symbol
 _atom_site_label
 _atom_site_symmetry_multiplicity
 _atom_site_fract_x
 _atom_site_fract_y
 _atom_site_fract_z
 _atom_site_occupancy
  Nb  Nb0  1  0.33331274  0.33334356  0.75191231  1
  Nb  Nb1  1  0.66668754  0.66665626  0.24860153  1
  Cu  Cu2  1  0.33338275  0.33330850  0.53439196  1
  S  S3  1  0.33334691  0.33332642  0.36747500  1
  S  S4  1  0.66666514  0.66666801  0.63019215  1
  S  S5  1  0.66664733  0.66667652  0.86714844  1
  S  S6  1  0.33335760  0.33332072  0.13427860  1
