# generated using pymatgen
data_NaTa4Bi5O18
_symmetry_space_group_name_H-M   'P 1'
_cell_length_a   5.50316924
_cell_length_b   5.55033487
_cell_length_c   12.95793967
_cell_angle_alpha   90.00751972
_cell_angle_beta   77.74005163
_cell_angle_gamma   90.03541238
_symmetry_Int_Tables_number   1
_chemical_formula_structural   NaTa4Bi5O18
_chemical_formula_sum   'Na1 Ta4 Bi5 O18'
_cell_volume   386.76648172
_cell_formula_units_Z   1
loop_
 _symmetry_equiv_pos_site_id
 _symmetry_equiv_pos_as_xyz
  1  'x, y, z'
loop_
 _atom_site_type_symbol
 _atom_site_label
 _atom_site_symmetry_multiplicity
 _atom_site_fract_x
 _atom_site_fract_y
 _atom_site_fract_z
 _atom_site_occupancy
  Na  Na0  1  0.74775769  0.48871183  0.00000000  1
  Ta  Ta1  1  0.66428322  0.95575555  0.16674483  1
  Ta  Ta2  1  0.83102805  0.95575555  0.83325517  1
  Ta  Ta3  1  0.33213119  0.46263100  0.83226274  1
  Ta  Ta4  1  0.16439393  0.46263100  0.16773726  1
  Bi  Bi5  1  0.23552789  0.01200638  1.00000000  1
  Bi  Bi6  1  0.47898314  0.01111794  0.60101273  1
  Bi  Bi7  1  0.07999587  0.01111794  0.39898727  1
  Bi  Bi8  1  0.52214825  0.51087159  0.39925044  1
  Bi  Bi9  1  0.92139869  0.51087159  0.60074956  1
  O  O10  1  0.13802959  0.14477481  0.82857833  1
  O  O11  1  0.96660793  0.14477481  0.17142167  1
  O  O12  1  0.86747543  0.65076969  0.17536605  1
  O  O13  1  0.04284148  0.65076969  0.82463395  1
  O  O14  1  0.25832742  0.24141487  0.50224535  1
  O  O15  1  0.76057278  0.24141487  0.49775465  1
  O  O16  1  0.74184224  0.74129293  0.49795301  1
  O  O17  1  0.23979525  0.74129293  0.50204699  1
  O  O18  1  0.59895722  0.22443611  0.86861211  1
  O  O19  1  0.46756934  0.22443611  0.13138789  1
  O  O20  1  0.39547668  0.73162603  0.13238775  1
  O  O21  1  0.52786444  0.73162603  0.86761225  1
  O  O22  1  0.82671559  0.93288447  1.00000000  1
  O  O23  1  0.18537888  0.41628999  1.00000000  1
  O  O24  1  0.52545648  0.94674338  0.31384118  1
  O  O25  1  0.83929766  0.94674338  0.68615882  1
  O  O26  1  0.47700710  0.44421975  0.68612946  1
  O  O27  1  0.16313656  0.44421975  0.31387054  1
