# generated using pymatgen
data_NdDyFe14C
_symmetry_space_group_name_H-M   'P 1'
_cell_length_a   8.74535768
_cell_length_b   8.74535768
_cell_length_c   11.82508926
_cell_angle_alpha   90.00000000
_cell_angle_beta   90.00000000
_cell_angle_gamma   90.00000000
_symmetry_Int_Tables_number   1
_chemical_formula_structural   NdDyFe14C
_chemical_formula_sum   'Nd4 Dy4 Fe56 C4'
_cell_volume   904.39797397
_cell_formula_units_Z   4
loop_
 _symmetry_equiv_pos_site_id
 _symmetry_equiv_pos_as_xyz
  1  'x, y, z'
loop_
 _atom_site_type_symbol
 _atom_site_label
 _atom_site_symmetry_multiplicity
 _atom_site_fract_x
 _atom_site_fract_y
 _atom_site_fract_z
 _atom_site_occupancy
  Nd  Nd0  1  0.24303902  0.75696098  0.50000000  1
  Nd  Nd1  1  0.75696098  0.24303902  0.50000000  1
  Nd  Nd2  1  0.25696098  0.25696098  0.00000000  1
  Nd  Nd3  1  0.74303902  0.74303902  0.00000000  1
  Dy  Dy4  1  0.64696804  0.64696804  0.50000000  1
  Dy  Dy5  1  0.35303196  0.35303196  0.50000000  1
  Dy  Dy6  1  0.85303196  0.14696804  0.00000000  1
  Dy  Dy7  1  0.14696804  0.85303196  0.00000000  1
  Fe  Fe8  1  0.50000000  0.50000000  0.10850242  1
  Fe  Fe9  1  -0.00000000  -0.00000000  0.60850242  1
  Fe  Fe10  1  0.50000000  0.50000000  0.89149758  1
  Fe  Fe11  1  -0.00000000  -0.00000000  0.39149758  1
  Fe  Fe12  1  0.14142420  0.53391245  0.32369325  1
  Fe  Fe13  1  0.85857580  0.46608755  0.32369325  1
  Fe  Fe14  1  0.35857580  0.03391245  0.82369325  1
  Fe  Fe15  1  0.64142420  0.96608755  0.82369325  1
  Fe  Fe16  1  0.85857580  0.46608755  0.67630675  1
  Fe  Fe17  1  0.14142420  0.53391245  0.67630675  1
  Fe  Fe18  1  0.64142420  0.96608755  0.17630675  1
  Fe  Fe19  1  0.35857580  0.03391245  0.17630675  1
  Fe  Fe20  1  0.53391245  0.14142420  0.32369325  1
  Fe  Fe21  1  0.46608755  0.85857580  0.32369325  1
  Fe  Fe22  1  0.03391245  0.35857580  0.82369325  1
  Fe  Fe23  1  0.96608755  0.64142420  0.82369325  1
  Fe  Fe24  1  0.46608755  0.85857580  0.67630675  1
  Fe  Fe25  1  0.53391245  0.14142420  0.67630675  1
  Fe  Fe26  1  0.96608755  0.64142420  0.17630675  1
  Fe  Fe27  1  0.03391245  0.35857580  0.17630675  1
  Fe  Fe28  1  0.93548333  0.72639036  0.37883903  1
  Fe  Fe29  1  0.06451667  0.27360964  0.37883903  1
  Fe  Fe30  1  0.56451667  0.22639036  0.87883903  1
  Fe  Fe31  1  0.43548333  0.77360964  0.87883903  1
  Fe  Fe32  1  0.06451667  0.27360964  0.62116097  1
  Fe  Fe33  1  0.93548333  0.72639036  0.62116097  1
  Fe  Fe34  1  0.43548333  0.77360964  0.12116097  1
  Fe  Fe35  1  0.56451667  0.22639036  0.12116097  1
  Fe  Fe36  1  0.72639036  0.93548333  0.37883903  1
  Fe  Fe37  1  0.27360964  0.06451667  0.37883903  1
  Fe  Fe38  1  0.22639036  0.56451667  0.87883903  1
  Fe  Fe39  1  0.77360964  0.43548333  0.87883903  1
  Fe  Fe40  1  0.27360964  0.06451667  0.62116097  1
  Fe  Fe41  1  0.72639036  0.93548333  0.62116097  1
  Fe  Fe42  1  0.77360964  0.43548333  0.12116097  1
  Fe  Fe43  1  0.22639036  0.56451667  0.12116097  1
  Fe  Fe44  1  0.18517229  0.81482771  0.25238586  1
  Fe  Fe45  1  0.81482771  0.18517229  0.25238586  1
  Fe  Fe46  1  0.31482771  0.31482771  0.75238586  1
  Fe  Fe47  1  0.68517229  0.68517229  0.75238586  1
  Fe  Fe48  1  0.81482771  0.18517229  0.74761414  1
  Fe  Fe49  1  0.18517229  0.81482771  0.74761414  1
  Fe  Fe50  1  0.68517229  0.68517229  0.24761414  1
  Fe  Fe51  1  0.31482771  0.31482771  0.24761414  1
  Fe  Fe52  1  0.40335954  0.59664046  0.29575617  1
  Fe  Fe53  1  0.59664046  0.40335954  0.29575617  1
  Fe  Fe54  1  0.09664046  0.09664046  0.79575617  1
  Fe  Fe55  1  0.90335954  0.90335954  0.79575617  1
  Fe  Fe56  1  0.59664046  0.40335954  0.70424383  1
  Fe  Fe57  1  0.40335954  0.59664046  0.70424383  1
  Fe  Fe58  1  0.90335954  0.90335954  0.20424383  1
  Fe  Fe59  1  0.09664046  0.09664046  0.20424383  1
  Fe  Fe60  1  -0.00000000  0.50000000  0.50000000  1
  Fe  Fe61  1  0.50000000  -0.00000000  0.00000000  1
  Fe  Fe62  1  0.50000000  -0.00000000  0.50000000  1
  Fe  Fe63  1  -0.00000000  0.50000000  0.00000000  1
  C  C64  1  0.87405141  0.87405141  0.50000000  1
  C  C65  1  0.12594859  0.12594859  0.50000000  1
  C  C66  1  0.62594859  0.37405141  0.00000000  1
  C  C67  1  0.37405141  0.62594859  0.00000000  1
