# generated using pymatgen
data_NaTi3FeO8
_symmetry_space_group_name_H-M   'P 1'
_cell_length_a   3.84301720
_cell_length_b   6.49105856
_cell_length_c   6.56788330
_cell_angle_alpha   106.51499135
_cell_angle_beta   90.00000000
_cell_angle_gamma   72.78104923
_symmetry_Int_Tables_number   1
_chemical_formula_structural   NaTi3FeO8
_chemical_formula_sum   'Na1 Ti3 Fe1 O8'
_cell_volume   149.40348772
_cell_formula_units_Z   1
loop_
 _symmetry_equiv_pos_site_id
 _symmetry_equiv_pos_as_xyz
  1  'x, y, z'
loop_
 _atom_site_type_symbol
 _atom_site_label
 _atom_site_symmetry_multiplicity
 _atom_site_fract_x
 _atom_site_fract_y
 _atom_site_fract_z
 _atom_site_occupancy
  Na  Na0  1  0.00171057  0.99657887  0.99475896  1
  Ti  Ti1  1  0.60175603  0.79648795  0.29171408  1
  Ti  Ti2  1  0.39839205  0.20321591  0.69988904  1
  Ti  Ti3  1  0.29762660  0.40474680  0.29261640  1
  Fe  Fe4  1  0.70153999  0.59692002  0.70544639  1
  O  O5  1  0.55412260  0.89175480  0.63611371  1
  O  O6  1  0.44154218  0.11691565  0.36631545  1
  O  O7  1  0.62334610  0.75330779  0.00691972  1
  O  O8  1  0.37028155  0.25943690  0.01094825  1
  O  O9  1  0.76497359  0.47005281  0.34027603  1
  O  O10  1  0.23962608  0.52074784  0.64628022  1
  O  O11  1  0.86785269  0.26429462  0.71351079  1
  O  O12  1  0.13722998  0.72554005  0.29521095  1
