# generated using pymatgen
data_NaLi(AsS2)2
_symmetry_space_group_name_H-M   'P 1'
_cell_length_a   5.53768964
_cell_length_b   5.67540193
_cell_length_c   6.90819581
_cell_angle_alpha   63.78250045
_cell_angle_beta   110.47349082
_cell_angle_gamma   89.85251226
_symmetry_Int_Tables_number   1
_chemical_formula_structural   NaLi(AsS2)2
_chemical_formula_sum   'Na1 Li1 As2 S4'
_cell_volume   179.25952379
_cell_formula_units_Z   1
loop_
 _symmetry_equiv_pos_site_id
 _symmetry_equiv_pos_as_xyz
  1  'x, y, z'
loop_
 _atom_site_type_symbol
 _atom_site_label
 _atom_site_symmetry_multiplicity
 _atom_site_fract_x
 _atom_site_fract_y
 _atom_site_fract_z
 _atom_site_occupancy
  Na  Na0  1  0.47665654  0.26199010  0.95525523  1
  Li  Li1  1  0.97695029  0.78104752  0.95863133  1
  As  As2  1  0.15350151  0.09170827  0.38882739  1
  As  As3  1  0.65115433  0.51932930  0.38510547  1
  S  S4  1  0.50594681  0.73708164  0.00101678  1
  S  S5  1  0.99776859  0.26289053  0.00536544  1
  S  S6  1  0.25275070  0.46639328  0.44270285  1
  S  S7  1  0.77507124  0.07039935  0.48141552  1
