# generated using pymatgen
data_Nb4Pb3(O6F)2
_symmetry_space_group_name_H-M   'P 1'
_cell_length_a   7.58424334
_cell_length_b   12.91869849
_cell_length_c   12.91869849
_cell_angle_alpha   89.90171763
_cell_angle_beta   90.00000000
_cell_angle_gamma   90.00000000
_symmetry_Int_Tables_number   1
_chemical_formula_structural   Nb4Pb3(O6F)2
_chemical_formula_sum   'Nb16 Pb12 O48 F8'
_cell_volume   1265.75352260
_cell_formula_units_Z   4
loop_
 _symmetry_equiv_pos_site_id
 _symmetry_equiv_pos_as_xyz
  1  'x, y, z'
loop_
 _atom_site_type_symbol
 _atom_site_label
 _atom_site_symmetry_multiplicity
 _atom_site_fract_x
 _atom_site_fract_y
 _atom_site_fract_z
 _atom_site_occupancy
  Nb  Nb0  1  0.50000000  0.95084703  0.73657744  1
  Nb  Nb1  1  0.50000000  0.05284665  0.25420847  1
  Nb  Nb2  1  -0.00000000  0.54370672  0.22764318  1
  Nb  Nb3  1  -0.00000000  0.44341300  0.74786159  1
  Nb  Nb4  1  0.50000000  0.73657744  0.95084703  1
  Nb  Nb5  1  0.50000000  0.25420847  0.05284665  1
  Nb  Nb6  1  -0.00000000  0.22764318  0.54370672  1
  Nb  Nb7  1  -0.00000000  0.74786159  0.44341300  1
  Nb  Nb8  1  0.24917226  0.19800667  0.80057166  1
  Nb  Nb9  1  0.24917226  0.80057166  0.19800667  1
  Nb  Nb10  1  0.75007062  0.30278355  0.30278355  1
  Nb  Nb11  1  0.74931747  0.69892024  0.69892024  1
  Nb  Nb12  1  0.75082774  0.80057166  0.19800667  1
  Nb  Nb13  1  0.75082774  0.19800667  0.80057166  1
  Nb  Nb14  1  0.25068253  0.69892024  0.69892024  1
  Nb  Nb15  1  0.24992938  0.30278355  0.30278355  1
  Pb  Pb16  1  0.23991976  0.49860545  0.49860545  1
  Pb  Pb17  1  0.73781858  0.99097003  0.99097003  1
  Pb  Pb18  1  0.76008024  0.49860545  0.49860545  1
  Pb  Pb19  1  0.26218142  0.99097003  0.99097003  1
  Pb  Pb20  1  0.50000000  0.43888525  0.78640209  1
  Pb  Pb21  1  0.50000000  0.56221474  0.20017909  1
  Pb  Pb22  1  -0.00000000  0.05949076  0.28772715  1
  Pb  Pb23  1  -0.00000000  0.93747383  0.70596651  1
  Pb  Pb24  1  0.50000000  0.78640209  0.43888525  1
  Pb  Pb25  1  0.50000000  0.20017909  0.56221474  1
  Pb  Pb26  1  -0.00000000  0.28772715  0.05949076  1
  Pb  Pb27  1  -0.00000000  0.70596651  0.93747383  1
  O  O28  1  0.30374838  0.05232134  0.80102116  1
  O  O29  1  0.31389016  0.94702567  0.20903498  1
  O  O30  1  0.80985025  0.44865609  0.29756910  1
  O  O31  1  0.80918399  0.55326277  0.70563542  1
  O  O32  1  0.68610984  0.94702567  0.20903498  1
  O  O33  1  0.69625162  0.05232134  0.80102116  1
  O  O34  1  0.19081601  0.55326277  0.70563542  1
  O  O35  1  0.19014975  0.44865609  0.29756910  1
  O  O36  1  0.30374838  0.80102116  0.05232134  1
  O  O37  1  0.31389016  0.20903498  0.94702567  1
  O  O38  1  0.80985025  0.29756910  0.44865609  1
  O  O39  1  0.80918399  0.70563542  0.55326277  1
  O  O40  1  0.68610984  0.20903498  0.94702567  1
  O  O41  1  0.69625162  0.80102116  0.05232134  1
  O  O42  1  0.19081601  0.70563542  0.55326277  1
  O  O43  1  0.19014975  0.29756910  0.44865609  1
  O  O44  1  0.19085144  0.35841475  0.79990136  1
  O  O45  1  0.19031573  0.64501105  0.19959461  1
  O  O46  1  0.68929421  0.14401699  0.29991865  1
  O  O47  1  0.69225150  0.85684331  0.70103675  1
  O  O48  1  0.80968427  0.64501105  0.19959461  1
  O  O49  1  0.80914856  0.35841475  0.79990136  1
  O  O50  1  0.30774850  0.85684331  0.70103675  1
  O  O51  1  0.31070579  0.14401699  0.29991865  1
  O  O52  1  0.19085144  0.79990136  0.35841475  1
  O  O53  1  0.19031573  0.19959461  0.64501105  1
  O  O54  1  0.68929421  0.29991865  0.14401699  1
  O  O55  1  0.69225150  0.70103675  0.85684331  1
  O  O56  1  0.80968427  0.19959461  0.64501105  1
  O  O57  1  0.80914856  0.79990136  0.35841475  1
  O  O58  1  0.30774850  0.70103675  0.85684331  1
  O  O59  1  0.31070579  0.29991865  0.14401699  1
  O  O60  1  0.50000000  0.89911856  0.89911856  1
  O  O61  1  0.50000000  0.11051487  0.11051487  1
  O  O62  1  -0.00000000  0.60712547  0.39668981  1
  O  O63  1  -0.00000000  0.39668981  0.60712547  1
  O  O64  1  0.50000000  0.67227220  0.67227220  1
  O  O65  1  0.50000000  0.32914591  0.32914591  1
  O  O66  1  -0.00000000  0.83097889  0.17508517  1
  O  O67  1  -0.00000000  0.17508517  0.83097889  1
  O  O68  1  0.50000000  0.24634880  0.75383262  1
  O  O69  1  0.50000000  0.75383262  0.24634880  1
  O  O70  1  -0.00000000  0.25563773  0.25563773  1
  O  O71  1  -0.00000000  0.74637508  0.74637508  1
  O  O72  1  0.50000000  0.03313045  0.62020781  1
  O  O73  1  -0.00000000  0.46880724  0.10980313  1
  O  O74  1  0.50000000  0.62020781  0.03313045  1
  O  O75  1  -0.00000000  0.10980313  0.46880724  1
  F  F76  1  0.50000000  0.41788667  0.59181690  1
  F  F77  1  0.50000000  0.59181690  0.41788667  1
  F  F78  1  -0.00000000  0.09108567  0.09108567  1
  F  F79  1  -0.00000000  0.90905576  0.90905576  1
  F  F80  1  0.50000000  0.97394877  0.39150499  1
  F  F81  1  -0.00000000  0.53079906  0.88514171  1
  F  F82  1  0.50000000  0.39150499  0.97394877  1
  F  F83  1  -0.00000000  0.88514171  0.53079906  1
