# generated using pymatgen
data_Na5Si34
_symmetry_space_group_name_H-M   'P 1'
_cell_length_a   10.45491208
_cell_length_b   10.45960757
_cell_length_c   10.45491208
_cell_angle_alpha   90.00000000
_cell_angle_beta   60.00000000
_cell_angle_gamma   119.98515108
_symmetry_Int_Tables_number   1
_chemical_formula_structural   Na5Si34
_chemical_formula_sum   'Na5 Si34'
_cell_volume   808.60905495
_cell_formula_units_Z   1
loop_
 _symmetry_equiv_pos_site_id
 _symmetry_equiv_pos_as_xyz
  1  'x, y, z'
loop_
 _atom_site_type_symbol
 _atom_site_label
 _atom_site_symmetry_multiplicity
 _atom_site_fract_x
 _atom_site_fract_y
 _atom_site_fract_z
 _atom_site_occupancy
  Na  Na0  1  0.75002590  0.37503885  0.37498705  1
  Na  Na1  1  0.24997410  0.62496115  0.62501295  1
  Na  Na2  1  0.50000000  -0.00000000  -0.00000000  1
  Na  Na3  1  -0.00000000  -0.00000000  0.50000000  1
  Na  Na4  1  -0.00000000  -0.00000000  -0.00000000  1
  Si  Si5  1  0.93608568  0.15412852  0.78195716  1
  Si  Si6  1  0.93560963  0.78055163  0.78219518  1
  Si  Si7  1  0.56274682  0.78055163  0.15505800  1
  Si  Si8  1  0.56274682  0.78055163  0.78219518  1
  Si  Si9  1  0.06391432  0.84587148  0.21804284  1
  Si  Si10  1  0.06439037  0.21944837  0.21780482  1
  Si  Si11  1  0.43725318  0.21944837  0.84494200  1
  Si  Si12  1  0.43725318  0.21944837  0.21780482  1
  Si  Si13  1  0.74902616  0.87353924  0.87548692  1
  Si  Si14  1  0.25097384  0.12646076  0.12451308  1
  Si  Si15  1  0.86562164  0.23728098  0.62834067  1
  Si  Si16  1  0.86435523  0.62861729  0.00637354  1
  Si  Si17  1  0.63499083  0.62861729  0.23573793  1
  Si  Si18  1  0.63471061  0.00552982  0.62918079  1
  Si  Si19  1  0.25788853  0.62861729  0.23573793  1
  Si  Si20  1  0.24331866  0.23728098  0.62834067  1
  Si  Si21  1  0.24163842  0.00552982  0.62918079  1
  Si  Si22  1  0.25788853  0.62861729  0.00637354  1
  Si  Si23  1  0.86435523  0.62861729  0.62927124  1
  Si  Si24  1  0.63471061  0.00552982  0.23610860  1
  Si  Si25  1  0.86562164  0.23728098  0.00603769  1
  Si  Si26  1  0.63499083  0.62861729  0.62927124  1
  Si  Si27  1  0.13437836  0.76271902  0.37165933  1
  Si  Si28  1  0.13564477  0.37138271  0.99362646  1
  Si  Si29  1  0.36500917  0.37138271  0.76426207  1
  Si  Si30  1  0.36528939  0.99447018  0.37081921  1
  Si  Si31  1  0.74211147  0.37138271  0.76426207  1
  Si  Si32  1  0.75668134  0.76271902  0.37165933  1
  Si  Si33  1  0.75836158  0.99447018  0.37081921  1
  Si  Si34  1  0.74211147  0.37138271  0.99362646  1
  Si  Si35  1  0.13564477  0.37138271  0.37072876  1
  Si  Si36  1  0.36528939  0.99447018  0.76389140  1
  Si  Si37  1  0.13437836  0.76271902  0.99396231  1
  Si  Si38  1  0.36500917  0.37138271  0.37072876  1
