# generated using pymatgen
data_SeS4N3Cl5
_symmetry_space_group_name_H-M   'P 1'
_cell_length_a   8.69106062
_cell_length_b   8.59612112
_cell_length_c   18.63156144
_cell_angle_alpha   90.00000000
_cell_angle_beta   90.00000000
_cell_angle_gamma   102.67429674
_symmetry_Int_Tables_number   1
_chemical_formula_structural   SeS4N3Cl5
_chemical_formula_sum   'Se4 S16 N12 Cl20'
_cell_volume   1358.03533771
_cell_formula_units_Z   4
loop_
 _symmetry_equiv_pos_site_id
 _symmetry_equiv_pos_as_xyz
  1  'x, y, z'
loop_
 _atom_site_type_symbol
 _atom_site_label
 _atom_site_symmetry_multiplicity
 _atom_site_fract_x
 _atom_site_fract_y
 _atom_site_fract_z
 _atom_site_occupancy
  Se  Se0  1  0.36571513  0.51382976  0.40774272  1
  Se  Se1  1  0.63428487  0.48617024  0.59225728  1
  Se  Se2  1  0.86571513  0.51382976  0.09225728  1
  Se  Se3  1  0.13428487  0.48617024  0.90774272  1
  S  S4  1  0.32091810  0.79297540  0.66314878  1
  S  S5  1  0.67908190  0.20702460  0.33685122  1
  S  S6  1  0.72190793  0.82195373  0.93884063  1
  S  S7  1  0.22190793  0.82195373  0.56115937  1
  S  S8  1  0.74102920  0.07976822  0.76379618  1
  S  S9  1  0.17908190  0.20702460  0.16314878  1
  S  S10  1  0.39768270  0.88129977  0.09490560  1
  S  S11  1  0.89768270  0.88129977  0.40509440  1
  S  S12  1  0.75897080  0.92023178  0.26379618  1
  S  S13  1  0.27809207  0.17804627  0.06115937  1
  S  S14  1  0.77809207  0.17804627  0.43884063  1
  S  S15  1  0.60231730  0.11870023  0.90509440  1
  S  S16  1  0.25897080  0.92023178  0.23620382  1
  S  S17  1  0.24102920  0.07976822  0.73620382  1
  S  S18  1  0.82091810  0.79297540  0.83685122  1
  S  S19  1  0.10231730  0.11870023  0.59490560  1
  N  N20  1  0.85625353  0.03078504  0.43981000  1
  N  N21  1  0.80097639  0.92721374  0.78284226  1
  N  N22  1  0.14830625  0.15260094  0.67650763  1
  N  N23  1  0.35625353  0.03078504  0.06019000  1
  N  N24  1  0.64374647  0.96921496  0.93981000  1
  N  N25  1  0.85169375  0.84739906  0.32349237  1
  N  N26  1  0.69902361  0.07278626  0.28284226  1
  N  N27  1  0.64830625  0.15260094  0.82349237  1
  N  N28  1  0.35169375  0.84739906  0.17650763  1
  N  N29  1  0.14374647  0.96921496  0.56019000  1
  N  N30  1  0.19902361  0.07278626  0.21715774  1
  N  N31  1  0.30097639  0.92721374  0.71715774  1
  Cl  Cl32  1  0.54396794  0.19757535  0.59011425  1
  Cl  Cl33  1  0.28027237  0.23130331  0.40920933  1
  Cl  Cl34  1  0.92261538  0.51185718  0.20997860  1
  Cl  Cl35  1  0.21972763  0.76869669  0.90920933  1
  Cl  Cl36  1  0.07738462  0.48814282  0.79002140  1
  Cl  Cl37  1  0.78027237  0.23130331  0.09079067  1
  Cl  Cl38  1  0.45603206  0.80242465  0.40988575  1
  Cl  Cl39  1  0.33884251  0.51817824  0.55890227  1
  Cl  Cl40  1  0.61216526  0.54087962  0.10533496  1
  Cl  Cl41  1  0.04396794  0.19757535  0.90988575  1
  Cl  Cl42  1  0.95603206  0.80242465  0.09011425  1
  Cl  Cl43  1  0.11216526  0.54087962  0.39466504  1
  Cl  Cl44  1  0.38783474  0.45912038  0.89466504  1
  Cl  Cl45  1  0.71972763  0.76869669  0.59079067  1
  Cl  Cl46  1  0.83884251  0.51817824  0.94109773  1
  Cl  Cl47  1  0.16115749  0.48182176  0.05890227  1
  Cl  Cl48  1  0.42261538  0.51185718  0.29002140  1
  Cl  Cl49  1  0.57738462  0.48814282  0.70997860  1
  Cl  Cl50  1  0.88783474  0.45912038  0.60533496  1
  Cl  Cl51  1  0.66115749  0.48182176  0.44109773  1
