# generated using pymatgen
data_Nb3AlCr8
_symmetry_space_group_name_H-M   'P 1'
_cell_length_a   4.88118033
_cell_length_b   4.88118032
_cell_length_c   8.44750854
_cell_angle_alpha   73.20713961
_cell_angle_beta   90.00000000
_cell_angle_gamma   120.00000005
_symmetry_Int_Tables_number   1
_chemical_formula_structural   Nb3AlCr8
_chemical_formula_sum   'Nb3 Al1 Cr8'
_cell_volume   164.31910177
_cell_formula_units_Z   1
loop_
 _symmetry_equiv_pos_site_id
 _symmetry_equiv_pos_as_xyz
  1  'x, y, z'
loop_
 _atom_site_type_symbol
 _atom_site_label
 _atom_site_symmetry_multiplicity
 _atom_site_fract_x
 _atom_site_fract_y
 _atom_site_fract_z
 _atom_site_occupancy
  Nb  Nb0  1  0.37505435  0.75010871  0.87483694  1
  Nb  Nb1  1  0.99851119  0.99702237  0.00446644  1
  Nb  Nb2  1  0.50113868  0.00227737  0.49658395  1
  Al  Al3  1  0.87503914  0.75007827  0.37488259  1
  Cr  Cr4  1  0.43722609  0.37362046  0.18915346  1
  Cr  Cr5  1  0.93732586  0.37711085  0.68556330  1
  Cr  Cr6  1  0.43722609  0.87445217  0.18915346  1
  Cr  Cr7  1  0.93732586  0.87465171  0.68556330  1
  Cr  Cr8  1  0.18751042  0.37502085  0.43746873  1
  Cr  Cr9  1  0.68746297  0.37492593  0.93761110  1
  Cr  Cr10  1  0.93639437  0.37362046  0.18915346  1
  Cr  Cr11  1  0.43978499  0.37711085  0.68556330  1
