# generated using pymatgen
data_Mn2Cr3FeO8
_symmetry_space_group_name_H-M   'P 1'
_cell_length_a   6.11120891
_cell_length_b   6.11120891
_cell_length_c   6.10037970
_cell_angle_alpha   90.00000000
_cell_angle_beta   59.94126045
_cell_angle_gamma   120.00000000
_symmetry_Int_Tables_number   1
_chemical_formula_structural   Mn2Cr3FeO8
_chemical_formula_sum   'Mn2 Cr3 Fe1 O8'
_cell_volume   160.95703775
_cell_formula_units_Z   1
loop_
 _symmetry_equiv_pos_site_id
 _symmetry_equiv_pos_as_xyz
  1  'x, y, z'
loop_
 _atom_site_type_symbol
 _atom_site_label
 _atom_site_symmetry_multiplicity
 _atom_site_fract_x
 _atom_site_fract_y
 _atom_site_fract_z
 _atom_site_occupancy
  Mn  Mn0  1  0.50014244  0.75007122  0.74978633  1
  Mn  Mn1  1  0.99985756  0.99992878  0.00021367  1
  Cr  Cr2  1  0.25000000  0.37500000  0.37500000  1
  Cr  Cr3  1  0.25000000  0.87500000  0.37500000  1
  Cr  Cr4  1  0.75000000  0.37500000  0.37500000  1
  Fe  Fe5  1  0.75000000  0.37500000  0.87500000  1
  O  O6  1  0.27752316  0.13876158  0.58371526  1
  O  O7  1  0.72134553  0.13804436  0.14061011  1
  O  O8  1  0.72134553  0.58330117  0.14061011  1
  O  O9  1  0.27608872  0.13804436  0.14061011  1
  O  O10  1  0.22247684  0.61123842  0.16628474  1
  O  O11  1  0.77865447  0.61195564  0.60938989  1
  O  O12  1  0.77865447  0.16669883  0.60938989  1
  O  O13  1  0.22391128  0.61195564  0.60938989  1
