# generated using pymatgen
data_Na3V2PO9
_symmetry_space_group_name_H-M   'P 1'
_cell_length_a   7.23043489
_cell_length_b   12.02692757
_cell_length_c   10.14652240
_cell_angle_alpha   100.29990661
_cell_angle_beta   78.94777887
_cell_angle_gamma   99.08227722
_symmetry_Int_Tables_number   1
_chemical_formula_structural   Na3V2PO9
_chemical_formula_sum   'Na12 V8 P4 O36'
_cell_volume   845.01527309
_cell_formula_units_Z   4
loop_
 _symmetry_equiv_pos_site_id
 _symmetry_equiv_pos_as_xyz
  1  'x, y, z'
loop_
 _atom_site_type_symbol
 _atom_site_label
 _atom_site_symmetry_multiplicity
 _atom_site_fract_x
 _atom_site_fract_y
 _atom_site_fract_z
 _atom_site_occupancy
  Na  Na0  1  0.71294560  0.50909286  0.77056412  1
  Na  Na1  1  0.72122334  0.84451138  0.43726474  1
  Na  Na2  1  0.71152966  0.17491630  0.10414039  1
  Na  Na3  1  0.28828455  0.82622029  0.89150283  1
  Na  Na4  1  0.28562185  0.15418928  0.55895241  1
  Na  Na5  1  0.28876565  0.49159501  0.22321009  1
  Na  Na6  1  0.09592158  0.72067278  0.19270303  1
  Na  Na7  1  0.09708649  0.04942320  0.84633617  1
  Na  Na8  1  0.09539859  0.38611587  0.52202625  1
  Na  Na9  1  0.90808645  0.61395328  0.47834971  1
  Na  Na10  1  0.90637272  0.94299022  0.14507087  1
  Na  Na11  1  0.90703358  0.27609937  0.81200658  1
  V  V12  1  0.19820405  0.21288738  0.17027425  1
  V  V13  1  0.19844789  0.54958480  0.83433964  1
  V  V14  1  0.37889177  0.98150927  0.21874689  1
  V  V15  1  0.38441101  0.31852448  0.87822291  1
  V  V16  1  0.37823694  0.65909858  0.54250912  1
  V  V17  1  0.79091425  0.12270858  0.50659760  1
  V  V18  1  0.79101666  0.45556397  0.17300055  1
  V  V19  1  0.79110683  0.78887099  0.83921765  1
  P  P20  1  0.61941167  0.01408726  0.78938971  1
  P  P21  1  0.61884801  0.34749610  0.45625002  1
  P  P22  1  0.61985726  0.68078216  0.12262619  1
  P  P23  1  0.19641032  0.88065748  0.50049082  1
  O  O24  1  0.41308728  0.68160586  0.18485799  1
  O  O25  1  0.41345908  0.01580618  0.85319571  1
  O  O26  1  0.41232922  0.34830687  0.51906515  1
  O  O27  1  0.10874978  0.64462744  0.96062104  1
  O  O28  1  0.13093321  0.97008165  0.61673101  1
  O  O29  1  0.10878913  0.31063405  0.29341998  1
  O  O30  1  0.60182712  0.65131249  0.46468271  1
  O  O31  1  0.60157908  0.97667467  0.13769727  1
  O  O32  1  0.60587434  0.31125304  0.79519859  1
  O  O33  1  0.87438031  0.69242983  0.71163983  1
  O  O34  1  0.87347845  0.02729505  0.37741228  1
  O  O35  1  0.87473704  0.35991381  0.04453313  1
  O  O36  1  0.76853429  0.75946075  0.19318510  1
  O  O37  1  0.76906740  0.09241459  0.85960238  1
  O  O38  1  0.76803026  0.42681216  0.52582158  1
  O  O39  1  0.02524590  0.46493371  0.76097738  1
  O  O40  1  0.04742262  0.80208968  0.42976965  1
  O  O41  1  0.02538018  0.13082717  0.09422795  1
  O  O42  1  0.22533677  0.56532421  0.46057343  1
  O  O43  1  0.22454101  0.89783338  0.12829443  1
  O  O44  1  0.22514085  0.23116060  0.79421216  1
  O  O45  1  0.97056601  0.86838852  0.90618436  1
  O  O46  1  0.97135947  0.20216484  0.57234287  1
  O  O47  1  0.97065989  0.53550409  0.23952204  1
  O  O48  1  0.64476502  0.70249475  0.96643999  1
  O  O49  1  0.64515836  0.03560416  0.63331457  1
  O  O50  1  0.64399085  0.36886815  0.29976545  1
  O  O51  1  0.34565998  0.46674929  0.89594890  1
  O  O52  1  0.33156561  0.80670857  0.54884447  1
  O  O53  1  0.34058410  0.12939855  0.23661996  1
  O  O54  1  0.36068379  0.63447728  0.71698002  1
  O  O55  1  0.34980269  0.94700346  0.39311470  1
  O  O56  1  0.36719142  0.29359667  0.05293264  1
  O  O57  1  0.65812191  0.88202305  0.77258780  1
  O  O58  1  0.65859092  0.21567207  0.43976395  1
  O  O59  1  0.65934995  0.54899853  0.10612699  1
