# generated using pymatgen
data_Na7Fe7P6(O8F)3
_symmetry_space_group_name_H-M   'P 1'
_cell_length_a   6.79719743
_cell_length_b   13.76223473
_cell_length_c   13.75820910
_cell_angle_alpha   119.94067389
_cell_angle_beta   90.00000000
_cell_angle_gamma   90.00000000
_symmetry_Int_Tables_number   1
_chemical_formula_structural   Na7Fe7P6(O8F)3
_chemical_formula_sum   'Na14 Fe14 P12 O48 F6'
_cell_volume   1115.24606082
_cell_formula_units_Z   2
loop_
 _symmetry_equiv_pos_site_id
 _symmetry_equiv_pos_as_xyz
  1  'x, y, z'
loop_
 _atom_site_type_symbol
 _atom_site_label
 _atom_site_symmetry_multiplicity
 _atom_site_fract_x
 _atom_site_fract_y
 _atom_site_fract_z
 _atom_site_occupancy
  Na  Na0  1  0.24268352  0.93994587  0.18904848  1
  Na  Na1  1  0.24278593  0.81059669  0.74964386  1
  Na  Na2  1  0.24298315  0.25040850  0.06042992  1
  Na  Na3  1  0.74268352  0.06005413  0.81095152  1
  Na  Na4  1  0.74278593  0.18940331  0.25035614  1
  Na  Na5  1  0.74298315  0.74959150  0.93957008  1
  Na  Na6  1  0.50971819  0.66672235  0.33341275  1
  Na  Na7  1  0.00971819  0.33327765  0.66658725  1
  Na  Na8  1  0.24100609  0.38841438  0.50248213  1
  Na  Na9  1  0.24099604  0.49736142  0.88604104  1
  Na  Na10  1  0.24095233  0.11401303  0.61153992  1
  Na  Na11  1  0.74100609  0.61158562  0.49751787  1
  Na  Na12  1  0.74099604  0.50263858  0.11395896  1
  Na  Na13  1  0.74095233  0.88598697  0.38846008  1
  Fe  Fe14  1  0.49437685  0.13230513  0.42554739  1
  Fe  Fe15  1  0.49469573  0.57432184  0.70658932  1
  Fe  Fe16  1  0.49444601  0.29308563  0.86736350  1
  Fe  Fe17  1  0.99437685  0.86769487  0.57445261  1
  Fe  Fe18  1  0.99469573  0.42567816  0.29341068  1
  Fe  Fe19  1  0.99444601  0.70691437  0.13263650  1
  Fe  Fe20  1  0.98731736  0.12586165  0.41844775  1
  Fe  Fe21  1  0.98711504  0.58137719  0.70721695  1
  Fe  Fe22  1  0.98720573  0.29250845  0.87389059  1
  Fe  Fe23  1  0.48731736  0.87413835  0.58155225  1
  Fe  Fe24  1  0.48711504  0.41862281  0.29278305  1
  Fe  Fe25  1  0.48720573  0.70749155  0.12610941  1
  Fe  Fe26  1  0.49583130  0.99983676  0.00004418  1
  Fe  Fe27  1  0.99583130  0.00016324  0.99995582  1
  P  P28  1  0.24459515  0.18245940  0.24754960  1
  P  P29  1  0.24475104  0.75198220  0.93415546  1
  P  P30  1  0.24443783  0.06542531  0.81782894  1
  P  P31  1  0.74459515  0.81754060  0.75245040  1
  P  P32  1  0.74475104  0.24801780  0.06584454  1
  P  P33  1  0.74443783  0.93457469  0.18217106  1
  P  P34  1  0.23959373  0.49098385  0.11490943  1
  P  P35  1  0.23957679  0.88509203  0.37593615  1
  P  P36  1  0.23956426  0.62402925  0.50910716  1
  P  P37  1  0.73959373  0.50901615  0.88509057  1
  P  P38  1  0.73957679  0.11490797  0.62406385  1
  P  P39  1  0.73956426  0.37597075  0.49089284  1
  O  O40  1  0.05340140  0.55583058  0.11777111  1
  O  O41  1  0.05331658  0.88226468  0.43795520  1
  O  O42  1  0.05336140  0.56206260  0.44431638  1
  O  O43  1  0.55340140  0.44416942  0.88222889  1
  O  O44  1  0.55331658  0.11773532  0.56204480  1
  O  O45  1  0.55336140  0.43793740  0.55568362  1
  O  O46  1  0.05604864  0.14912079  0.28673117  1
  O  O47  1  0.05600202  0.71309145  0.86207579  1
  O  O48  1  0.05598273  0.13775637  0.85095360  1
  O  O49  1  0.55604864  0.85087921  0.71326883  1
  O  O50  1  0.55600202  0.28690855  0.13792421  1
  O  O51  1  0.55598273  0.86224363  0.14904640  1
  O  O52  1  0.24631879  0.70490786  0.01669799  1
  O  O53  1  0.24630148  0.98340392  0.68814656  1
  O  O54  1  0.24626508  0.31222439  0.29552370  1
  O  O55  1  0.74631879  0.29509214  0.98330201  1
  O  O56  1  0.74630148  0.01659608  0.31185344  1
  O  O57  1  0.74626508  0.68777561  0.70447630  1
  O  O58  1  0.23781540  0.79026225  0.25086816  1
  O  O59  1  0.23779928  0.74913144  0.53935565  1
  O  O60  1  0.23787339  0.46060272  0.20976223  1
  O  O61  1  0.73781540  0.20973775  0.74913184  1
  O  O62  1  0.73779928  0.25086856  0.46064435  1
  O  O63  1  0.73787339  0.53939728  0.79023777  1
  O  O64  1  0.24541416  0.11383804  0.11542058  1
  O  O65  1  0.24563445  0.88444737  0.99624028  1
  O  O66  1  0.24527768  0.00278692  0.88760179  1
  O  O67  1  0.74541416  0.88616196  0.88457942  1
  O  O68  1  0.74563445  0.11555263  0.00375972  1
  O  O69  1  0.74527768  0.99721308  0.11239821  1
  O  O70  1  0.42869897  0.14710711  0.28785597  1
  O  O71  1  0.42901003  0.71191853  0.85895992  1
  O  O72  1  0.42860661  0.14095748  0.85312438  1
  O  O73  1  0.92869897  0.85289289  0.71214403  1
  O  O74  1  0.92901003  0.28808147  0.14104008  1
  O  O75  1  0.92860661  0.85904252  0.14687562  1
  O  O76  1  0.24828212  0.00227562  0.38239035  1
  O  O77  1  0.24827870  0.61746099  0.61983890  1
  O  O78  1  0.24824906  0.38043247  0.99767628  1
  O  O79  1  0.74828212  0.99772438  0.61760965  1
  O  O80  1  0.74827870  0.38253901  0.38016110  1
  O  O81  1  0.74824906  0.61956753  0.00232372  1
  O  O82  1  0.92453370  0.43255586  0.56406150  1
  O  O83  1  0.92457398  0.43586343  0.86853187  1
  O  O84  1  0.92454789  0.13147364  0.56738713  1
  O  O85  1  0.42453370  0.56744414  0.43593850  1
  O  O86  1  0.42457398  0.56413657  0.13146813  1
  O  O87  1  0.42454789  0.86852636  0.43261287  1
  F  F88  1  0.23044918  0.23053922  0.51264536  1
  F  F89  1  0.23045432  0.48744790  0.71804779  1
  F  F90  1  0.23047090  0.28211762  0.76928392  1
  F  F91  1  0.73044918  0.76946078  0.48735464  1
  F  F92  1  0.73045432  0.51255210  0.28195221  1
  F  F93  1  0.73047090  0.71788238  0.23071608  1
