# generated using pymatgen
data_MnNiP2O7
_symmetry_space_group_name_H-M   'P 1'
_cell_length_a   4.55510118
_cell_length_b   5.38637437
_cell_length_c   5.38862366
_cell_angle_alpha   104.21064840
_cell_angle_beta   98.12795859
_cell_angle_gamma   98.04792159
_symmetry_Int_Tables_number   1
_chemical_formula_structural   MnNiP2O7
_chemical_formula_sum   'Mn1 Ni1 P2 O7'
_cell_volume   124.75895475
_cell_formula_units_Z   1
loop_
 _symmetry_equiv_pos_site_id
 _symmetry_equiv_pos_as_xyz
  1  'x, y, z'
loop_
 _atom_site_type_symbol
 _atom_site_label
 _atom_site_symmetry_multiplicity
 _atom_site_fract_x
 _atom_site_fract_y
 _atom_site_fract_z
 _atom_site_occupancy
  Mn  Mn0  1  0.53915437  0.02066744  0.40489542  1
  Ni  Ni1  1  0.53853939  0.39811801  0.02793444  1
  P  P2  1  0.12981009  0.49709248  0.49619436  1
  P  P3  1  0.94683106  0.93098844  0.92994399  1
  O  O4  1  0.30867732  0.34324567  0.64847147  1
  O  O5  1  0.31924719  0.62911641  0.33348505  1
  O  O6  1  0.03833484  0.72484220  0.70241900  1
  O  O7  1  0.25027053  0.09178902  0.08774545  1
  O  O8  1  0.75679042  0.09384412  0.79788276  1
  O  O9  1  0.76793413  0.77874873  0.08363357  1
  O  O10  1  0.82601066  0.33954747  0.33539449  1
