# generated using pymatgen
data_KCS(OF)3
_symmetry_space_group_name_H-M   'P 1'
_cell_length_a   6.07477417
_cell_length_b   10.98370915
_cell_length_c   14.74226529
_cell_angle_alpha   111.16141772
_cell_angle_beta   90.00000000
_cell_angle_gamma   90.00000000
_symmetry_Int_Tables_number   1
_chemical_formula_structural   KCS(OF)3
_chemical_formula_sum   'K6 C6 S6 O18 F18'
_cell_volume   917.32551927
_cell_formula_units_Z   6
loop_
 _symmetry_equiv_pos_site_id
 _symmetry_equiv_pos_as_xyz
  1  'x, y, z'
loop_
 _atom_site_type_symbol
 _atom_site_label
 _atom_site_symmetry_multiplicity
 _atom_site_fract_x
 _atom_site_fract_y
 _atom_site_fract_z
 _atom_site_occupancy
  K  K0  1  0.77745938  0.56492206  0.66355722  1
  K  K1  1  0.27354378  0.19138006  0.01427793  1
  K  K2  1  0.77354378  0.80861994  0.98572207  1
  K  K3  1  0.27745938  0.43507794  0.33644278  1
  K  K4  1  0.28064834  0.46826966  0.84164839  1
  K  K5  1  0.78064834  0.53173034  0.15835161  1
  C  C6  1  0.78840927  0.17969938  0.28193148  1
  C  C7  1  0.81759019  0.17460076  0.80525778  1
  C  C8  1  0.23977890  0.16830355  0.53408503  1
  C  C9  1  0.31759019  0.82539924  0.19474222  1
  C  C10  1  0.28840927  0.82030062  0.71806852  1
  C  C11  1  0.73977890  0.83169645  0.46591497  1
  S  S12  1  0.77637288  0.20972220  0.16508808  1
  S  S13  1  0.27955944  0.66020024  0.09923214  1
  S  S14  1  0.27637288  0.79027780  0.83491192  1
  S  S15  1  0.77955944  0.33979976  0.90076786  1
  S  S16  1  0.76429602  0.64979500  0.41597897  1
  S  S17  1  0.26429602  0.35020500  0.58402103  1
  O  O18  1  0.58890158  0.60816922  0.34257051  1
  O  O19  1  0.57304728  0.32863453  0.94858261  1
  O  O20  1  0.72967531  0.61272496  0.50035887  1
  O  O21  1  0.07304728  0.67136547  0.05141739  1
  O  O22  1  0.56896014  0.28100928  0.17177333  1
  O  O23  1  0.98420718  0.62491622  0.37293090  1
  O  O24  1  0.28183880  0.91951994  0.91136770  1
  O  O25  1  0.97308750  0.28965819  0.16976956  1
  O  O26  1  0.97680032  0.35329292  0.96121911  1
  O  O27  1  0.08890158  0.39183078  0.65742949  1
  O  O28  1  0.22967531  0.38727504  0.49964113  1
  O  O29  1  0.06896014  0.71899072  0.82822667  1
  O  O30  1  0.77085144  0.42947842  0.84813490  1
  O  O31  1  0.78183880  0.08048006  0.08863230  1
  O  O32  1  0.47308750  0.71034181  0.83023044  1
  O  O33  1  0.47680032  0.64670708  0.03878089  1
  O  O34  1  0.27085144  0.57052158  0.15186510  1
  O  O35  1  0.48420718  0.37508378  0.62706910  1
  F  F36  1  0.78590645  0.88161225  0.39642416  1
  F  F37  1  0.12576840  0.90147431  0.71396444  1
  F  F38  1  0.03272508  0.13272931  0.50124960  1
  F  F39  1  0.28590645  0.11838775  0.60357584  1
  F  F40  1  0.38186242  0.11610059  0.45914392  1
  F  F41  1  0.88186242  0.88389941  0.54085608  1
  F  F42  1  0.79015638  0.08128600  0.84535777  1
  F  F43  1  0.02550107  0.16418004  0.76962741  1
  F  F44  1  0.76493669  0.29472239  0.35795081  1
  F  F45  1  0.29015638  0.91871400  0.15464223  1
  F  F46  1  0.62576840  0.09852569  0.28603556  1
  F  F47  1  0.48482046  0.87316675  0.70956096  1
  F  F48  1  0.98482046  0.12683325  0.29043904  1
  F  F49  1  0.53272508  0.86727069  0.49875040  1
  F  F50  1  0.26493669  0.70527761  0.64204919  1
  F  F51  1  0.17349528  0.84796820  0.26819569  1
  F  F52  1  0.52550107  0.83581996  0.23037259  1
  F  F53  1  0.67349528  0.15203180  0.73180431  1
