# generated using pymatgen
data_Na3Sc2(PO4)3
_symmetry_space_group_name_H-M   'P 1'
_cell_length_a   9.03328805
_cell_length_b   9.03328805
_cell_length_c   9.11750416
_cell_angle_alpha   89.96630289
_cell_angle_beta   119.82925992
_cell_angle_gamma   60.17503671
_symmetry_Int_Tables_number   1
_chemical_formula_structural   Na3Sc2(PO4)3
_chemical_formula_sum   'Na6 Sc4 P6 O24'
_cell_volume   528.66617886
_cell_formula_units_Z   2
loop_
 _symmetry_equiv_pos_site_id
 _symmetry_equiv_pos_as_xyz
  1  'x, y, z'
loop_
 _atom_site_type_symbol
 _atom_site_label
 _atom_site_symmetry_multiplicity
 _atom_site_fract_x
 _atom_site_fract_y
 _atom_site_fract_z
 _atom_site_occupancy
  Na  Na0  1  0.13916320  0.74857599  0.75090196  1
  Na  Na1  1  0.50052205  0.11173877  0.74909804  1
  Na  Na2  1  0.86083680  0.25142401  0.24909804  1
  Na  Na3  1  0.49947795  0.88826123  0.25090196  1
  Na  Na4  1  -0.00000000  0.50000000  0.50000000  1
  Na  Na5  1  -0.00000000  0.00000000  0.00000000  1
  Sc  Sc6  1  0.71214361  0.64679133  0.05456243  1
  Sc  Sc7  1  0.70135376  0.15758118  0.55456243  1
  Sc  Sc8  1  0.28785639  0.35320867  0.94543757  1
  Sc  Sc9  1  0.29864624  0.84241882  0.44543757  1
  P  P10  1  0.20433633  0.04566367  0.75000000  1
  P  P11  1  0.79446717  0.75095840  0.74523757  1
  P  P12  1  0.50380403  0.45077039  0.75476243  1
  P  P13  1  0.20553283  0.24904160  0.25476243  1
  P  P14  1  0.49619597  0.54922961  0.24523757  1
  P  P15  1  0.79566367  0.95433633  0.25000000  1
  O  O16  1  0.40570810  0.88108803  0.91961605  1
  O  O17  1  0.79061559  0.71781983  0.90907277  1
  O  O18  1  0.63428049  0.48056876  0.92635391  1
  O  O19  1  0.40692267  0.20792658  0.42635391  1
  O  O20  1  0.62689260  0.38154282  0.40907277  1
  O  O21  1  0.80070407  0.98609206  0.41961605  1
  O  O22  1  0.59429190  0.11891197  0.08038395  1
  O  O23  1  0.20938441  0.28218017  0.09092723  1
  O  O24  1  0.36571951  0.51943124  0.07364609  1
  O  O25  1  0.59307733  0.79207342  0.57364609  1
  O  O26  1  0.37310740  0.61845718  0.59092723  1
  O  O27  1  0.19929593  0.01390794  0.58038395  1
  O  O28  1  0.80085659  0.78072383  0.24008984  1
  O  O29  1  0.01482287  0.40894468  0.24240933  1
  O  O30  1  0.65653099  0.56788495  0.23982841  1
  O  O31  1  0.80771336  0.91670257  0.73982841  1
  O  O32  1  0.65135401  0.27241354  0.74240933  1
  O  O33  1  0.02081367  0.06076675  0.74008984  1
  O  O34  1  0.19914341  0.21927617  0.75991016  1
  O  O35  1  0.98517713  0.59105532  0.75759067  1
  O  O36  1  0.34346901  0.43211505  0.76017159  1
  O  O37  1  0.19228664  0.08329743  0.26017159  1
  O  O38  1  0.34864599  0.72758646  0.25759067  1
  O  O39  1  0.97918633  0.93923325  0.25991016  1
