# generated using pymatgen
data_MgTi11O20
_symmetry_space_group_name_H-M   'P 1'
_cell_length_a   5.29577539
_cell_length_b   7.55261772
_cell_length_c   10.76254482
_cell_angle_alpha   74.46737646
_cell_angle_beta   82.67304757
_cell_angle_gamma   109.73790726
_symmetry_Int_Tables_number   1
_chemical_formula_structural   MgTi11O20
_chemical_formula_sum   'Mg1 Ti11 O20'
_cell_volume   378.93646137
_cell_formula_units_Z   1
loop_
 _symmetry_equiv_pos_site_id
 _symmetry_equiv_pos_as_xyz
  1  'x, y, z'
loop_
 _atom_site_type_symbol
 _atom_site_label
 _atom_site_symmetry_multiplicity
 _atom_site_fract_x
 _atom_site_fract_y
 _atom_site_fract_z
 _atom_site_occupancy
  Mg  Mg0  1  0.91592563  0.52585066  0.75000000  1
  Ti  Ti1  1  0.51615010  0.78408071  0.56340979  1
  Ti  Ti2  1  0.02030279  0.28917407  0.55894078  1
  Ti  Ti3  1  0.47704539  0.21235662  0.44249544  1
  Ti  Ti4  1  0.98159037  0.71205625  0.44007002  1
  Ti  Ti5  1  0.32955989  0.59749050  0.93659021  1
  Ti  Ti6  1  0.82924357  0.09811485  0.94105922  1
  Ti  Ti7  1  0.67166039  0.40212627  0.05992998  1
  Ti  Ti8  1  0.16954083  0.90485206  0.05750456  1
  Ti  Ti9  1  0.42216299  0.02870458  0.75000000  1
  Ti  Ti10  1  0.08314440  0.47237116  0.25129270  1
  Ti  Ti11  1  0.58443710  0.97366386  0.24870730  1
  O  O12  1  0.29030223  0.74733479  0.75000000  1
  O  O13  1  0.77265879  0.23161459  0.75000000  1
  O  O14  1  0.72624873  0.25860650  0.24959128  1
  O  O15  1  0.22584001  0.75819778  0.25040872  1
  O  O16  1  0.73623091  0.83358978  0.38126605  1
  O  O17  1  0.23869753  0.33510786  0.37771550  1
  O  O18  1  0.26455295  0.16425237  0.62158506  1
  O  O19  1  0.76067872  0.67133095  0.61260737  1
  O  O20  1  0.86641303  0.96282336  0.12228450  1
  O  O21  1  0.36749696  0.46485584  0.11873395  1
  O  O22  1  0.13613801  0.03583743  0.87841494  1
  O  O23  1  0.62328609  0.53393832  0.88739263  1
  O  O24  1  0.31739318  0.94231780  0.42938875  1
  O  O25  1  0.80794268  0.44209939  0.43005909  1
  O  O26  1  0.68835954  0.05967074  0.56668746  1
  O  O27  1  0.18505601  0.56015160  0.56705447  1
  O  O28  1  0.48800177  0.12215848  0.06994091  1
  O  O29  1  0.99678193  0.62170654  0.07061125  1
  O  O30  1  0.50504700  0.87635821  0.93331254  1
  O  O31  1  0.00211048  0.37720607  0.93294553  1
