# generated using pymatgen
data_Mn3Cu2NiO8
_symmetry_space_group_name_H-M   'P 1'
_cell_length_a   5.94637247
_cell_length_b   5.94782968
_cell_length_c   5.94637247
_cell_angle_alpha   90.00000000
_cell_angle_beta   60.00000000
_cell_angle_gamma   119.99189584
_symmetry_Int_Tables_number   1
_chemical_formula_structural   Mn3Cu2NiO8
_chemical_formula_sum   'Mn3 Cu2 Ni1 O8'
_cell_volume   148.73080647
_cell_formula_units_Z   1
loop_
 _symmetry_equiv_pos_site_id
 _symmetry_equiv_pos_as_xyz
  1  'x, y, z'
loop_
 _atom_site_type_symbol
 _atom_site_label
 _atom_site_symmetry_multiplicity
 _atom_site_fract_x
 _atom_site_fract_y
 _atom_site_fract_z
 _atom_site_occupancy
  Mn  Mn0  1  0.50000000  0.50000000  0.50000000  1
  Mn  Mn1  1  0.00000000  0.50000000  0.00000000  1
  Mn  Mn2  1  0.00000000  0.50000000  0.50000000  1
  Cu  Cu3  1  0.25353867  0.13030801  0.12323066  1
  Cu  Cu4  1  0.74646133  0.86969199  0.87676934  1
  Ni  Ni5  1  0.50000000  -0.00000000  0.50000000  1
  O  O6  1  0.98363526  0.72545289  0.25818237  1
  O  O7  1  0.99146515  0.27864014  0.25426743  1
  O  O8  1  0.53290756  0.27864014  0.71282501  1
  O  O9  1  0.53290756  0.27864014  0.25426743  1
  O  O10  1  0.01636474  0.27454711  0.74181763  1
  O  O11  1  0.00853485  0.72135986  0.74573257  1
  O  O12  1  0.46709244  0.72135986  0.28717499  1
  O  O13  1  0.46709244  0.72135986  0.74573257  1
