# generated using pymatgen
data_Mn3CoAs3Rh2
_symmetry_space_group_name_H-M   'P 1'
_cell_length_a   3.65374541
_cell_length_b   6.42506587
_cell_length_c   6.42506599
_cell_angle_alpha   58.92709688
_cell_angle_beta   90.00000000
_cell_angle_gamma   90.00000000
_symmetry_Int_Tables_number   1
_chemical_formula_structural   Mn3CoAs3Rh2
_chemical_formula_sum   'Mn3 Co1 As3 Rh2'
_cell_volume   129.18929943
_cell_formula_units_Z   1
loop_
 _symmetry_equiv_pos_site_id
 _symmetry_equiv_pos_as_xyz
  1  'x, y, z'
loop_
 _atom_site_type_symbol
 _atom_site_label
 _atom_site_symmetry_multiplicity
 _atom_site_fract_x
 _atom_site_fract_y
 _atom_site_fract_z
 _atom_site_occupancy
  Mn  Mn0  1  0.50000000  0.58705131  0.41294869  1
  Mn  Mn1  1  0.50000000  0.40648630  0.99766171  1
  Mn  Mn2  1  0.50000000  0.00233829  0.59351370  1
  Co  Co3  1  -0.00000000  0.25992573  0.74007427  1
  As  As4  1  0.00000000  0.32878493  0.34813089  1
  As  As5  1  0.00000000  0.65186911  0.67121507  1
  As  As6  1  0.50000000  0.01939845  0.98060155  1
  Rh  Rh7  1  -0.00000000  0.74118122  0.99713534  1
  Rh  Rh8  1  -0.00000000  0.00286466  0.25881878  1
