# generated using pymatgen
data_Na5Fe3Ag2(As2O7)4
_symmetry_space_group_name_H-M   'P 1'
_cell_length_a   6.69675797
_cell_length_b   6.69675797
_cell_length_c   29.26266492
_cell_angle_alpha   86.90893336
_cell_angle_beta   86.90893336
_cell_angle_gamma   81.25617991
_symmetry_Int_Tables_number   1
_chemical_formula_structural   Na5Fe3Ag2(As2O7)4
_chemical_formula_sum   'Na10 Fe6 Ag4 As16 O56'
_cell_volume   1293.80007738
_cell_formula_units_Z   2
loop_
 _symmetry_equiv_pos_site_id
 _symmetry_equiv_pos_as_xyz
  1  'x, y, z'
loop_
 _atom_site_type_symbol
 _atom_site_label
 _atom_site_symmetry_multiplicity
 _atom_site_fract_x
 _atom_site_fract_y
 _atom_site_fract_z
 _atom_site_occupancy
  Na  Na0  1  0.90223976  0.66197668  0.05229090  1
  Na  Na1  1  0.33802332  0.09776024  0.44770910  1
  Na  Na2  1  0.09776024  0.33802332  0.94770910  1
  Na  Na3  1  0.66197668  0.90223976  0.55229090  1
  Na  Na4  1  0.47112815  0.52887185  0.25000000  1
  Na  Na5  1  0.52887185  0.47112815  0.75000000  1
  Na  Na6  1  0.67491963  0.89809252  0.15172426  1
  Na  Na7  1  0.10190748  0.32508037  0.34827574  1
  Na  Na8  1  0.32508037  0.10190748  0.84827574  1
  Na  Na9  1  0.89809252  0.67491963  0.65172426  1
  Fe  Fe10  1  0.33842233  0.29480904  0.06346481  1
  Fe  Fe11  1  0.70519096  0.66157767  0.43653519  1
  Fe  Fe12  1  0.66157767  0.70519096  0.93653519  1
  Fe  Fe13  1  0.29480904  0.33842233  0.56346481  1
  Fe  Fe14  1  0.86752288  0.13247712  0.25000000  1
  Fe  Fe15  1  0.13247712  0.86752288  0.75000000  1
  Ag  Ag16  1  0.16094725  0.88466908  0.14491598  1
  Ag  Ag17  1  0.11533092  0.83905275  0.35508402  1
  Ag  Ag18  1  0.83905275  0.11533092  0.85508402  1
  Ag  Ag19  1  0.88466908  0.16094725  0.64491598  1
  As  As20  1  0.61718836  0.20808259  0.96443688  1
  As  As21  1  0.79191741  0.38281164  0.53556312  1
  As  As22  1  0.38281164  0.79191741  0.03556312  1
  As  As23  1  0.20808259  0.61718836  0.46443688  1
  As  As24  1  0.84524218  0.17588515  0.05732327  1
  As  As25  1  0.82411485  0.15475782  0.44267673  1
  As  As26  1  0.15475782  0.82411485  0.94267673  1
  As  As27  1  0.17588515  0.84524218  0.55732327  1
  As  As28  1  0.98846550  0.60617769  0.25201483  1
  As  As29  1  0.39382231  0.01153450  0.24798517  1
  As  As30  1  0.01153450  0.39382231  0.74798517  1
  As  As31  1  0.60617769  0.98846550  0.75201483  1
  As  As32  1  0.04920676  0.39087552  0.15983714  1
  As  As33  1  0.60912448  0.95079324  0.34016286  1
  As  As34  1  0.95079324  0.60912448  0.84016286  1
  As  As35  1  0.39087552  0.04920676  0.65983714  1
  O  O36  1  0.89579226  0.58073809  0.13453842  1
  O  O37  1  0.41926191  0.10420774  0.36546158  1
  O  O38  1  0.10420774  0.41926191  0.86546158  1
  O  O39  1  0.58073809  0.89579226  0.63453842  1
  O  O40  1  0.15876692  0.50254955  0.20611263  1
  O  O41  1  0.49745045  0.84123308  0.29388737  1
  O  O42  1  0.84123308  0.49745045  0.79388737  1
  O  O43  1  0.50254955  0.15876692  0.70611263  1
  O  O44  1  0.72661427  0.39770684  0.93717351  1
  O  O45  1  0.60229316  0.27338573  0.56282649  1
  O  O46  1  0.27338573  0.60229316  0.06282649  1
  O  O47  1  0.39770684  0.72661427  0.43717351  1
  O  O48  1  0.62595383  0.32504888  0.07357952  1
  O  O49  1  0.67495112  0.37404617  0.42642048  1
  O  O50  1  0.37404617  0.67495112  0.92642048  1
  O  O51  1  0.32504888  0.62595383  0.57357952  1
  O  O52  1  0.80154290  0.08566833  0.00227593  1
  O  O53  1  0.91433167  0.19845710  0.49772407  1
  O  O54  1  0.19845710  0.91433167  0.99772407  1
  O  O55  1  0.08566833  0.80154290  0.50227593  1
  O  O56  1  0.90116793  0.96333845  0.09055124  1
  O  O57  1  0.03666155  0.09883207  0.40944876  1
  O  O58  1  0.09883207  0.03666155  0.90944876  1
  O  O59  1  0.96333845  0.90116793  0.59055124  1
  O  O60  1  0.14592582  0.60057652  0.29580152  1
  O  O61  1  0.39942348  0.85407418  0.20419848  1
  O  O62  1  0.85407418  0.39942348  0.70419848  1
  O  O63  1  0.60057652  0.14592582  0.79580152  1
  O  O64  1  0.39464229  0.28357235  0.99412098  1
  O  O65  1  0.71642765  0.60535771  0.50587902  1
  O  O66  1  0.60535771  0.71642765  0.00587902  1
  O  O67  1  0.28357235  0.39464229  0.49412098  1
  O  O68  1  0.93525879  0.19277583  0.18378812  1
  O  O69  1  0.80722417  0.06474121  0.31621188  1
  O  O70  1  0.06474121  0.80722417  0.81621188  1
  O  O71  1  0.19277583  0.93525879  0.68378812  1
  O  O72  1  0.81638870  0.44157318  0.26063539  1
  O  O73  1  0.55842682  0.18361130  0.23936461  1
  O  O74  1  0.18361130  0.55842682  0.73936461  1
  O  O75  1  0.44157318  0.81638870  0.76063539  1
  O  O76  1  0.88209401  0.83970467  0.23128985  1
  O  O77  1  0.16029533  0.11790599  0.26871015  1
  O  O78  1  0.11790599  0.16029533  0.76871015  1
  O  O79  1  0.83970467  0.88209401  0.73128985  1
  O  O80  1  0.59815920  0.02437408  0.92700424  1
  O  O81  1  0.97562592  0.40184080  0.57299576  1
  O  O82  1  0.40184080  0.97562592  0.07299576  1
  O  O83  1  0.02437408  0.59815920  0.42700424  1
  O  O84  1  0.03700064  0.31608201  0.04598504  1
  O  O85  1  0.68391799  0.96299936  0.45401496  1
  O  O86  1  0.96299936  0.68391799  0.95401496  1
  O  O87  1  0.31608201  0.03700064  0.54598504  1
  O  O88  1  0.26161838  0.28091848  0.13033615  1
  O  O89  1  0.71908152  0.73838162  0.36966385  1
  O  O90  1  0.73838162  0.71908152  0.86966385  1
  O  O91  1  0.28091848  0.26161838  0.63033615  1
