# generated using pymatgen
data_LaY
_symmetry_space_group_name_H-M   'P 1'
_cell_length_a   3.68676979
_cell_length_b   3.68676879
_cell_length_c   17.85438911
_cell_angle_alpha   84.07390940
_cell_angle_beta   90.00000030
_cell_angle_gamma   120.00000141
_symmetry_Int_Tables_number   1
_chemical_formula_structural   LaY
_chemical_formula_sum   'La3 Y3'
_cell_volume   208.66957077
_cell_formula_units_Z   3
loop_
 _symmetry_equiv_pos_site_id
 _symmetry_equiv_pos_as_xyz
  1  'x, y, z'
loop_
 _atom_site_type_symbol
 _atom_site_label
 _atom_site_symmetry_multiplicity
 _atom_site_fract_x
 _atom_site_fract_y
 _atom_site_fract_z
 _atom_site_occupancy
  La  La0  1  0.00152890  0.00305779  0.99541331  1
  La  La1  1  0.49972626  0.99945251  0.50082123  1
  La  La2  1  0.61065301  0.22130603  0.16804096  1
  Y  Y3  1  0.11013517  0.22027035  0.66959448  1
  Y  Y4  1  0.88770311  0.77540622  0.33689068  1
  Y  Y5  1  0.39025355  0.78050710  0.82923935  1
