# generated using pymatgen
data_MgF2
_symmetry_space_group_name_H-M   'P 1'
_cell_length_a   3.93888886
_cell_length_b   5.56812453
_cell_length_c   5.68902361
_cell_angle_alpha   106.14985731
_cell_angle_beta   70.36060451
_cell_angle_gamma   110.09908848
_symmetry_Int_Tables_number   1
_chemical_formula_structural   MgF2
_chemical_formula_sum   'Mg2 F4'
_cell_volume   108.47569553
_cell_formula_units_Z   2
loop_
 _symmetry_equiv_pos_site_id
 _symmetry_equiv_pos_as_xyz
  1  'x, y, z'
loop_
 _atom_site_type_symbol
 _atom_site_label
 _atom_site_symmetry_multiplicity
 _atom_site_fract_x
 _atom_site_fract_y
 _atom_site_fract_z
 _atom_site_occupancy
  Mg  Mg0  1  0.89540300  0.64478229  0.84913327  1
  Mg  Mg1  1  0.10459700  0.35521771  0.15086673  1
  F  F2  1  0.65237246  0.40649575  0.10405483  1
  F  F3  1  0.00000000  0.50000000  0.50000000  1
  F  F4  1  0.34762754  0.59350425  0.89594517  1
  F  F5  1  0.00000000  0.00000000  0.00000000  1
