# generated using pymatgen
data_Mn4Cr(GaCo2)5
_symmetry_space_group_name_H-M   'P 1'
_cell_length_a   4.04387283
_cell_length_b   4.04387283
_cell_length_c   16.67475280
_cell_angle_alpha   96.96467364
_cell_angle_beta   83.03532636
_cell_angle_gamma   120.00000000
_symmetry_Int_Tables_number   1
_chemical_formula_structural   Mn4Cr(GaCo2)5
_chemical_formula_sum   'Mn4 Cr1 Ga5 Co10'
_cell_volume   233.82216540
_cell_formula_units_Z   1
loop_
 _symmetry_equiv_pos_site_id
 _symmetry_equiv_pos_as_xyz
  1  'x, y, z'
loop_
 _atom_site_type_symbol
 _atom_site_label
 _atom_site_symmetry_multiplicity
 _atom_site_fract_x
 _atom_site_fract_y
 _atom_site_fract_z
 _atom_site_occupancy
  Mn  Mn0  1  0.59973596  0.40026404  0.20079211  1
  Mn  Mn1  1  0.19995249  0.80004751  0.40014252  1
  Mn  Mn2  1  0.80004751  0.19995249  0.59985748  1
  Mn  Mn3  1  0.40026404  0.59973596  0.79920789  1
  Cr  Cr4  1  -0.00000000  -0.00000000  -0.00000000  1
  Ga  Ga5  1  0.69992438  0.30007562  0.90022685  1
  Ga  Ga6  1  0.50000000  0.50000000  0.50000000  1
  Ga  Ga7  1  0.10012561  0.89987439  0.69962317  1
  Ga  Ga8  1  0.30007562  0.69992438  0.09977315  1
  Ga  Ga9  1  0.89987439  0.10012561  0.30037683  1
  Co  Co10  1  0.04963366  0.95036634  0.85109902  1
  Co  Co11  1  0.84996288  0.15003712  0.45011135  1
  Co  Co12  1  0.44998990  0.55001010  0.65003030  1
  Co  Co13  1  0.65004132  0.34995868  0.04987605  1
  Co  Co14  1  0.24999928  0.75000072  0.25000216  1
  Co  Co15  1  0.34995868  0.65004132  0.95012395  1
  Co  Co16  1  0.15003712  0.84996288  0.54988865  1
  Co  Co17  1  0.75000072  0.24999928  0.74999784  1
  Co  Co18  1  0.95036634  0.04963366  0.14890098  1
  Co  Co19  1  0.55001010  0.44998990  0.34996970  1
