# generated using pymatgen
data_LiAlSiO4
_symmetry_space_group_name_H-M   'P 1'
_cell_length_a   5.29721997
_cell_length_b   5.29721997
_cell_length_c   11.44804086
_cell_angle_alpha   90.00000000
_cell_angle_beta   90.00000000
_cell_angle_gamma   120.00000955
_symmetry_Int_Tables_number   1
_chemical_formula_structural   LiAlSiO4
_chemical_formula_sum   'Li3 Al3 Si3 O12'
_cell_volume   278.20041605
_cell_formula_units_Z   3
loop_
 _symmetry_equiv_pos_site_id
 _symmetry_equiv_pos_as_xyz
  1  'x, y, z'
loop_
 _atom_site_type_symbol
 _atom_site_label
 _atom_site_symmetry_multiplicity
 _atom_site_fract_x
 _atom_site_fract_y
 _atom_site_fract_z
 _atom_site_occupancy
  Li  Li0  1  0.00000000  0.00000000  0.66666700  1
  Li  Li1  1  0.00000000  0.00000000  0.00000000  1
  Li  Li2  1  0.00000000  0.00000000  0.33333300  1
  Al  Al3  1  0.50000000  0.00000000  0.16666700  1
  Al  Al4  1  0.50000000  0.50000000  0.50000000  1
  Al  Al5  1  0.00000000  0.50000000  0.83333300  1
  Si  Si6  1  0.50000000  0.00000000  0.66666700  1
  Si  Si7  1  0.50000000  0.50000000  0.00000000  1
  Si  Si8  1  0.00000000  0.50000000  0.33333300  1
  O  O9  1  0.79430466  0.60004928  0.92221753  1
  O  O10  1  0.80574463  0.20569534  0.25555053  1
  O  O11  1  0.39995072  0.19425537  0.58888353  1
  O  O12  1  0.20569534  0.39995072  0.92221753  1
  O  O13  1  0.19425537  0.79430466  0.25555053  1
  O  O14  1  0.60004928  0.80574463  0.58888353  1
  O  O15  1  0.19425537  0.39995072  0.41111647  1
  O  O16  1  0.60004928  0.79430466  0.07778247  1
  O  O17  1  0.20569534  0.80574463  0.74444947  1
  O  O18  1  0.80574463  0.60004928  0.41111647  1
  O  O19  1  0.39995072  0.20569534  0.07778247  1
  O  O20  1  0.79430466  0.19425537  0.74444947  1
