# generated using pymatgen
data_LaSiAg
_symmetry_space_group_name_H-M   'P 1'
_cell_length_a   4.22606352
_cell_length_b   4.42334808
_cell_length_c   4.42419823
_cell_angle_alpha   119.99306756
_cell_angle_beta   90.00000000
_cell_angle_gamma   90.00000000
_symmetry_Int_Tables_number   1
_chemical_formula_structural   LaSiAg
_chemical_formula_sum   'La1 Si1 Ag1'
_cell_volume   71.62797600
_cell_formula_units_Z   1
loop_
 _symmetry_equiv_pos_site_id
 _symmetry_equiv_pos_as_xyz
  1  'x, y, z'
loop_
 _atom_site_type_symbol
 _atom_site_label
 _atom_site_symmetry_multiplicity
 _atom_site_fract_x
 _atom_site_fract_y
 _atom_site_fract_z
 _atom_site_occupancy
  La  La0  1  0.00000000  0.99998573  0.00000164  1
  Si  Si1  1  0.50000000  0.66659556  0.33328977  1
  Ag  Ag2  1  0.50000000  0.33331872  0.66670859  1
