# generated using pymatgen
data_Li4CoRuO6
_symmetry_space_group_name_H-M   'P 1'
_cell_length_a   5.04587941
_cell_length_b   5.04759231
_cell_length_c   5.09269864
_cell_angle_alpha   70.65145797
_cell_angle_beta   99.53865968
_cell_angle_gamma   120.01122757
_symmetry_Int_Tables_number   1
_chemical_formula_structural   Li4CoRuO6
_chemical_formula_sum   'Li4 Co1 Ru1 O6'
_cell_volume   105.97464861
_cell_formula_units_Z   1
loop_
 _symmetry_equiv_pos_site_id
 _symmetry_equiv_pos_as_xyz
  1  'x, y, z'
loop_
 _atom_site_type_symbol
 _atom_site_label
 _atom_site_symmetry_multiplicity
 _atom_site_fract_x
 _atom_site_fract_y
 _atom_site_fract_z
 _atom_site_occupancy
  Li  Li0  1  0.66064653  0.33032277  1.00000000  1
  Li  Li1  1  0.32287325  0.66143712  1.00000000  1
  Li  Li2  1  0.01487612  0.00743806  0.00000000  1
  Li  Li3  1  0.33370332  0.16685216  0.50000000  1
  Co  Co4  1  -0.00037289  0.49981355  0.50000000  1
  Ru  Ru5  1  0.66725092  0.83362496  0.50000000  1
  O  O6  1  0.32852104  0.88778687  0.26944892  1
  O  O7  1  0.98223063  0.24734361  0.27358369  1
  O  O8  1  0.68975971  0.59432646  0.27226549  1
  O  O9  1  0.68975971  0.09543224  0.72773451  1
  O  O10  1  0.32852104  0.44073517  0.73055108  1
  O  O11  1  0.98223063  0.73488701  0.72641631  1
