# generated using pymatgen
data_LaMo6(SeS)4
_symmetry_space_group_name_H-M   'P 1'
_cell_length_a   6.69926799
_cell_length_b   6.70536850
_cell_length_c   6.76903745
_cell_angle_alpha   89.75572294
_cell_angle_beta   89.21874171
_cell_angle_gamma   90.10471970
_symmetry_Int_Tables_number   1
_chemical_formula_structural   LaMo6(SeS)4
_chemical_formula_sum   'La1 Mo6 Se4 S4'
_cell_volume   304.04076985
_cell_formula_units_Z   1
loop_
 _symmetry_equiv_pos_site_id
 _symmetry_equiv_pos_as_xyz
  1  'x, y, z'
loop_
 _atom_site_type_symbol
 _atom_site_label
 _atom_site_symmetry_multiplicity
 _atom_site_fract_x
 _atom_site_fract_y
 _atom_site_fract_z
 _atom_site_occupancy
  La  La0  1  0.00371371  0.99096285  0.99849504  1
  Mo  Mo1  1  0.76695680  0.44479935  0.57714953  1
  Mo  Mo2  1  0.43966455  0.58285813  0.76333047  1
  Mo  Mo3  1  0.58068443  0.76924187  0.44164826  1
  Mo  Mo4  1  0.22914159  0.56089066  0.42071564  1
  Mo  Mo5  1  0.55916845  0.42289715  0.23511911  1
  Mo  Mo6  1  0.41631899  0.23061759  0.55574596  1
  Se  Se7  1  0.62157717  0.24571048  0.87585257  1
  Se  Se8  1  0.75876333  0.12301399  0.37389863  1
  Se  Se9  1  0.11812963  0.37477728  0.75636112  1
  Se  Se10  1  0.37719019  0.75767839  0.12132440  1
  S  S11  1  0.75564968  0.75729915  0.75159623  1
  S  S12  1  0.24272074  0.24681472  0.24652835  1
  S  S13  1  0.26075400  0.86909122  0.61997323  1
  S  S14  1  0.86956672  0.62334717  0.26226146  1
