# generated using pymatgen
data_Mn23(BC2)2
_symmetry_space_group_name_H-M   'P 1'
_cell_length_a   7.38081244
_cell_length_b   7.38081244
_cell_length_c   7.38081244
_cell_angle_alpha   90.24073589
_cell_angle_beta   59.86361878
_cell_angle_gamma   120.14179110
_symmetry_Int_Tables_number   1
_chemical_formula_structural   Mn23(BC2)2
_chemical_formula_sum   'Mn23 B2 C4'
_cell_volume   283.71309511
_cell_formula_units_Z   1
loop_
 _symmetry_equiv_pos_site_id
 _symmetry_equiv_pos_as_xyz
  1  'x, y, z'
loop_
 _atom_site_type_symbol
 _atom_site_label
 _atom_site_symmetry_multiplicity
 _atom_site_fract_x
 _atom_site_fract_y
 _atom_site_fract_z
 _atom_site_occupancy
  Mn  Mn0  1  0.00252098  0.00646031  0.65636704  1
  Mn  Mn1  1  0.33717265  0.34111198  0.65636704  1
  Mn  Mn2  1  0.34781646  0.00000000  0.65218354  1
  Mn  Mn3  1  0.00188880  0.33694385  0.99877354  1
  Mn  Mn4  1  0.66428261  0.99933766  0.99877354  1
  Mn  Mn5  1  0.66637804  -0.00000000  0.33362196  1
  Mn  Mn6  1  0.00252098  0.65888802  0.00393933  1
  Mn  Mn7  1  0.66428261  0.66305615  0.33505505  1
  Mn  Mn8  1  0.65367626  0.65930539  0.00562913  1
  Mn  Mn9  1  0.00188880  0.00066234  0.33505505  1
  Mn  Mn10  1  0.33717265  0.99353969  0.00393933  1
  Mn  Mn11  1  0.33506548  0.34069461  0.00562913  1
  Mn  Mn12  1  0.76146485  0.37934884  0.85918631  1
  Mn  Mn13  1  0.23495183  0.38281495  0.38223322  1
  Mn  Mn14  1  0.23794651  0.85526268  0.38011001  1
  Mn  Mn15  1  0.76462732  0.38194349  0.38011001  1
  Mn  Mn16  1  0.23495183  0.61718505  0.14786312  1
  Mn  Mn17  1  0.76146485  0.62065116  0.61788399  1
  Mn  Mn18  1  0.76462732  0.14473732  0.61731617  1
  Mn  Mn19  1  0.23794651  0.61805651  0.61731617  1
  Mn  Mn20  1  0.01427041  0.00000000  0.98572959  1
  Mn  Mn21  1  0.49642456  0.25001859  0.25355686  1
  Mn  Mn22  1  0.49642456  0.74998141  0.75359403  1
  B  B23  1  0.54304828  0.27274455  0.72969627  1
  B  B24  1  0.99755917  0.72725545  0.72969627  1
  C  C25  1  0.99767235  0.27730679  0.72502085  1
  C  C26  1  0.44657525  0.72443476  0.27785951  1
  C  C27  1  0.99770573  0.27556524  0.27785951  1
  C  C28  1  0.99767235  0.72269321  0.27963444  1
