# generated using pymatgen
data_KTi3NbO9
_symmetry_space_group_name_H-M   'P 1'
_cell_length_a   3.81904817
_cell_length_b   6.46050740
_cell_length_c   15.07466856
_cell_angle_alpha   90.00000000
_cell_angle_beta   90.00000000
_cell_angle_gamma   90.00000000
_symmetry_Int_Tables_number   1
_chemical_formula_structural   KTi3NbO9
_chemical_formula_sum   'K2 Ti6 Nb2 O18'
_cell_volume   371.93713101
_cell_formula_units_Z   2
loop_
 _symmetry_equiv_pos_site_id
 _symmetry_equiv_pos_as_xyz
  1  'x, y, z'
loop_
 _atom_site_type_symbol
 _atom_site_label
 _atom_site_symmetry_multiplicity
 _atom_site_fract_x
 _atom_site_fract_y
 _atom_site_fract_z
 _atom_site_occupancy
  K  K0  1  0.75000000  0.22313657  0.24880712  1
  K  K1  1  0.25000000  0.77686343  0.74880712  1
  Ti  Ti2  1  0.25000000  0.31008881  0.46188066  1
  Ti  Ti3  1  0.25000000  0.31302495  0.04747538  1
  Ti  Ti4  1  0.75000000  0.68697505  0.54747538  1
  Ti  Ti5  1  0.75000000  0.68991119  0.96188066  1
  Ti  Ti6  1  0.25000000  0.76349543  0.12177439  1
  Ti  Ti7  1  0.75000000  0.23650457  0.62177439  1
  Nb  Nb8  1  0.25000000  0.76202785  0.36857081  1
  Nb  Nb9  1  0.75000000  0.23797215  0.86857081  1
  O  O10  1  0.25000000  0.65265721  0.99043609  1
  O  O11  1  0.25000000  0.65136482  0.51133305  1
  O  O12  1  0.75000000  0.34863518  0.01133305  1
  O  O13  1  0.75000000  0.34734279  0.49043609  1
  O  O14  1  0.25000000  0.83540161  0.24742241  1
  O  O15  1  0.75000000  0.16459839  0.74742241  1
  O  O16  1  0.25000000  0.06383996  0.40886797  1
  O  O17  1  0.25000000  0.06102477  0.09400992  1
  O  O18  1  0.75000000  0.93897523  0.59400992  1
  O  O19  1  0.75000000  0.93616004  0.90886797  1
  O  O20  1  0.25000000  0.46251060  0.35303231  1
  O  O21  1  0.25000000  0.46952976  0.14844658  1
  O  O22  1  0.75000000  0.53047024  0.64844658  1
  O  O23  1  0.75000000  0.53748940  0.85303231  1
  O  O24  1  0.25000000  0.23673586  0.90365502  1
  O  O25  1  0.25000000  0.24010482  0.59428830  1
  O  O26  1  0.75000000  0.75989518  0.09428830  1
  O  O27  1  0.75000000  0.76326414  0.40365502  1
