# generated using pymatgen
data_LaEu3(NiO3)4
_symmetry_space_group_name_H-M   'P 1'
_cell_length_a   5.43798363
_cell_length_b   5.46418972
_cell_length_c   7.64583029
_cell_angle_alpha   90.00000000
_cell_angle_beta   90.00000000
_cell_angle_gamma   90.28108660
_symmetry_Int_Tables_number   1
_chemical_formula_structural   LaEu3(NiO3)4
_chemical_formula_sum   'La1 Eu3 Ni4 O12'
_cell_volume   227.18679958
_cell_formula_units_Z   1
loop_
 _symmetry_equiv_pos_site_id
 _symmetry_equiv_pos_as_xyz
  1  'x, y, z'
loop_
 _atom_site_type_symbol
 _atom_site_label
 _atom_site_symmetry_multiplicity
 _atom_site_fract_x
 _atom_site_fract_y
 _atom_site_fract_z
 _atom_site_occupancy
  La  La0  1  0.50797335  0.53966122  0.25000000  1
  Eu  Eu1  1  0.99115892  0.04463514  0.25000000  1
  Eu  Eu2  1  0.49123456  0.45431980  0.75000000  1
  Eu  Eu3  1  0.00874496  0.95487184  0.75000000  1
  Ni  Ni4  1  0.00008536  0.50045088  0.99832748  1
  Ni  Ni5  1  0.50012957  0.99965422  0.50131401  1
  Ni  Ni6  1  0.00008536  0.50045088  0.50167252  1
  Ni  Ni7  1  0.50012957  0.99965422  0.99868599  1
  O  O8  1  0.41700753  0.99123790  0.25000000  1
  O  O9  1  0.07090803  0.48287437  0.25000000  1
  O  O10  1  0.58211871  0.01662953  0.75000000  1
  O  O11  1  0.91751756  0.51694235  0.75000000  1
  O  O12  1  0.79154881  0.79384370  0.04181702  1
  O  O13  1  0.71350162  0.28614127  0.46161112  1
  O  O14  1  0.21091107  0.20920675  0.54300787  1
  O  O15  1  0.29049176  0.71011712  0.95490689  1
  O  O16  1  0.21091107  0.20920675  0.95699213  1
  O  O17  1  0.29049176  0.71011712  0.54509311  1
  O  O18  1  0.79154881  0.79384370  0.45818298  1
  O  O19  1  0.71350162  0.28614127  0.03838888  1
