# generated using pymatgen
data_LiB(H8O5)2
_symmetry_space_group_name_H-M   'P 1'
_cell_length_a   6.01718388
_cell_length_b   6.49944811
_cell_length_c   6.63566085
_cell_angle_alpha   61.72904736
_cell_angle_beta   89.72719077
_cell_angle_gamma   91.01581608
_symmetry_Int_Tables_number   1
_chemical_formula_structural   LiB(H8O5)2
_chemical_formula_sum   'Li1 B1 H16 O10'
_cell_volume   228.49350788
_cell_formula_units_Z   1
loop_
 _symmetry_equiv_pos_site_id
 _symmetry_equiv_pos_as_xyz
  1  'x, y, z'
loop_
 _atom_site_type_symbol
 _atom_site_label
 _atom_site_symmetry_multiplicity
 _atom_site_fract_x
 _atom_site_fract_y
 _atom_site_fract_z
 _atom_site_occupancy
  Li  Li0  1  0.71561006  0.67668678  0.66317319  1
  B  B1  1  0.29205748  0.34603573  0.33516120  1
  H  H2  1  0.44419486  0.00442471  0.01389135  1
  H  H3  1  0.22391694  0.68959696  0.24991828  1
  H  H4  1  0.29292999  0.98740076  0.54859197  1
  H  H5  1  0.21384262  0.25237360  0.08715200  1
  H  H6  1  0.95655935  0.44702668  0.52977218  1
  H  H7  1  0.95489662  0.04189078  0.44153410  1
  H  H8  1  0.95717544  0.55301605  0.02311707  1
  H  H9  1  0.61015087  0.45178227  0.18445995  1
  H  H10  1  0.70101336  0.38429305  0.51382539  1
  H  H11  1  0.70060858  0.10804420  0.38560358  1
  H  H12  1  0.22246052  0.02891850  0.88027136  1
  H  H13  1  0.80486022  0.77540285  0.97847576  1
  H  H14  1  0.77854683  0.16358563  0.86208741  1
  H  H15  1  0.78395219  0.01127237  0.14062766  1
  H  H16  1  0.32126202  0.58266576  0.83400246  1
  H  H17  1  0.32026044  0.60918204  0.58135878  1
  O  O18  1  0.27786876  0.99259014  0.03231960  1
  O  O19  1  0.38648698  0.67578721  0.67658154  1
  O  O20  1  0.73000667  0.01303423  0.99692662  1
  O  O21  1  0.54077840  0.33707073  0.33220737  1
  O  O22  1  0.81189709  0.62968337  0.96292901  1
  O  O23  1  0.80944811  0.41487706  0.61204128  1
  O  O24  1  0.81087970  0.98526470  0.40737232  1
  O  O25  1  0.20438430  0.39433118  0.10516710  1
  O  O26  1  0.21111939  0.53242568  0.38409630  1
  O  O27  1  0.20443221  0.12433697  0.52133515  1
