# generated using pymatgen
data_La4Sb2Pb
_symmetry_space_group_name_H-M   'P 1'
_cell_length_a   8.45724905
_cell_length_b   8.45724905
_cell_length_c   8.45724905
_cell_angle_alpha   70.42746682
_cell_angle_beta   70.73121499
_cell_angle_gamma   109.57253318
_symmetry_Int_Tables_number   1
_chemical_formula_structural   La4Sb2Pb
_chemical_formula_sum   'La8 Sb4 Pb2'
_cell_volume   465.65192720
_cell_formula_units_Z   2
loop_
 _symmetry_equiv_pos_site_id
 _symmetry_equiv_pos_as_xyz
  1  'x, y, z'
loop_
 _atom_site_type_symbol
 _atom_site_label
 _atom_site_symmetry_multiplicity
 _atom_site_fract_x
 _atom_site_fract_y
 _atom_site_fract_z
 _atom_site_occupancy
  La  La0  1  0.85633710  0.35443469  0.14192989  1
  La  La1  1  0.50363542  0.14556531  0.99809759  1
  La  La2  1  0.64366290  0.50173301  0.50190241  1
  La  La3  1  0.99636458  0.99826699  0.35807011  1
  La  La4  1  0.50190241  0.64556531  0.99636458  1
  La  La5  1  0.35807011  0.85443469  0.64366290  1
  La  La6  1  0.14192989  0.49826699  0.50363542  1
  La  La7  1  0.99809759  0.00173301  0.85633710  1
  Sb  Sb8  1  0.87477368  0.62477368  0.75000000  1
  Sb  Sb9  1  0.62522632  0.87522632  0.25000000  1
  Sb  Sb10  1  0.75000000  0.12477368  0.62522632  1
  Sb  Sb11  1  0.25000000  0.37522632  0.87477368  1
  Pb  Pb12  1  0.37500000  0.25000000  0.37500000  1
  Pb  Pb13  1  0.12500000  0.75000000  0.12500000  1
