# generated using pymatgen
data_La8Te3SeO8
_symmetry_space_group_name_H-M   'P 1'
_cell_length_a   4.11219012
_cell_length_b   4.11219012
_cell_length_c   26.22118550
_cell_angle_alpha   90.00000000
_cell_angle_beta   90.00000000
_cell_angle_gamma   90.00000000
_symmetry_Int_Tables_number   1
_chemical_formula_structural   La8Te3SeO8
_chemical_formula_sum   'La8 Te3 Se1 O8'
_cell_volume   443.40306776
_cell_formula_units_Z   1
loop_
 _symmetry_equiv_pos_site_id
 _symmetry_equiv_pos_as_xyz
  1  'x, y, z'
loop_
 _atom_site_type_symbol
 _atom_site_label
 _atom_site_symmetry_multiplicity
 _atom_site_fract_x
 _atom_site_fract_y
 _atom_site_fract_z
 _atom_site_occupancy
  La  La0  1  0.50000000  0.50000000  0.07781224  1
  La  La1  1  -0.00000000  0.00000000  0.32918536  1
  La  La2  1  0.50000000  0.50000000  0.57918023  1
  La  La3  1  -0.00000000  0.00000000  0.82949945  1
  La  La4  1  0.00000000  -0.00000000  0.17050055  1
  La  La5  1  0.50000000  0.50000000  0.42081977  1
  La  La6  1  -0.00000000  -0.00000000  0.67081464  1
  La  La7  1  0.50000000  0.50000000  0.92218776  1
  Te  Te8  1  0.50000000  0.50000000  0.24997679  1
  Te  Te9  1  -0.00000000  0.00000000  0.50000000  1
  Te  Te10  1  0.50000000  0.50000000  0.75002321  1
  Se  Se11  1  -0.00000000  0.00000000  -0.00000000  1
  O  O12  1  0.50000000  -0.00000000  0.12441285  1
  O  O13  1  -0.00000000  0.50000000  0.37500364  1
  O  O14  1  0.50000000  -0.00000000  0.62499636  1
  O  O15  1  0.00000000  0.50000000  0.87558715  1
  O  O16  1  -0.00000000  0.50000000  0.12441285  1
  O  O17  1  0.50000000  0.00000000  0.37500364  1
  O  O18  1  0.00000000  0.50000000  0.62499636  1
  O  O19  1  0.50000000  0.00000000  0.87558715  1
