# generated using pymatgen
data_GaS5N5Cl4
_symmetry_space_group_name_H-M   'P 1'
_cell_length_a   9.93614844
_cell_length_b   14.38904984
_cell_length_c   21.45415762
_cell_angle_alpha   90.00000000
_cell_angle_beta   90.00000000
_cell_angle_gamma   90.00000000
_symmetry_Int_Tables_number   1
_chemical_formula_structural   GaS5N5Cl4
_chemical_formula_sum   'Ga8 S40 N40 Cl32'
_cell_volume   3067.33814049
_cell_formula_units_Z   8
loop_
 _symmetry_equiv_pos_site_id
 _symmetry_equiv_pos_as_xyz
  1  'x, y, z'
loop_
 _atom_site_type_symbol
 _atom_site_label
 _atom_site_symmetry_multiplicity
 _atom_site_fract_x
 _atom_site_fract_y
 _atom_site_fract_z
 _atom_site_occupancy
  Ga  Ga0  1  0.53410505  0.25000000  0.61891209  1
  Ga  Ga1  1  0.44580166  0.25000000  0.12976376  1
  Ga  Ga2  1  0.55419834  0.75000000  0.87023624  1
  Ga  Ga3  1  0.46589495  0.75000000  0.38108791  1
  Ga  Ga4  1  0.94580166  0.25000000  0.37023624  1
  Ga  Ga5  1  0.96589495  0.75000000  0.11891209  1
  Ga  Ga6  1  0.03410505  0.25000000  0.88108791  1
  Ga  Ga7  1  0.05419834  0.75000000  0.62976376  1
  S  S8  1  0.92720862  0.39263340  0.54658735  1
  S  S9  1  0.30076845  0.00838192  0.47949180  1
  S  S10  1  0.98154362  0.60179518  0.32201874  1
  S  S11  1  0.29578776  0.53045165  0.77194759  1
  S  S12  1  0.08900971  0.60450417  0.86882436  1
  S  S13  1  0.70421224  0.46954835  0.22805241  1
  S  S14  1  0.19923155  0.99161808  0.97949180  1
  S  S15  1  0.98154362  0.89820482  0.32201874  1
  S  S16  1  0.58900971  0.60450417  0.63117564  1
  S  S17  1  0.48154362  0.89820482  0.17798126  1
  S  S18  1  0.57279138  0.89263340  0.04658735  1
  S  S19  1  0.01845638  0.39820482  0.67798126  1
  S  S20  1  0.42720862  0.39263340  0.95341265  1
  S  S21  1  0.30076845  0.49161808  0.47949180  1
  S  S22  1  0.58900971  0.89549583  0.63117564  1
  S  S23  1  0.79578776  0.96954835  0.72805241  1
  S  S24  1  0.20421224  0.46954835  0.27194759  1
  S  S25  1  0.07279138  0.60736660  0.45341265  1
  S  S26  1  0.80076845  0.49161808  0.02050820  1
  S  S27  1  0.19923155  0.50838192  0.97949180  1
  S  S28  1  0.07279138  0.89263340  0.45341265  1
  S  S29  1  0.91099029  0.10450417  0.13117564  1
  S  S30  1  0.48154362  0.60179518  0.17798126  1
  S  S31  1  0.29578776  0.96954835  0.77194759  1
  S  S32  1  0.79578776  0.53045165  0.72805241  1
  S  S33  1  0.51845638  0.39820482  0.82201874  1
  S  S34  1  0.92720862  0.10736660  0.54658735  1
  S  S35  1  0.69923155  0.50838192  0.52050820  1
  S  S36  1  0.80076845  0.00838192  0.02050820  1
  S  S37  1  0.57279138  0.60736660  0.04658735  1
  S  S38  1  0.41099029  0.10450417  0.36882436  1
  S  S39  1  0.08900971  0.89549583  0.86882436  1
  S  S40  1  0.20421224  0.03045165  0.27194759  1
  S  S41  1  0.69923155  0.99161808  0.52050820  1
  S  S42  1  0.41099029  0.39549583  0.36882436  1
  S  S43  1  0.91099029  0.39549583  0.13117564  1
  S  S44  1  0.51845638  0.10179518  0.82201874  1
  S  S45  1  0.01845638  0.10179518  0.67798126  1
  S  S46  1  0.42720862  0.10736660  0.95341265  1
  S  S47  1  0.70421224  0.03045165  0.22805241  1
  N  N48  1  0.68789448  0.56723757  0.68164866  1
  N  N49  1  0.31365322  0.46624161  0.93605933  1
  N  N50  1  0.81210552  0.43276243  0.18164866  1
  N  N51  1  0.48592876  0.87248790  0.10633592  1
  N  N52  1  0.81210552  0.06723757  0.18164866  1
  N  N53  1  0.60661412  0.57288851  0.56103046  1
  N  N54  1  0.41092523  0.46545730  0.79462624  1
  N  N55  1  0.18789448  0.56723757  0.81835134  1
  N  N56  1  0.18789448  0.93276243  0.81835134  1
  N  N57  1  0.39338588  0.07288851  0.43896954  1
  N  N58  1  0.18634678  0.96624161  0.43605933  1
  N  N59  1  0.01407124  0.37248790  0.60633592  1
  N  N60  1  0.81365322  0.46624161  0.56394067  1
  N  N61  1  0.91092523  0.46545730  0.70537376  1
  N  N62  1  0.68789448  0.93276243  0.68164866  1
  N  N63  1  0.08907477  0.53454270  0.29462624  1
  N  N64  1  0.98592876  0.62751210  0.39366408  1
  N  N65  1  0.10661412  0.92711149  0.93896954  1
  N  N66  1  0.01407124  0.12751210  0.60633592  1
  N  N67  1  0.89338588  0.07288851  0.06103046  1
  N  N68  1  0.31210552  0.06723757  0.31835134  1
  N  N69  1  0.68634678  0.53375839  0.06394067  1
  N  N70  1  0.58907477  0.96545730  0.20537376  1
  N  N71  1  0.98592876  0.87248790  0.39366408  1
  N  N72  1  0.51407124  0.12751210  0.89366408  1
  N  N73  1  0.48592876  0.62751210  0.10633592  1
  N  N74  1  0.58907477  0.53454270  0.20537376  1
  N  N75  1  0.10661412  0.57288851  0.93896954  1
  N  N76  1  0.31210552  0.43276243  0.31835134  1
  N  N77  1  0.08907477  0.96545730  0.29462624  1
  N  N78  1  0.60661412  0.92711149  0.56103046  1
  N  N79  1  0.89338588  0.42711149  0.06103046  1
  N  N80  1  0.41092523  0.03454270  0.79462624  1
  N  N81  1  0.81365322  0.03375839  0.56394067  1
  N  N82  1  0.91092523  0.03454270  0.70537376  1
  N  N83  1  0.51407124  0.37248790  0.89366408  1
  N  N84  1  0.31365322  0.03375839  0.93605933  1
  N  N85  1  0.39338588  0.42711149  0.43896954  1
  N  N86  1  0.18634678  0.53375839  0.43605933  1
  N  N87  1  0.68634678  0.96624161  0.06394067  1
  Cl  Cl88  1  0.12757885  0.25000000  0.97454093  1
  Cl  Cl89  1  0.58949717  0.87598430  0.36960121  1
  Cl  Cl90  1  0.12153603  0.25000000  0.43339942  1
  Cl  Cl91  1  0.62757885  0.25000000  0.52545907  1
  Cl  Cl92  1  0.58949717  0.62401570  0.36960121  1
  Cl  Cl93  1  0.98377147  0.75000000  0.72709023  1
  Cl  Cl94  1  0.32570767  0.37676225  0.11194391  1
  Cl  Cl95  1  0.37242115  0.75000000  0.47454093  1
  Cl  Cl96  1  0.67429233  0.62323775  0.88805609  1
  Cl  Cl97  1  0.19724690  0.25000000  0.81073471  1
  Cl  Cl98  1  0.30275310  0.75000000  0.31073471  1
  Cl  Cl99  1  0.80275310  0.75000000  0.18926529  1
  Cl  Cl100  1  0.87846397  0.75000000  0.56660058  1
  Cl  Cl101  1  0.51622853  0.25000000  0.22709023  1
  Cl  Cl102  1  0.08949717  0.62401570  0.13039879  1
  Cl  Cl103  1  0.82570767  0.12323775  0.38805609  1
  Cl  Cl104  1  0.67429233  0.87676225  0.88805609  1
  Cl  Cl105  1  0.17429233  0.62323775  0.61194391  1
  Cl  Cl106  1  0.48377147  0.75000000  0.77290977  1
  Cl  Cl107  1  0.87242115  0.75000000  0.02545907  1
  Cl  Cl108  1  0.17429233  0.87676225  0.61194391  1
  Cl  Cl109  1  0.08949717  0.87598430  0.13039879  1
  Cl  Cl110  1  0.32570767  0.12323775  0.11194391  1
  Cl  Cl111  1  0.69724690  0.25000000  0.68926529  1
  Cl  Cl112  1  0.01622853  0.25000000  0.27290977  1
  Cl  Cl113  1  0.82570767  0.37676225  0.38805609  1
  Cl  Cl114  1  0.62153603  0.25000000  0.06660058  1
  Cl  Cl115  1  0.91050283  0.12401570  0.86960121  1
  Cl  Cl116  1  0.41050283  0.37598430  0.63039879  1
  Cl  Cl117  1  0.41050283  0.12401570  0.63039879  1
  Cl  Cl118  1  0.91050283  0.37598430  0.86960121  1
  Cl  Cl119  1  0.37846397  0.75000000  0.93339942  1
