# generated using pymatgen
data_Li2AlCr2SbO8
_symmetry_space_group_name_H-M   'P 1'
_cell_length_a   5.92100070
_cell_length_b   5.92100070
_cell_length_c   9.60922667
_cell_angle_alpha   90.29932334
_cell_angle_beta   89.70067666
_cell_angle_gamma   120.43160160
_symmetry_Int_Tables_number   1
_chemical_formula_structural   Li2AlCr2SbO8
_chemical_formula_sum   'Li4 Al2 Cr4 Sb2 O16'
_cell_volume   290.46657082
_cell_formula_units_Z   2
loop_
 _symmetry_equiv_pos_site_id
 _symmetry_equiv_pos_as_xyz
  1  'x, y, z'
loop_
 _atom_site_type_symbol
 _atom_site_label
 _atom_site_symmetry_multiplicity
 _atom_site_fract_x
 _atom_site_fract_y
 _atom_site_fract_z
 _atom_site_occupancy
  Li  Li0  1  0.33372409  0.66627591  0.60112896  1
  Li  Li1  1  0.66500971  0.33499029  0.09608814  1
  Li  Li2  1  0.00189362  0.99810638  0.00653347  1
  Li  Li3  1  0.99981444  0.00018556  0.51499784  1
  Al  Al4  1  0.34127961  0.17128300  0.78560354  1
  Al  Al5  1  0.82871700  0.65872039  0.78560354  1
  Cr  Cr6  1  0.16961897  0.83038103  0.28577972  1
  Cr  Cr7  1  0.66032298  0.83094221  0.28625135  1
  Cr  Cr8  1  0.16905779  0.33967702  0.28625135  1
  Cr  Cr9  1  0.82928788  0.17071212  0.78634757  1
  Sb  Sb10  1  0.33405123  0.66594877  0.00957219  1
  Sb  Sb11  1  0.66469232  0.33530768  0.51543895  1
  O  O12  1  0.00077016  0.99922984  0.19169129  1
  O  O13  1  0.00887874  0.99112126  0.70370164  1
  O  O14  1  0.16759025  0.83240975  0.89824018  1
  O  O15  1  0.67204928  0.82730165  0.89991809  1
  O  O16  1  0.17269835  0.32795072  0.89991809  1
  O  O17  1  0.83458809  0.16541191  0.40827240  1
  O  O18  1  0.32910506  0.16592932  0.40601145  1
  O  O19  1  0.83407068  0.67089494  0.40601145  1
  O  O20  1  0.33195257  0.66804743  0.39314782  1
  O  O21  1  0.65820142  0.34179858  0.88609258  1
  O  O22  1  0.48163049  0.51836951  0.15542803  1
  O  O23  1  0.03469941  0.51551031  0.15487185  1
  O  O24  1  0.48448969  0.96530059  0.15487185  1
  O  O25  1  0.51816571  0.48183429  0.66124809  1
  O  O26  1  0.96187557  0.48823510  0.66018927  1
  O  O27  1  0.51176490  0.03812443  0.66018927  1
