# generated using pymatgen
data_La5Fe4NiO15
_symmetry_space_group_name_H-M   'P 1'
_cell_length_a   5.55438314
_cell_length_b   5.60286735
_cell_length_c   23.18161652
_cell_angle_alpha   83.10454823
_cell_angle_beta   90.00000000
_cell_angle_gamma   119.71415622
_symmetry_Int_Tables_number   1
_chemical_formula_structural   La5Fe4NiO15
_chemical_formula_sum   'La10 Fe8 Ni2 O30'
_cell_volume   620.54698210
_cell_formula_units_Z   2
loop_
 _symmetry_equiv_pos_site_id
 _symmetry_equiv_pos_as_xyz
  1  'x, y, z'
loop_
 _atom_site_type_symbol
 _atom_site_label
 _atom_site_symmetry_multiplicity
 _atom_site_fract_x
 _atom_site_fract_y
 _atom_site_fract_z
 _atom_site_occupancy
  La  La0  1  0.55319514  0.10639027  0.85135493  1
  La  La1  1  0.35491102  0.70982204  0.44672672  1
  La  La2  1  0.95441664  0.90883328  0.64824458  1
  La  La3  1  0.15282037  0.30564074  0.04871748  1
  La  La4  1  0.75420522  0.50841043  0.24497748  1
  La  La5  1  0.84579478  0.69158957  0.95502252  1
  La  La6  1  0.64558336  0.29116672  0.55175542  1
  La  La7  1  0.24508898  0.49017796  0.75327328  1
  La  La8  1  0.44717963  0.89435926  0.15128252  1
  La  La9  1  0.04680486  0.09360973  0.34864507  1
  Fe  Fe10  1  0.70033041  0.40066082  0.39910845  1
  Fe  Fe11  1  0.30000000  0.60000000  0.60000000  1
  Fe  Fe12  1  0.89966959  0.79933918  0.80089155  1
  Fe  Fe13  1  0.80000000  0.60000000  0.10000000  1
  Fe  Fe14  1  0.40006674  0.80013347  0.29870147  1
  Fe  Fe15  1  0.00039888  0.00079777  0.49921605  1
  Fe  Fe16  1  0.59960112  0.19920223  0.70078395  1
  Fe  Fe17  1  0.19993326  0.39986653  0.90129853  1
  Ni  Ni18  1  0.50017196  0.00034392  0.00028231  1
  Ni  Ni19  1  0.09982804  0.19965608  0.19971769  1
  O  O20  1  0.02077544  0.53933028  0.83988794  1
  O  O21  1  0.82004449  0.14061613  0.43966080  1
  O  O22  1  0.42018284  0.33883692  0.63978502  1
  O  O23  1  0.62046733  0.74031664  0.04151860  1
  O  O24  1  0.21988680  0.93973616  0.24097332  1
  O  O25  1  0.88015064  0.26026384  0.95902668  1
  O  O26  1  0.68134592  0.86116308  0.56021498  1
  O  O27  1  0.27942835  0.05938387  0.76033920  1
  O  O28  1  0.48015069  0.45968336  0.15848140  1
  O  O29  1  0.08144515  0.66066972  0.36011206  1
  O  O30  1  0.38011320  0.26026384  0.95902668  1
  O  O31  1  0.17981716  0.86116308  0.56021498  1
  O  O32  1  0.77995551  0.05938387  0.76033920  1
  O  O33  1  0.97953267  0.45968336  0.15848140  1
  O  O34  1  0.57922456  0.66066972  0.36011206  1
  O  O35  1  0.51855485  0.53933028  0.83988794  1
  O  O36  1  0.32057165  0.14061613  0.43966080  1
  O  O37  1  0.91865408  0.33883692  0.63978502  1
  O  O38  1  0.11984931  0.74031664  0.04151860  1
  O  O39  1  0.71984936  0.93973616  0.24097332  1
  O  O40  1  0.61997127  0.23994254  0.06788870  1
  O  O41  1  0.21811181  0.43622362  0.26780580  1
  O  O42  1  0.81394372  0.62788745  0.46785779  1
  O  O43  1  0.41319517  0.82639034  0.66833480  1
  O  O44  1  0.01343081  0.02686161  0.86815777  1
  O  O45  1  0.98002873  0.96005746  0.13211130  1
  O  O46  1  0.58656919  0.17313839  0.33184223  1
  O  O47  1  0.18680483  0.37360966  0.53166520  1
  O  O48  1  0.78605628  0.57211255  0.73214221  1
  O  O49  1  0.38188819  0.76377638  0.93219420  1
