# generated using pymatgen
data_KCu2H3(SO5)2
_symmetry_space_group_name_H-M   'P 1'
_cell_length_a   5.56320698
_cell_length_b   5.56320698
_cell_length_c   7.62874393
_cell_angle_alpha   70.73889833
_cell_angle_beta   81.23509858
_cell_angle_gamma   109.79721470
_symmetry_Int_Tables_number   1
_chemical_formula_structural   KCu2H3(SO5)2
_chemical_formula_sum   'K1 Cu2 H3 S2 O10'
_cell_volume   200.22984504
_cell_formula_units_Z   1
loop_
 _symmetry_equiv_pos_site_id
 _symmetry_equiv_pos_as_xyz
  1  'x, y, z'
loop_
 _atom_site_type_symbol
 _atom_site_label
 _atom_site_symmetry_multiplicity
 _atom_site_fract_x
 _atom_site_fract_y
 _atom_site_fract_z
 _atom_site_occupancy
  K  K0  1  0.49986620  0.00012042  0.50001338  1
  Cu  Cu1  1  0.00505209  0.50133364  0.00221632  1
  Cu  Cu2  1  0.49645003  0.99273159  0.00221632  1
  H  H3  1  0.70291569  0.51503323  0.78205109  1
  H  H4  1  0.29657611  0.48871051  0.21471338  1
  H  H5  1  0.52064770  0.49154289  0.98780941  1
  S  S6  1  0.07875496  0.20616475  0.71508030  1
  S  S7  1  0.92070057  0.79390968  0.28538975  1
  O  O8  1  0.77674184  0.06328143  0.77369641  1
  O  O9  1  0.16302217  0.44956176  0.77369641  1
  O  O10  1  0.22261466  0.93711899  0.22659557  1
  O  O11  1  0.83628544  0.55078977  0.22659557  1
  O  O12  1  0.18310357  0.31335690  0.50353953  1
  O  O13  1  0.81646617  0.68649449  0.49703934  1
  O  O14  1  0.65556681  0.41915405  0.92527914  1
  O  O15  1  0.34429587  0.58391253  0.07179160  1
  O  O16  1  0.18393019  0.00273742  0.81333239  1
  O  O17  1  0.81576993  0.99738597  0.18684410  1
