# generated using pymatgen
data_La4Ti5(TeO8)3
_symmetry_space_group_name_H-M   'P 1'
_cell_length_a   7.42405357
_cell_length_b   10.60987188
_cell_length_c   7.42310185
_cell_angle_alpha   111.11832988
_cell_angle_beta   91.18680394
_cell_angle_gamma   68.85799425
_symmetry_Int_Tables_number   1
_chemical_formula_structural   La4Ti5(TeO8)3
_chemical_formula_sum   'La4 Ti5 Te3 O24'
_cell_volume   504.69573492
_cell_formula_units_Z   1
loop_
 _symmetry_equiv_pos_site_id
 _symmetry_equiv_pos_as_xyz
  1  'x, y, z'
loop_
 _atom_site_type_symbol
 _atom_site_label
 _atom_site_symmetry_multiplicity
 _atom_site_fract_x
 _atom_site_fract_y
 _atom_site_fract_z
 _atom_site_occupancy
  La  La0  1  0.99358387  0.00526603  0.00143687  1
  La  La1  1  0.50220007  0.00067292  0.49776166  1
  La  La2  1  0.00603384  0.49322254  0.99705332  1
  La  La3  1  0.49434331  0.50168529  0.49825633  1
  Ti  Ti4  1  0.40177095  0.16997212  0.09541708  1
  Ti  Ti5  1  0.92523175  0.17575035  0.57177471  1
  Ti  Ti6  1  0.41891595  0.67153866  0.07823672  1
  Ti  Ti7  1  0.91887926  0.65286094  0.57804926  1
  Ti  Ti8  1  0.08533478  0.33760450  0.41252737  1
  Te  Te9  1  0.58116519  0.33086058  0.91551732  1
  Te  Te10  1  0.58830490  0.83806613  0.90880488  1
  Te  Te11  1  0.07908356  0.83262517  0.41844994  1
  O  O12  1  0.83005285  0.49973264  0.45808290  1
  O  O13  1  0.33194283  0.48961284  0.95472983  1
  O  O14  1  0.31511028  0.01748847  0.95854742  1
  O  O15  1  0.83225145  0.99430086  0.45435233  1
  O  O16  1  0.95263012  0.18793151  0.33177618  1
  O  O17  1  0.45917500  0.18838954  0.82723058  1
  O  O18  1  0.43929761  0.67743022  0.83266709  1
  O  O19  1  0.96516579  0.68470880  0.32390082  1
  O  O20  1  0.14016629  0.31886566  0.14971436  1
  O  O21  1  0.64234779  0.31292011  0.64667500  1
  O  O22  1  0.65308589  0.81177731  0.62816751  1
  O  O23  1  0.13846221  0.81505686  0.15085478  1
  O  O24  1  0.17217712  0.49509620  0.53059454  1
  O  O25  1  0.66695279  0.49433211  0.03835658  1
  O  O26  1  0.66766021  0.01290669  0.04588896  1
  O  O27  1  0.16620596  0.99745278  0.53743402  1
  O  O28  1  0.04235392  0.31065161  0.66699850  1
  O  O29  1  0.53831689  0.31959279  0.16688562  1
  O  O30  1  0.53729166  0.80398668  0.18452312  1
  O  O31  1  0.03958346  0.81842885  0.66732639  1
  O  O32  1  0.35302212  0.18626971  0.35349029  1
  O  O33  1  0.84791516  0.18937876  0.85961210  1
  O  O34  1  0.87804786  0.67598848  0.84165097  1
  O  O35  1  0.34273729  0.68757529  0.36405464  1
