# generated using pymatgen
data_HoAlFe
_symmetry_space_group_name_H-M   'P 1'
_cell_length_a   5.40859532
_cell_length_b   5.40844447
_cell_length_c   8.56881484
_cell_angle_alpha   90.00000000
_cell_angle_beta   90.00000000
_cell_angle_gamma   59.73709006
_symmetry_Int_Tables_number   1
_chemical_formula_structural   HoAlFe
_chemical_formula_sum   'Ho4 Al4 Fe4'
_cell_volume   216.49685383
_cell_formula_units_Z   4
loop_
 _symmetry_equiv_pos_site_id
 _symmetry_equiv_pos_as_xyz
  1  'x, y, z'
loop_
 _atom_site_type_symbol
 _atom_site_label
 _atom_site_symmetry_multiplicity
 _atom_site_fract_x
 _atom_site_fract_y
 _atom_site_fract_z
 _atom_site_occupancy
  Ho  Ho0  1  0.33297196  0.33296687  0.56468298  1
  Ho  Ho1  1  0.66285267  0.66283869  0.44903428  1
  Ho  Ho2  1  0.66285267  0.66283869  0.05096572  1
  Ho  Ho3  1  0.33297196  0.33296687  0.93531702  1
  Al  Al4  1  0.83621929  0.83621958  0.75000000  1
  Al  Al5  1  0.16257107  0.67413404  0.25000000  1
  Al  Al6  1  0.67411567  0.16259711  0.25000000  1
  Al  Al7  1  0.16387945  0.16389789  0.25000000  1
  Fe  Fe8  1  0.00689960  0.00692948  0.51252814  1
  Fe  Fe9  1  0.00689960  0.00692948  0.98747186  1
  Fe  Fe10  1  0.83209583  0.32561512  0.75000000  1
  Fe  Fe11  1  0.32567021  0.83206618  0.75000000  1
