# generated using pymatgen
data_Ge2SeS
_symmetry_space_group_name_H-M   'P 1'
_cell_length_a   3.78568825
_cell_length_b   4.48394868
_cell_length_c   10.91548465
_cell_angle_alpha   90.00000000
_cell_angle_beta   90.00000000
_cell_angle_gamma   90.00000000
_symmetry_Int_Tables_number   1
_chemical_formula_structural   Ge2SeS
_chemical_formula_sum   'Ge4 Se2 S2'
_cell_volume   185.28851629
_cell_formula_units_Z   2
loop_
 _symmetry_equiv_pos_site_id
 _symmetry_equiv_pos_as_xyz
  1  'x, y, z'
loop_
 _atom_site_type_symbol
 _atom_site_label
 _atom_site_symmetry_multiplicity
 _atom_site_fract_x
 _atom_site_fract_y
 _atom_site_fract_z
 _atom_site_occupancy
  Ge  Ge0  1  0.25000000  0.39568515  0.62799111  1
  Ge  Ge1  1  0.25000000  0.10431485  0.12799111  1
  Ge  Ge2  1  0.75000000  0.64128353  0.37843523  1
  Ge  Ge3  1  0.75000000  0.85871647  0.87843523  1
  Se  Se4  1  0.75000000  0.49282140  0.14682521  1
  Se  Se5  1  0.75000000  0.00717860  0.64682521  1
  S  S6  1  0.25000000  0.50885066  0.84674844  1
  S  S7  1  0.25000000  0.99114934  0.34674844  1
