# generated using pymatgen
data_K3Er4(CuTe2)5
_symmetry_space_group_name_H-M   'P 1'
_cell_length_a   4.32884578
_cell_length_b   16.55066874
_cell_length_c   17.66835989
_cell_angle_alpha   90.00000000
_cell_angle_beta   90.00000000
_cell_angle_gamma   90.00000000
_symmetry_Int_Tables_number   1
_chemical_formula_structural   K3Er4(CuTe2)5
_chemical_formula_sum   'K6 Er8 Cu10 Te20'
_cell_volume   1265.85481287
_cell_formula_units_Z   2
loop_
 _symmetry_equiv_pos_site_id
 _symmetry_equiv_pos_as_xyz
  1  'x, y, z'
loop_
 _atom_site_type_symbol
 _atom_site_label
 _atom_site_symmetry_multiplicity
 _atom_site_fract_x
 _atom_site_fract_y
 _atom_site_fract_z
 _atom_site_occupancy
  K  K0  1  0.50000000  0.32999368  0.33596836  1
  K  K1  1  0.50000000  0.67117356  0.66214208  1
  K  K2  1  0.00000000  0.82882644  0.16214208  1
  K  K3  1  -0.00000000  0.17000632  0.83596836  1
  K  K4  1  0.50000000  0.49964837  0.49892345  1
  K  K5  1  -0.00000000  0.00035163  0.99892345  1
  Er  Er6  1  0.50000000  0.78619758  0.44771759  1
  Er  Er7  1  0.50000000  0.20905348  0.55456668  1
  Er  Er8  1  -0.00000000  0.29094652  0.05456668  1
  Er  Er9  1  -0.00000000  0.71380242  0.94771759  1
  Er  Er10  1  0.50000000  0.56482579  0.21405506  1
  Er  Er11  1  0.50000000  0.43229831  0.78607279  1
  Er  Er12  1  0.00000000  0.06770169  0.28607279  1
  Er  Er13  1  -0.00000000  0.93517421  0.71405506  1
  Cu  Cu14  1  0.50000000  0.84190299  0.84556697  1
  Cu  Cu15  1  0.50000000  0.16047795  0.15454246  1
  Cu  Cu16  1  0.00000000  0.33952205  0.65454246  1
  Cu  Cu17  1  0.00000000  0.65809701  0.34556697  1
  Cu  Cu18  1  0.50000000  0.56236193  0.04261751  1
  Cu  Cu19  1  0.50000000  0.43531521  0.95916192  1
  Cu  Cu20  1  -0.00000000  0.06468479  0.45916192  1
  Cu  Cu21  1  -0.00000000  0.93763807  0.54261751  1
  Cu  Cu22  1  0.50000000  0.90636288  0.30914140  1
  Cu  Cu23  1  0.00000000  0.59363712  0.80914140  1
  Te  Te24  1  0.50000000  0.82731830  0.99495204  1
  Te  Te25  1  0.50000000  0.17240817  0.00619134  1
  Te  Te26  1  0.00000000  0.32759183  0.50619134  1
  Te  Te27  1  0.00000000  0.67268170  0.49495204  1
  Te  Te28  1  0.50000000  0.13070306  0.39738475  1
  Te  Te29  1  0.50000000  0.86900667  0.60087891  1
  Te  Te30  1  -0.00000000  0.63099333  0.10087891  1
  Te  Te31  1  0.00000000  0.36929694  0.89738475  1
  Te  Te32  1  0.50000000  0.73201310  0.28623342  1
  Te  Te33  1  0.50000000  0.27171449  0.71387482  1
  Te  Te34  1  0.00000000  0.22828551  0.21387482  1
  Te  Te35  1  -0.00000000  0.76798690  0.78623342  1
  Te  Te36  1  0.50000000  0.58454336  0.89438265  1
  Te  Te37  1  0.50000000  0.41334860  0.10541556  1
  Te  Te38  1  -0.00000000  0.08665140  0.60541556  1
  Te  Te39  1  -0.00000000  0.91545664  0.39438265  1
  Te  Te40  1  0.50000000  0.99611718  0.18574223  1
  Te  Te41  1  0.50000000  0.99834190  0.81456803  1
  Te  Te42  1  0.00000000  0.50165810  0.31456803  1
  Te  Te43  1  0.00000000  0.50388282  0.68574223  1
