# generated using pymatgen
data_GaAgSeS
_symmetry_space_group_name_H-M   'P 1'
_cell_length_a   5.87025827
_cell_length_b   5.97637948
_cell_length_c   6.88539071
_cell_angle_alpha   64.27896559
_cell_angle_beta   64.76806190
_cell_angle_gamma   90.00000000
_symmetry_Int_Tables_number   1
_chemical_formula_structural   GaAgSeS
_chemical_formula_sum   'Ga2 Ag2 Se2 S2'
_cell_volume   191.72196297
_cell_formula_units_Z   2
loop_
 _symmetry_equiv_pos_site_id
 _symmetry_equiv_pos_as_xyz
  1  'x, y, z'
loop_
 _atom_site_type_symbol
 _atom_site_label
 _atom_site_symmetry_multiplicity
 _atom_site_fract_x
 _atom_site_fract_y
 _atom_site_fract_z
 _atom_site_occupancy
  Ga  Ga0  1  0.75651299  0.25651299  0.48697402  1
  Ga  Ga1  1  0.49348701  0.49348701  0.01302598  1
  Ag  Ag2  1  0.25886642  0.75886642  0.48226716  1
  Ag  Ag3  1  0.99113358  0.99113358  0.01773284  1
  Se  Se4  1  0.84484544  0.37500000  0.75000000  1
  Se  Se5  1  0.40515456  0.87500000  0.75000000  1
  S  S6  1  0.62500000  0.58498787  0.25000000  1
  S  S7  1  0.12500000  0.16501213  0.25000000  1
