# generated using pymatgen
data_InCuSeS
_symmetry_space_group_name_H-M   'P 1'
_cell_length_a   5.72632725
_cell_length_b   5.70078607
_cell_length_c   7.01558259
_cell_angle_alpha   66.02772369
_cell_angle_beta   65.91353082
_cell_angle_gamma   90.00000000
_symmetry_Int_Tables_number   1
_chemical_formula_structural   InCuSeS
_chemical_formula_sum   'In2 Cu2 Se2 S2'
_cell_volume   187.23289030
_cell_formula_units_Z   2
loop_
 _symmetry_equiv_pos_site_id
 _symmetry_equiv_pos_as_xyz
  1  'x, y, z'
loop_
 _atom_site_type_symbol
 _atom_site_label
 _atom_site_symmetry_multiplicity
 _atom_site_fract_x
 _atom_site_fract_y
 _atom_site_fract_z
 _atom_site_occupancy
  In  In0  1  0.24479274  0.74479274  0.51041453  1
  In  In1  1  0.50520726  0.50520726  0.98958547  1
  Cu  Cu2  1  0.73946488  0.23946488  0.52107023  1
  Cu  Cu3  1  0.01053512  0.01053512  0.97892977  1
  Se  Se4  1  0.09117341  0.12500000  0.25000000  1
  Se  Se5  1  0.65882659  0.62500000  0.25000000  1
  S  S6  1  0.37500000  0.90409579  0.75000000  1
  S  S7  1  0.87500000  0.34590421  0.75000000  1
