# generated using pymatgen
data_GdTiNbBi2O9
_symmetry_space_group_name_H-M   'P 1'
_cell_length_a   5.50872210
_cell_length_b   5.43065358
_cell_length_c   12.95898594
_cell_angle_alpha   77.48133722
_cell_angle_beta   90.00000000
_cell_angle_gamma   90.00000000
_symmetry_Int_Tables_number   1
_chemical_formula_structural   GdTiNbBi2O9
_chemical_formula_sum   'Gd2 Ti2 Nb2 Bi4 O18'
_cell_volume   378.46359525
_cell_formula_units_Z   2
loop_
 _symmetry_equiv_pos_site_id
 _symmetry_equiv_pos_as_xyz
  1  'x, y, z'
loop_
 _atom_site_type_symbol
 _atom_site_label
 _atom_site_symmetry_multiplicity
 _atom_site_fract_x
 _atom_site_fract_y
 _atom_site_fract_z
 _atom_site_occupancy
  Gd  Gd0  1  0.49065886  0.75801465  0.00021562  1
  Gd  Gd1  1  0.99065886  0.24198535  0.99978438  1
  Ti  Ti2  1  0.52908795  0.16637073  0.16867635  1
  Ti  Ti3  1  0.02908795  0.83362927  0.83132365  1
  Nb  Nb4  1  0.53383906  0.34595867  0.83115532  1
  Nb  Nb5  1  0.03383906  0.65404133  0.16884468  1
  Bi  Bi6  1  0.48021743  0.58150084  0.39737918  1
  Bi  Bi7  1  0.47510162  0.97207220  0.60198222  1
  Bi  Bi8  1  0.98021743  0.41849916  0.60262082  1
  Bi  Bi9  1  0.97510162  0.02792780  0.39801778  1
  O  O10  1  0.74566338  0.24320745  0.49893251  1
  O  O11  1  0.74413571  0.74344182  0.50124146  1
  O  O12  1  0.24566338  0.75679255  0.50106749  1
  O  O13  1  0.24413571  0.25655818  0.49875854  1
  O  O14  1  0.57876546  0.34291592  0.99955460  1
  O  O15  1  0.07876546  0.65708408  0.00044540  1
  O  O16  1  0.85387189  0.35084493  0.17336839  1
  O  O17  1  0.85889848  0.53199965  0.82692421  1
  O  O18  1  0.35387189  0.64915507  0.82663161  1
  O  O19  1  0.35889848  0.46800035  0.17307579  1
  O  O20  1  0.54886472  0.01281685  0.30667979  1
  O  O21  1  0.54508622  0.32919409  0.68722787  1
  O  O22  1  0.04886472  0.98718315  0.69332021  1
  O  O23  1  0.04508622  0.67080591  0.31277213  1
  O  O24  1  0.76729442  0.89913087  0.11847386  1
  O  O25  1  0.76831480  0.01872854  0.88125886  1
  O  O26  1  0.26729442  0.10086913  0.88152614  1
  O  O27  1  0.26831480  0.98127146  0.11874114  1
