# generated using pymatgen
data_Rb2Tb3AlF16
_symmetry_space_group_name_H-M   'P 1'
_cell_length_a   7.58386312
_cell_length_b   7.58386286
_cell_length_c   13.16587781
_cell_angle_alpha   90.00000000
_cell_angle_beta   90.00000000
_cell_angle_gamma   120.00000114
_symmetry_Int_Tables_number   1
_chemical_formula_structural   Rb2Tb3AlF16
_chemical_formula_sum   'Rb4 Tb6 Al2 F32'
_cell_volume   655.78488686
_cell_formula_units_Z   2
loop_
 _symmetry_equiv_pos_site_id
 _symmetry_equiv_pos_as_xyz
  1  'x, y, z'
loop_
 _atom_site_type_symbol
 _atom_site_label
 _atom_site_symmetry_multiplicity
 _atom_site_fract_x
 _atom_site_fract_y
 _atom_site_fract_z
 _atom_site_occupancy
  Rb  Rb0  1  0.33333300  0.66666700  0.43973141  1
  Rb  Rb1  1  0.66666700  0.33333300  0.56026859  1
  Rb  Rb2  1  0.66666700  0.33333300  0.93973141  1
  Rb  Rb3  1  0.33333300  0.66666700  0.06026859  1
  Tb  Tb4  1  0.17175355  0.82824645  0.75000000  1
  Tb  Tb5  1  0.82824645  0.17175355  0.25000000  1
  Tb  Tb6  1  0.17175355  0.34350610  0.75000000  1
  Tb  Tb7  1  0.34350610  0.17175355  0.25000000  1
  Tb  Tb8  1  0.65649390  0.82824645  0.75000000  1
  Tb  Tb9  1  0.82824645  0.65649390  0.25000000  1
  Al  Al10  1  0.00000000  -0.00000000  -0.00000000  1
  Al  Al11  1  0.00000000  -0.00000000  0.50000000  1
  F  F12  1  0.18765389  0.81234611  0.25000000  1
  F  F13  1  0.88581844  0.77163788  0.57866016  1
  F  F14  1  0.44890405  0.55109595  0.65325394  1
  F  F15  1  0.11418156  0.22836212  0.07866016  1
  F  F16  1  0.11418156  0.22836212  0.42133984  1
  F  F17  1  0.37530779  0.18765389  0.75000000  1
  F  F18  1  0.00000000  -0.00000000  0.25000000  1
  F  F19  1  0.77163788  0.88581844  0.42133984  1
  F  F20  1  0.10219189  0.55109595  0.65325394  1
  F  F21  1  0.44890405  0.89780811  0.65325394  1
  F  F22  1  0.22836212  0.11418156  0.57866016  1
  F  F23  1  0.81234611  0.18765389  0.75000000  1
  F  F24  1  0.55109595  0.10219189  0.34674606  1
  F  F25  1  0.77163788  0.88581844  0.07866016  1
  F  F26  1  0.88581844  0.11418156  0.92133984  1
  F  F27  1  0.88581844  0.11418156  0.57866016  1
  F  F28  1  0.62469221  0.81234611  0.25000000  1
  F  F29  1  0.55109595  0.10219189  0.15325394  1
  F  F30  1  0.11418156  0.88581844  0.42133984  1
  F  F31  1  0.11418156  0.88581844  0.07866016  1
  F  F32  1  0.89780811  0.44890405  0.34674606  1
  F  F33  1  0.55109595  0.44890405  0.34674606  1
  F  F34  1  0.22836212  0.11418156  0.92133984  1
  F  F35  1  0.89780811  0.44890405  0.15325394  1
  F  F36  1  0.10219189  0.55109595  0.84674606  1
  F  F37  1  0.44890405  0.89780811  0.84674606  1
  F  F38  1  0.18765389  0.37530779  0.25000000  1
  F  F39  1  0.44890405  0.55109595  0.84674606  1
  F  F40  1  0.88581844  0.77163788  0.92133984  1
  F  F41  1  0.81234611  0.62469221  0.75000000  1
  F  F42  1  0.00000000  -0.00000000  0.75000000  1
  F  F43  1  0.55109595  0.44890405  0.15325394  1
