# generated using pymatgen
data_ErAlFe
_symmetry_space_group_name_H-M   'P 1'
_cell_length_a   5.38654322
_cell_length_b   5.38645122
_cell_length_c   8.52346191
_cell_angle_alpha   90.00000000
_cell_angle_beta   90.00000000
_cell_angle_gamma   59.77168086
_symmetry_Int_Tables_number   1
_chemical_formula_structural   ErAlFe
_chemical_formula_sum   'Er4 Al4 Fe4'
_cell_volume   213.67600354
_cell_formula_units_Z   4
loop_
 _symmetry_equiv_pos_site_id
 _symmetry_equiv_pos_as_xyz
  1  'x, y, z'
loop_
 _atom_site_type_symbol
 _atom_site_label
 _atom_site_symmetry_multiplicity
 _atom_site_fract_x
 _atom_site_fract_y
 _atom_site_fract_z
 _atom_site_occupancy
  Er  Er0  1  0.33367035  0.33364068  0.56547182  1
  Er  Er1  1  0.66355197  0.66346122  0.44936117  1
  Er  Er2  1  0.66355197  0.66346122  0.05063883  1
  Er  Er3  1  0.33367035  0.33364068  0.93452818  1
  Al  Al4  1  0.83623209  0.83621231  0.75000000  1
  Al  Al5  1  0.16224169  0.67490783  0.25000000  1
  Al  Al6  1  0.67489731  0.16224783  0.25000000  1
  Al  Al7  1  0.16326059  0.16326324  0.25000000  1
  Fe  Fe8  1  0.00597172  0.00603439  0.51216508  1
  Fe  Fe9  1  0.00597172  0.00603439  0.98783492  1
  Fe  Fe10  1  0.83245765  0.32457894  0.75000000  1
  Fe  Fe11  1  0.32452257  0.83251727  0.75000000  1
