# generated using pymatgen
data_Mn2Si2Pb2O9
_symmetry_space_group_name_H-M   'P 1'
_cell_length_a   6.32778541
_cell_length_b   6.32778550
_cell_length_c   11.34068831
_cell_angle_alpha   90.00000000
_cell_angle_beta   90.00000000
_cell_angle_gamma   108.27167740
_symmetry_Int_Tables_number   1
_chemical_formula_structural   Mn2Si2Pb2O9
_chemical_formula_sum   'Mn4 Si4 Pb4 O18'
_cell_volume   431.19600418
_cell_formula_units_Z   2
loop_
 _symmetry_equiv_pos_site_id
 _symmetry_equiv_pos_as_xyz
  1  'x, y, z'
loop_
 _atom_site_type_symbol
 _atom_site_label
 _atom_site_symmetry_multiplicity
 _atom_site_fract_x
 _atom_site_fract_y
 _atom_site_fract_z
 _atom_site_occupancy
  Mn  Mn0  1  0.41315395  0.41315395  0.50000000  1
  Mn  Mn1  1  0.31485265  0.68514735  0.25000000  1
  Mn  Mn2  1  0.68514735  0.31485265  0.75000000  1
  Mn  Mn3  1  0.58684605  0.58684605  0.00000000  1
  Si  Si4  1  0.39156131  0.20128705  0.27295996  1
  Si  Si5  1  0.20128705  0.39156131  0.72704004  1
  Si  Si6  1  0.79871295  0.60843869  0.22704004  1
  Si  Si7  1  0.60843869  0.79871295  0.77295996  1
  Pb  Pb8  1  0.93447061  0.27887664  0.02828296  1
  Pb  Pb9  1  0.72112336  0.06552939  0.47171704  1
  Pb  Pb10  1  0.06552939  0.72112336  0.52828296  1
  Pb  Pb11  1  0.27887664  0.93447061  0.97171704  1
  O  O12  1  0.65923641  0.34076359  0.25000000  1
  O  O13  1  0.87721080  0.62938446  0.08632885  1
  O  O14  1  0.75911246  0.63381208  0.75924322  1
  O  O15  1  0.41871500  0.70487925  0.46613758  1
  O  O16  1  0.62938446  0.87721080  0.91367115  1
  O  O17  1  0.01833006  0.67106119  0.31233589  1
  O  O18  1  0.12278920  0.37061554  0.58632885  1
  O  O19  1  0.67106119  0.01833006  0.68766411  1
  O  O20  1  0.34076359  0.65923641  0.75000000  1
  O  O21  1  0.37061554  0.12278920  0.41367115  1
  O  O22  1  0.58128500  0.29512075  0.96613758  1
  O  O23  1  0.29512075  0.58128500  0.03386242  1
  O  O24  1  0.36618792  0.24088754  0.74075678  1
  O  O25  1  0.98166994  0.32893881  0.81233589  1
  O  O26  1  0.70487925  0.41871500  0.53386242  1
  O  O27  1  0.24088754  0.36618792  0.25924322  1
  O  O28  1  0.63381208  0.75911246  0.24075678  1
  O  O29  1  0.32893881  0.98166994  0.18766411  1
