# generated using pymatgen
data_Gd(Fe5Si)2
_symmetry_space_group_name_H-M   'P 1'
_cell_length_a   4.73236530
_cell_length_b   6.36076728
_cell_length_c   6.36076728
_cell_angle_alpha   98.36007816
_cell_angle_beta   111.83878926
_cell_angle_gamma   68.16121074
_symmetry_Int_Tables_number   1
_chemical_formula_structural   Gd(Fe5Si)2
_chemical_formula_sum   'Gd1 Fe10 Si2'
_cell_volume   164.96735834
_cell_formula_units_Z   1
loop_
 _symmetry_equiv_pos_site_id
 _symmetry_equiv_pos_as_xyz
  1  'x, y, z'
loop_
 _atom_site_type_symbol
 _atom_site_label
 _atom_site_symmetry_multiplicity
 _atom_site_fract_x
 _atom_site_fract_y
 _atom_site_fract_z
 _atom_site_occupancy
  Gd  Gd0  1  -0.00000000  0.00000000  0.00000000  1
  Fe  Fe1  1  0.63851466  0.36148534  0.63851466  1
  Fe  Fe2  1  0.36148534  0.63851466  0.36148534  1
  Fe  Fe3  1  0.00000000  0.35485117  0.35485117  1
  Fe  Fe4  1  -0.00000000  0.64514883  0.64514883  1
  Fe  Fe5  1  0.50000000  0.78878082  0.78878082  1
  Fe  Fe6  1  0.50000000  0.21121918  0.21121918  1
  Fe  Fe7  1  0.50000000  0.00000000  0.50000000  1
  Fe  Fe8  1  -0.00000000  0.00000000  0.50000000  1
  Fe  Fe9  1  0.50000000  0.50000000  0.00000000  1
  Fe  Fe10  1  -0.00000000  0.50000000  0.00000000  1
  Si  Si11  1  0.73704936  0.76295064  0.23704936  1
  Si  Si12  1  0.26295064  0.23704936  0.76295064  1
