# generated using pymatgen
data_DyGaNi
_symmetry_space_group_name_H-M   'P 1'
_cell_length_a   4.19052013
_cell_length_b   5.29731849
_cell_length_c   5.74771092
_cell_angle_alpha   93.10323544
_cell_angle_beta   111.37915893
_cell_angle_gamma   66.70083414
_symmetry_Int_Tables_number   1
_chemical_formula_structural   DyGaNi
_chemical_formula_sum   'Dy2 Ga2 Ni2'
_cell_volume   108.51561169
_cell_formula_units_Z   2
loop_
 _symmetry_equiv_pos_site_id
 _symmetry_equiv_pos_as_xyz
  1  'x, y, z'
loop_
 _atom_site_type_symbol
 _atom_site_label
 _atom_site_symmetry_multiplicity
 _atom_site_fract_x
 _atom_site_fract_y
 _atom_site_fract_z
 _atom_site_occupancy
  Dy  Dy0  1  0.74594405  0.69743695  0.18932505  1
  Dy  Dy1  1  0.25405595  0.30256305  0.81067495  1
  Ga  Ga2  1  0.57634561  0.24729168  0.39998291  1
  Ga  Ga3  1  0.42365439  0.75270832  0.60001709  1
  Ni  Ni4  1  0.04528359  0.11119062  0.20175780  1
  Ni  Ni5  1  0.95471641  0.88880938  0.79824220  1
