# generated using pymatgen
data_Fe5Ni4P3
_symmetry_space_group_name_H-M   'P 1'
_cell_length_a   4.39170303
_cell_length_b   6.70687872
_cell_length_c   19.10837204
_cell_angle_alpha   92.33005600
_cell_angle_beta   83.15192739
_cell_angle_gamma   109.30453804
_symmetry_Int_Tables_number   1
_chemical_formula_structural   Fe5Ni4P3
_chemical_formula_sum   'Fe20 Ni16 P12'
_cell_volume   527.39456452
_cell_formula_units_Z   4
loop_
 _symmetry_equiv_pos_site_id
 _symmetry_equiv_pos_as_xyz
  1  'x, y, z'
loop_
 _atom_site_type_symbol
 _atom_site_label
 _atom_site_symmetry_multiplicity
 _atom_site_fract_x
 _atom_site_fract_y
 _atom_site_fract_z
 _atom_site_occupancy
  Fe  Fe0  1  0.85830498  0.18401109  0.01064470  1
  Fe  Fe1  1  0.19212995  0.18456323  0.34417515  1
  Fe  Fe2  1  0.52618149  0.18453372  0.67739023  1
  Fe  Fe3  1  0.01394058  0.81448567  0.32329185  1
  Fe  Fe4  1  0.34754972  0.81476212  0.65649356  1
  Fe  Fe5  1  0.68475553  0.81559549  0.98883733  1
  Fe  Fe6  1  0.18601186  0.97128174  0.06132851  1
  Fe  Fe7  1  0.51756659  0.96823203  0.39523826  1
  Fe  Fe8  1  0.85064938  0.96789176  0.72857960  1
  Fe  Fe9  1  0.60747891  0.02858356  0.27187522  1
  Fe  Fe10  1  0.94087124  0.02786406  0.60525117  1
  Fe  Fe11  1  0.27512176  0.02761281  0.93844495  1
  Fe  Fe12  1  0.09854385  0.60542510  0.44346165  1
  Fe  Fe13  1  0.43157049  0.60569387  0.77680394  1
  Fe  Fe14  1  0.07501490  0.32897748  0.13240220  1
  Fe  Fe15  1  0.41054276  0.32994281  0.46518911  1
  Fe  Fe16  1  0.74435126  0.32992920  0.79856939  1
  Fe  Fe17  1  0.21249791  0.67111035  0.20101611  1
  Fe  Fe18  1  0.54776128  0.67144493  0.53465436  1
  Fe  Fe19  1  0.88016164  0.67150231  0.86794130  1
  Ni  Ni20  1  0.43762288  0.38792732  0.01693548  1
  Ni  Ni21  1  0.77234145  0.38846305  0.34937374  1
  Ni  Ni22  1  0.10578139  0.38825092  0.68264941  1
  Ni  Ni23  1  0.39643994  0.61078190  0.31631205  1
  Ni  Ni24  1  0.73063636  0.61092724  0.64978472  1
  Ni  Ni25  1  0.06722701  0.61281324  0.98306304  1
  Ni  Ni26  1  0.65681807  0.94841206  0.12936581  1
  Ni  Ni27  1  0.99197252  0.95226988  0.46310126  1
  Ni  Ni28  1  0.32494454  0.95214215  0.79637320  1
  Ni  Ni29  1  0.17237991  0.05167414  0.20396859  1
  Ni  Ni30  1  0.50643614  0.05178634  0.53736142  1
  Ni  Ni31  1  0.83920107  0.05172046  0.87084819  1
  Ni  Ni32  1  0.60842180  0.39601576  0.22298051  1
  Ni  Ni33  1  0.94357135  0.39541145  0.55681040  1
  Ni  Ni34  1  0.27679178  0.39486034  0.89020371  1
  Ni  Ni35  1  0.76823288  0.60443894  0.11051114  1
  P  P36  1  0.06148179  0.34077335  0.25247012  1
  P  P37  1  0.39560171  0.34014337  0.58563451  1
  P  P38  1  0.72883341  0.34163022  0.91938548  1
  P  P39  1  0.30546569  0.65772317  0.08058957  1
  P  P40  1  0.63518094  0.65683999  0.41472889  1
  P  P41  1  0.96889302  0.65692641  0.74797183  1
  P  P42  1  0.54747592  0.24168802  0.11314017  1
  P  P43  1  0.88160633  0.24446804  0.44623926  1
  P  P44  1  0.21515057  0.24454310  0.77961369  1
  P  P45  1  0.75309914  0.75859021  0.22026189  1
  P  P46  1  0.08756500  0.75788859  0.55277290  1
  P  P47  1  0.41982130  0.75744699  0.88596042  1
