# generated using pymatgen
data_Er3ScS6
_symmetry_space_group_name_H-M   'P 1'
_cell_length_a   3.85776013
_cell_length_b   10.77597236
_cell_length_c   11.11365102
_cell_angle_alpha   108.57482545
_cell_angle_beta   90.00000000
_cell_angle_gamma   90.00000000
_symmetry_Int_Tables_number   1
_chemical_formula_structural   Er3ScS6
_chemical_formula_sum   'Er6 Sc2 S12'
_cell_volume   437.94023313
_cell_formula_units_Z   2
loop_
 _symmetry_equiv_pos_site_id
 _symmetry_equiv_pos_as_xyz
  1  'x, y, z'
loop_
 _atom_site_type_symbol
 _atom_site_label
 _atom_site_symmetry_multiplicity
 _atom_site_fract_x
 _atom_site_fract_y
 _atom_site_fract_z
 _atom_site_occupancy
  Er  Er0  1  0.25000000  0.18364471  0.00622229  1
  Er  Er1  1  0.75000000  0.81635529  0.99377771  1
  Er  Er2  1  0.25000000  0.54725483  0.19618025  1
  Er  Er3  1  0.75000000  0.45274517  0.80381975  1
  Er  Er4  1  0.25000000  0.93855299  0.33389576  1
  Er  Er5  1  0.75000000  0.06144701  0.66610424  1
  Sc  Sc6  1  0.25000000  0.65512728  0.58347240  1
  Sc  Sc7  1  0.75000000  0.34487272  0.41652760  1
  S  S8  1  0.25000000  0.88739683  0.55961679  1
  S  S9  1  0.75000000  0.11260317  0.44038321  1
  S  S10  1  0.25000000  0.24356763  0.77417000  1
  S  S11  1  0.75000000  0.75643237  0.22583000  1
  S  S12  1  0.25000000  0.97997725  0.11348432  1
  S  S13  1  0.75000000  0.02002275  0.88651568  1
  S  S14  1  0.25000000  0.30944445  0.25955866  1
  S  S15  1  0.75000000  0.69055555  0.74044134  1
  S  S16  1  0.25000000  0.61072800  0.96094095  1
  S  S17  1  0.75000000  0.38927200  0.03905905  1
  S  S18  1  0.25000000  0.42043914  0.59226466  1
  S  S19  1  0.75000000  0.57956086  0.40773534  1
