# generated using pymatgen
data_Fe2Sb3PbO8
_symmetry_space_group_name_H-M   'P 1'
_cell_length_a   6.16996420
_cell_length_b   8.66319349
_cell_length_c   8.66319349
_cell_angle_alpha   90.01551769
_cell_angle_beta   89.99652376
_cell_angle_gamma   89.99652376
_symmetry_Int_Tables_number   1
_chemical_formula_structural   Fe2Sb3PbO8
_chemical_formula_sum   'Fe4 Sb6 Pb2 O16'
_cell_volume   463.06147985
_cell_formula_units_Z   2
loop_
 _symmetry_equiv_pos_site_id
 _symmetry_equiv_pos_as_xyz
  1  'x, y, z'
loop_
 _atom_site_type_symbol
 _atom_site_label
 _atom_site_symmetry_multiplicity
 _atom_site_fract_x
 _atom_site_fract_y
 _atom_site_fract_z
 _atom_site_occupancy
  Fe  Fe0  1  0.75012691  0.99947760  0.49949900  1
  Fe  Fe1  1  0.25002041  0.49673001  0.99674565  1
  Fe  Fe2  1  0.75002041  0.49674565  0.99673001  1
  Fe  Fe3  1  0.25012691  0.99949900  0.49947760  1
  Sb  Sb4  1  0.00003228  0.32711028  0.67011970  1
  Sb  Sb5  1  0.50003228  0.17011970  0.82711028  1
  Sb  Sb6  1  0.49999677  0.67385160  0.66725589  1
  Sb  Sb7  1  -0.00006155  0.67090627  0.32793164  1
  Sb  Sb8  1  0.49993845  0.82793164  0.17090627  1
  Sb  Sb9  1  -0.00000323  0.16725589  0.17385160  1
  Pb  Pb10  1  0.49996544  0.35097831  0.34875900  1
  Pb  Pb11  1  -0.00003456  0.84875900  0.85097831  1
  O  O12  1  0.74999318  0.32613299  0.82609459  1
  O  O13  1  0.26178928  0.82512602  0.67233944  1
  O  O14  1  0.76178928  0.17233944  0.32512602  1
  O  O15  1  0.24999318  0.32609459  0.82613299  1
  O  O16  1  0.73808716  0.82519748  0.67241099  1
  O  O17  1  0.23808716  0.17241099  0.32519748  1
  O  O18  1  0.25003748  0.66937970  0.16950152  1
  O  O19  1  0.75003748  0.66950152  0.16937970  1
  O  O20  1  0.49998009  0.85273440  0.39384599  1
  O  O21  1  -0.00000118  0.39901035  0.12822653  1
  O  O22  1  0.49999882  0.62822653  0.89901035  1
  O  O23  1  -0.00001991  0.89384599  0.35273440  1
  O  O24  1  0.50001492  0.14655663  0.60289181  1
  O  O25  1  0.00001879  0.58185899  0.87912760  1
  O  O26  1  0.50001879  0.37912760  0.08185899  1
  O  O27  1  0.00001492  0.10289181  0.64655663  1
