# generated using pymatgen
data_K3TiFeH4S4O19
_symmetry_space_group_name_H-M   'P 1'
_cell_length_a   7.77363849
_cell_length_b   9.33935830
_cell_length_c   12.43632653
_cell_angle_alpha   92.13527275
_cell_angle_beta   84.86361717
_cell_angle_gamma   114.59341209
_symmetry_Int_Tables_number   1
_chemical_formula_structural   K3TiFeH4S4O19
_chemical_formula_sum   'K6 Ti2 Fe2 H8 S8 O38'
_cell_volume   817.68413345
_cell_formula_units_Z   2
loop_
 _symmetry_equiv_pos_site_id
 _symmetry_equiv_pos_as_xyz
  1  'x, y, z'
loop_
 _atom_site_type_symbol
 _atom_site_label
 _atom_site_symmetry_multiplicity
 _atom_site_fract_x
 _atom_site_fract_y
 _atom_site_fract_z
 _atom_site_occupancy
  K  K0  1  0.88679624  0.77347034  0.75048952  1
  K  K1  1  0.11332590  0.22652966  0.25048952  1
  K  K2  1  0.99985356  0.49877016  0.00032199  1
  K  K3  1  0.50108340  0.50122984  0.50032199  1
  K  K4  1  0.47209980  0.94515669  0.74970906  1
  K  K5  1  0.52694312  0.05484331  0.24970906  1
  Ti  Ti6  1  0.99413503  0.21391019  0.64239027  1
  Ti  Ti7  1  0.78022484  0.78608981  0.14239027  1
  Fe  Fe8  1  0.23191273  0.22037317  0.86458425  1
  Fe  Fe9  1  0.01153956  0.77962683  0.36458425  1
  H  H10  1  0.53888606  0.39159171  0.95559822  1
  H  H11  1  0.85348735  0.39239121  0.54352929  1
  H  H12  1  0.46109614  0.60760879  0.04352929  1
  H  H13  1  0.14729435  0.60840829  0.45559822  1
  H  H14  1  0.41384813  0.24366630  0.03264220  1
  H  H15  1  0.83128871  0.24670202  0.46649924  1
  H  H16  1  0.58458669  0.75329798  0.96649924  1
  H  H17  1  0.17018183  0.75633370  0.53264220  1
  S  S18  1  0.68077455  0.36139618  0.74949094  1
  S  S19  1  0.31937837  0.63860382  0.24949094  1
  S  S20  1  0.27303793  0.54727093  0.75042109  1
  S  S21  1  0.72576700  0.45272907  0.25042109  1
  S  S22  1  0.79878252  0.07414307  0.98885978  1
  S  S23  1  0.27568325  0.07411216  0.51036088  1
  S  S24  1  0.20157110  0.92588784  0.01036088  1
  S  S25  1  0.72463946  0.92585693  0.48885978  1
  O  O26  1  0.68762390  0.16636387  0.00308610  1
  O  O27  1  0.47773596  0.17279330  0.49998227  1
  O  O28  1  0.30494266  0.82720670  -0.00001773  1
  O  O29  1  0.52126003  0.83363613  0.50308610  1
  O  O30  1  0.00747752  0.18457872  0.97435268  1
  O  O31  1  0.17118906  0.18269802  0.52748434  1
  O  O32  1  0.98849104  0.81730198  0.02748434  1
  O  O33  1  0.82289880  0.81542128  0.47435268  1
  O  O34  1  0.47254766  0.25154956  0.76325685  1
  O  O35  1  0.78510447  0.25454585  0.73423656  1
  O  O36  1  0.53055863  0.74545415  0.23423656  1
  O  O37  1  0.22099810  0.74845044  0.26325685  1
  O  O38  1  0.25183751  0.44293394  0.84536235  1
  O  O39  1  0.18328824  0.43783628  0.65665108  1
  O  O40  1  0.74545196  0.56216372  0.15665108  1
  O  O41  1  0.80890357  0.55706606  0.34536235  1
  O  O42  1  0.47341483  0.64065979  0.71712986  1
  O  O43  1  0.16855099  0.64423243  0.77871156  1
  O  O44  1  0.52431856  0.35576757  0.27871156  1
  O  O45  1  0.83275505  0.35934021  0.21712986  1
  O  O46  1  0.73542514  0.45663357  0.84798228  1
  O  O47  1  0.72331585  0.45938076  0.65237963  1
  O  O48  1  0.26393510  0.54061924  0.15237963  1
  O  O49  1  0.27879157  0.54336643  0.34798228  1
  O  O50  1  0.06735471  0.14198006  0.74778335  1
  O  O51  1  0.92537465  0.85801994  0.24778335  1
  O  O52  1  0.74354500  0.95557683  0.90232749  1
  O  O53  1  0.21221123  0.95505927  0.59647521  1
  O  O54  1  0.25715196  0.04494073  0.09647521  1
  O  O55  1  0.78796818  0.04442317  0.40232749  1
  O  O56  1  0.22157828  0.00573397  0.90222065  1
  O  O57  1  0.78941329  0.01066375  0.59680877  1
  O  O58  1  0.77874953  0.98933625  0.09680877  1
  O  O59  1  0.21584431  0.99426603  0.40222065  1
  O  O60  1  0.40883800  0.32713353  0.98823418  1
  O  O61  1  0.92036864  0.32950467  0.51063808  1
  O  O62  1  0.59086397  0.67049533  0.01063808  1
  O  O63  1  0.08170446  0.67286647  0.48823418  1
