# generated using pymatgen
data_Cu3Ag3(PS4)2
_symmetry_space_group_name_H-M   'P 1'
_cell_length_a   6.29479793
_cell_length_b   6.44746702
_cell_length_c   7.73957743
_cell_angle_alpha   89.71818302
_cell_angle_beta   90.15024786
_cell_angle_gamma   90.08820244
_symmetry_Int_Tables_number   1
_chemical_formula_structural   Cu3Ag3(PS4)2
_chemical_formula_sum   'Cu3 Ag3 P2 S8'
_cell_volume   314.10938975
_cell_formula_units_Z   1
loop_
 _symmetry_equiv_pos_site_id
 _symmetry_equiv_pos_as_xyz
  1  'x, y, z'
loop_
 _atom_site_type_symbol
 _atom_site_label
 _atom_site_symmetry_multiplicity
 _atom_site_fract_x
 _atom_site_fract_y
 _atom_site_fract_z
 _atom_site_occupancy
  Cu  Cu0  1  0.50880263  0.32419380  0.25006600  1
  Cu  Cu1  1  0.50508159  0.31597395  0.74845807  1
  Cu  Cu2  1  0.01207120  0.67225656  0.24859654  1
  Ag  Ag3  1  0.01244412  0.67890938  0.75217372  1
  Ag  Ag4  1  0.00921419  0.15744968  0.49709929  1
  Ag  Ag5  1  0.50142902  0.84761171  0.00365613  1
  P  P6  1  0.50346626  0.81706635  0.49428681  1
  P  P7  1  0.99896786  0.18460787  0.00562981  1
  S  S8  1  0.41030417  0.13108630  0.49810000  1
  S  S9  1  0.90554618  0.87745144  0.01968444  1
  S  S10  1  0.83007847  0.80276435  0.48049258  1
  S  S11  1  0.33276556  0.21273067  0.00093334  1
  S  S12  1  0.87556505  0.34413352  0.21976375  1
  S  S13  1  0.86937295  0.31284176  0.78218635  1
  S  S14  1  0.37357359  0.65944084  0.28072065  1
  S  S15  1  0.40731715  0.66148182  0.71815251  1
