# generated using pymatgen
data_CoNi2(PO4)2
_symmetry_space_group_name_H-M   'P 1'
_cell_length_a   4.76165409
_cell_length_b   5.93680553
_cell_length_c   10.30670044
_cell_angle_alpha   90.39324121
_cell_angle_beta   90.00000000
_cell_angle_gamma   90.00000000
_symmetry_Int_Tables_number   1
_chemical_formula_structural   CoNi2(PO4)2
_chemical_formula_sum   'Co2 Ni4 P4 O16'
_cell_volume   291.35340008
_cell_formula_units_Z   2
loop_
 _symmetry_equiv_pos_site_id
 _symmetry_equiv_pos_as_xyz
  1  'x, y, z'
loop_
 _atom_site_type_symbol
 _atom_site_label
 _atom_site_symmetry_multiplicity
 _atom_site_fract_x
 _atom_site_fract_y
 _atom_site_fract_z
 _atom_site_occupancy
  Co  Co0  1  0.51266144  0.24240689  0.77845853  1
  Co  Co1  1  0.01266144  0.75759311  0.72154147  1
  Ni  Ni2  1  0.49077738  0.75803195  0.22475660  1
  Ni  Ni3  1  0.99077738  0.24196805  0.27524340  1
  Ni  Ni4  1  0.50038627  0.49954430  0.49858932  1
  Ni  Ni5  1  0.00038627  0.50045570  0.00141068  1
  P  P6  1  0.07377319  0.25394097  0.59476709  1
  P  P7  1  0.57377319  0.74605903  0.90523291  1
  P  P8  1  0.92545158  0.74583501  0.40219980  1
  P  P9  1  0.42545158  0.25416499  0.09780020  1
  O  O10  1  0.23250510  0.46452114  0.66022469  1
  O  O11  1  0.73250510  0.53547886  0.83977531  1
  O  O12  1  0.76864485  0.53354177  0.33690263  1
  O  O13  1  0.26864485  0.46645823  0.16309737  1
  O  O14  1  0.30849516  0.25653248  0.95737634  1
  O  O15  1  0.80849516  0.74346752  0.54262366  1
  O  O16  1  0.69004295  0.74359114  0.04579651  1
  O  O17  1  0.19004295  0.25640886  0.45420349  1
  O  O18  1  0.18779112  0.05530890  0.67594504  1
  O  O19  1  0.68779112  0.94469110  0.82405496  1
  O  O20  1  0.80918773  0.94483985  0.32265759  1
  O  O21  1  0.30918773  0.05516015  0.17734241  1
  O  O22  1  0.75204094  0.27277144  0.60107640  1
  O  O23  1  0.25204094  0.72722856  0.89892360  1
  O  O24  1  0.24824228  0.72863202  0.39659289  1
  O  O25  1  0.74824228  0.27136798  0.10340711  1
