# generated using pymatgen
data_Cu4PtO5
_symmetry_space_group_name_H-M   'P 1'
_cell_length_a   4.23782097
_cell_length_b   10.77160148
_cell_length_c   5.18898208
_cell_angle_alpha   90.00000000
_cell_angle_beta   90.00000000
_cell_angle_gamma   100.20544292
_symmetry_Int_Tables_number   1
_chemical_formula_structural   Cu4PtO5
_chemical_formula_sum   'Cu8 Pt2 O10'
_cell_volume   233.11974050
_cell_formula_units_Z   2
loop_
 _symmetry_equiv_pos_site_id
 _symmetry_equiv_pos_as_xyz
  1  'x, y, z'
loop_
 _atom_site_type_symbol
 _atom_site_label
 _atom_site_symmetry_multiplicity
 _atom_site_fract_x
 _atom_site_fract_y
 _atom_site_fract_z
 _atom_site_occupancy
  Cu  Cu0  1  0.20000000  0.90000000  0.50000000  1
  Cu  Cu1  1  0.80348822  0.09566219  0.50000000  1
  Cu  Cu2  1  0.40482664  0.29763083  0.50000000  1
  Cu  Cu3  1  0.99517336  0.50236917  0.50000000  1
  Cu  Cu4  1  0.59651178  0.70433781  0.50000000  1
  Cu  Cu5  1  0.28285218  0.09899307  -0.00000000  1
  Cu  Cu6  1  0.11714782  0.70100693  0.00000000  1
  Cu  Cu7  1  0.70000000  0.90000000  -0.00000000  1
  Pt  Pt8  1  0.89410086  0.29553485  0.00000000  1
  Pt  Pt9  1  0.50589914  0.50446515  -0.00000000  1
  O  O10  1  0.99701690  0.99669740  0.74883206  1
  O  O11  1  0.59243386  0.19252738  0.74544342  1
  O  O12  1  0.20000000  0.40000000  0.74337551  1
  O  O13  1  0.80756614  0.60747262  0.74544342  1
  O  O14  1  0.40298310  0.80330260  0.74883206  1
  O  O15  1  0.99701690  0.99669740  0.25116794  1
  O  O16  1  0.59243386  0.19252738  0.25455658  1
  O  O17  1  0.20000000  0.40000000  0.25662449  1
  O  O18  1  0.80756614  0.60747262  0.25455658  1
  O  O19  1  0.40298310  0.80330260  0.25116794  1
