# generated using pymatgen
data_Cr2Cu(SeS)2
_symmetry_space_group_name_H-M   'P 1'
_cell_length_a   7.17207128
_cell_length_b   7.17207128
_cell_length_c   7.17207128
_cell_angle_alpha   90.00000000
_cell_angle_beta   60.00000000
_cell_angle_gamma   120.00000000
_symmetry_Int_Tables_number   1
_chemical_formula_structural   Cr2Cu(SeS)2
_chemical_formula_sum   'Cr4 Cu2 Se4 S4'
_cell_volume   260.86679013
_cell_formula_units_Z   2
loop_
 _symmetry_equiv_pos_site_id
 _symmetry_equiv_pos_as_xyz
  1  'x, y, z'
loop_
 _atom_site_type_symbol
 _atom_site_label
 _atom_site_symmetry_multiplicity
 _atom_site_fract_x
 _atom_site_fract_y
 _atom_site_fract_z
 _atom_site_occupancy
  Cr  Cr0  1  0.48600960  0.47901440  0.00699520  1
  Cr  Cr1  1  0.48600960  0.00699520  0.00699520  1
  Cr  Cr2  1  0.01399040  0.00699520  0.47901440  1
  Cr  Cr3  1  0.01399040  0.00699520  0.00699520  1
  Cu  Cu4  1  0.75000000  0.37500000  0.37500000  1
  Cu  Cu5  1  0.25000000  0.62500000  0.62500000  1
  Se  Se6  1  0.98253226  0.22379839  0.75873387  1
  Se  Se7  1  0.98253226  0.75873387  0.75873387  1
  Se  Se8  1  0.51746774  0.75873387  0.22379839  1
  Se  Se9  1  0.51746774  0.75873387  0.75873387  1
  S  S10  1  0.01468855  0.77203283  0.24265572  1
  S  S11  1  0.01468855  0.24265572  0.24265572  1
  S  S12  1  0.48531145  0.24265572  0.77203283  1
  S  S13  1  0.48531145  0.24265572  0.24265572  1
