# generated using pymatgen
data_CeGa2Ni3
_symmetry_space_group_name_H-M   'P 1'
_cell_length_a   4.13398598
_cell_length_b   4.98868923
_cell_length_c   4.98868971
_cell_angle_alpha   62.42331406
_cell_angle_beta   90.00000000
_cell_angle_gamma   90.00000000
_symmetry_Int_Tables_number   1
_chemical_formula_structural   CeGa2Ni3
_chemical_formula_sum   'Ce1 Ga2 Ni3'
_cell_volume   91.19431845
_cell_formula_units_Z   1
loop_
 _symmetry_equiv_pos_site_id
 _symmetry_equiv_pos_as_xyz
  1  'x, y, z'
loop_
 _atom_site_type_symbol
 _atom_site_label
 _atom_site_symmetry_multiplicity
 _atom_site_fract_x
 _atom_site_fract_y
 _atom_site_fract_z
 _atom_site_occupancy
  Ce  Ce0  1  0.00000000  0.99997846  0.00002154  1
  Ga  Ga1  1  0.50000000  0.49998570  0.00001847  1
  Ga  Ga2  1  0.50000000  0.99998153  0.50001430  1
  Ni  Ni3  1  -0.00000000  0.33295285  0.33298333  1
  Ni  Ni4  1  0.00000000  0.66701667  0.66704715  1
  Ni  Ni5  1  0.50000000  0.49998480  0.50001520  1
