# generated using pymatgen
data_CeY(AlPd)2
_symmetry_space_group_name_H-M   'P 1'
_cell_length_a   4.14127241
_cell_length_b   7.22149768
_cell_length_c   12.37029696
_cell_angle_alpha   89.70332784
_cell_angle_beta   90.00000000
_cell_angle_gamma   90.00000000
_symmetry_Int_Tables_number   1
_chemical_formula_structural   CeY(AlPd)2
_chemical_formula_sum   'Ce3 Y3 Al6 Pd6'
_cell_volume   369.94348083
_cell_formula_units_Z   3
loop_
 _symmetry_equiv_pos_site_id
 _symmetry_equiv_pos_as_xyz
  1  'x, y, z'
loop_
 _atom_site_type_symbol
 _atom_site_label
 _atom_site_symmetry_multiplicity
 _atom_site_fract_x
 _atom_site_fract_y
 _atom_site_fract_z
 _atom_site_occupancy
  Ce  Ce0  1  0.50000000  0.07986261  0.50057579  1
  Ce  Ce1  1  0.50000000  0.57887651  0.99896583  1
  Ce  Ce2  1  0.50000000  0.21104501  0.21084675  1
  Y  Y3  1  0.50000000  0.70936800  0.70780497  1
  Y  Y4  1  0.50000000  0.70868153  0.29208171  1
  Y  Y5  1  0.50000000  0.20931381  0.79093036  1
  Al  Al6  1  0.00000000  0.23027669  0.99812093  1
  Al  Al7  1  -0.00000000  0.73191692  0.50069048  1
  Al  Al8  1  -0.00000000  0.38612556  0.38362507  1
  Al  Al9  1  -0.00000000  0.88340048  0.88007665  1
  Al  Al10  1  0.00000000  0.88015066  0.11833229  1
  Al  Al11  1  0.00000000  0.38497491  0.61982441  1
  Pd  Pd12  1  -0.00000000  0.00594867  0.33499836  1
  Pd  Pd13  1  -0.00000000  0.50321896  0.83476408  1
  Pd  Pd14  1  -0.00000000  0.49802135  0.16376856  1
  Pd  Pd15  1  0.00000000  0.00252041  0.66412113  1
  Pd  Pd16  1  0.50000000  0.99838353  0.00061512  1
  Pd  Pd17  1  0.50000000  0.49771438  0.49985754  1
