# generated using pymatgen
data_Cs2Cu3NiF10
_symmetry_space_group_name_H-M   'P 1'
_cell_length_a   6.86190718
_cell_length_b   6.79460732
_cell_length_c   7.23240559
_cell_angle_alpha   62.46383619
_cell_angle_beta   62.08695307
_cell_angle_gamma   66.02060943
_symmetry_Int_Tables_number   1
_chemical_formula_structural   Cs2Cu3NiF10
_chemical_formula_sum   'Cs2 Cu3 Ni1 F10'
_cell_volume   256.33386989
_cell_formula_units_Z   1
loop_
 _symmetry_equiv_pos_site_id
 _symmetry_equiv_pos_as_xyz
  1  'x, y, z'
loop_
 _atom_site_type_symbol
 _atom_site_label
 _atom_site_symmetry_multiplicity
 _atom_site_fract_x
 _atom_site_fract_y
 _atom_site_fract_z
 _atom_site_occupancy
  Cs  Cs0  1  0.62114161  0.61520517  0.62577449  1
  Cs  Cs1  1  0.37885839  0.38479483  0.37422551  1
  Cu  Cu2  1  0.00000000  0.00000000  0.00000000  1
  Cu  Cu3  1  0.00000000  0.50000000  0.00000000  1
  Cu  Cu4  1  0.50000000  0.00000000  0.00000000  1
  Ni  Ni5  1  0.00000000  0.00000000  0.50000000  1
  F  F6  1  0.26339821  0.25943226  0.92417258  1
  F  F7  1  0.73660179  0.74056774  0.07582742  1
  F  F8  1  0.07280410  0.08403374  0.68719699  1
  F  F9  1  0.92719590  0.91596626  0.31280301  1
  F  F10  1  0.05220647  0.66265068  0.69102469  1
  F  F11  1  0.33913078  0.95034773  0.30637493  1
  F  F12  1  0.94779353  0.33734932  0.30897531  1
  F  F13  1  0.66086922  0.04965227  0.69362507  1
  F  F14  1  0.78859488  0.28586330  -0.00303152  1
  F  F15  1  0.21140512  0.71413670  0.00303152  1
