# generated using pymatgen
data_Dy(InCu)6
_symmetry_space_group_name_H-M   'P 1'
_cell_length_a   5.57006194
_cell_length_b   7.05438442
_cell_length_c   7.05438442
_cell_angle_alpha   98.75214257
_cell_angle_beta   113.25314495
_cell_angle_gamma   66.74685505
_symmetry_Int_Tables_number   1
_chemical_formula_structural   Dy(InCu)6
_chemical_formula_sum   'Dy1 In6 Cu6'
_cell_volume   233.98459780
_cell_formula_units_Z   1
loop_
 _symmetry_equiv_pos_site_id
 _symmetry_equiv_pos_as_xyz
  1  'x, y, z'
loop_
 _atom_site_type_symbol
 _atom_site_label
 _atom_site_symmetry_multiplicity
 _atom_site_fract_x
 _atom_site_fract_y
 _atom_site_fract_z
 _atom_site_occupancy
  Dy  Dy0  1  -0.00000000  0.00000000  -0.00000000  1
  In  In1  1  0.66435289  0.33564711  0.66435289  1
  In  In2  1  0.33564711  0.66435289  0.33564711  1
  In  In3  1  -0.00000000  0.34181438  0.34181438  1
  In  In4  1  -0.00000000  0.65818562  0.65818562  1
  In  In5  1  0.50000000  0.81421383  0.81421383  1
  In  In6  1  0.50000000  0.18578617  0.18578617  1
  Cu  Cu7  1  0.50000000  0.00000000  0.50000000  1
  Cu  Cu8  1  -0.00000000  0.00000000  0.50000000  1
  Cu  Cu9  1  0.50000000  0.50000000  -0.00000000  1
  Cu  Cu10  1  -0.00000000  0.50000000  -0.00000000  1
  Cu  Cu11  1  0.73481706  0.76518294  0.23481706  1
  Cu  Cu12  1  0.26518294  0.23481706  0.76518294  1
