# generated using pymatgen
data_Cr9FeB6
_symmetry_space_group_name_H-M   'P 1'
_cell_length_a   5.38422199
_cell_length_b   5.38422199
_cell_length_c   6.29976217
_cell_angle_alpha   64.70142761
_cell_angle_beta   64.70142751
_cell_angle_gamma   90.00000000
_symmetry_Int_Tables_number   1
_chemical_formula_structural   Cr9FeB6
_chemical_formula_sum   'Cr9 Fe1 B6'
_cell_volume   145.50500436
_cell_formula_units_Z   1
loop_
 _symmetry_equiv_pos_site_id
 _symmetry_equiv_pos_as_xyz
  1  'x, y, z'
loop_
 _atom_site_type_symbol
 _atom_site_label
 _atom_site_symmetry_multiplicity
 _atom_site_fract_x
 _atom_site_fract_y
 _atom_site_fract_z
 _atom_site_occupancy
  Cr  Cr0  1  0.32064870  0.81714383  0.70438316  1
  Cr  Cr1  1  0.97496814  0.47847301  0.70438316  1
  Cr  Cr2  1  0.47847301  0.32064870  0.70438316  1
  Cr  Cr3  1  0.81714383  0.97496814  0.70438316  1
  Cr  Cr4  1  0.67935130  0.18285617  0.29561684  1
  Cr  Cr5  1  0.02503186  0.52152699  0.29561684  1
  Cr  Cr6  1  0.52152699  0.67935130  0.29561684  1
  Cr  Cr7  1  0.18285617  0.02503186  0.29561684  1
  Cr  Cr8  1  0.50000000  0.50000000  -0.00000000  1
  Fe  Fe9  1  -0.00000000  0.00000000  0.00000000  1
  B  B10  1  0.37637347  0.88434157  -0.00000000  1
  B  B11  1  0.62362653  0.11565843  0.00000000  1
  B  B12  1  0.11565843  0.37637347  0.00000000  1
  B  B13  1  0.88434157  0.62362653  -0.00000000  1
  B  B14  1  0.74878420  0.74878420  0.50243160  1
  B  B15  1  0.25121580  0.25121580  0.49756840  1
