# generated using pymatgen
data_CaAlGa
_symmetry_space_group_name_H-M   'P 1'
_cell_length_a   4.55956388
_cell_length_b   5.78788908
_cell_length_c   5.92928954
_cell_angle_alpha   95.80947671
_cell_angle_beta   112.61238428
_cell_angle_gamma   66.80334599
_symmetry_Int_Tables_number   1
_chemical_formula_structural   CaAlGa
_chemical_formula_sum   'Ca2 Al2 Ga2'
_cell_volume   132.53658481
_cell_formula_units_Z   2
loop_
 _symmetry_equiv_pos_site_id
 _symmetry_equiv_pos_as_xyz
  1  'x, y, z'
loop_
 _atom_site_type_symbol
 _atom_site_label
 _atom_site_symmetry_multiplicity
 _atom_site_fract_x
 _atom_site_fract_y
 _atom_site_fract_z
 _atom_site_occupancy
  Ca  Ca0  1  0.74707974  0.70646223  0.20062171  1
  Ca  Ca1  1  0.25292026  0.29353777  0.79937829  1
  Al  Al2  1  0.56591837  0.27183221  0.40366894  1
  Al  Al3  1  0.43408163  0.72816779  0.59633106  1
  Ga  Ga4  1  0.05838016  0.10167022  0.21843053  1
  Ga  Ga5  1  0.94161984  0.89832978  0.78156947  1
