# generated using pymatgen
data_Ca4Al6SO16
_symmetry_space_group_name_H-M   'P 1'
_cell_length_a   8.07786324
_cell_length_b   8.07786324
_cell_length_c   8.07786324
_cell_angle_alpha   70.48313540
_cell_angle_beta   70.62002878
_cell_angle_gamma   109.51686460
_symmetry_Int_Tables_number   1
_chemical_formula_structural   Ca4Al6SO16
_chemical_formula_sum   'Ca4 Al6 S1 O16'
_cell_volume   405.75770140
_cell_formula_units_Z   1
loop_
 _symmetry_equiv_pos_site_id
 _symmetry_equiv_pos_as_xyz
  1  'x, y, z'
loop_
 _atom_site_type_symbol
 _atom_site_label
 _atom_site_symmetry_multiplicity
 _atom_site_fract_x
 _atom_site_fract_y
 _atom_site_fract_z
 _atom_site_occupancy
  Ca  Ca0  1  0.41534069  0.42159591  0.57440485  1
  Ca  Ca1  1  0.57440485  0.98974554  0.00399923  1
  Ca  Ca2  1  0.00399923  0.57840409  0.00625523  1
  Ca  Ca3  1  0.00625523  0.01025446  0.41534069  1
  Al  Al4  1  0.24819717  0.75123429  0.49992281  1
  Al  Al5  1  0.75000000  0.50000000  0.75000000  1
  Al  Al6  1  0.50303712  0.25188002  0.24819717  1
  Al  Al7  1  0.25000000  0.50000000  0.25000000  1
  Al  Al8  1  0.74884290  0.24876571  0.50303712  1
  Al  Al9  1  0.49992281  0.74811998  0.74884290  1
  S  S10  1  0.00000000  0.00000000  -0.00000000  1
  O  O11  1  0.30306578  0.60152983  0.40022401  1
  O  O12  1  0.59821515  0.59691558  0.69030487  1
  O  O13  1  0.60033219  0.30784091  0.40111051  1
  O  O14  1  0.69030487  0.28852001  0.71277955  1
  O  O15  1  0.40022401  0.70328979  0.99824616  1
  O  O16  1  0.40111051  0.00144270  0.29104858  1
  O  O17  1  0.99824616  0.39847017  0.29846405  1
  O  O18  1  0.71277955  0.40308442  0.99870044  1
  O  O19  1  0.29104858  0.69215909  0.70750872  1
  O  O20  1  0.99870044  0.71147999  0.59821515  1
  O  O21  1  0.29846405  0.29671021  0.30306578  1
  O  O22  1  0.70750872  0.99855730  0.60033219  1
  O  O23  1  0.77756830  0.87094923  0.08925534  1
  O  O24  1  0.08925534  0.86682364  0.03979544  1
  O  O25  1  0.03979544  0.12905077  0.09338093  1
  O  O26  1  0.09338093  0.13317636  0.77756830  1
