# generated using pymatgen
data_BH8CN
_symmetry_space_group_name_H-M   'P 1'
_cell_length_a   5.03895528
_cell_length_b   6.64933880
_cell_length_c   11.41064306
_cell_angle_alpha   90.00000000
_cell_angle_beta   90.00000000
_cell_angle_gamma   90.00000000
_symmetry_Int_Tables_number   1
_chemical_formula_structural   BH8CN
_chemical_formula_sum   'B4 H32 C4 N4'
_cell_volume   382.32182114
_cell_formula_units_Z   4
loop_
 _symmetry_equiv_pos_site_id
 _symmetry_equiv_pos_as_xyz
  1  'x, y, z'
loop_
 _atom_site_type_symbol
 _atom_site_label
 _atom_site_symmetry_multiplicity
 _atom_site_fract_x
 _atom_site_fract_y
 _atom_site_fract_z
 _atom_site_occupancy
  B  B0  1  0.81938248  0.25000000  0.46751663  1
  B  B1  1  0.68061752  0.25000000  0.96751663  1
  B  B2  1  0.18061752  0.75000000  0.53248337  1
  B  B3  1  0.31938248  0.75000000  0.03248337  1
  H  H4  1  0.05464540  0.38373285  0.25698885  1
  H  H5  1  0.28903231  0.59925989  0.57159779  1
  H  H6  1  0.36246604  0.25000000  0.26890428  1
  H  H7  1  0.21712635  0.37363606  0.45620050  1
  H  H8  1  0.63753396  0.75000000  0.73109572  1
  H  H9  1  0.94535460  0.61626715  0.74301115  1
  H  H10  1  0.17644296  0.75000000  0.42539690  1
  H  H11  1  0.05464540  0.11626715  0.25698885  1
  H  H12  1  0.55464540  0.88373285  0.24301115  1
  H  H13  1  0.86246604  0.75000000  0.23109572  1
  H  H14  1  0.78287365  0.87363606  0.54379950  1
  H  H15  1  0.44535460  0.38373285  0.75698885  1
  H  H16  1  0.71096769  0.40074011  0.42840221  1
  H  H17  1  0.67644296  0.25000000  0.07460310  1
  H  H18  1  0.78287365  0.62636394  0.54379950  1
  H  H19  1  0.55464540  0.61626715  0.24301115  1
  H  H20  1  0.28287365  0.12636394  0.95620050  1
  H  H21  1  0.28287365  0.37363606  0.95620050  1
  H  H22  1  0.21096769  0.59925989  0.07159779  1
  H  H23  1  0.13753396  0.25000000  0.76890428  1
  H  H24  1  0.32355704  0.75000000  0.92539690  1
  H  H25  1  0.21712635  0.12636394  0.45620050  1
  H  H26  1  0.78903231  0.40074011  0.92840221  1
  H  H27  1  0.28903231  0.90074011  0.57159779  1
  H  H28  1  0.21096769  0.90074011  0.07159779  1
  H  H29  1  0.71712635  0.87363606  0.04379950  1
  H  H30  1  0.82355704  0.25000000  0.57460310  1
  H  H31  1  0.71096769  0.09925989  0.42840221  1
  H  H32  1  0.78903231  0.09925989  0.92840221  1
  H  H33  1  0.44535460  0.11626715  0.75698885  1
  H  H34  1  0.94535460  0.88373285  0.74301115  1
  H  H35  1  0.71712635  0.62636394  0.04379950  1
  C  C36  1  0.84827326  0.75000000  0.70700477  1
  C  C37  1  0.65172674  0.75000000  0.20700477  1
  C  C38  1  0.34827326  0.25000000  0.79299523  1
  C  C39  1  0.15172674  0.25000000  0.29299523  1
  N  N40  1  0.12036740  0.25000000  0.42236223  1
  N  N41  1  0.87963260  0.75000000  0.57763777  1
  N  N42  1  0.62036740  0.75000000  0.07763777  1
  N  N43  1  0.37963260  0.25000000  0.92236223  1
