# generated using pymatgen
data_Ca2TiMnO6
_symmetry_space_group_name_H-M   'P 1'
_cell_length_a   5.38457242
_cell_length_b   5.41668902
_cell_length_c   7.63640734
_cell_angle_alpha   90.00000000
_cell_angle_beta   89.97205660
_cell_angle_gamma   90.00000000
_symmetry_Int_Tables_number   1
_chemical_formula_structural   Ca2TiMnO6
_chemical_formula_sum   'Ca4 Ti2 Mn2 O12'
_cell_volume   222.72766280
_cell_formula_units_Z   2
loop_
 _symmetry_equiv_pos_site_id
 _symmetry_equiv_pos_as_xyz
  1  'x, y, z'
loop_
 _atom_site_type_symbol
 _atom_site_label
 _atom_site_symmetry_multiplicity
 _atom_site_fract_x
 _atom_site_fract_y
 _atom_site_fract_z
 _atom_site_occupancy
  Ca  Ca0  1  0.50559502  0.53285844  0.25025256  1
  Ca  Ca1  1  0.99440498  0.03285844  0.24974744  1
  Ca  Ca2  1  0.49440498  0.46714156  0.74974744  1
  Ca  Ca3  1  0.00559502  0.96714156  0.75025256  1
  Ti  Ti4  1  -0.00000000  0.50000000  0.50000000  1
  Ti  Ti5  1  0.50000000  -0.00000000  -0.00000000  1
  Mn  Mn6  1  -0.00000000  0.50000000  -0.00000000  1
  Mn  Mn7  1  0.50000000  -0.00000000  0.50000000  1
  O  O8  1  0.78524432  0.79014631  0.46472934  1
  O  O9  1  0.71475568  0.29014631  0.03527066  1
  O  O10  1  0.20897341  0.21464473  0.96517801  1
  O  O11  1  0.29102659  0.71464473  0.53482199  1
  O  O12  1  0.21475568  0.20985369  0.53527066  1
  O  O13  1  0.28524432  0.70985369  0.96472934  1
  O  O14  1  0.79102659  0.78535527  0.03482199  1
  O  O15  1  0.70897341  0.28535527  0.46517801  1
  O  O16  1  0.43213562  0.98741940  0.25260802  1
  O  O17  1  0.06786438  0.48741940  0.24739198  1
  O  O18  1  0.56786438  0.01258060  0.74739198  1
  O  O19  1  0.93213562  0.51258060  0.75260802  1
