# generated using pymatgen
data_Ca3Si2GeO9
_symmetry_space_group_name_H-M   'P 1'
_cell_length_a   7.20305781
_cell_length_b   7.49154331
_cell_length_c   8.09251699
_cell_angle_alpha   103.21513944
_cell_angle_beta   95.43906012
_cell_angle_gamma   90.67809778
_symmetry_Int_Tables_number   1
_chemical_formula_structural   Ca3Si2GeO9
_chemical_formula_sum   'Ca6 Si4 Ge2 O18'
_cell_volume   422.95734125
_cell_formula_units_Z   2
loop_
 _symmetry_equiv_pos_site_id
 _symmetry_equiv_pos_as_xyz
  1  'x, y, z'
loop_
 _atom_site_type_symbol
 _atom_site_label
 _atom_site_symmetry_multiplicity
 _atom_site_fract_x
 _atom_site_fract_y
 _atom_site_fract_z
 _atom_site_occupancy
  Ca  Ca0  1  0.76154467  0.42042503  0.20093640  1
  Ca  Ca1  1  0.23845533  0.57957497  0.79906360  1
  Ca  Ca2  1  0.76298488  0.93079057  0.20724424  1
  Ca  Ca3  1  0.23701512  0.06920943  0.79275576  1
  Ca  Ca4  1  0.47111378  0.24646668  0.49632303  1
  Ca  Ca5  1  0.52888622  0.75353332  0.50367697  1
  Si  Si6  1  0.26892702  0.95258929  0.18555792  1
  Si  Si7  1  0.73107298  0.04741071  0.81444208  1
  Si  Si8  1  0.05351090  0.72545399  0.39761518  1
  Si  Si9  1  0.94648910  0.27454601  0.60238482  1
  Ge  Ge10  1  0.27110242  0.38987055  0.18357612  1
  Ge  Ge11  1  0.72889758  0.61012945  0.81642388  1
  O  O12  1  0.80041874  0.23086542  0.43147195  1
  O  O13  1  0.19958126  0.76913458  0.56852805  1
  O  O14  1  0.08037132  0.51464410  0.27556321  1
  O  O15  1  0.91962868  0.48535590  0.72443679  1
  O  O16  1  0.73789454  0.12955823  0.01852290  1
  O  O17  1  0.26210546  0.87044177  0.98147710  1
  O  O18  1  0.46470990  0.93610798  0.30014232  1
  O  O19  1  0.53529010  0.06389202  0.69985768  1
  O  O20  1  0.82834842  0.72942523  0.40099846  1
  O  O21  1  0.17165158  0.27057477  0.59900154  1
  O  O22  1  0.09381219  0.86675968  0.26892071  1
  O  O23  1  0.90618781  0.13324032  0.73107929  1
  O  O24  1  0.73137246  0.63150577  0.03261243  1
  O  O25  1  0.26862754  0.36849423  0.96738757  1
  O  O26  1  0.22112596  0.17281904  0.22921931  1
  O  O27  1  0.77887404  0.82718096  0.77078069  1
  O  O28  1  0.47783417  0.46580657  0.31282532  1
  O  O29  1  0.52216583  0.53419343  0.68717468  1
