# generated using pymatgen
data_Ca4Co3Si8NiO24
_symmetry_space_group_name_H-M   'P 1'
_cell_length_a   5.30496250
_cell_length_b   6.71388286
_cell_length_c   13.38606912
_cell_angle_alpha   89.38116460
_cell_angle_beta   101.20489152
_cell_angle_gamma   78.38341805
_symmetry_Int_Tables_number   1
_chemical_formula_structural   Ca4Co3Si8NiO24
_chemical_formula_sum   'Ca4 Co3 Si8 Ni1 O24'
_cell_volume   457.48389188
_cell_formula_units_Z   1
loop_
 _symmetry_equiv_pos_site_id
 _symmetry_equiv_pos_as_xyz
  1  'x, y, z'
loop_
 _atom_site_type_symbol
 _atom_site_label
 _atom_site_symmetry_multiplicity
 _atom_site_fract_x
 _atom_site_fract_y
 _atom_site_fract_z
 _atom_site_occupancy
  Ca  Ca0  1  0.89826603  0.70312900  0.14855995  1
  Ca  Ca1  1  0.39918613  0.70305560  0.64855850  1
  Ca  Ca2  1  0.60123846  0.29718679  0.35137992  1
  Ca  Ca3  1  0.10070376  0.29622391  0.85178274  1
  Co  Co4  1  0.70273580  0.09354049  0.95308377  1
  Co  Co5  1  0.29655260  0.90723100  0.04639755  1
  Co  Co6  1  0.79653310  0.90734386  0.54636422  1
  Si  Si7  1  0.13163849  0.62016341  0.40284162  1
  Si  Si8  1  0.63183702  0.62073234  0.90299857  1
  Si  Si9  1  0.96128078  0.19407333  0.19007783  1
  Si  Si10  1  0.46057683  0.19457288  0.68933966  1
  Si  Si11  1  0.36840218  0.37942221  0.09729114  1
  Si  Si12  1  0.86926696  0.37882344  0.59718868  1
  Si  Si13  1  0.53851604  0.80571590  0.31054638  1
  Si  Si14  1  0.03949932  0.80521437  0.81035524  1
  Ni  Ni15  1  0.20353468  0.09183011  0.45379677  1
  O  O16  1  0.13291491  0.79561143  0.48523236  1
  O  O17  1  0.63270720  0.79459840  0.98581472  1
  O  O18  1  0.95560475  0.02864542  0.10294538  1
  O  O19  1  0.45417592  0.02925732  0.60194600  1
  O  O20  1  0.36730452  0.20572676  0.01404303  1
  O  O21  1  0.87114415  0.20463772  0.51388420  1
  O  O22  1  0.54003350  0.97257463  0.39746551  1
  O  O23  1  0.04430444  0.97212441  0.89714395  1
  O  O24  1  0.26250956  0.38945668  0.44279140  1
  O  O25  1  0.76335914  0.39047375  0.94276568  1
  O  O26  1  0.98530726  0.11477108  0.30563683  1
  O  O27  1  0.48503645  0.11405531  0.80482982  1
  O  O28  1  0.23751783  0.61003139  0.05730233  1
  O  O29  1  0.73773779  0.60926587  0.55728509  1
  O  O30  1  0.51507122  0.88558558  0.19509880  1
  O  O31  1  0.01511875  0.88549597  0.69503126  1
  O  O32  1  0.82739808  0.63262881  0.33443203  1
  O  O33  1  0.32803504  0.63200353  0.83421389  1
  O  O34  1  0.19032403  0.33153222  0.18404576  1
  O  O35  1  0.69061387  0.33096103  0.68374115  1
  O  O36  1  0.67219995  0.36751503  0.16588992  1
  O  O37  1  0.17227767  0.36808366  0.66600027  1
  O  O38  1  0.30980885  0.66797239  0.31594181  1
  O  O39  1  0.80972693  0.66873295  0.81595630  1
