# generated using pymatgen
data_Ce2Zn3Cu7
_symmetry_space_group_name_H-M   'P 1'
_cell_length_a   4.16757264
_cell_length_b   5.13664722
_cell_length_c   8.88969455
_cell_angle_alpha   90.54534638
_cell_angle_beta   90.00000000
_cell_angle_gamma   90.00000000
_symmetry_Int_Tables_number   1
_chemical_formula_structural   Ce2Zn3Cu7
_chemical_formula_sum   'Ce2 Zn3 Cu7'
_cell_volume   190.29618604
_cell_formula_units_Z   1
loop_
 _symmetry_equiv_pos_site_id
 _symmetry_equiv_pos_as_xyz
  1  'x, y, z'
loop_
 _atom_site_type_symbol
 _atom_site_label
 _atom_site_symmetry_multiplicity
 _atom_site_fract_x
 _atom_site_fract_y
 _atom_site_fract_z
 _atom_site_occupancy
  Ce  Ce0  1  0.00000000  0.99855192  0.99739212  1
  Ce  Ce1  1  -0.00000000  0.50139864  0.50261577  1
  Zn  Zn2  1  0.50000000  0.99726132  0.50294142  1
  Zn  Zn3  1  0.50000000  0.50273661  0.99704724  1
  Zn  Zn4  1  0.50000000  0.24998674  0.25002672  1
  Cu  Cu5  1  0.50000000  0.74993690  0.74994797  1
  Cu  Cu6  1  0.50000000  0.74993793  0.25005354  1
  Cu  Cu7  1  0.50000000  0.25005776  0.74993080  1
  Cu  Cu8  1  -0.00000000  0.99612987  0.33171026  1
  Cu  Cu9  1  -0.00000000  0.49930930  0.83041925  1
  Cu  Cu10  1  -0.00000000  0.50381607  0.16836567  1
  Cu  Cu11  1  0.00000000  0.00067695  0.66954922  1
