# generated using pymatgen
data_Ca2MgAg3
_symmetry_space_group_name_H-M   'P 1'
_cell_length_a   6.00945635
_cell_length_b   6.00945635
_cell_length_c   9.06319378
_cell_angle_alpha   90.00000000
_cell_angle_beta   90.00000000
_cell_angle_gamma   119.91723270
_symmetry_Int_Tables_number   1
_chemical_formula_structural   Ca2MgAg3
_chemical_formula_sum   'Ca4 Mg2 Ag6'
_cell_volume   283.68989965
_cell_formula_units_Z   2
loop_
 _symmetry_equiv_pos_site_id
 _symmetry_equiv_pos_as_xyz
  1  'x, y, z'
loop_
 _atom_site_type_symbol
 _atom_site_label
 _atom_site_symmetry_multiplicity
 _atom_site_fract_x
 _atom_site_fract_y
 _atom_site_fract_z
 _atom_site_occupancy
  Ca  Ca0  1  0.66668481  0.33331519  0.55925842  1
  Ca  Ca1  1  0.33331519  0.66668481  0.44074158  1
  Ca  Ca2  1  0.33331519  0.66668481  0.05925842  1
  Ca  Ca3  1  0.66668481  0.33331519  0.94074158  1
  Mg  Mg4  1  0.00000000  -0.00000000  0.50000000  1
  Mg  Mg5  1  0.00000000  -0.00000000  -0.00000000  1
  Ag  Ag6  1  0.16895687  0.33789724  0.75000000  1
  Ag  Ag7  1  0.16898225  0.83101775  0.75000000  1
  Ag  Ag8  1  0.66210276  0.83104313  0.75000000  1
  Ag  Ag9  1  0.83104313  0.66210276  0.25000000  1
  Ag  Ag10  1  0.83101775  0.16898225  0.25000000  1
  Ag  Ag11  1  0.33789724  0.16895687  0.25000000  1
