# generated using pymatgen
data_Ca2CoSi4NiO12
_symmetry_space_group_name_H-M   'P 1'
_cell_length_a   5.31670739
_cell_length_b   6.68671824
_cell_length_c   6.68671824
_cell_angle_alpha   84.70985545
_cell_angle_beta   78.45271585
_cell_angle_gamma   78.45271585
_symmetry_Int_Tables_number   1
_chemical_formula_structural   Ca2CoSi4NiO12
_chemical_formula_sum   'Ca2 Co1 Si4 Ni1 O12'
_cell_volume   227.85930112
_cell_formula_units_Z   1
loop_
 _symmetry_equiv_pos_site_id
 _symmetry_equiv_pos_as_xyz
  1  'x, y, z'
loop_
 _atom_site_type_symbol
 _atom_site_label
 _atom_site_symmetry_multiplicity
 _atom_site_fract_x
 _atom_site_fract_y
 _atom_site_fract_z
 _atom_site_occupancy
  Ca  Ca0  1  0.75000000  0.70337302  0.29662698  1
  Ca  Ca1  1  0.25000000  0.29549624  0.70450376  1
  Co  Co2  1  0.75000000  0.09306765  0.90693235  1
  Si  Si3  1  0.73068287  0.62042860  0.80565450  1
  Si  Si4  1  0.76931713  0.19434550  0.37957140  1
  Si  Si5  1  0.26833981  0.38015835  0.19455391  1
  Si  Si6  1  0.23166019  0.80544609  0.61984165  1
  Ni  Ni7  1  0.25000000  0.90878153  0.09121847  1
  O  O8  1  0.82272970  0.38849631  0.88669828  1
  O  O9  1  0.67727030  0.11330172  0.61150369  1
  O  O10  1  0.17688665  0.61201217  0.11367052  1
  O  O11  1  0.32311335  0.88632948  0.38798783  1
  O  O12  1  0.64329453  0.79574816  0.97160867  1
  O  O13  1  0.85670547  0.02839133  0.20425184  1
  O  O14  1  0.35125102  0.20482409  0.02983215  1
  O  O15  1  0.14874898  0.97016785  0.79517591  1
  O  O16  1  0.49597055  0.63091653  0.66786132  1
  O  O17  1  0.00402945  0.33213868  0.36908347  1
  O  O18  1  0.50482221  0.36834286  0.33176617  1
  O  O19  1  0.99517779  0.66823383  0.63165714  1
