# generated using pymatgen
data_Na6O
_symmetry_space_group_name_H-M   'P 1'
_cell_length_a   13.06305109
_cell_length_b   24.83444969
_cell_length_c   15.39375073
_cell_angle_alpha   18.01105126
_cell_angle_beta   42.34791731
_cell_angle_gamma   31.96852204
_symmetry_Int_Tables_number   1
_chemical_formula_structural   Na6O
_chemical_formula_sum   'Na18 O3'
_cell_volume   744.36177153
_cell_formula_units_Z   3
loop_
 _symmetry_equiv_pos_site_id
 _symmetry_equiv_pos_as_xyz
  1  'x, y, z'
loop_
 _atom_site_type_symbol
 _atom_site_label
 _atom_site_symmetry_multiplicity
 _atom_site_fract_x
 _atom_site_fract_y
 _atom_site_fract_z
 _atom_site_occupancy
  Na  Na0  1  0.16200404  0.17394448  0.50204844  1
  Na  Na1  1  0.46352063  0.26759156  0.25744964  1
  Na  Na2  1  0.33333300  0.07517946  0.75815354  1
  Na  Na3  1  0.66578030  0.17170008  0.49674032  1
  Na  Na4  1  0.33333300  0.57999008  0.25334292  1
  Na  Na5  1  0.14186477  0.43537489  0.74405510  1
  Na  Na6  1  0.50466296  0.51660341  0.47407067  1
  Na  Na7  1  0.98796075  0.28147087  0.20576614  1
  Na  Na8  1  0.83333300  0.07999008  0.75334292  1
  Na  Na9  1  0.20314637  0.91138221  0.23024359  1
  Na  Na10  1  0.01143817  0.71967401  0.80536719  1
  Na  Na11  1  0.83333300  0.57517946  0.25815354  1
  Na  Na12  1  0.33333300  0.83442736  0.49890564  1
  Na  Na13  1  0.65522883  0.45929976  0.68232604  1
  Na  Na14  1  0.00088670  0.50680648  0.49142011  1
  Na  Na15  1  0.67870625  0.89853341  0.28089657  1
  Na  Na16  1  0.52480223  0.74462940  0.74260762  1
  Na  Na17  1  0.83333300  0.83221055  0.50112245  1
  O  O18  1  0.15775931  0.36454662  0.31993576  1
  O  O19  1  0.50890769  0.71569500  0.26648961  1
  O  O20  1  0.83333300  0.63777082  0.69556218  1
