# generated using pymatgen
data_BaCa3Si10(N2O)6
_symmetry_space_group_name_H-M   'P 1'
_cell_length_a   4.87389926
_cell_length_b   7.14218266
_cell_length_c   12.56659913
_cell_angle_alpha   73.47906702
_cell_angle_beta   84.40264543
_cell_angle_gamma   70.58404420
_symmetry_Int_Tables_number   1
_chemical_formula_structural   BaCa3Si10(N2O)6
_chemical_formula_sum   'Ba1 Ca3 Si10 N12 O6'
_cell_volume   395.53453532
_cell_formula_units_Z   1
loop_
 _symmetry_equiv_pos_site_id
 _symmetry_equiv_pos_as_xyz
  1  'x, y, z'
loop_
 _atom_site_type_symbol
 _atom_site_label
 _atom_site_symmetry_multiplicity
 _atom_site_fract_x
 _atom_site_fract_y
 _atom_site_fract_z
 _atom_site_occupancy
  Ba  Ba0  1  0.12498306  0.05686783  0.01142540  1
  Ca  Ca1  1  0.51469191  0.62914477  0.53716055  1
  Ca  Ca2  1  0.87049304  0.95205539  0.53824127  1
  Ca  Ca3  1  0.19349185  0.31078272  0.49614312  1
  Si  Si4  1  0.02875065  0.16532705  0.26267750  1
  Si  Si5  1  0.02812648  0.42995586  0.74074219  1
  Si  Si6  1  0.26756129  0.69177105  0.26214680  1
  Si  Si7  1  0.26812924  0.94736699  0.74143615  1
  Si  Si8  1  0.64871749  0.91868416  0.28157177  1
  Si  Si9  1  0.64810088  0.19832836  0.72179564  1
  Si  Si10  1  0.46157983  0.49669173  0.87414585  1
  Si  Si11  1  0.46401905  0.36813258  0.13058940  1
  Si  Si12  1  0.83905009  0.62000954  0.13078811  1
  Si  Si13  1  0.83693882  0.74774809  0.87424942  1
  N  N14  1  0.10254903  0.36999701  0.16257044  1
  N  N15  1  0.10186769  0.53292470  0.83902839  1
  N  N16  1  0.90981603  0.73659295  0.22615793  1
  N  N17  1  0.90476909  0.95849225  0.77059203  1
  N  N18  1  0.49378933  0.58782793  0.16149782  1
  N  N19  1  0.49469980  0.74733815  0.83936588  1
  N  N20  1  0.69975704  0.15634888  0.22480637  1
  N  N21  1  0.68977033  0.39021932  0.77066082  1
  N  N22  1  0.86221587  0.76956921  0.00075998  1
  N  N23  1  0.30301396  0.93864181  0.24337357  1
  N  N24  1  0.29720586  0.18316189  0.75274653  1
  N  N25  1  0.56769137  0.34610829  0.00059439  1
  O  O26  1  0.69509672  0.85201639  0.41530347  1
  O  O27  1  0.69389916  0.26681749  0.58566923  1
  O  O28  1  0.03353332  0.16750609  0.39129606  1
  O  O29  1  0.03539082  0.56993817  0.61141025  1
  O  O30  1  0.35115226  0.56000035  0.39006171  1
  O  O31  1  0.34728865  0.93668299  0.61189197  1
