# generated using pymatgen
data_Ba4Tl13Hg3
_symmetry_space_group_name_H-M   'P 1'
_cell_length_a   5.29531042
_cell_length_b   6.86471504
_cell_length_c   20.17954270
_cell_angle_alpha   80.18365363
_cell_angle_beta   89.99999996
_cell_angle_gamma   112.68661628
_symmetry_Int_Tables_number   1
_chemical_formula_structural   Ba4Tl13Hg3
_chemical_formula_sum   'Ba4 Tl13 Hg3'
_cell_volume   665.13161565
_cell_formula_units_Z   1
loop_
 _symmetry_equiv_pos_site_id
 _symmetry_equiv_pos_as_xyz
  1  'x, y, z'
loop_
 _atom_site_type_symbol
 _atom_site_label
 _atom_site_symmetry_multiplicity
 _atom_site_fract_x
 _atom_site_fract_y
 _atom_site_fract_z
 _atom_site_occupancy
  Ba  Ba0  1  0.67922955  0.35845910  0.14669659  1
  Ba  Ba1  1  0.17763848  0.35527695  0.64822865  1
  Ba  Ba2  1  0.82261112  0.64522225  0.35394828  1
  Ba  Ba3  1  0.32215593  0.64431186  0.85187746  1
  Tl  Tl4  1  0.53048536  0.06097072  0.33424913  1
  Tl  Tl5  1  0.03079347  0.06158693  0.83288331  1
  Tl  Tl6  1  0.97523796  0.95047593  0.16718544  1
  Tl  Tl7  1  0.46886013  0.93772025  0.66755121  1
  Tl  Tl8  1  0.11054578  0.22109155  0.43739091  1
  Tl  Tl9  1  0.60578091  0.21156182  0.93732181  1
  Tl  Tl10  1  0.38909586  0.77819172  0.06107223  1
  Tl  Tl11  1  0.89431555  0.78863109  0.56280082  1
  Tl  Tl12  1  0.37293097  0.74586194  0.47733649  1
  Tl  Tl13  1  0.87409342  0.74818683  0.97594601  1
  Tl  Tl14  1  0.12798490  0.25596981  0.02216900  1
  Tl  Tl15  1  0.62475460  0.24950919  0.52361813  1
  Tl  Tl16  1  0.36407120  0.72814241  0.22406004  1
  Hg  Hg17  1  0.86577807  0.73155614  0.72526935  1
  Hg  Hg18  1  0.12938438  0.25876875  0.27510903  1
  Hg  Hg19  1  0.63425237  0.26850475  0.77528614  1
