# generated using pymatgen
data_Ba4CaCu2CO9
_symmetry_space_group_name_H-M   'P 1'
_cell_length_a   5.85425829
_cell_length_b   5.85425829
_cell_length_c   8.31164539
_cell_angle_alpha   90.00000000
_cell_angle_beta   90.00000000
_cell_angle_gamma   88.16493127
_symmetry_Int_Tables_number   1
_chemical_formula_structural   Ba4CaCu2CO9
_chemical_formula_sum   'Ba4 Ca1 Cu2 C1 O9'
_cell_volume   284.71344700
_cell_formula_units_Z   1
loop_
 _symmetry_equiv_pos_site_id
 _symmetry_equiv_pos_as_xyz
  1  'x, y, z'
loop_
 _atom_site_type_symbol
 _atom_site_label
 _atom_site_symmetry_multiplicity
 _atom_site_fract_x
 _atom_site_fract_y
 _atom_site_fract_z
 _atom_site_occupancy
  Ba  Ba0  1  0.99349728  0.49898045  0.76777947  1
  Ba  Ba1  1  0.49898045  0.99349728  0.76777947  1
  Ba  Ba2  1  0.99349728  0.49898045  0.23222053  1
  Ba  Ba3  1  0.49898045  0.99349728  0.23222053  1
  Ca  Ca4  1  0.00051032  0.00051032  -0.00000000  1
  Cu  Cu5  1  0.49815658  0.49815658  -0.00000000  1
  Cu  Cu6  1  0.00381572  0.00381572  0.50000000  1
  C  C7  1  0.50252151  0.50252151  0.50000000  1
  O  O8  1  0.00071008  0.00071008  0.71893538  1
  O  O9  1  0.00071008  0.00071008  0.28106462  1
  O  O10  1  0.27565587  0.27565587  -0.00000000  1
  O  O11  1  0.72197284  0.72197284  0.00000000  1
  O  O12  1  0.72491609  0.27297803  -0.00000000  1
  O  O13  1  0.27297803  0.72491609  -0.00000000  1
  O  O14  1  0.42624377  0.42624377  0.63632918  1
  O  O15  1  0.42624377  0.42624377  0.36367082  1
  O  O16  1  0.65750985  0.65750985  0.50000000  1
