# generated using pymatgen
data_Ba4SrHf5O15
_symmetry_space_group_name_H-M   'P 1'
_cell_length_a   5.93529290
_cell_length_b   5.93529290
_cell_length_c   12.58678938
_cell_angle_alpha   103.63729290
_cell_angle_beta   76.36270710
_cell_angle_gamma   120.00000000
_symmetry_Int_Tables_number   1
_chemical_formula_structural   Ba4SrHf5O15
_chemical_formula_sum   'Ba4 Sr1 Hf5 O15'
_cell_volume   369.49396677
_cell_formula_units_Z   1
loop_
 _symmetry_equiv_pos_site_id
 _symmetry_equiv_pos_as_xyz
  1  'x, y, z'
loop_
 _atom_site_type_symbol
 _atom_site_label
 _atom_site_symmetry_multiplicity
 _atom_site_fract_x
 _atom_site_fract_y
 _atom_site_fract_z
 _atom_site_occupancy
  Ba  Ba0  1  0.30015899  0.69984101  0.09952303  1
  Ba  Ba1  1  0.89997241  0.10002759  0.30008276  1
  Ba  Ba2  1  0.50002759  0.49997241  0.49991724  1
  Ba  Ba3  1  0.09984101  0.90015899  0.70047697  1
  Sr  Sr4  1  0.70000000  0.30000000  0.90000000  1
  Hf  Hf5  1  0.39976219  0.60023781  0.80071344  1
  Hf  Hf6  1  0.20000000  0.80000000  0.40000000  1
  Hf  Hf7  1  0.79969933  0.20030067  0.60090202  1
  Hf  Hf8  1  0.00023781  0.99976219  0.99928656  1
  Hf  Hf9  1  0.60030067  0.39969933  0.19909798  1
  O  O10  1  0.70000000  0.80000000  0.90000000  1
  O  O11  1  0.50015771  0.00013875  0.50011980  1
  O  O12  1  0.09772430  0.39962133  0.70151836  1
  O  O13  1  0.30227570  0.20037867  0.09848164  1
  O  O14  1  0.89984229  0.59986125  0.29988020  1
  O  O15  1  0.60037867  0.90227570  0.70151836  1
  O  O16  1  0.40013875  0.10015771  0.29988020  1
  O  O17  1  0.99986125  0.49984229  0.50011980  1
  O  O18  1  0.20000000  0.30000000  0.90000000  1
  O  O19  1  0.79962133  0.69772430  0.09848164  1
  O  O20  1  0.60037867  0.39962133  0.70151836  1
  O  O21  1  0.40013875  0.59986125  0.29988020  1
  O  O22  1  0.99986125  0.00013875  0.50011980  1
  O  O23  1  0.20000000  0.80000000  0.90000000  1
  O  O24  1  0.79962133  0.20037867  0.09848164  1
