# generated using pymatgen
data_BaSr11Al4(O4F)4
_symmetry_space_group_name_H-M   'P 1'
_cell_length_a   6.87853145
_cell_length_b   6.87853145
_cell_length_c   11.29261348
_cell_angle_alpha   90.00000000
_cell_angle_beta   90.00000000
_cell_angle_gamma   90.00000000
_symmetry_Int_Tables_number   1
_chemical_formula_structural   BaSr11Al4(O4F)4
_chemical_formula_sum   'Ba1 Sr11 Al4 O16 F4'
_cell_volume   534.30091522
_cell_formula_units_Z   1
loop_
 _symmetry_equiv_pos_site_id
 _symmetry_equiv_pos_as_xyz
  1  'x, y, z'
loop_
 _atom_site_type_symbol
 _atom_site_label
 _atom_site_symmetry_multiplicity
 _atom_site_fract_x
 _atom_site_fract_y
 _atom_site_fract_z
 _atom_site_occupancy
  Ba  Ba0  1  0.50000000  0.50000000  0.25000000  1
  Sr  Sr1  1  0.33047513  0.16800895  0.50077503  1
  Sr  Sr2  1  0.83199105  0.66952487  0.99922497  1
  Sr  Sr3  1  0.16800895  0.33047513  0.99922497  1
  Sr  Sr4  1  0.66952487  0.83199105  0.50077503  1
  Sr  Sr5  1  0.16800895  0.66952487  0.50077503  1
  Sr  Sr6  1  0.66952487  0.16800895  0.99922497  1
  Sr  Sr7  1  0.33047513  0.83199105  0.99922497  1
  Sr  Sr8  1  0.83199105  0.33047513  0.50077503  1
  Sr  Sr9  1  -0.00000000  -0.00000000  0.75000000  1
  Sr  Sr10  1  -0.00000000  -0.00000000  0.25000000  1
  Sr  Sr11  1  0.50000000  0.50000000  0.75000000  1
  Al  Al12  1  -0.00000000  0.50000000  0.25000000  1
  Al  Al13  1  0.50000000  -0.00000000  0.75000000  1
  Al  Al14  1  0.50000000  -0.00000000  0.25000000  1
  Al  Al15  1  -0.00000000  0.50000000  0.75000000  1
  O  O16  1  0.35568263  0.13734693  0.14708534  1
  O  O17  1  0.85839062  0.64211558  0.64830544  1
  O  O18  1  0.64431737  0.86265307  0.14708534  1
  O  O19  1  0.14160938  0.35788442  0.64830544  1
  O  O20  1  0.13734693  0.64431737  0.14708534  1
  O  O21  1  0.64211558  0.14160938  0.64830544  1
  O  O22  1  0.86265307  0.35568263  0.14708534  1
  O  O23  1  0.35788442  0.85839062  0.64830544  1
  O  O24  1  0.13734693  0.35568263  0.35291466  1
  O  O25  1  0.64211558  0.85839062  0.85169456  1
  O  O26  1  0.86265307  0.64431737  0.35291466  1
  O  O27  1  0.35788442  0.14160938  0.85169456  1
  O  O28  1  0.35568263  0.86265307  0.35291466  1
  O  O29  1  0.85839062  0.35788442  0.85169456  1
  O  O30  1  0.64431737  0.13734693  0.35291466  1
  O  O31  1  0.14160938  0.64211558  0.85169456  1
  F  F32  1  0.50000000  0.50000000  0.99561345  1
  F  F33  1  -0.00000000  -0.00000000  0.50059256  1
  F  F34  1  -0.00000000  -0.00000000  0.99940744  1
  F  F35  1  0.50000000  0.50000000  0.50438655  1
