# generated using pymatgen
data_AlSiNi2
_symmetry_space_group_name_H-M   'P 1'
_cell_length_a   4.53011339
_cell_length_b   4.55675967
_cell_length_c   4.57971001
_cell_angle_alpha   90.00000000
_cell_angle_beta   90.00000000
_cell_angle_gamma   91.89964901
_symmetry_Int_Tables_number   1
_chemical_formula_structural   AlSiNi2
_chemical_formula_sum   'Al2 Si2 Ni4'
_cell_volume   94.48533978
_cell_formula_units_Z   2
loop_
 _symmetry_equiv_pos_site_id
 _symmetry_equiv_pos_as_xyz
  1  'x, y, z'
loop_
 _atom_site_type_symbol
 _atom_site_label
 _atom_site_symmetry_multiplicity
 _atom_site_fract_x
 _atom_site_fract_y
 _atom_site_fract_z
 _atom_site_occupancy
  Al  Al0  1  0.15490513  0.34753824  0.65011919  1
  Al  Al1  1  0.34509487  0.65246176  0.15011919  1
  Si  Si2  1  0.64929662  0.15811532  0.34465979  1
  Si  Si3  1  0.85070338  0.84188468  0.84465979  1
  Ni  Ni4  1  0.84656528  0.65696741  0.35620462  1
  Ni  Ni5  1  0.65343472  0.34303259  0.85620462  1
  Ni  Ni6  1  0.36194867  0.85981359  0.64901639  1
  Ni  Ni7  1  0.13805133  0.14018641  0.14901639  1
