# generated using pymatgen
data_CsMnCuF6
_symmetry_space_group_name_H-M   'P 1'
_cell_length_a   7.47336478
_cell_length_b   7.20783213
_cell_length_c   7.77916881
_cell_angle_alpha   90.00000000
_cell_angle_beta   58.63691473
_cell_angle_gamma   118.83145792
_symmetry_Int_Tables_number   1
_chemical_formula_structural   CsMnCuF6
_chemical_formula_sum   'Cs2 Mn2 Cu2 F12'
_cell_volume   295.28740550
_cell_formula_units_Z   2
loop_
 _symmetry_equiv_pos_site_id
 _symmetry_equiv_pos_as_xyz
  1  'x, y, z'
loop_
 _atom_site_type_symbol
 _atom_site_label
 _atom_site_symmetry_multiplicity
 _atom_site_fract_x
 _atom_site_fract_y
 _atom_site_fract_z
 _atom_site_occupancy
  Cs  Cs0  1  0.75301750  0.37650875  0.37349125  1
  Cs  Cs1  1  0.24698250  0.62349125  0.62650875  1
  Mn  Mn2  1  0.00000000  0.00000000  0.50000000  1
  Mn  Mn3  1  0.00000000  0.00000000  0.00000000  1
  Cu  Cu4  1  0.50000000  0.50000000  0.00000000  1
  Cu  Cu5  1  0.50000000  0.00000000  0.00000000  1
  F  F6  1  0.85361696  0.92680848  0.32319152  1
  F  F7  1  0.63170201  0.31585101  0.93414899  1
  F  F8  1  0.23894796  0.92990713  0.93387207  1
  F  F9  1  0.23894796  0.30904084  0.32717997  1
  F  F10  1  0.23894796  0.30904084  0.93387207  1
  F  F11  1  0.23894796  0.92990713  0.32717997  1
  F  F12  1  0.14638304  0.07319152  0.67680848  1
  F  F13  1  0.36829799  0.68414899  0.06585101  1
  F  F14  1  0.76105204  0.07009287  0.06612793  1
  F  F15  1  0.76105204  0.69095916  0.67282003  1
  F  F16  1  0.76105204  0.69095916  0.06612793  1
  F  F17  1  0.76105204  0.07009287  0.67282003  1
