# generated using pymatgen
data_Ba2AlIn3
_symmetry_space_group_name_H-M   'P 1'
_cell_length_a   5.25191110
_cell_length_b   6.57056220
_cell_length_c   6.62357939
_cell_angle_alpha   98.85958802
_cell_angle_beta   113.35678620
_cell_angle_gamma   66.44341576
_symmetry_Int_Tables_number   1
_chemical_formula_structural   Ba2AlIn3
_chemical_formula_sum   'Ba2 Al1 In3'
_cell_volume   192.34718944
_cell_formula_units_Z   1
loop_
 _symmetry_equiv_pos_site_id
 _symmetry_equiv_pos_as_xyz
  1  'x, y, z'
loop_
 _atom_site_type_symbol
 _atom_site_label
 _atom_site_symmetry_multiplicity
 _atom_site_fract_x
 _atom_site_fract_y
 _atom_site_fract_z
 _atom_site_occupancy
  Ba  Ba0  1  0.54988158  0.70123460  0.80099776  1
  Ba  Ba1  1  0.44950922  0.30084030  0.19985873  1
  Al  Al2  1  0.16154330  0.26616336  0.58924996  1
  In  In3  1  0.84762095  0.71539380  0.41063570  1
  In  In4  1  0.83107825  0.10115882  0.76331533  1
  In  In5  1  0.16036670  0.91520913  0.23594252  1
