# generated using pymatgen
data_Al(V4Si)3
_symmetry_space_group_name_H-M   'P 1'
_cell_length_a   4.72351808
_cell_length_b   4.73017248
_cell_length_c   9.46907491
_cell_angle_alpha   90.00000000
_cell_angle_beta   90.00000000
_cell_angle_gamma   90.00000000
_symmetry_Int_Tables_number   1
_chemical_formula_structural   Al(V4Si)3
_chemical_formula_sum   'Al1 V12 Si3'
_cell_volume   211.56806370
_cell_formula_units_Z   1
loop_
 _symmetry_equiv_pos_site_id
 _symmetry_equiv_pos_as_xyz
  1  'x, y, z'
loop_
 _atom_site_type_symbol
 _atom_site_label
 _atom_site_symmetry_multiplicity
 _atom_site_fract_x
 _atom_site_fract_y
 _atom_site_fract_z
 _atom_site_occupancy
  Al  Al0  1  0.50000000  0.50000000  0.25000000  1
  V  V1  1  0.00000000  0.50000000  0.37866229  1
  V  V2  1  0.00000000  0.50000000  0.87642096  1
  V  V3  1  0.50000000  0.24574131  0.99508062  1
  V  V4  1  0.50000000  0.24574131  0.50491938  1
  V  V5  1  0.75966889  -0.00000000  0.25000000  1
  V  V6  1  0.75149275  -0.00000000  0.75000000  1
  V  V7  1  -0.00000000  0.50000000  0.12133771  1
  V  V8  1  -0.00000000  0.50000000  0.62357904  1
  V  V9  1  0.50000000  0.75425869  0.99508062  1
  V  V10  1  0.50000000  0.75425869  0.50491938  1
  V  V11  1  0.24033111  0.00000000  0.25000000  1
  V  V12  1  0.24850725  -0.00000000  0.75000000  1
  Si  Si13  1  0.50000000  0.50000000  0.75000000  1
  Si  Si14  1  0.00000000  -0.00000000  0.99908279  1
  Si  Si15  1  -0.00000000  0.00000000  0.50091721  1
