# generated using pymatgen
data_Ho2NiGe6
_symmetry_space_group_name_H-M   'P 1'
_cell_length_a   3.98808981
_cell_length_b   4.05492452
_cell_length_c   10.90216696
_cell_angle_alpha   90.00000000
_cell_angle_beta   100.53892852
_cell_angle_gamma   90.00000000
_symmetry_Int_Tables_number   1
_chemical_formula_structural   Ho2NiGe6
_chemical_formula_sum   'Ho2 Ni1 Ge6'
_cell_volume   173.32925248
_cell_formula_units_Z   1
loop_
 _symmetry_equiv_pos_site_id
 _symmetry_equiv_pos_as_xyz
  1  'x, y, z'
loop_
 _atom_site_type_symbol
 _atom_site_label
 _atom_site_symmetry_multiplicity
 _atom_site_fract_x
 _atom_site_fract_y
 _atom_site_fract_z
 _atom_site_occupancy
  Ni  Ni0  1  0.78150723  0.50000000  0.56301446  1
  Ge  Ge1  1  0.72441613  0.00000000  0.44883225  1
  Ge  Ge2  1  0.22355539  0.50000000  0.44711079  1
  Ge  Ge3  1  0.10624924  0.50000000  0.21249849  1
  Ge  Ge4  1  0.60758973  0.00000000  0.21517946  1
  Ge  Ge5  1  0.46429526  0.50000000  0.92859052  1
  Ge  Ge6  1  0.88892674  0.50000000  0.77785349  1
  Ho  Ho7  1  0.33884536  0.00000000  0.67769073  1
  Ho  Ho8  1  0.00261491  0.00000000  0.00522982  1
