# generated using pymatgen
data_AlFeB2(PbO4)2
_symmetry_space_group_name_H-M   'P 1'
_cell_length_a   5.95237231
_cell_length_b   7.07601205
_cell_length_c   8.30688531
_cell_angle_alpha   90.00000000
_cell_angle_beta   90.78343087
_cell_angle_gamma   90.00000000
_symmetry_Int_Tables_number   1
_chemical_formula_structural   AlFeB2(PbO4)2
_chemical_formula_sum   'Al2 Fe2 B4 Pb4 O16'
_cell_volume   349.84547904
_cell_formula_units_Z   2
loop_
 _symmetry_equiv_pos_site_id
 _symmetry_equiv_pos_as_xyz
  1  'x, y, z'
loop_
 _atom_site_type_symbol
 _atom_site_label
 _atom_site_symmetry_multiplicity
 _atom_site_fract_x
 _atom_site_fract_y
 _atom_site_fract_z
 _atom_site_occupancy
  Al  Al0  1  -0.00000000  0.50000000  0.50000000  1
  Al  Al1  1  0.50000000  0.00000000  0.00000000  1
  Fe  Fe2  1  0.50000000  0.50000000  0.50000000  1
  Fe  Fe3  1  -0.00000000  0.00000000  0.00000000  1
  B  B4  1  0.24799650  0.77153522  0.74007079  1
  B  B5  1  0.25200350  0.27153522  0.75992921  1
  B  B6  1  0.75200350  0.22846478  0.25992921  1
  B  B7  1  0.74799650  0.72846478  0.24007079  1
  Pb  Pb8  1  0.24813455  0.56441699  0.14236838  1
  Pb  Pb9  1  0.25186545  0.06441699  0.35763162  1
  Pb  Pb10  1  0.75186545  0.43558301  0.85763162  1
  Pb  Pb11  1  0.74813455  0.93558301  0.64236838  1
  O  O12  1  0.24252762  0.67046523  0.59658389  1
  O  O13  1  0.25747238  0.17046523  0.90341611  1
  O  O14  1  0.75747238  0.32953477  0.40341611  1
  O  O15  1  0.74252762  0.82953477  0.09658389  1
  O  O16  1  0.04605806  0.82339417  0.81036026  1
  O  O17  1  0.45394194  0.32339417  0.68963974  1
  O  O18  1  0.54981852  0.17408508  0.18608103  1
  O  O19  1  0.95018148  0.67408508  0.31391897  1
  O  O20  1  0.95394194  0.17660583  0.18963974  1
  O  O21  1  0.54605806  0.67660583  0.31036026  1
  O  O22  1  0.45018148  0.82591492  0.81391897  1
  O  O23  1  0.04981852  0.32591492  0.68608103  1
  O  O24  1  0.26478213  0.89974953  0.11364795  1
  O  O25  1  0.23521787  0.39974953  0.38635205  1
  O  O26  1  0.73521787  0.10025047  0.88635205  1
  O  O27  1  0.76478213  0.60025047  0.61364795  1
