# generated using pymatgen
data_Ag10Te4BrCl
_symmetry_space_group_name_H-M   'P 1'
_cell_length_a   7.74413541
_cell_length_b   14.18183361
_cell_length_c   14.12761002
_cell_angle_alpha   90.06892735
_cell_angle_beta   90.00000000
_cell_angle_gamma   90.00000000
_symmetry_Int_Tables_number   1
_chemical_formula_structural   Ag10Te4BrCl
_chemical_formula_sum   'Ag40 Te16 Br4 Cl4'
_cell_volume   1551.57833806
_cell_formula_units_Z   4
loop_
 _symmetry_equiv_pos_site_id
 _symmetry_equiv_pos_as_xyz
  1  'x, y, z'
loop_
 _atom_site_type_symbol
 _atom_site_label
 _atom_site_symmetry_multiplicity
 _atom_site_fract_x
 _atom_site_fract_y
 _atom_site_fract_z
 _atom_site_occupancy
  Ag  Ag0  1  0.69633453  0.14641233  0.29777173  1
  Ag  Ag1  1  0.80366547  0.64641233  0.79777173  1
  Ag  Ag2  1  0.30366547  0.85358767  0.70222827  1
  Ag  Ag3  1  0.19633453  0.35358767  0.20222827  1
  Ag  Ag4  1  0.70638805  0.35210572  0.29873925  1
  Ag  Ag5  1  0.79361195  0.85210572  0.79873925  1
  Ag  Ag6  1  0.29361195  0.64789428  0.70126075  1
  Ag  Ag7  1  0.20638805  0.14789428  0.20126075  1
  Ag  Ag8  1  0.99317778  0.35909660  0.61268083  1
  Ag  Ag9  1  0.50682222  0.85909660  0.11268083  1
  Ag  Ag10  1  0.00682222  0.64090340  0.38731917  1
  Ag  Ag11  1  0.49317778  0.14090340  0.88731917  1
  Ag  Ag12  1  0.99229785  0.14364161  0.60937422  1
  Ag  Ag13  1  0.50770215  0.64364161  0.10937422  1
  Ag  Ag14  1  0.00770215  0.85635839  0.39062578  1
  Ag  Ag15  1  0.49229785  0.35635839  0.89062578  1
  Ag  Ag16  1  0.64391546  0.24981076  0.62054085  1
  Ag  Ag17  1  0.85608454  0.74981076  0.12054085  1
  Ag  Ag18  1  0.35608454  0.75018924  0.37945915  1
  Ag  Ag19  1  0.14391546  0.25018924  0.87945915  1
  Ag  Ag20  1  0.62404043  0.89992814  0.42218370  1
  Ag  Ag21  1  0.87595957  0.39992814  0.92218370  1
  Ag  Ag22  1  0.37595957  0.10007186  0.57781630  1
  Ag  Ag23  1  0.12404043  0.60007186  0.07781630  1
  Ag  Ag24  1  0.37422738  0.39910748  0.57500055  1
  Ag  Ag25  1  0.12577262  0.89910748  0.07500055  1
  Ag  Ag26  1  0.62577262  0.60089252  0.42499945  1
  Ag  Ag27  1  0.87422738  0.10089252  0.92499945  1
  Ag  Ag28  1  0.93652233  0.24959614  0.42687834  1
  Ag  Ag29  1  0.56347767  0.74959614  0.92687834  1
  Ag  Ag30  1  0.06347767  0.75040386  0.57312166  1
  Ag  Ag31  1  0.43652233  0.25040386  0.07312166  1
  Ag  Ag32  1  0.87433170  0.57247047  0.58181649  1
  Ag  Ag33  1  0.62566830  0.07247047  0.08181649  1
  Ag  Ag34  1  0.12566830  0.42752953  0.41818351  1
  Ag  Ag35  1  0.37433170  0.92752953  0.91818351  1
  Ag  Ag36  1  0.87097535  0.92702614  0.57976929  1
  Ag  Ag37  1  0.62902465  0.42702614  0.07976929  1
  Ag  Ag38  1  0.12902465  0.07297386  0.42023071  1
  Ag  Ag39  1  0.37097535  0.57297386  0.92023071  1
  Te  Te40  1  0.76430584  0.24965035  0.81151688  1
  Te  Te41  1  0.73569416  0.74965035  0.31151688  1
  Te  Te42  1  0.23569416  0.75034965  0.18848312  1
  Te  Te43  1  0.26430584  0.25034965  0.68848312  1
  Te  Te44  1  0.71719121  0.41151248  0.49176321  1
  Te  Te45  1  0.78280879  0.91151248  0.99176321  1
  Te  Te46  1  0.28280879  0.58848752  0.50823679  1
  Te  Te47  1  0.21719121  0.08848752  0.00823679  1
  Te  Te48  1  0.71376614  0.08832975  0.49125997  1
  Te  Te49  1  0.78623386  0.58832975  0.99125997  1
  Te  Te50  1  0.28623386  0.91167025  0.50874003  1
  Te  Te51  1  0.21376614  0.41167025  0.00874003  1
  Te  Te52  1  0.78770538  0.24998429  0.13569135  1
  Te  Te53  1  0.71229462  0.74998429  0.63569135  1
  Te  Te54  1  0.21229462  0.75001571  0.86430865  1
  Te  Te55  1  0.28770538  0.25001571  0.36430865  1
  Br  Br56  1  0.47512806  0.49918568  0.25334034  1
  Br  Br57  1  0.02487194  0.99918568  0.75334034  1
  Br  Br58  1  0.52487194  0.50081432  0.74665966  1
  Br  Br59  1  0.97512806  0.00081432  0.24665966  1
  Cl  Cl60  1  0.98212572  0.49810778  0.25038372  1
  Cl  Cl61  1  0.51787428  0.99810778  0.75038372  1
  Cl  Cl62  1  0.01787428  0.50189222  0.74961628  1
  Cl  Cl63  1  0.48212572  0.00189222  0.24961628  1
