# generated using pymatgen
data_Cr5Ge3
_symmetry_space_group_name_H-M   'P 1'
_cell_length_a   4.71666493
_cell_length_b   7.00038447
_cell_length_c   7.00038483
_cell_angle_alpha   83.48332992
_cell_angle_beta   70.31272290
_cell_angle_gamma   70.31273027
_symmetry_Int_Tables_number   1
_chemical_formula_structural   Cr5Ge3
_chemical_formula_sum   'Cr10 Ge6'
_cell_volume   204.90915494
_cell_formula_units_Z   2
loop_
 _symmetry_equiv_pos_site_id
 _symmetry_equiv_pos_as_xyz
  1  'x, y, z'
loop_
 _atom_site_type_symbol
 _atom_site_label
 _atom_site_symmetry_multiplicity
 _atom_site_fract_x
 _atom_site_fract_y
 _atom_site_fract_z
 _atom_site_occupancy
  Cr  Cr0  1  0.57821007  0.68669447  0.15688540  1
  Cr  Cr1  1  0.73509547  0.84311460  0.68669447  1
  Cr  Cr2  1  0.42178993  0.31330553  0.84311460  1
  Cr  Cr3  1  0.25000000  0.50000000  0.50000000  1
  Cr  Cr4  1  0.92178993  0.84311460  0.31330553  1
  Cr  Cr5  1  0.76490453  0.31330553  0.15688540  1
  Cr  Cr6  1  0.26490453  0.15688540  0.31330553  1
  Cr  Cr7  1  0.07821007  0.15688540  0.68669447  1
  Cr  Cr8  1  0.23509547  0.68669447  0.84311460  1
  Cr  Cr9  1  0.75000000  0.50000000  0.50000000  1
  Ge  Ge10  1  0.16660994  0.50000000  0.16678013  1
  Ge  Ge11  1  0.25000000  0.00000000  0.00000000  1
  Ge  Ge12  1  0.75000000  0.00000000  0.00000000  1
  Ge  Ge13  1  0.66660994  0.16678013  0.50000000  1
  Ge  Ge14  1  0.33339006  0.83321987  0.50000000  1
  Ge  Ge15  1  0.83339006  0.50000000  0.83321987  1
