# generated using pymatgen
data_Ag3Bi7S12
_symmetry_space_group_name_H-M   'P 1'
_cell_length_a   4.07467505
_cell_length_b   7.03639366
_cell_length_c   20.25074206
_cell_angle_alpha   85.01901055
_cell_angle_beta   84.22595543
_cell_angle_gamma   106.83059391
_symmetry_Int_Tables_number   1
_chemical_formula_structural   Ag3Bi7S12
_chemical_formula_sum   'Ag3 Bi7 S12'
_cell_volume   548.80531173
_cell_formula_units_Z   1
loop_
 _symmetry_equiv_pos_site_id
 _symmetry_equiv_pos_as_xyz
  1  'x, y, z'
loop_
 _atom_site_type_symbol
 _atom_site_label
 _atom_site_symmetry_multiplicity
 _atom_site_fract_x
 _atom_site_fract_y
 _atom_site_fract_z
 _atom_site_occupancy
  Ag  Ag0  1  0.50000000  0.50000000  0.50000000  1
  Ag  Ag1  1  0.78867260  0.48961124  0.91226604  1
  Ag  Ag2  1  0.21132740  0.51038876  0.08773396  1
  Bi  Bi3  1  0.55897834  0.94533502  0.82737835  1
  Bi  Bi4  1  0.44102166  0.05466498  0.17262165  1
  Bi  Bi5  1  0.00000000  -0.00000000  -0.00000000  1
  Bi  Bi6  1  0.17368565  0.93617649  0.58880518  1
  Bi  Bi7  1  0.82631435  0.06382351  0.41119482  1
  Bi  Bi8  1  0.34986123  0.43169055  0.73196809  1
  Bi  Bi9  1  0.65013877  0.56830945  0.26803191  1
  S  S10  1  0.26590918  0.82880395  0.29698559  1
  S  S11  1  0.73409082  0.17119605  0.70301441  1
  S  S12  1  0.05699853  0.32433167  0.21033460  1
  S  S13  1  0.94300147  0.67566833  0.78966540  1
  S  S14  1  0.48494616  0.35851228  0.38861996  1
  S  S15  1  0.51505384  0.64148772  0.61138004  1
  S  S16  1  0.61715014  0.26875501  0.03445473  1
  S  S17  1  0.38284986  0.73124499  0.96554527  1
  S  S18  1  0.83639108  0.80436866  0.13158649  1
  S  S19  1  0.16360892  0.19563134  0.86841351  1
  S  S20  1  0.16660352  0.80416637  0.47095933  1
  S  S21  1  0.83339648  0.19583363  0.52904067  1
