# generated using pymatgen
data_Li7NiN4
_symmetry_space_group_name_H-M   'P 1'
_cell_length_a   9.62189848
_cell_length_b   9.62189848
_cell_length_c   9.62189848
_cell_angle_alpha   90.00000000
_cell_angle_beta   90.00000000
_cell_angle_gamma   90.00000000
_symmetry_Int_Tables_number   1
_chemical_formula_structural   Li7NiN4
_chemical_formula_sum   'Li56 Ni8 N32'
_cell_volume   890.80431310
_cell_formula_units_Z   8
loop_
 _symmetry_equiv_pos_site_id
 _symmetry_equiv_pos_as_xyz
  1  'x, y, z'
loop_
 _atom_site_type_symbol
 _atom_site_label
 _atom_site_symmetry_multiplicity
 _atom_site_fract_x
 _atom_site_fract_y
 _atom_site_fract_z
 _atom_site_occupancy
  Li  Li0  1  0.50000000  0.75964629  0.50000000  1
  Li  Li1  1  0.75852984  0.00637855  0.24840168  1
  Li  Li2  1  0.24434910  0.75565090  0.75565090  1
  Li  Li3  1  0.00000000  0.74035371  -0.00000000  1
  Li  Li4  1  0.24147016  0.99362145  0.24840168  1
  Li  Li5  1  0.75565090  0.75565090  0.24434910  1
  Li  Li6  1  0.00000000  -0.00000000  0.74035371  1
  Li  Li7  1  0.50637855  0.74147016  0.25159832  1
  Li  Li8  1  0.50000000  0.24035371  0.50000000  1
  Li  Li9  1  0.25852984  0.25159832  0.49362145  1
  Li  Li10  1  0.50000000  -0.00000000  0.50000000  1
  Li  Li11  1  0.74840168  0.49362145  0.74147016  1
  Li  Li12  1  0.75964629  0.50000000  0.50000000  1
  Li  Li13  1  0.25852984  0.74840168  0.50637855  1
  Li  Li14  1  0.24434910  0.24434910  0.24434910  1
  Li  Li15  1  0.00000000  0.25964629  -0.00000000  1
  Li  Li16  1  0.25565090  0.74434910  0.25565090  1
  Li  Li17  1  0.25000000  -0.00000000  0.50000000  1
  Li  Li18  1  0.50000000  0.50000000  -0.00000000  1
  Li  Li19  1  0.25565090  0.25565090  0.74434910  1
  Li  Li20  1  0.50000000  0.50000000  0.24035371  1
  Li  Li21  1  0.25159832  0.50637855  0.74147016  1
  Li  Li22  1  0.74035371  -0.00000000  -0.00000000  1
  Li  Li23  1  0.74434910  0.74434910  0.74434910  1
  Li  Li24  1  0.00000000  0.50000000  0.75000000  1
  Li  Li25  1  0.74840168  0.50637855  0.25852984  1
  Li  Li26  1  0.00000000  0.50000000  0.50000000  1
  Li  Li27  1  0.00000000  0.50000000  -0.00000000  1
  Li  Li28  1  0.00637855  0.24840168  0.75852984  1
  Li  Li29  1  0.00000000  -0.00000000  0.25964629  1
  Li  Li30  1  0.75565090  0.24434910  0.75565090  1
  Li  Li31  1  0.24840168  0.75852984  0.00637855  1
  Li  Li32  1  0.24147016  0.00637855  0.75159832  1
  Li  Li33  1  0.50000000  0.75000000  -0.00000000  1
  Li  Li34  1  0.74434910  0.25565090  0.25565090  1
  Li  Li35  1  0.50000000  0.25000000  -0.00000000  1
  Li  Li36  1  0.25159832  0.49362145  0.25852984  1
  Li  Li37  1  0.24840168  0.24147016  0.99362145  1
  Li  Li38  1  0.49362145  0.25852984  0.25159832  1
  Li  Li39  1  0.75852984  0.99362145  0.75159832  1
  Li  Li40  1  0.99362145  0.75159832  0.75852984  1
  Li  Li41  1  0.75159832  0.75852984  0.99362145  1
  Li  Li42  1  0.74147016  0.25159832  0.50637855  1
  Li  Li43  1  0.00637855  0.75159832  0.24147016  1
  Li  Li44  1  0.50000000  0.50000000  0.75964629  1
  Li  Li45  1  0.00000000  -0.00000000  0.50000000  1
  Li  Li46  1  0.50000000  -0.00000000  -0.00000000  1
  Li  Li47  1  0.49362145  0.74147016  0.74840168  1
  Li  Li48  1  0.75159832  0.24147016  0.00637855  1
  Li  Li49  1  0.24035371  0.50000000  0.50000000  1
  Li  Li50  1  0.75000000  -0.00000000  0.50000000  1
  Li  Li51  1  0.25964629  -0.00000000  -0.00000000  1
  Li  Li52  1  0.00000000  0.50000000  0.25000000  1
  Li  Li53  1  0.99362145  0.24840168  0.24147016  1
  Li  Li54  1  0.50637855  0.25852984  0.74840168  1
  Li  Li55  1  0.74147016  0.74840168  0.49362145  1
  Ni  Ni56  1  0.50000000  0.50000000  0.50000000  1
  Ni  Ni57  1  0.00000000  -0.00000000  -0.00000000  1
  Ni  Ni58  1  0.50000000  -0.00000000  0.75000000  1
  Ni  Ni59  1  0.25000000  0.50000000  -0.00000000  1
  Ni  Ni60  1  0.50000000  -0.00000000  0.25000000  1
  Ni  Ni61  1  0.00000000  0.75000000  0.50000000  1
  Ni  Ni62  1  0.00000000  0.25000000  0.50000000  1
  Ni  Ni63  1  0.75000000  0.50000000  -0.00000000  1
  N  N64  1  0.85919945  0.38743339  0.11894032  1
  N  N65  1  0.14080055  0.38743339  0.88105968  1
  N  N66  1  0.11234935  0.11234935  0.11234935  1
  N  N67  1  0.61234935  0.38765065  0.38765065  1
  N  N68  1  0.61894032  0.11256661  0.64080055  1
  N  N69  1  0.11256661  0.64080055  0.61894032  1
  N  N70  1  0.88105968  0.14080055  0.38743339  1
  N  N71  1  0.88105968  0.85919945  0.61256661  1
  N  N72  1  0.38765065  0.61234935  0.38765065  1
  N  N73  1  0.88765065  0.88765065  0.11234935  1
  N  N74  1  0.38105968  0.88743339  0.64080055  1
  N  N75  1  0.61234935  0.61234935  0.61234935  1
  N  N76  1  0.85919945  0.61256661  0.88105968  1
  N  N77  1  0.38105968  0.11256661  0.35919945  1
  N  N78  1  0.88743339  0.35919945  0.61894032  1
  N  N79  1  0.11234935  0.88765065  0.88765065  1
  N  N80  1  0.38743339  0.11894032  0.85919945  1
  N  N81  1  0.64080055  0.61894032  0.11256661  1
  N  N82  1  0.64080055  0.38105968  0.88743339  1
  N  N83  1  0.11894032  0.85919945  0.38743339  1
  N  N84  1  0.88765065  0.11234935  0.88765065  1
  N  N85  1  0.61894032  0.88743339  0.35919945  1
  N  N86  1  0.11894032  0.14080055  0.61256661  1
  N  N87  1  0.88743339  0.64080055  0.38105968  1
  N  N88  1  0.35919945  0.61894032  0.88743339  1
  N  N89  1  0.61256661  0.11894032  0.14080055  1
  N  N90  1  0.14080055  0.61256661  0.11894032  1
  N  N91  1  0.38765065  0.38765065  0.61234935  1
  N  N92  1  0.61256661  0.88105968  0.85919945  1
  N  N93  1  0.35919945  0.38105968  0.11256661  1
  N  N94  1  0.38743339  0.88105968  0.14080055  1
  N  N95  1  0.11256661  0.35919945  0.38105968  1
