# generated using pymatgen
data_Ho2Cu(GeO3)4
_symmetry_space_group_name_H-M   'P 1'
_cell_length_a   4.99271276
_cell_length_b   7.25955038
_cell_length_c   7.98450554
_cell_angle_alpha   66.39646900
_cell_angle_beta   86.94265336
_cell_angle_gamma   76.85421874
_symmetry_Int_Tables_number   1
_chemical_formula_structural   Ho2Cu(GeO3)4
_chemical_formula_sum   'Ho2 Cu1 Ge4 O12'
_cell_volume   258.00543523
_cell_formula_units_Z   1
loop_
 _symmetry_equiv_pos_site_id
 _symmetry_equiv_pos_as_xyz
  1  'x, y, z'
loop_
 _atom_site_type_symbol
 _atom_site_label
 _atom_site_symmetry_multiplicity
 _atom_site_fract_x
 _atom_site_fract_y
 _atom_site_fract_z
 _atom_site_occupancy
  O  O0  1  0.77515250  0.93331656  0.61081812  1
  O  O1  1  0.22484750  0.06668344  0.38918188  1
  O  O2  1  0.79428020  0.57518598  0.38916625  1
  O  O3  1  0.20571980  0.42481402  0.61083375  1
  O  O4  1  0.41555265  0.65798109  0.70541171  1
  O  O5  1  0.58444735  0.34201891  0.29458829  1
  O  O6  1  0.73195795  0.68773772  0.98773389  1
  O  O7  1  0.74281758  0.22327193  0.80571269  1
  O  O8  1  0.25718242  0.77672807  0.19428731  1
  O  O9  1  0.75231348  0.99194057  0.20373166  1
  O  O10  1  0.24768652  0.00805943  0.79626834  1
  O  O11  1  0.26804205  0.31226228  0.01226611  1
  Cu  Cu12  1  0.00000000  0.00000000  0.00000000  1
  Ge  Ge13  1  0.53965468  0.83243397  0.77450487  1
  Ge  Ge14  1  0.46034532  0.16756603  0.22549513  1
  Ge  Ge15  1  0.58229807  0.61635105  0.20461106  1
  Ge  Ge16  1  0.41770193  0.38364895  0.79538894  1
  Ho  Ho17  1  0.04580678  0.76961259  0.45117920  1
  Ho  Ho18  1  0.95419322  0.23038741  0.54882080  1
