# generated using pymatgen
data_Sr2LiIn(B2O5)2
_symmetry_space_group_name_H-M   'P 1'
_cell_length_a   5.30810536
_cell_length_b   12.89499957
_cell_length_c   13.99100265
_cell_angle_alpha   117.47248900
_cell_angle_beta   90.00000000
_cell_angle_gamma   90.00000000
_symmetry_Int_Tables_number   1
_chemical_formula_structural   Sr2LiIn(B2O5)2
_chemical_formula_sum   'Sr8 Li4 In4 B16 O40'
_cell_volume   849.66380755
_cell_formula_units_Z   4
loop_
 _symmetry_equiv_pos_site_id
 _symmetry_equiv_pos_as_xyz
  1  'x, y, z'
loop_
 _atom_site_type_symbol
 _atom_site_label
 _atom_site_symmetry_multiplicity
 _atom_site_fract_x
 _atom_site_fract_y
 _atom_site_fract_z
 _atom_site_occupancy
  Li  Li0  1  0.89799342  0.88035094  0.39753889  1
  Li  Li1  1  0.60200658  0.38035094  0.89753889  1
  Li  Li2  1  0.10200658  0.11964906  0.60246111  1
  Li  Li3  1  0.39799342  0.61964906  0.10246111  1
  B  B4  1  0.63764605  0.10322685  0.71016703  1
  B  B5  1  0.90266071  0.59412403  0.44649265  1
  B  B6  1  0.59733929  0.09412403  0.94649265  1
  B  B7  1  0.09733929  0.40587597  0.55350735  1
  B  B8  1  0.36235395  0.89677315  0.28983297  1
  B  B9  1  0.86235395  0.60322685  0.21016703  1
  B  B10  1  0.40266071  0.90587597  0.05350735  1
  B  B11  1  0.13764605  0.39677315  0.78983297  1
  B  B12  1  0.07989466  0.42649137  0.05041105  1
  B  B13  1  0.57989466  0.07350863  0.44958895  1
  B  B14  1  0.42010534  0.92649137  0.55041105  1
  B  B15  1  0.92010534  0.57350863  0.94958895  1
  B  B16  1  0.56486413  0.08827143  0.23146043  1
  B  B17  1  0.06486413  0.41172857  0.26853957  1
  B  B18  1  0.43513587  0.91172857  0.76853957  1
  B  B19  1  0.93513587  0.58827143  0.73146043  1
  O  O20  1  0.41628795  0.78737603  0.21407449  1
  O  O21  1  0.42957302  0.03559798  0.64452496  1
  O  O22  1  0.07042698  0.53559798  0.14452496  1
  O  O23  1  0.57042698  0.96440202  0.35547504  1
  O  O24  1  0.79359104  0.13842658  0.27269080  1
  O  O25  1  0.29359104  0.36157342  0.22730920  1
  O  O26  1  0.20640896  0.86157342  0.72730920  1
  O  O27  1  0.70640896  0.63842658  0.77269080  1
  O  O28  1  0.08371205  0.28737603  0.71407449  1
  O  O29  1  0.92957302  0.46440202  0.85547504  1
  O  O30  1  0.58371205  0.21262397  0.78592551  1
  O  O31  1  0.91628795  0.71262397  0.28592551  1
  O  O32  1  0.84607318  0.35054186  0.22646057  1
  O  O33  1  0.34607318  0.14945814  0.27353943  1
  O  O34  1  0.15392682  0.64945814  0.77353943  1
  O  O35  1  0.65392682  0.85054186  0.72646057  1
  O  O36  1  0.81322646  0.10865132  0.49649007  1
  O  O37  1  0.31322646  0.39134868  0.00350993  1
  O  O38  1  0.18677354  0.89134868  0.50350993  1
  O  O39  1  0.68677354  0.60865132  0.99649007  1
  O  O40  1  0.96718177  0.31519220  0.47249112  1
  O  O41  1  0.46718177  0.18480780  0.02750888  1
  O  O42  1  0.03281823  0.68480780  0.52750888  1
  O  O43  1  0.53281823  0.81519220  0.97249112  1
  O  O44  1  0.37581048  0.44502857  0.80700744  1
  O  O45  1  0.87581048  0.05497143  0.69299256  1
  O  O46  1  0.62418952  0.55497143  0.19299256  1
  O  O47  1  0.12418952  0.94502857  0.30700744  1
  O  O48  1  0.34643136  0.42816555  0.55491566  1
  O  O49  1  0.84643136  0.07183445  0.94508434  1
  O  O50  1  0.65356864  0.57183445  0.44508434  1
  O  O51  1  0.15356864  0.92816555  0.05491566  1
  O  O52  1  0.37434085  0.14410967  0.49363180  1
  O  O53  1  0.87434085  0.35589033  0.00636820  1
  O  O54  1  0.57262152  0.97975683  0.13784401  1
  O  O55  1  0.12565915  0.64410967  0.99363180  1
  O  O56  1  0.92737848  0.47975683  0.63784401  1
  O  O57  1  0.42737848  0.02024317  0.86215599  1
  O  O58  1  0.07262152  0.52024317  0.36215599  1
  O  O59  1  0.62565915  0.85589033  0.50636820  1
  Sr  Sr60  1  0.62692072  0.31494093  0.64441139  1
  Sr  Sr61  1  0.12692072  0.18505907  0.85558861  1
  Sr  Sr62  1  0.37307928  0.68505907  0.35558861  1
  Sr  Sr63  1  0.87307928  0.81494093  0.14441139  1
  Sr  Sr64  1  0.92434498  0.85104765  0.87596942  1
  Sr  Sr65  1  0.42434498  0.64895235  0.62403058  1
  Sr  Sr66  1  0.57565502  0.35104765  0.37596942  1
  Sr  Sr67  1  0.07565502  0.14895235  0.12403058  1
  In  In68  1  0.57241688  0.36803744  0.11541006  1
  In  In69  1  0.07241688  0.13196256  0.38458994  1
  In  In70  1  0.42758312  0.63196256  0.88458994  1
  In  In71  1  0.92758312  0.86803744  0.61541006  1
