# generated using pymatgen
data_Er2Cu(GeO3)4
_symmetry_space_group_name_H-M   'P 1'
_cell_length_a   4.99252482
_cell_length_b   7.23443376
_cell_length_c   7.95850728
_cell_angle_alpha   66.44426908
_cell_angle_beta   87.00150585
_cell_angle_gamma   76.91083114
_symmetry_Int_Tables_number   1
_chemical_formula_structural   Er2Cu(GeO3)4
_chemical_formula_sum   'Er2 Cu1 Ge4 O12'
_cell_volume   256.41287917
_cell_formula_units_Z   1
loop_
 _symmetry_equiv_pos_site_id
 _symmetry_equiv_pos_as_xyz
  1  'x, y, z'
loop_
 _atom_site_type_symbol
 _atom_site_label
 _atom_site_symmetry_multiplicity
 _atom_site_fract_x
 _atom_site_fract_y
 _atom_site_fract_z
 _atom_site_occupancy
  O  O0  1  0.77618510  0.93337901  0.61006392  1
  O  O1  1  0.22381490  0.06662099  0.38993608  1
  O  O2  1  0.79498207  0.57465184  0.39058972  1
  O  O3  1  0.20501793  0.42534816  0.60941028  1
  O  O4  1  0.41385489  0.65873734  0.70467710  1
  O  O5  1  0.58614511  0.34126266  0.29532290  1
  O  O6  1  0.73168185  0.68846054  0.98773523  1
  O  O7  1  0.74274583  0.22323927  0.80471731  1
  O  O8  1  0.25725417  0.77676073  0.19528269  1
  O  O9  1  0.75229360  0.99061617  0.20435762  1
  O  O10  1  0.24770640  0.00938383  0.79564238  1
  O  O11  1  0.26831815  0.31153946  0.01226477  1
  Cu  Cu12  1  0.00000000  0.00000000  0.00000000  1
  Ge  Ge13  1  0.53961716  0.83329457  0.77376219  1
  Ge  Ge14  1  0.46038284  0.16670543  0.22623781  1
  Ge  Ge15  1  0.58268156  0.61656891  0.20542308  1
  Ge  Ge16  1  0.41731844  0.38343109  0.79457692  1
  Er  Er17  1  0.04560557  0.76970934  0.45106269  1
  Er  Er18  1  0.95439443  0.23029066  0.54893731  1
