# generated using pymatgen
data_Zn3Ni2Ge
_symmetry_space_group_name_H-M   'P 1'
_cell_length_a   7.70729805
_cell_length_b   7.70729805
_cell_length_c   7.70729805
_cell_angle_alpha   60.00000004
_cell_angle_beta   60.00000005
_cell_angle_gamma   60.00000005
_symmetry_Int_Tables_number   1
_chemical_formula_structural   Zn3Ni2Ge
_chemical_formula_sum   'Zn12 Ni8 Ge4'
_cell_volume   323.73634905
_cell_formula_units_Z   4
loop_
 _symmetry_equiv_pos_site_id
 _symmetry_equiv_pos_as_xyz
  1  'x, y, z'
loop_
 _atom_site_type_symbol
 _atom_site_label
 _atom_site_symmetry_multiplicity
 _atom_site_fract_x
 _atom_site_fract_y
 _atom_site_fract_z
 _atom_site_occupancy
  Ni  Ni0  1  0.71355586  0.71355586  0.71355586  1
  Ni  Ni1  1  0.28644414  0.28644414  0.64066759  1
  Ni  Ni2  1  0.64066759  0.28644414  0.28644414  1
  Ni  Ni3  1  0.28644414  0.64066759  0.28644414  1
  Ni  Ni4  1  0.35933241  0.71355586  0.71355586  1
  Ni  Ni5  1  0.71355586  0.35933241  0.71355586  1
  Ni  Ni6  1  0.71355586  0.71355586  0.35933241  1
  Ni  Ni7  1  0.28644414  0.28644414  0.28644414  1
  Zn  Zn8  1  0.69120697  0.05879303  0.05879303  1
  Zn  Zn9  1  0.94120697  0.94120697  0.30879303  1
  Zn  Zn10  1  0.30879303  0.30879303  0.94120697  1
  Zn  Zn11  1  0.94120697  0.30879303  0.30879303  1
  Zn  Zn12  1  0.94120697  0.30879303  0.94120697  1
  Zn  Zn13  1  0.30879303  0.94120697  0.30879303  1
  Zn  Zn14  1  0.05879303  0.69120697  0.05879303  1
  Zn  Zn15  1  0.05879303  0.05879303  0.69120697  1
  Zn  Zn16  1  0.69120697  0.69120697  0.05879303  1
  Zn  Zn17  1  0.69120697  0.05879303  0.69120697  1
  Zn  Zn18  1  0.30879303  0.94120697  0.94120697  1
  Zn  Zn19  1  0.05879303  0.69120697  0.69120697  1
  Ge  Ge20  1  0.50000000  0.50000000  0.50000000  1
  Ge  Ge21  1  0.50000000  0.50000000  0.00000000  1
  Ge  Ge22  1  0.00000000  0.50000000  0.50000000  1
  Ge  Ge23  1  0.50000000  0.00000000  0.50000000  1
