# generated using pymatgen
data_Ba5Gd8Zn4O21
_symmetry_space_group_name_H-M   'P 1'
_cell_length_a   5.81568232
_cell_length_b   10.35178600
_cell_length_c   10.35178600
_cell_angle_alpha   85.47430671
_cell_angle_beta   73.68593200
_cell_angle_gamma   73.68593198
_symmetry_Int_Tables_number   1
_chemical_formula_structural   Ba5Gd8Zn4O21
_chemical_formula_sum   'Ba5 Gd8 Zn4 O21'
_cell_volume   574.03071904
_cell_formula_units_Z   1
loop_
 _symmetry_equiv_pos_site_id
 _symmetry_equiv_pos_as_xyz
  1  'x, y, z'
loop_
 _atom_site_type_symbol
 _atom_site_label
 _atom_site_symmetry_multiplicity
 _atom_site_fract_x
 _atom_site_fract_y
 _atom_site_fract_z
 _atom_site_occupancy
  O  O0  1  0.09852352  0.88863084  0.40638600  1
  O  O1  1  0.50490952  0.59361400  0.88863084  1
  O  O2  1  0.98715436  0.40638600  0.11136916  1
  O  O3  1  0.39354036  0.11136916  0.59361400  1
  O  O4  1  0.90147648  0.11136916  0.59361400  1
  O  O5  1  0.49509048  0.40638600  0.11136916  1
  O  O6  1  0.01284564  0.59361400  0.88863084  1
  O  O7  1  0.60645964  0.88863084  0.40638600  1
  O  O8  1  0.93010041  0.86835869  0.77462539  1
  O  O9  1  0.70472581  0.22537461  0.86835869  1
  O  O10  1  0.79845911  0.77462539  0.13164131  1
  O  O11  1  0.57308450  0.13164131  0.22537461  1
  O  O12  1  0.06989959  0.13164131  0.22537461  1
  O  O13  1  0.29527419  0.77462539  0.13164131  1
  O  O14  1  0.20154089  0.22537461  0.86835869  1
  O  O15  1  0.42691550  0.86835869  0.77462539  1
  O  O16  1  0.37350924  0.66109259  0.59188892  1
  O  O17  1  0.50000000  0.00000000  0.00000000  1
  O  O18  1  0.62649076  0.33890741  0.40811108  1
  O  O19  1  0.03460184  0.59188892  0.33890741  1
  O  O20  1  0.96539816  0.40811108  0.66109259  1
  Zn  Zn21  1  0.95904512  0.78856149  0.29334826  1
  Zn  Zn22  1  0.25239339  0.70665174  0.78856149  1
  Zn  Zn23  1  0.74760661  0.29334826  0.21143851  1
  Zn  Zn24  1  0.04095488  0.21143851  0.70665174  1
  Ba  Ba25  1  0.46661109  0.39493950  0.67183832  1
  Ba  Ba26  1  0.13844941  0.32816168  0.39493950  1
  Ba  Ba27  1  0.86155059  0.67183832  0.60506050  1
  Ba  Ba28  1  0.53338891  0.60506050  0.32816168  1
  Ba  Ba29  1  0.00000000  0.00000000  0.00000000  1
  Gd  Gd30  1  0.58904212  0.05362069  0.76829507  1
  Gd  Gd31  1  0.35733719  0.23170493  0.05362069  1
  Gd  Gd32  1  0.64266281  0.76829507  0.94637931  1
  Gd  Gd33  1  0.41095788  0.94637931  0.23170493  1
  Gd  Gd34  1  0.75260501  0.08020623  0.41458374  1
  Gd  Gd35  1  0.16718876  0.58541626  0.08020623  1
  Gd  Gd36  1  0.83281124  0.41458374  0.91979377  1
  Gd  Gd37  1  0.24739499  0.91979377  0.58541626  1
