# generated using pymatgen
data_Ca2MnAlO5
_symmetry_space_group_name_H-M   'P 1'
_cell_length_a   5.35092660
_cell_length_b   5.61678934
_cell_length_c   8.37289784
_cell_angle_alpha   109.59585090
_cell_angle_beta   108.63501826
_cell_angle_gamma   90.00000004
_symmetry_Int_Tables_number   1
_chemical_formula_structural   Ca2MnAlO5
_chemical_formula_sum   'Ca4 Mn2 Al2 O10'
_cell_volume   223.01907257
_cell_formula_units_Z   2
loop_
 _symmetry_equiv_pos_site_id
 _symmetry_equiv_pos_as_xyz
  1  'x, y, z'
loop_
 _atom_site_type_symbol
 _atom_site_label
 _atom_site_symmetry_multiplicity
 _atom_site_fract_x
 _atom_site_fract_y
 _atom_site_fract_z
 _atom_site_occupancy
  O  O0  1  0.61963438  0.39539949  0.50000470  1
  O  O1  1  0.11962968  0.60460051  0.49999530  1
  O  O2  1  0.61445825  0.72175991  0.29716550  1
  O  O3  1  0.31729275  0.27824009  0.70283450  1
  O  O4  1  0.11447769  0.07542491  0.29719020  1
  O  O5  1  0.81728749  0.92457509  0.70280980  1
  O  O6  1  0.23627049  0.73923699  0.97087462  1
  O  O7  1  0.26539588  0.26076301  0.02912538  1
  O  O8  1  0.76542628  0.26839187  0.02917363  1
  O  O9  1  0.73625265  0.73160813  0.97082637  1
  Al  Al10  1  0.28719257  0.32323516  0.50001050  1
  Al  Al11  1  0.78718207  0.67676484  0.49998950  1
  Ca  Ca12  1  0.12211795  0.64169286  0.22333194  1
  Ca  Ca13  1  0.39874131  0.91835372  0.77666735  1
  Ca  Ca14  1  0.89878601  0.35830714  0.77666806  1
  Ca  Ca15  1  0.62207396  0.08164628  0.22333265  1
  Mn  Mn16  1  0.49899906  0.50000000  0.00000000  1
  Mn  Mn17  1  0.99898154  0.00000000  0.00000000  1
