# generated using pymatgen
data_Si2H18C7N2
_symmetry_space_group_name_H-M   'P 1'
_cell_length_a   10.01342431
_cell_length_b   11.47820056
_cell_length_c   12.28868067
_cell_angle_alpha   90.00000000
_cell_angle_beta   102.58551990
_cell_angle_gamma   90.00000000
_symmetry_Int_Tables_number   1
_chemical_formula_structural   Si2H18C7N2
_chemical_formula_sum   'Si8 H72 C28 N8'
_cell_volume   1378.47528411
_cell_formula_units_Z   4
loop_
 _symmetry_equiv_pos_site_id
 _symmetry_equiv_pos_as_xyz
  1  'x, y, z'
loop_
 _atom_site_type_symbol
 _atom_site_label
 _atom_site_symmetry_multiplicity
 _atom_site_fract_x
 _atom_site_fract_y
 _atom_site_fract_z
 _atom_site_occupancy
  Si  Si0  1  0.01005687  0.54395921  0.26787032  1
  Si  Si1  1  0.56369942  0.73280008  0.46690295  1
  Si  Si2  1  0.43630058  0.26719992  0.53309705  1
  Si  Si3  1  0.43630058  0.23280008  0.03309705  1
  Si  Si4  1  0.56369942  0.76719992  0.96690295  1
  Si  Si5  1  0.98994313  0.45604079  0.73212968  1
  Si  Si6  1  0.98994313  0.04395921  0.23212968  1
  Si  Si7  1  0.01005687  0.95604079  0.76787032  1
  H  H8  1  0.57041817  0.13568654  0.20269961  1
  H  H9  1  0.52490482  0.89764578  0.33206770  1
  H  H10  1  0.57041817  0.36431346  0.70269961  1
  H  H11  1  0.56047328  0.33190108  0.90387143  1
  H  H12  1  0.96313435  0.88882637  0.94936682  1
  H  H13  1  0.30082181  0.14610033  0.63856302  1
  H  H14  1  0.39530928  0.09466939  0.17947609  1
  H  H15  1  0.39070167  0.81709591  0.07821922  1
  H  H16  1  0.39070167  0.68290409  0.57821922  1
  H  H17  1  0.67558211  0.21371741  0.52767175  1
  H  H18  1  0.84443390  0.41251982  0.14648802  1
  H  H19  1  0.43952672  0.83190108  0.59612857  1
  H  H20  1  0.23739195  0.04221214  0.32251714  1
  H  H21  1  0.63579190  0.93979946  0.45953138  1
  H  H22  1  0.52490482  0.60235422  0.83206770  1
  H  H23  1  0.06816489  0.22386668  0.15272770  1
  H  H24  1  0.30082181  0.35389967  0.13856302  1
  H  H25  1  0.67558211  0.28628259  0.02767175  1
  H  H26  1  0.49580383  0.53089779  0.40109710  1
  H  H27  1  0.60469072  0.59466939  0.32052391  1
  H  H28  1  0.42958183  0.86431346  0.79730039  1
  H  H29  1  0.32441789  0.78628259  0.47232825  1
  H  H30  1  0.23739195  0.45778786  0.82251714  1
  H  H31  1  0.80186555  0.42899335  0.27895604  1
  H  H32  1  0.82348955  0.15272127  0.31819462  1
  H  H33  1  0.03686565  0.38882637  0.55063318  1
  H  H34  1  0.89770165  0.18895111  0.08424081  1
  H  H35  1  0.17651045  0.65272127  0.18180538  1
  H  H36  1  0.96313435  0.61117363  0.44936682  1
  H  H37  1  0.15556610  0.58748018  0.85351198  1
  H  H38  1  0.00494600  0.81306291  0.61528093  1
  H  H39  1  0.19813445  0.92899335  0.22104396  1
  H  H40  1  0.36420810  0.06020054  0.54046862  1
  H  H41  1  0.19813445  0.57100665  0.72104396  1
  H  H42  1  0.69917819  0.85389967  0.36143698  1
  H  H43  1  0.76260805  0.95778786  0.67748286  1
  H  H44  1  0.84443390  0.08748018  0.64648802  1
  H  H45  1  0.76260805  0.54221214  0.17748286  1
  H  H46  1  0.93183511  0.77613332  0.84727230  1
  H  H47  1  0.49580383  0.96910221  0.90109710  1
  H  H48  1  0.10229835  0.81104889  0.91575919  1
  H  H49  1  0.36420810  0.43979946  0.04046862  1
  H  H50  1  0.07939672  0.94691375  0.58530640  1
  H  H51  1  0.07939672  0.55308625  0.08530640  1
  H  H52  1  0.32441789  0.71371741  0.97232825  1
  H  H53  1  0.80186555  0.07100665  0.77895604  1
  H  H54  1  0.60469072  0.90533061  0.82052391  1
  H  H55  1  0.43952672  0.66809892  0.09612857  1
  H  H56  1  0.99505400  0.18693709  0.38471907  1
  H  H57  1  0.93183511  0.72386668  0.34727230  1
  H  H58  1  0.39530928  0.40533061  0.67947609  1
  H  H59  1  0.50419617  0.46910221  0.59890290  1
  H  H60  1  0.17651045  0.84727873  0.68180538  1
  H  H61  1  0.06816489  0.27613332  0.65272770  1
  H  H62  1  0.56047328  0.16809892  0.40387143  1
  H  H63  1  0.15556610  0.91251982  0.35351198  1
  H  H64  1  0.82348955  0.34727873  0.81819462  1
  H  H65  1  0.92060328  0.05308625  0.41469360  1
  H  H66  1  0.69917819  0.64610033  0.86143698  1
  H  H67  1  0.60929833  0.18290409  0.92178078  1
  H  H68  1  0.99505400  0.31306291  0.88471907  1
  H  H69  1  0.63579190  0.56020054  0.95953138  1
  H  H70  1  0.47509518  0.10235422  0.66793230  1
  H  H71  1  0.03686565  0.11117363  0.05063318  1
  H  H72  1  0.10229835  0.68895111  0.41575919  1
  H  H73  1  0.92060328  0.44691375  0.91469360  1
  H  H74  1  0.00494600  0.68693709  0.11528093  1
  H  H75  1  0.50419617  0.03089779  0.09890290  1
  H  H76  1  0.60929833  0.31709591  0.42178078  1
  H  H77  1  0.42958183  0.63568654  0.29730039  1
  H  H78  1  0.47509518  0.39764578  0.16793230  1
  H  H79  1  0.89770165  0.31104889  0.58424081  1
  C  C80  1  0.38967760  0.36848237  0.10118143  1
  C  C81  1  0.41605849  0.76095647  0.53487496  1
  C  C82  1  0.41605849  0.73904353  0.03487496  1
  C  C83  1  0.51993238  0.61206653  0.36200158  1
  C  C84  1  0.00091539  0.65165194  0.38078726  1
  C  C85  1  0.61032240  0.63151763  0.89881857  1
  C  C86  1  0.78865545  0.62618467  0.62145321  1
  C  C87  1  0.48006762  0.38793347  0.63799842  1
  C  C88  1  0.99908461  0.34834806  0.61921274  1
  C  C89  1  0.16149213  0.52463394  0.78721482  1
  C  C90  1  0.83850787  0.02463394  0.71278518  1
  C  C91  1  0.83850787  0.47536606  0.21278518  1
  C  C92  1  0.92619426  0.11573408  0.34815307  1
  C  C93  1  0.58394151  0.23904353  0.46512504  1
  C  C94  1  0.99908461  0.15165194  0.11921274  1
  C  C95  1  0.07380574  0.61573408  0.15184693  1
  C  C96  1  0.92619426  0.38426592  0.84815307  1
  C  C97  1  0.78865545  0.87381533  0.12145321  1
  C  C98  1  0.51993238  0.88793347  0.86200158  1
  C  C99  1  0.61032240  0.86848237  0.39881857  1
  C  C100  1  0.16149213  0.97536606  0.28721482  1
  C  C101  1  0.00091539  0.84834806  0.88078726  1
  C  C102  1  0.21134455  0.12618467  0.87854679  1
  C  C103  1  0.58394151  0.26095647  0.96512504  1
  C  C104  1  0.48006762  0.11206653  0.13799842  1
  C  C105  1  0.07380574  0.88426592  0.65184693  1
  C  C106  1  0.21134455  0.37381533  0.37854679  1
  C  C107  1  0.38967760  0.13151763  0.60118143  1
  N  N108  1  0.87790494  0.56639168  0.67720942  1
  N  N109  1  0.70279545  0.69280550  0.57027255  1
  N  N110  1  0.70279545  0.80719450  0.07027255  1
  N  N111  1  0.12209506  0.06639168  0.82279058  1
  N  N112  1  0.12209506  0.43360832  0.32279058  1
  N  N113  1  0.29720455  0.19280550  0.92972745  1
  N  N114  1  0.87790494  0.93360832  0.17720942  1
  N  N115  1  0.29720455  0.30719450  0.42972745  1
