# generated using pymatgen
data_Sr5Sb3
_symmetry_space_group_name_H-M   'P 1'
_cell_length_a   8.82326167
_cell_length_b   10.10374428
_cell_length_c   13.51678380
_cell_angle_alpha   90.00000000
_cell_angle_beta   90.00000000
_cell_angle_gamma   90.00000000
_symmetry_Int_Tables_number   1
_chemical_formula_structural   Sr5Sb3
_chemical_formula_sum   'Sr20 Sb12'
_cell_volume   1204.99396685
_cell_formula_units_Z   4
loop_
 _symmetry_equiv_pos_site_id
 _symmetry_equiv_pos_as_xyz
  1  'x, y, z'
loop_
 _atom_site_type_symbol
 _atom_site_label
 _atom_site_symmetry_multiplicity
 _atom_site_fract_x
 _atom_site_fract_y
 _atom_site_fract_z
 _atom_site_occupancy
  Sr  Sr0  1  0.31336621  0.96056192  0.91630149  1
  Sr  Sr1  1  0.81336621  0.03943808  0.58369851  1
  Sr  Sr2  1  0.68663379  0.46056192  0.08369851  1
  Sr  Sr3  1  0.18663379  0.53943808  0.41630149  1
  Sr  Sr4  1  0.68663379  0.03943808  0.08369851  1
  Sr  Sr5  1  0.18663379  0.96056192  0.41630149  1
  Sr  Sr6  1  0.31336621  0.53943808  0.91630149  1
  Sr  Sr7  1  0.81336621  0.46056192  0.58369851  1
  Sr  Sr8  1  0.68147407  0.75000000  0.77556488  1
  Sr  Sr9  1  0.18147407  0.25000000  0.72443512  1
  Sr  Sr10  1  0.31852593  0.25000000  0.22443512  1
  Sr  Sr11  1  0.81852593  0.75000000  0.27556488  1
  Sr  Sr12  1  0.15605272  0.75000000  0.70202276  1
  Sr  Sr13  1  0.65605272  0.25000000  0.79797724  1
  Sr  Sr14  1  0.84394728  0.25000000  0.29797724  1
  Sr  Sr15  1  0.34394728  0.75000000  0.20202276  1
  Sr  Sr16  1  0.53558815  0.75000000  0.49627536  1
  Sr  Sr17  1  0.03558815  0.25000000  0.00372464  1
  Sr  Sr18  1  0.46441185  0.25000000  0.50372464  1
  Sr  Sr19  1  0.96441185  0.75000000  0.99627536  1
  Sb  Sb20  1  0.94323105  0.00999002  0.82808238  1
  Sb  Sb21  1  0.44323105  0.99000998  0.67191762  1
  Sb  Sb22  1  0.05676895  0.50999002  0.17191762  1
  Sb  Sb23  1  0.55676895  0.49000998  0.32808238  1
  Sb  Sb24  1  0.05676895  0.99000998  0.17191762  1
  Sb  Sb25  1  0.55676895  0.00999002  0.32808238  1
  Sb  Sb26  1  0.94323105  0.49000998  0.82808238  1
  Sb  Sb27  1  0.44323105  0.50999002  0.67191762  1
  Sb  Sb28  1  0.57627504  0.75000000  0.01359831  1
  Sb  Sb29  1  0.07627504  0.25000000  0.48640169  1
  Sb  Sb30  1  0.42372496  0.25000000  0.98640169  1
  Sb  Sb31  1  0.92372496  0.75000000  0.51359831  1
