# generated using pymatgen
data_Ho2SiSeO4
_symmetry_space_group_name_H-M   'P 1'
_cell_length_a   6.04202062
_cell_length_b   6.95092551
_cell_length_c   10.82142631
_cell_angle_alpha   90.00000000
_cell_angle_beta   90.00000000
_cell_angle_gamma   90.00000000
_symmetry_Int_Tables_number   1
_chemical_formula_structural   Ho2SiSeO4
_chemical_formula_sum   'Ho8 Si4 Se4 O16'
_cell_volume   454.47431515
_cell_formula_units_Z   4
loop_
 _symmetry_equiv_pos_site_id
 _symmetry_equiv_pos_as_xyz
  1  'x, y, z'
loop_
 _atom_site_type_symbol
 _atom_site_label
 _atom_site_symmetry_multiplicity
 _atom_site_fract_x
 _atom_site_fract_y
 _atom_site_fract_z
 _atom_site_occupancy
  O  O0  1  0.27840013  0.43222457  0.03143599  1
  O  O1  1  0.27840013  0.06777543  0.96856401  1
  O  O2  1  0.72159987  0.93222457  0.46856401  1
  O  O3  1  0.72159987  0.56777543  0.53143599  1
  O  O4  1  0.72159987  0.56777543  0.96856401  1
  O  O5  1  0.72159987  0.93222457  0.03143599  1
  O  O6  1  0.27840013  0.06777543  0.53143599  1
  O  O7  1  0.27840013  0.43222457  0.46856401  1
  O  O8  1  0.05245411  0.74058786  0.12101291  1
  O  O9  1  0.05245411  0.74058786  0.37898709  1
  O  O10  1  0.94754589  0.24058786  0.37898709  1
  O  O11  1  0.94754589  0.25941214  0.62101291  1
  O  O12  1  0.94754589  0.25941214  0.87898709  1
  O  O13  1  0.94754589  0.24058786  0.12101291  1
  O  O14  1  0.05245411  0.75941214  0.62101291  1
  O  O15  1  0.05245411  0.75941214  0.87898709  1
  Si  Si16  1  0.11465809  0.25000000  0.50000000  1
  Si  Si17  1  0.88534191  0.75000000  0.50000000  1
  Si  Si18  1  0.88534191  0.75000000  0.00000000  1
  Si  Si19  1  0.11465809  0.25000000  0.00000000  1
  Se  Se20  1  0.57099994  0.86809128  0.75000000  1
  Se  Se21  1  0.57099994  0.63190872  0.25000000  1
  Se  Se22  1  0.42900006  0.36809128  0.75000000  1
  Se  Se23  1  0.42900006  0.13190872  0.25000000  1
  Ho  Ho24  1  0.60940208  0.25000000  0.50000000  1
  Ho  Ho25  1  0.60940208  0.25000000  0.00000000  1
  Ho  Ho26  1  0.39059792  0.75000000  0.50000000  1
  Ho  Ho27  1  0.39059792  0.75000000  0.00000000  1
  Ho  Ho28  1  0.86587932  0.52772111  0.75000000  1
  Ho  Ho29  1  0.86587932  0.97227889  0.25000000  1
  Ho  Ho30  1  0.13412068  0.02772111  0.75000000  1
  Ho  Ho31  1  0.13412068  0.47227889  0.25000000  1
