# generated using pymatgen
data_Er3CrS6
_symmetry_space_group_name_H-M   'P 1'
_cell_length_a   3.74337198
_cell_length_b   13.21718107
_cell_length_c   15.85788943
_cell_angle_alpha   90.00000000
_cell_angle_beta   90.00000000
_cell_angle_gamma   90.00000000
_symmetry_Int_Tables_number   1
_chemical_formula_structural   Er3CrS6
_chemical_formula_sum   'Er12 Cr4 S24'
_cell_volume   784.59802451
_cell_formula_units_Z   4
loop_
 _symmetry_equiv_pos_site_id
 _symmetry_equiv_pos_as_xyz
  1  'x, y, z'
loop_
 _atom_site_type_symbol
 _atom_site_label
 _atom_site_symmetry_multiplicity
 _atom_site_fract_x
 _atom_site_fract_y
 _atom_site_fract_z
 _atom_site_occupancy
  S  S0  1  0.00000000  0.18127728  0.98013779  1
  S  S1  1  0.00000000  0.81872272  0.01986221  1
  S  S2  1  0.50000000  0.68127728  0.51986221  1
  S  S3  1  0.50000000  0.31872272  0.48013779  1
  S  S4  1  0.50000000  0.97826838  0.90223219  1
  S  S5  1  0.50000000  0.02173162  0.09776781  1
  S  S6  1  0.00000000  0.47826838  0.59776781  1
  S  S7  1  0.00000000  0.52173162  0.40223219  1
  S  S8  1  0.00000000  0.10396854  0.74673757  1
  S  S9  1  0.00000000  0.89603146  0.25326243  1
  S  S10  1  0.50000000  0.60396854  0.75326243  1
  S  S11  1  0.50000000  0.39603146  0.24673757  1
  S  S12  1  0.00000000  0.81118012  0.78969713  1
  S  S13  1  0.00000000  0.18881988  0.21030287  1
  S  S14  1  0.50000000  0.31118012  0.71030287  1
  S  S15  1  0.50000000  0.68881988  0.28969713  1
  S  S16  1  0.00000000  0.41790075  0.07599831  1
  S  S17  1  0.00000000  0.58209925  0.92400169  1
  S  S18  1  0.50000000  0.91790075  0.42400169  1
  S  S19  1  0.50000000  0.08209925  0.57599831  1
  S  S20  1  0.50000000  0.61984109  0.10926956  1
  S  S21  1  0.50000000  0.38015891  0.89073044  1
  S  S22  1  0.00000000  0.11984109  0.39073044  1
  S  S23  1  0.00000000  0.88015891  0.60926956  1
  Cr  Cr24  1  0.00000000  0.00000000  0.50000000  1
  Cr  Cr25  1  0.50000000  0.50000000  0.00000000  1
  Cr  Cr26  1  0.00000000  0.00000000  0.00000000  1
  Cr  Cr27  1  0.50000000  0.50000000  0.50000000  1
  Er  Er28  1  0.00000000  0.24266942  0.59868988  1
  Er  Er29  1  0.00000000  0.75733058  0.40131012  1
  Er  Er30  1  0.50000000  0.74266942  0.90131012  1
  Er  Er31  1  0.50000000  0.25733058  0.09868988  1
  Er  Er32  1  0.50000000  0.18134641  0.85275984  1
  Er  Er33  1  0.50000000  0.81865359  0.14724016  1
  Er  Er34  1  0.00000000  0.68134641  0.64724016  1
  Er  Er35  1  0.00000000  0.31865359  0.35275984  1
  Er  Er36  1  0.50000000  0.95034653  0.72154033  1
  Er  Er37  1  0.50000000  0.04965347  0.27845967  1
  Er  Er38  1  0.00000000  0.45034653  0.77845967  1
  Er  Er39  1  0.00000000  0.54965347  0.22154033  1
