# generated using pymatgen
data_Lu2Cu(B2O5)2
_symmetry_space_group_name_H-M   'P 1'
_cell_length_a   4.56130211
_cell_length_b   7.20626232
_cell_length_c   9.29799748
_cell_angle_alpha   90.00000000
_cell_angle_beta   89.91702831
_cell_angle_gamma   90.00000000
_symmetry_Int_Tables_number   1
_chemical_formula_structural   Lu2Cu(B2O5)2
_chemical_formula_sum   'Lu4 Cu2 B8 O20'
_cell_volume   305.62429410
_cell_formula_units_Z   2
loop_
 _symmetry_equiv_pos_site_id
 _symmetry_equiv_pos_as_xyz
  1  'x, y, z'
loop_
 _atom_site_type_symbol
 _atom_site_label
 _atom_site_symmetry_multiplicity
 _atom_site_fract_x
 _atom_site_fract_y
 _atom_site_fract_z
 _atom_site_occupancy
  B  B0  1  0.46128659  0.22955169  0.42138126  1
  B  B1  1  0.53871341  0.72955169  0.07861874  1
  B  B2  1  0.53871341  0.77044831  0.57861874  1
  B  B3  1  0.46128659  0.27044831  0.92138126  1
  B  B4  1  0.52885663  0.40235579  0.66452993  1
  B  B5  1  0.47114337  0.90235579  0.83547007  1
  B  B6  1  0.52885663  0.09764421  0.16452993  1
  B  B7  1  0.47114337  0.59764421  0.33547007  1
  O  O8  1  0.32197609  0.08981891  0.86112633  1
  O  O9  1  0.67802391  0.58981891  0.63887367  1
  O  O10  1  0.77314833  0.89125263  0.53981406  1
  O  O11  1  0.22685167  0.39125263  0.96018594  1
  O  O12  1  0.22685167  0.10874737  0.46018594  1
  O  O13  1  0.77314833  0.60874737  0.03981406  1
  O  O14  1  0.21248669  0.08961543  0.16861009  1
  O  O15  1  0.78751331  0.58961543  0.33138991  1
  O  O16  1  0.78751331  0.91038457  0.83138991  1
  O  O17  1  0.21248669  0.41038457  0.66861009  1
  O  O18  1  0.66121843  0.16185925  0.30360481  1
  O  O19  1  0.33878157  0.66185925  0.19639519  1
  O  O20  1  0.33878157  0.83814075  0.69639519  1
  O  O21  1  0.66121843  0.33814075  0.80360481  1
  O  O22  1  0.64277171  0.22422890  0.05069111  1
  O  O23  1  0.35722829  0.72422890  0.44930889  1
  O  O24  1  0.35722829  0.77577110  0.94930889  1
  O  O25  1  0.64277171  0.27577110  0.55069111  1
  O  O26  1  0.67802391  0.91018109  0.13887367  1
  O  O27  1  0.32197609  0.41018109  0.36112633  1
  Cu  Cu28  1  0.00000000  0.00000000  0.00000000  1
  Cu  Cu29  1  0.00000000  0.50000000  0.50000000  1
  Lu  Lu30  1  0.00186720  0.60205989  0.83599502  1
  Lu  Lu31  1  0.99813280  0.10205989  0.66400498  1
  Lu  Lu32  1  0.00186720  0.89794011  0.33599502  1
  Lu  Lu33  1  0.99813280  0.39794011  0.16400498  1
