# generated using pymatgen
data_Nb5Ga4
_symmetry_space_group_name_H-M   'P 1'
_cell_length_a   5.48212105
_cell_length_b   8.01298109
_cell_length_c   8.01313127
_cell_angle_alpha   119.99938210
_cell_angle_beta   90.00000000
_cell_angle_gamma   90.00000000
_symmetry_Int_Tables_number   1
_chemical_formula_structural   Nb5Ga4
_chemical_formula_sum   'Nb10 Ga8'
_cell_volume   304.84447757
_cell_formula_units_Z   2
loop_
 _symmetry_equiv_pos_site_id
 _symmetry_equiv_pos_as_xyz
  1  'x, y, z'
loop_
 _atom_site_type_symbol
 _atom_site_label
 _atom_site_symmetry_multiplicity
 _atom_site_fract_x
 _atom_site_fract_y
 _atom_site_fract_z
 _atom_site_occupancy
  Nb  Nb0  1  0.50000101  0.33332227  0.66665931  1
  Nb  Nb1  1  0.50000101  0.66666296  0.33334069  1
  Nb  Nb2  1  0.00000101  0.66667773  0.33334069  1
  Nb  Nb3  1  0.00000101  0.33333704  0.66665931  1
  Nb  Nb4  1  0.74999609  0.28193081  1.00000000  1
  Nb  Nb5  1  0.75000124  0.71808034  0.71807641  1
  Nb  Nb6  1  0.75000124  0.00000394  0.28192359  1
  Nb  Nb7  1  0.24999609  0.71806919  0.00000000  1
  Nb  Nb8  1  0.25000124  0.28191966  0.28192359  1
  Nb  Nb9  1  0.25000124  -0.00000394  0.71807641  1
  Ga  Ga10  1  0.49999991  0.99999960  0.00000000  1
  Ga  Ga11  1  -0.00000009  0.00000040  -0.00000000  1
  Ga  Ga12  1  0.74999300  0.61815273  1.00000000  1
  Ga  Ga13  1  0.75000325  0.38187045  0.38189271  1
  Ga  Ga14  1  0.75000325  0.99997774  0.61810729  1
  Ga  Ga15  1  0.24999300  0.38184727  0.00000000  1
  Ga  Ga16  1  0.25000325  0.61812955  0.61810729  1
  Ga  Ga17  1  0.25000325  0.00002226  0.38189271  1
