# generated using pymatgen
data_K2OsNCl5
_symmetry_space_group_name_H-M   'P 1'
_cell_length_a   8.07186318
_cell_length_b   9.60872418
_cell_length_c   9.60872452
_cell_angle_alpha   119.32923237
_cell_angle_beta   90.00000000
_cell_angle_gamma   90.00000000
_symmetry_Int_Tables_number   1
_chemical_formula_structural   K2OsNCl5
_chemical_formula_sum   'K4 Os2 N2 Cl10'
_cell_volume   649.72836677
_cell_formula_units_Z   2
loop_
 _symmetry_equiv_pos_site_id
 _symmetry_equiv_pos_as_xyz
  1  'x, y, z'
loop_
 _atom_site_type_symbol
 _atom_site_label
 _atom_site_symmetry_multiplicity
 _atom_site_fract_x
 _atom_site_fract_y
 _atom_site_fract_z
 _atom_site_occupancy
  K  K0  1  0.89564240  0.67305038  0.32694962  1
  K  K1  1  0.55527934  0.06595241  0.93404759  1
  K  K2  1  0.39564240  0.32694962  0.67305038  1
  K  K3  1  0.05527934  0.93404759  0.06595241  1
  Os  Os4  1  0.51347388  0.82585808  0.17414192  1
  Os  Os5  1  0.01347388  0.17414192  0.82585808  1
  N  N6  1  0.19912692  0.12993422  0.87006578  1
  N  N7  1  0.69912692  0.87006578  0.12993422  1
  Cl  Cl8  1  0.71748004  0.22904868  0.77095132  1
  Cl  Cl9  1  0.40461739  0.09179240  0.25857220  1
  Cl  Cl10  1  0.56188182  0.89455381  0.44086403  1
  Cl  Cl11  1  0.06188182  0.44086403  0.89455381  1
  Cl  Cl12  1  0.40461739  0.74142780  0.90820760  1
  Cl  Cl13  1  0.21748004  0.77095132  0.22904868  1
  Cl  Cl14  1  0.56188182  0.55913597  0.10544619  1
  Cl  Cl15  1  0.90461739  0.90820760  0.74142780  1
  Cl  Cl16  1  0.06188182  0.10544619  0.55913597  1
  Cl  Cl17  1  0.90461739  0.25857220  0.09179240  1
