# generated using pymatgen
data_Na4Ni7(PO4)6
_symmetry_space_group_name_H-M   'P 1'
_cell_length_a   6.49689028
_cell_length_b   8.86839751
_cell_length_c   8.86839751
_cell_angle_alpha   105.65197911
_cell_angle_beta   98.89284272
_cell_angle_gamma   98.89284268
_symmetry_Int_Tables_number   1
_chemical_formula_structural   Na4Ni7(PO4)6
_chemical_formula_sum   'Na4 Ni7 P6 O24'
_cell_volume   475.64812441
_cell_formula_units_Z   1
loop_
 _symmetry_equiv_pos_site_id
 _symmetry_equiv_pos_as_xyz
  1  'x, y, z'
loop_
 _atom_site_type_symbol
 _atom_site_label
 _atom_site_symmetry_multiplicity
 _atom_site_fract_x
 _atom_site_fract_y
 _atom_site_fract_z
 _atom_site_occupancy
  O  O0  1  0.20301554  0.44379091  0.44379091  1
  O  O1  1  0.80284651  0.54713822  0.54713822  1
  O  O2  1  0.14592949  0.19940744  0.19940744  1
  O  O3  1  0.84977096  0.79553406  0.79553406  1
  O  O4  1  0.10776991  0.59989411  0.77617909  1
  O  O5  1  0.10776991  0.77617909  0.59989411  1
  O  O6  1  0.89304095  0.21886015  0.39833535  1
  O  O7  1  0.89304095  0.39833535  0.21886015  1
  O  O8  1  0.51011254  0.33969879  0.00053057  1
  O  O9  1  0.51011254  0.00053057  0.33969879  1
  O  O10  1  0.49111631  0.99923946  0.66155407  1
  O  O11  1  0.49111631  0.66155407  0.99923946  1
  O  O12  1  0.14353360  0.39616824  0.98223173  1
  O  O13  1  0.14353360  0.98223173  0.39616824  1
  O  O14  1  0.86168978  0.01386511  0.60748027  1
  O  O15  1  0.86168978  0.60748027  0.01386511  1
  O  O16  1  0.21269400  0.10250060  0.88803698  1
  O  O17  1  0.74899679  0.71561579  0.27518010  1
  O  O18  1  0.74899679  0.27518010  0.71561579  1
  O  O19  1  0.25160866  0.71824879  0.27976033  1
  O  O20  1  0.25160866  0.27976033  0.71824879  1
  O  O21  1  0.79018640  0.90048262  0.11323446  1
  O  O22  1  0.79018640  0.11323446  0.90048262  1
  O  O23  1  0.21269400  0.88803698  0.10250060  1
  Na  Na24  1  0.52202291  0.07042173  0.07042173  1
  Na  Na25  1  0.46324871  0.72286068  0.72286068  1
  Na  Na26  1  0.46083808  0.51254097  0.26322344  1
  Na  Na27  1  0.46083808  0.26322344  0.51254097  1
  P  P28  1  0.03563306  0.30845504  0.30845504  1
  P  P29  1  0.95778535  0.68566249  0.68566249  1
  P  P30  1  0.71992322  0.09393362  0.71706201  1
  P  P31  1  0.71992322  0.71706201  0.09393362  1
  P  P32  1  0.28287462  0.28449634  0.90032073  1
  P  P33  1  0.28287462  0.90032073  0.28449634  1
  Ni  Ni34  1  0.18203317  0.01655587  0.64186489  1
  Ni  Ni35  1  0.18203317  0.64186489  0.01655587  1
  Ni  Ni36  1  0.81785492  0.36305030  0.97606073  1
  Ni  Ni37  1  0.81785492  0.97606073  0.36305030  1
  Ni  Ni38  1  0.99868915  0.37289558  0.62474403  1
  Ni  Ni39  1  0.99868915  0.62474403  0.37289558  1
  Ni  Ni40  1  0.00042327  0.99918431  0.99918431  1
