# generated using pymatgen
data_Zr2P2WO12
_symmetry_space_group_name_H-M   'P 1'
_cell_length_a   9.35235778
_cell_length_b   9.52099649
_cell_length_c   12.57991468
_cell_angle_alpha   90.00000000
_cell_angle_beta   90.00000000
_cell_angle_gamma   90.00000000
_symmetry_Int_Tables_number   1
_chemical_formula_structural   Zr2P2WO12
_chemical_formula_sum   'Zr8 P8 W4 O48'
_cell_volume   1120.16297399
_cell_formula_units_Z   4
loop_
 _symmetry_equiv_pos_site_id
 _symmetry_equiv_pos_as_xyz
  1  'x, y, z'
loop_
 _atom_site_type_symbol
 _atom_site_label
 _atom_site_symmetry_multiplicity
 _atom_site_fract_x
 _atom_site_fract_y
 _atom_site_fract_z
 _atom_site_occupancy
  O  O0  1  0.64192356  0.23994395  0.17271750  1
  O  O1  1  0.64192356  0.26005582  0.82728210  1
  O  O2  1  0.85807661  0.73994371  0.32728230  1
  O  O3  1  0.85807661  0.76005559  0.67271809  1
  O  O4  1  0.35807727  0.76005559  0.82728210  1
  O  O5  1  0.35807727  0.73994371  0.17271750  1
  O  O6  1  0.14192314  0.26005582  0.67271809  1
  O  O7  1  0.14192314  0.23994395  0.32728230  1
  O  O8  1  0.92556559  0.15760457  0.09348641  1
  O  O9  1  0.92556559  0.34239520  0.90651398  1
  O  O10  1  0.57443458  0.65760434  0.40651418  1
  O  O11  1  0.57443458  0.84239602  0.59348621  1
  O  O12  1  0.07443524  0.84239602  0.90651398  1
  O  O13  1  0.07443524  0.65760434  0.09348641  1
  O  O14  1  0.42556518  0.34239520  0.59348621  1
  O  O15  1  0.42556518  0.15760457  0.40651418  1
  O  O16  1  0.20206950  0.00817382  0.72029512  1
  O  O17  1  0.79793026  0.50817359  0.72029512  1
  O  O18  1  0.70206991  0.49182595  0.22029533  1
  O  O19  1  0.70206991  0.00817382  0.77970427  1
  O  O20  1  0.34874283  0.87166126  0.42797845  1
  O  O21  1  0.34874283  0.62833909  0.57202114  1
  O  O22  1  0.15125651  0.37166044  0.07202134  1
  O  O23  1  0.15125651  0.12833933  0.92797825  1
  O  O24  1  0.65125692  0.12833933  0.57202114  1
  O  O25  1  0.65125692  0.37166044  0.42797845  1
  O  O26  1  0.84874325  0.62833909  0.92797825  1
  O  O27  1  0.84874325  0.87166126  0.07202134  1
  O  O28  1  0.04236941  0.93073579  0.34837175  1
  O  O29  1  0.04236941  0.56926351  0.65162785  1
  O  O30  1  0.45763100  0.43073602  0.15162805  1
  O  O31  1  0.45763100  0.06926374  0.84837234  1
  O  O32  1  0.95763034  0.06926374  0.65162785  1
  O  O33  1  0.95763034  0.43073602  0.34837175  1
  O  O34  1  0.54236983  0.56926351  0.84837234  1
  O  O35  1  0.54236983  0.93073579  0.15162805  1
  O  O36  1  0.17145766  0.07808190  0.52891540  1
  O  O37  1  0.17145766  0.42191787  0.47108499  1
  O  O38  1  0.32854276  0.57808167  0.97108479  1
  O  O39  1  0.32854276  0.92191869  0.02891481  1
  O  O40  1  0.82854317  0.92191869  0.47108499  1
  O  O41  1  0.82854317  0.57808167  0.52891540  1
  O  O42  1  0.67145700  0.42191787  0.02891481  1
  O  O43  1  0.67145700  0.07808190  0.97108479  1
  O  O44  1  0.29793091  0.99182571  0.22029533  1
  O  O45  1  0.29793091  0.50817359  0.77970427  1
  O  O46  1  0.20206950  0.49182595  0.27970447  1
  O  O47  1  0.79793026  0.99182571  0.27970447  1
  P  P48  1  0.88139854  0.60373584  0.64285500  1
  P  P49  1  0.88139854  0.89626346  0.35714459  1
  P  P50  1  0.61860162  0.10373608  0.85714439  1
  P  P51  1  0.61860162  0.39626369  0.14285521  1
  P  P52  1  0.11860121  0.39626369  0.35714459  1
  P  P53  1  0.11860121  0.10373608  0.64285500  1
  P  P54  1  0.38139920  0.89626346  0.14285521  1
  P  P55  1  0.38139920  0.60373584  0.85714439  1
  Zr  Zr56  1  0.22490698  0.45299335  0.63020639  1
  Zr  Zr57  1  0.27509237  0.54700618  0.13020659  1
  Zr  Zr58  1  0.77509278  0.95299417  0.63020639  1
  Zr  Zr59  1  0.27509237  0.95299417  0.86979300  1
  Zr  Zr60  1  0.72490739  0.04700641  0.13020659  1
  Zr  Zr61  1  0.72490739  0.45299335  0.86979300  1
  Zr  Zr62  1  0.77509278  0.54700618  0.36979321  1
  Zr  Zr63  1  0.22490698  0.04700641  0.36979321  1
  W  W64  1  0.03845936  0.25000041  0.00000000  1
  W  W65  1  0.96154039  0.75000018  0.00000000  1
  W  W66  1  0.53845978  0.25000041  0.49999980  1
  W  W67  1  0.46153998  0.75000018  0.49999980  1
