# generated using pymatgen
data_Na2CoPO4F
_symmetry_space_group_name_H-M   'P 1'
_cell_length_a   5.29693160
_cell_length_b   11.79895107
_cell_length_c   13.93875968
_cell_angle_alpha   90.00000000
_cell_angle_beta   90.00000000
_cell_angle_gamma   90.00000000
_symmetry_Int_Tables_number   1
_chemical_formula_structural   Na2CoPO4F
_chemical_formula_sum   'Na16 Co8 P8 O32 F8'
_cell_volume   871.14790275
_cell_formula_units_Z   8
loop_
 _symmetry_equiv_pos_site_id
 _symmetry_equiv_pos_as_xyz
  1  'x, y, z'
loop_
 _atom_site_type_symbol
 _atom_site_label
 _atom_site_symmetry_multiplicity
 _atom_site_fract_x
 _atom_site_fract_y
 _atom_site_fract_z
 _atom_site_occupancy
  O  O0  1  0.76948013  0.95940916  0.39031997  1
  O  O1  1  0.26948013  0.04059084  0.10968003  1
  O  O2  1  0.73051987  0.45940916  0.10968003  1
  O  O3  1  0.23051987  0.54059084  0.39031997  1
  O  O4  1  0.23051987  0.04059084  0.60968003  1
  O  O5  1  0.73051987  0.95940916  0.89031997  1
  O  O6  1  0.26948013  0.54059084  0.89031997  1
  O  O7  1  0.76948013  0.45940916  0.60968003  1
  O  O8  1  0.58563235  0.89438753  0.60388802  1
  O  O9  1  0.08563235  0.10561247  0.89611198  1
  O  O10  1  0.91436765  0.39438753  0.89611198  1
  O  O11  1  0.41436765  0.60561247  0.60388802  1
  O  O12  1  0.41436765  0.10561247  0.39611198  1
  O  O13  1  0.91436765  0.89438753  0.10388802  1
  O  O14  1  0.08563235  0.60561247  0.10388802  1
  O  O15  1  0.58563235  0.39438753  0.39611198  1
  O  O16  1  0.20923471  0.86766923  0.71623097  1
  O  O17  1  0.70923471  0.13233077  0.78376903  1
  O  O18  1  0.29076529  0.36766923  0.78376903  1
  O  O19  1  0.79076529  0.63233077  0.71623097  1
  O  O20  1  0.79076529  0.13233077  0.28376903  1
  O  O21  1  0.29076529  0.86766923  0.21623097  1
  O  O22  1  0.70923471  0.63233077  0.21623097  1
  O  O23  1  0.20923471  0.36766923  0.28376903  1
  O  O24  1  0.15474627  0.84646496  0.53512165  1
  O  O25  1  0.65474627  0.15353504  0.96487835  1
  O  O26  1  0.34525373  0.34646496  0.96487835  1
  O  O27  1  0.84525373  0.65353504  0.53512165  1
  O  O28  1  0.84525373  0.15353504  0.46487835  1
  O  O29  1  0.34525373  0.84646496  0.03512165  1
  O  O30  1  0.65474627  0.65353504  0.03512165  1
  O  O31  1  0.15474627  0.34646496  0.46487835  1
  F  F32  1  0.50000000  0.25000000  0.12668631  1
  F  F33  1  0.00000000  0.75000000  0.37331369  1
  F  F34  1  0.50000000  0.75000000  0.87331369  1
  F  F35  1  0.00000000  0.25000000  0.62668631  1
  F  F36  1  0.00000000  0.25000000  0.09472356  1
  F  F37  1  0.50000000  0.75000000  0.40527644  1
  F  F38  1  0.00000000  0.75000000  0.90527644  1
  F  F39  1  0.50000000  0.25000000  0.59472356  1
  Na  Na40  1  0.73646833  0.82870537  0.25427584  1
  Na  Na41  1  0.23646833  0.17129463  0.24572416  1
  Na  Na42  1  0.76353167  0.32870537  0.24572416  1
  Na  Na43  1  0.26353167  0.67129463  0.25427584  1
  Na  Na44  1  0.26353167  0.17129463  0.74572416  1
  Na  Na45  1  0.76353167  0.82870537  0.75427584  1
  Na  Na46  1  0.23646833  0.67129463  0.75427584  1
  Na  Na47  1  0.73646833  0.32870537  0.74572416  1
  Na  Na48  1  0.75745615  0.08352777  0.62399694  1
  Na  Na49  1  0.25745615  0.91647223  0.87600306  1
  Na  Na50  1  0.74254385  0.58352777  0.87600306  1
  Na  Na51  1  0.24254385  0.41647223  0.62399694  1
  Na  Na52  1  0.24254385  0.91647223  0.37600306  1
  Na  Na53  1  0.74254385  0.08352777  0.12399694  1
  Na  Na54  1  0.25745615  0.41647223  0.12399694  1
  Na  Na55  1  0.75745615  0.58352777  0.37600306  1
  P  P56  1  0.29335874  0.91194724  0.61770301  1
  P  P57  1  0.79335874  0.08805276  0.88229699  1
  P  P58  1  0.20664126  0.41194724  0.88229699  1
  P  P59  1  0.70664126  0.58805276  0.61770301  1
  P  P60  1  0.70664126  0.08805276  0.38229699  1
  P  P61  1  0.20664126  0.91194724  0.11770301  1
  P  P62  1  0.79335874  0.58805276  0.11770301  1
  P  P63  1  0.29335874  0.41194724  0.38229699  1
  Co  Co64  1  0.78004345  0.82657901  0.48880678  1
  Co  Co65  1  0.28004345  0.17342099  0.01119322  1
  Co  Co66  1  0.71995655  0.32657901  0.01119322  1
  Co  Co67  1  0.21995655  0.67342099  0.48880678  1
  Co  Co68  1  0.21995655  0.17342099  0.51119322  1
  Co  Co69  1  0.71995655  0.82657901  0.98880678  1
  Co  Co70  1  0.28004345  0.67342099  0.98880678  1
  Co  Co71  1  0.78004345  0.32657901  0.51119322  1
