# generated using pymatgen
data_Sr3NiIrO6
_symmetry_space_group_name_H-M   'P 1'
_cell_length_a   6.73850130
_cell_length_b   6.73850130
_cell_length_c   6.73850130
_cell_angle_alpha   91.72416344
_cell_angle_beta   91.72416343
_cell_angle_gamma   91.72416346
_symmetry_Int_Tables_number   1
_chemical_formula_structural   Sr3NiIrO6
_chemical_formula_sum   'Sr6 Ni2 Ir2 O12'
_cell_volume   305.55370344
_cell_formula_units_Z   2
loop_
 _symmetry_equiv_pos_site_id
 _symmetry_equiv_pos_as_xyz
  1  'x, y, z'
loop_
 _atom_site_type_symbol
 _atom_site_label
 _atom_site_symmetry_multiplicity
 _atom_site_fract_x
 _atom_site_fract_y
 _atom_site_fract_z
 _atom_site_occupancy
  O  O0  1  0.78769384  0.59114414  0.46424147  1
  O  O1  1  0.59114324  0.46424049  0.78769363  1
  O  O2  1  0.46424102  0.78769274  0.59114405  1
  O  O3  1  0.03575853  0.90885722  0.71230607  1
  O  O4  1  0.90885694  0.71230713  0.03575812  1
  O  O5  1  0.71230742  0.03575926  0.90885718  1
  O  O6  1  0.21230688  0.40885657  0.53575893  1
  O  O7  1  0.40885595  0.53575872  0.21230665  1
  O  O8  1  0.53575816  0.21230648  0.40885624  1
  O  O9  1  0.96424070  0.09114348  0.28769278  1
  O  O10  1  0.28769331  0.96424144  0.09114321  1
  O  O11  1  0.09114378  0.28769357  0.96424078  1
  Ni  Ni12  1  0.75000052  0.74999978  0.74999989  1
  Ni  Ni13  1  0.25000015  0.24999943  0.25000044  1
  Sr  Sr14  1  0.74999937  0.38637442  0.11362562  1
  Sr  Sr15  1  0.61362543  0.88637359  0.25000047  1
  Sr  Sr16  1  0.11362627  0.75000008  0.38637385  1
  Sr  Sr17  1  0.24999987  0.61362628  0.88637323  1
  Sr  Sr18  1  0.88637446  0.25000062  0.61362654  1
  Sr  Sr19  1  0.38637376  0.11362563  0.74999982  1
  Ir  Ir20  1  0.50000036  0.50000035  0.49999945  1
  Ir  Ir21  1  0.00000000  0.00000000  0.00000000  1
