# generated using pymatgen
data_Sc2(WO4)3
_symmetry_space_group_name_H-M   'P 1'
_cell_length_a   9.77388622
_cell_length_b   9.86646490
_cell_length_c   13.67643096
_cell_angle_alpha   90.00000000
_cell_angle_beta   90.00000000
_cell_angle_gamma   90.00000000
_symmetry_Int_Tables_number   1
_chemical_formula_structural   Sc2(WO4)3
_chemical_formula_sum   'Sc8 W12 O48'
_cell_volume   1318.86891311
_cell_formula_units_Z   4
loop_
 _symmetry_equiv_pos_site_id
 _symmetry_equiv_pos_as_xyz
  1  'x, y, z'
loop_
 _atom_site_type_symbol
 _atom_site_label
 _atom_site_symmetry_multiplicity
 _atom_site_fract_x
 _atom_site_fract_y
 _atom_site_fract_z
 _atom_site_occupancy
  O  O0  1  0.85893412  0.29346537  0.16310621  1
  O  O1  1  0.85893412  0.20653463  0.83689379  1
  O  O2  1  0.64106588  0.79346537  0.33689379  1
  O  O3  1  0.64106588  0.70653463  0.66310621  1
  O  O4  1  0.14106588  0.70653463  0.83689379  1
  O  O5  1  0.14106588  0.79346537  0.16310621  1
  O  O6  1  0.35893412  0.20653463  0.66310621  1
  O  O7  1  0.35893412  0.29346537  0.33689379  1
  O  O8  1  0.81781064  0.06481055  0.02846262  1
  O  O9  1  0.81781064  0.43518945  0.97153738  1
  O  O10  1  0.68218936  0.56481055  0.47153738  1
  O  O11  1  0.68218936  0.93518945  0.52846262  1
  O  O12  1  0.18218936  0.93518945  0.97153738  1
  O  O13  1  0.18218936  0.56481055  0.02846262  1
  O  O14  1  0.31781064  0.43518945  0.52846262  1
  O  O15  1  0.31781064  0.06481055  0.47153738  1
  O  O16  1  0.41861358  0.66170492  0.91301468  1
  O  O17  1  0.58138642  0.33829508  0.08698532  1
  O  O18  1  0.91861358  0.83829508  0.41301468  1
  O  O19  1  0.91861358  0.66170492  0.58698532  1
  O  O20  1  0.07543090  0.08728023  0.14008113  1
  O  O21  1  0.07543090  0.41271977  0.85991887  1
  O  O22  1  0.42456910  0.58728023  0.35991887  1
  O  O23  1  0.42456910  0.91271977  0.64008113  1
  O  O24  1  0.92456910  0.91271977  0.85991887  1
  O  O25  1  0.92456910  0.58728023  0.14008113  1
  O  O26  1  0.57543090  0.41271977  0.64008113  1
  O  O27  1  0.57543090  0.08728023  0.35991887  1
  O  O28  1  0.36701272  0.13049096  0.06533840  1
  O  O29  1  0.36701272  0.36950904  0.93466160  1
  O  O30  1  0.13298728  0.63049096  0.43466160  1
  O  O31  1  0.13298728  0.86950904  0.56533840  1
  O  O32  1  0.63298728  0.86950904  0.93466160  1
  O  O33  1  0.63298728  0.63049096  0.06533840  1
  O  O34  1  0.86701272  0.36950904  0.56533840  1
  O  O35  1  0.86701272  0.13049096  0.43466160  1
  O  O36  1  0.31698077  0.01420240  0.25879234  1
  O  O37  1  0.31698077  0.48579760  0.74120766  1
  O  O38  1  0.18301923  0.51420240  0.24120766  1
  O  O39  1  0.18301923  0.98579760  0.75879234  1
  O  O40  1  0.68301923  0.98579760  0.74120766  1
  O  O41  1  0.68301923  0.51420240  0.25879234  1
  O  O42  1  0.81698077  0.48579760  0.75879234  1
  O  O43  1  0.81698077  0.01420240  0.24120766  1
  O  O44  1  0.08138642  0.33829508  0.41301468  1
  O  O45  1  0.08138642  0.16170492  0.58698532  1
  O  O46  1  0.41861358  0.83829508  0.08698532  1
  O  O47  1  0.58138642  0.16170492  0.91301468  1
  Sc  Sc48  1  0.24956924  0.46762346  0.38209826  1
  Sc  Sc49  1  0.24956924  0.03237654  0.61790174  1
  Sc  Sc50  1  0.25043076  0.96762346  0.11790174  1
  Sc  Sc51  1  0.25043076  0.53237654  0.88209826  1
  Sc  Sc52  1  0.75043076  0.53237654  0.61790174  1
  Sc  Sc53  1  0.75043076  0.96762346  0.38209826  1
  Sc  Sc54  1  0.74956924  0.03237654  0.88209826  1
  Sc  Sc55  1  0.74956924  0.46762346  0.11790174  1
  W  W56  1  0.97364399  0.25000000  0.50000000  1
  W  W57  1  0.52635601  0.75000000  0.00000000  1
  W  W58  1  0.02635601  0.75000000  0.50000000  1
  W  W59  1  0.47364399  0.25000000  0.00000000  1
  W  W60  1  0.39219265  0.11463533  0.35605335  1
  W  W61  1  0.39219265  0.38536467  0.64394665  1
  W  W62  1  0.10780735  0.61463533  0.14394665  1
  W  W63  1  0.10780735  0.88536467  0.85605335  1
  W  W64  1  0.60780735  0.88536467  0.64394665  1
  W  W65  1  0.60780735  0.61463533  0.35605335  1
  W  W66  1  0.89219265  0.38536467  0.85605335  1
  W  W67  1  0.89219265  0.11463533  0.14394665  1
