# generated using pymatgen
data_MnO2
_symmetry_space_group_name_H-M   'P 1'
_cell_length_a   2.93247079
_cell_length_b   4.64635562
_cell_length_c   9.39561218
_cell_angle_alpha   90.00000000
_cell_angle_beta   90.00000000
_cell_angle_gamma   90.00000000
_symmetry_Int_Tables_number   1
_chemical_formula_structural   MnO2
_chemical_formula_sum   'Mn4 O8'
_cell_volume   128.01805470
_cell_formula_units_Z   4
loop_
 _symmetry_equiv_pos_site_id
 _symmetry_equiv_pos_as_xyz
  1  'x, y, z'
loop_
 _atom_site_type_symbol
 _atom_site_label
 _atom_site_symmetry_multiplicity
 _atom_site_fract_x
 _atom_site_fract_y
 _atom_site_fract_z
 _atom_site_occupancy
  O  O0  1  0.24999975  0.15975835  0.77565284  1
  O  O1  1  0.74999925  0.84024188  0.22434819  1
  O  O2  1  0.74999925  0.65975739  0.72434763  1
  O  O3  1  0.24999975  0.34024284  0.27565232  1
  O  O4  1  0.24999975  0.78601248  0.96880088  1
  O  O5  1  0.74999925  0.21398775  0.03119908  1
  O  O6  1  0.24999975  0.71398894  0.46880144  1
  O  O7  1  0.74999925  0.28601130  0.53119852  1
  Mn  Mn8  1  0.24999975  0.46491239  0.63513324  1
  Mn  Mn9  1  0.74999925  0.53508784  0.36486672  1
  Mn  Mn10  1  0.74999925  0.96491358  0.86486723  1
  Mn  Mn11  1  0.24999975  0.03508665  0.13513272  1
