# generated using pymatgen
data_Eu(Ni5P3)2
_symmetry_space_group_name_H-M   'P 1'
_cell_length_a   6.38944288
_cell_length_b   8.66426107
_cell_length_c   8.73656839
_cell_angle_alpha   90.00000000
_cell_angle_beta   90.00000000
_cell_angle_gamma   111.63694770
_symmetry_Int_Tables_number   1
_chemical_formula_structural   Eu(Ni5P3)2
_chemical_formula_sum   'Eu2 Ni20 P12'
_cell_volume   449.57584984
_cell_formula_units_Z   2
loop_
 _symmetry_equiv_pos_site_id
 _symmetry_equiv_pos_as_xyz
  1  'x, y, z'
loop_
 _atom_site_type_symbol
 _atom_site_label
 _atom_site_symmetry_multiplicity
 _atom_site_fract_x
 _atom_site_fract_y
 _atom_site_fract_z
 _atom_site_occupancy
  P  P0  1  0.35478553  0.20957107  0.75000000  1
  P  P1  1  0.14521447  0.79042893  0.25000000  1
  P  P2  1  0.59054877  0.18109754  0.37128404  1
  P  P3  1  0.40945123  0.81890246  0.62871596  1
  P  P4  1  0.90945123  0.81890246  0.87128404  1
  P  P5  1  0.09054877  0.18109754  0.12871596  1
  P  P6  1  0.70856380  0.41712759  0.07326154  1
  P  P7  1  0.29143620  0.58287241  0.92673846  1
  P  P8  1  0.79143620  0.58287241  0.57326154  1
  P  P9  1  0.20856380  0.41712759  0.42673846  1
  P  P10  1  0.64521447  0.79042893  0.25000000  1
  P  P11  1  0.85478553  0.20957107  0.75000000  1
  Ni  Ni12  1  0.79284254  0.58568507  0.28938131  1
  Ni  Ni13  1  0.70715746  0.41431493  0.78938131  1
  Ni  Ni14  1  0.58778531  0.67557061  0.75000000  1
  Ni  Ni15  1  0.29284254  0.58568507  0.21061869  1
  Ni  Ni16  1  0.41221469  0.32442939  0.25000000  1
  Ni  Ni17  1  0.08778531  0.67557061  0.75000000  1
  Ni  Ni18  1  0.04341955  0.08683910  0.88101352  1
  Ni  Ni19  1  0.95658045  0.91316090  0.11898648  1
  Ni  Ni20  1  0.45658045  0.91316090  0.38101352  1
  Ni  Ni21  1  0.54341955  0.08683910  0.61898648  1
  Ni  Ni22  1  0.12609984  0.65414146  0.47010534  1
  Ni  Ni23  1  0.47195837  0.34585854  0.52989466  1
  Ni  Ni24  1  0.37390016  0.34585854  0.97010534  1
  Ni  Ni25  1  0.02804163  0.65414146  0.02989466  1
  Ni  Ni26  1  0.87390016  0.34585854  0.52989466  1
  Ni  Ni27  1  0.52804163  0.65414146  0.47010534  1
  Ni  Ni28  1  0.62609984  0.65414146  0.02989466  1
  Ni  Ni29  1  0.97195837  0.34585854  0.97010534  1
  Ni  Ni30  1  0.91221469  0.32442939  0.25000000  1
  Ni  Ni31  1  0.20715746  0.41431493  0.71061869  1
  Eu  Eu32  1  0.00000000  0.00000000  0.50000000  1
  Eu  Eu33  1  0.50000000  0.00000000  0.00000000  1
