# generated using pymatgen
data_PrCr2Si2C
_symmetry_space_group_name_H-M   'P 1'
_cell_length_a   4.00642006
_cell_length_b   4.00642006
_cell_length_c   5.40977328
_cell_angle_alpha   90.00000000
_cell_angle_beta   90.00000000
_cell_angle_gamma   90.00000000
_symmetry_Int_Tables_number   1
_chemical_formula_structural   PrCr2Si2C
_chemical_formula_sum   'Pr1 Cr2 Si2 C1'
_cell_volume   86.83444401
_cell_formula_units_Z   1
loop_
 _symmetry_equiv_pos_site_id
 _symmetry_equiv_pos_as_xyz
  1  'x, y, z'
loop_
 _atom_site_type_symbol
 _atom_site_label
 _atom_site_symmetry_multiplicity
 _atom_site_fract_x
 _atom_site_fract_y
 _atom_site_fract_z
 _atom_site_occupancy
  C  C0  1  0.00000000  0.00000000  0.50000000  1
  Si  Si1  1  0.50000000  0.50000000  0.76571306  1
  Si  Si2  1  0.50000000  0.50000000  0.23428694  1
  Cr  Cr3  1  0.00000000  0.50000000  0.50000000  1
  Cr  Cr4  1  0.50000000  0.00000000  0.50000000  1
  Pr  Pr5  1  0.00000000  0.00000000  0.00000000  1
