# generated using pymatgen
data_Ce(BO2)3
_symmetry_space_group_name_H-M   'P 1'
_cell_length_a   6.45891773
_cell_length_b   6.45891774
_cell_length_c   6.53386422
_cell_angle_alpha   62.09207793
_cell_angle_beta   62.09207789
_cell_angle_gamma   78.78598481
_symmetry_Int_Tables_number   1
_chemical_formula_structural   Ce(BO2)3
_chemical_formula_sum   'Ce2 B6 O12'
_cell_volume   212.75739846
_cell_formula_units_Z   2
loop_
 _symmetry_equiv_pos_site_id
 _symmetry_equiv_pos_as_xyz
  1  'x, y, z'
loop_
 _atom_site_type_symbol
 _atom_site_label
 _atom_site_symmetry_multiplicity
 _atom_site_fract_x
 _atom_site_fract_y
 _atom_site_fract_z
 _atom_site_occupancy
  B  B0  1  0.22201676  0.77798324  0.75000000  1
  B  B1  1  0.77798324  0.22201676  0.25000000  1
  B  B2  1  0.65846134  0.79509644  0.41802335  1
  B  B3  1  0.20490356  0.34153866  0.08197665  1
  B  B4  1  0.34153866  0.20490356  0.58197665  1
  B  B5  1  0.79509644  0.65846134  0.91802335  1
  O  O6  1  0.21933583  0.99123828  0.78562322  1
  O  O7  1  0.78853792  0.61607577  0.50102075  1
  O  O8  1  0.38392423  0.21146208  0.99897925  1
  O  O9  1  0.21146208  0.38392423  0.49897925  1
  O  O10  1  0.78832408  0.41587571  0.00972886  1
  O  O11  1  0.58412429  0.21167592  0.49027114  1
  O  O12  1  0.21167592  0.58412429  0.99027114  1
  O  O13  1  0.41587571  0.78832408  0.50972886  1
  O  O14  1  0.78066417  0.00876172  0.21437678  1
  O  O15  1  0.99123828  0.21933583  0.28562322  1
  O  O16  1  0.61607577  0.78853792  0.00102075  1
  O  O17  1  0.00876172  0.78066417  0.71437678  1
  Ce  Ce18  1  0.20220207  0.79779793  0.25000000  1
  Ce  Ce19  1  0.79779793  0.20220207  0.75000000  1
