# generated using pymatgen
data_Na2GaCuF7
_symmetry_space_group_name_H-M   'P 1'
_cell_length_a   7.29760128
_cell_length_b   7.29760109
_cell_length_c   12.92090435
_cell_angle_alpha   91.21017807
_cell_angle_beta   105.72586621
_cell_angle_gamma   118.86315717
_symmetry_Int_Tables_number   1
_chemical_formula_structural   Na2GaCuF7
_chemical_formula_sum   'Na8 Ga4 Cu4 F28'
_cell_volume   570.56505871
_cell_formula_units_Z   4
loop_
 _symmetry_equiv_pos_site_id
 _symmetry_equiv_pos_as_xyz
  1  'x, y, z'
loop_
 _atom_site_type_symbol
 _atom_site_label
 _atom_site_symmetry_multiplicity
 _atom_site_fract_x
 _atom_site_fract_y
 _atom_site_fract_z
 _atom_site_occupancy
  Na  Na0  1  0.53844183  0.28076371  0.75252633  1
  Na  Na1  1  0.97176262  0.21408450  0.25252633  1
  Na  Na2  1  0.01933659  0.26933659  0.75000000  1
  Na  Na3  1  0.02823738  0.78591550  0.74747367  1
  Na  Na4  1  -0.00000000  0.50000000  0.50000000  1
  Na  Na5  1  0.46155817  0.71923629  0.24747367  1
  Na  Na6  1  0.98066341  0.73066341  0.25000000  1
  Na  Na7  1  0.50000000  0.50000000  -0.00000000  1
  Ga  Ga8  1  0.50539059  0.25539059  0.25000000  1
  Ga  Ga9  1  0.49460941  0.74460941  0.75000000  1
  Ga  Ga10  1  -0.00000000  0.50000000  -0.00000000  1
  Ga  Ga11  1  -0.00000000  -0.00000000  0.50000000  1
  Cu  Cu12  1  -0.00000000  -0.00000000  -0.00000000  1
  Cu  Cu13  1  0.50000000  -0.00000000  0.50000000  1
  Cu  Cu14  1  0.50000000  0.50000000  0.50000000  1
  Cu  Cu15  1  0.50000000  -0.00000000  -0.00000000  1
  F  F16  1  0.56063597  0.98158467  0.67519891  1
  F  F17  1  0.59932428  0.29908414  0.55073547  1
  F  F18  1  0.83674657  0.91208839  0.34358001  1
  F  F19  1  0.55539071  0.58523473  0.65455198  1
  F  F20  1  0.81559147  0.09953865  0.53479372  1
  F  F21  1  0.40067572  0.70091586  0.44926453  1
  F  F22  1  0.18440853  0.90046135  0.46520628  1
  F  F23  1  0.93525507  0.71920225  0.03479372  1
  F  F24  1  0.93149162  0.50683344  0.84358001  1
  F  F25  1  0.24834867  0.04858881  0.94926453  1
  F  F26  1  0.06850838  0.49316656  0.15641999  1
  F  F27  1  0.43936403  0.01841533  0.32480109  1
  F  F28  1  0.06474493  0.28079775  0.96520628  1
  F  F29  1  0.56931725  0.09916127  0.15455198  1
  F  F30  1  0.15311266  0.27619657  0.46815931  1
  F  F31  1  0.30803726  0.68495334  0.03184069  1
  F  F32  1  0.43068275  0.90083873  0.84544802  1
  F  F33  1  0.57348962  0.49170615  0.17407019  1
  F  F34  1  0.18236404  0.60058058  0.67407019  1
  F  F35  1  0.80638575  0.88543706  0.82480109  1
  F  F36  1  0.84688734  0.72380343  0.53184069  1
  F  F37  1  0.81763596  0.39941942  0.32592981  1
  F  F38  1  0.16325343  0.08791161  0.65641999  1
  F  F39  1  0.69196274  0.31504666  0.96815931  1
  F  F40  1  0.44460929  0.41476527  0.34544802  1
  F  F41  1  0.42651038  0.50829385  0.82592981  1
  F  F42  1  0.75165133  0.95141119  0.05073547  1
  F  F43  1  0.19361425  0.11456294  0.17519891  1
