# generated using pymatgen
data_PbO2
_symmetry_space_group_name_H-M   'P 1'
_cell_length_a   5.10077067
_cell_length_b   5.57847310
_cell_length_c   6.07261617
_cell_angle_alpha   90.00000000
_cell_angle_beta   90.00000000
_cell_angle_gamma   90.00000000
_symmetry_Int_Tables_number   1
_chemical_formula_structural   PbO2
_chemical_formula_sum   'Pb4 O8'
_cell_volume   172.79332951
_cell_formula_units_Z   4
loop_
 _symmetry_equiv_pos_site_id
 _symmetry_equiv_pos_as_xyz
  1  'x, y, z'
loop_
 _atom_site_type_symbol
 _atom_site_label
 _atom_site_symmetry_multiplicity
 _atom_site_fract_x
 _atom_site_fract_y
 _atom_site_fract_z
 _atom_site_occupancy
  O  O0  1  0.26659121  0.42770395  0.90354269  1
  O  O1  1  0.76659121  0.57229605  0.59645731  1
  O  O2  1  0.23340879  0.92770395  0.59645731  1
  O  O3  1  0.73340879  0.07229605  0.90354269  1
  O  O4  1  0.26659121  0.92770395  0.09645731  1
  O  O5  1  0.76659121  0.07229605  0.40354269  1
  O  O6  1  0.23340879  0.42770395  0.40354269  1
  O  O7  1  0.73340879  0.57229605  0.09645731  1
  Pb  Pb8  1  0.50000000  0.75000000  0.82405803  1
  Pb  Pb9  1  0.00000000  0.25000000  0.67594197  1
  Pb  Pb10  1  0.50000000  0.25000000  0.17594197  1
  Pb  Pb11  1  0.00000000  0.75000000  0.32405803  1
