# generated using pymatgen
data_In(MoSe)3
_symmetry_space_group_name_H-M   'P 1'
_cell_length_a   4.51345418
_cell_length_b   9.20312250
_cell_length_c   9.23483706
_cell_angle_alpha   120.04950017
_cell_angle_beta   90.00000000
_cell_angle_gamma   90.00000000
_symmetry_Int_Tables_number   1
_chemical_formula_structural   In(MoSe)3
_chemical_formula_sum   'In2 Mo6 Se6'
_cell_volume   332.03760228
_cell_formula_units_Z   2
loop_
 _symmetry_equiv_pos_site_id
 _symmetry_equiv_pos_as_xyz
  1  'x, y, z'
loop_
 _atom_site_type_symbol
 _atom_site_label
 _atom_site_symmetry_multiplicity
 _atom_site_fract_x
 _atom_site_fract_y
 _atom_site_fract_z
 _atom_site_occupancy
  In  In0  1  0.75000000  0.66697215  0.33433578  1
  In  In1  1  0.25000000  0.33302785  0.66566422  1
  Mo  Mo2  1  0.75000000  0.98435126  0.82581983  1
  Mo  Mo3  1  0.75000000  0.17476744  0.15872836  1
  Mo  Mo4  1  0.75000000  0.84078756  0.01541233  1
  Mo  Mo5  1  0.25000000  0.01564874  0.17418017  1
  Mo  Mo6  1  0.25000000  0.82523256  0.84127164  1
  Mo  Mo7  1  0.25000000  0.15921244  0.98458767  1
  Se  Se8  1  0.75000000  0.65305956  0.68603354  1
  Se  Se9  1  0.75000000  0.31478552  0.96842247  1
  Se  Se10  1  0.75000000  0.03193119  0.34547758  1
  Se  Se11  1  0.25000000  0.34694044  0.31396646  1
  Se  Se12  1  0.25000000  0.68521448  0.03157753  1
  Se  Se13  1  0.25000000  0.96806881  0.65452242  1
