# generated using pymatgen
data_CeBO3
_symmetry_space_group_name_H-M   'P 1'
_cell_length_a   4.13628348
_cell_length_b   5.11314560
_cell_length_c   6.34451656
_cell_angle_alpha   90.00000000
_cell_angle_beta   108.36619170
_cell_angle_gamma   90.00000000
_symmetry_Int_Tables_number   1
_chemical_formula_structural   CeBO3
_chemical_formula_sum   'Ce2 B2 O6'
_cell_volume   127.34785096
_cell_formula_units_Z   2
loop_
 _symmetry_equiv_pos_site_id
 _symmetry_equiv_pos_as_xyz
  1  'x, y, z'
loop_
 _atom_site_type_symbol
 _atom_site_label
 _atom_site_symmetry_multiplicity
 _atom_site_fract_x
 _atom_site_fract_y
 _atom_site_fract_z
 _atom_site_occupancy
  B  B0  1  0.00147691  0.25000000  0.25557247  1
  B  B1  1  0.99852309  0.75000000  0.74442753  1
  O  O2  1  0.66416342  0.75000000  0.60916442  1
  O  O3  1  0.33583658  0.25000000  0.39083558  1
  O  O4  1  0.15697933  0.98362301  0.82718588  1
  O  O5  1  0.84302067  0.48362301  0.17281412  1
  O  O6  1  0.84302067  0.01637699  0.17281412  1
  O  O7  1  0.15697933  0.51637699  0.82718588  1
  Ce  Ce8  1  0.61489469  0.25000000  0.77751841  1
  Ce  Ce9  1  0.38510531  0.75000000  0.22248159  1
