# generated using pymatgen
data_Sm(AlCl4)2
_symmetry_space_group_name_H-M   'P 1'
_cell_length_a   6.94747841
_cell_length_b   7.33279353
_cell_length_c   12.74421354
_cell_angle_alpha   94.13088650
_cell_angle_beta   90.00000000
_cell_angle_gamma   90.00000000
_symmetry_Int_Tables_number   1
_chemical_formula_structural   Sm(AlCl4)2
_chemical_formula_sum   'Sm2 Al4 Cl16'
_cell_volume   647.55994720
_cell_formula_units_Z   2
loop_
 _symmetry_equiv_pos_site_id
 _symmetry_equiv_pos_as_xyz
  1  'x, y, z'
loop_
 _atom_site_type_symbol
 _atom_site_label
 _atom_site_symmetry_multiplicity
 _atom_site_fract_x
 _atom_site_fract_y
 _atom_site_fract_z
 _atom_site_occupancy
  Sm  Sm0  1  0.84176696  0.50000000  0.75000000  1
  Sm  Sm1  1  0.15823304  0.50000000  0.25000000  1
  Al  Al2  1  0.26172360  0.67416428  0.91985286  1
  Al  Al3  1  0.73827640  0.32583572  0.08014714  1
  Al  Al4  1  0.26172360  0.32583572  0.58014714  1
  Al  Al5  1  0.73827640  0.67416428  0.41985286  1
  Cl  Cl6  1  0.30508927  0.73224220  0.08745822  1
  Cl  Cl7  1  0.17259006  0.39448656  0.87981635  1
  Cl  Cl8  1  0.02509670  0.82875726  0.86031027  1
  Cl  Cl9  1  0.82740994  0.39448656  0.37981635  1
  Cl  Cl10  1  0.52859676  0.26105435  0.65898231  1
  Cl  Cl11  1  0.47140324  0.26105435  0.15898231  1
  Cl  Cl12  1  0.69491073  0.73224220  0.58745822  1
  Cl  Cl13  1  0.30508927  0.26775780  0.41254178  1
  Cl  Cl14  1  0.52859676  0.73894565  0.84101769  1
  Cl  Cl15  1  0.47140324  0.73894565  0.34101769  1
  Cl  Cl16  1  0.17259006  0.60551344  0.62018365  1
  Cl  Cl17  1  0.82740994  0.60551344  0.12018365  1
  Cl  Cl18  1  0.69491073  0.26775780  0.91254178  1
  Cl  Cl19  1  0.97490330  0.17124274  0.13968973  1
  Cl  Cl20  1  0.97490330  0.82875726  0.36031027  1
  Cl  Cl21  1  0.02509670  0.17124274  0.63968973  1
