# generated using pymatgen
data_ErZn5
_symmetry_space_group_name_H-M   'P 1'
_cell_length_a   8.87613635
_cell_length_b   8.87613636
_cell_length_c   9.03351887
_cell_angle_alpha   90.00000000
_cell_angle_beta   90.00000000
_cell_angle_gamma   120.00000002
_symmetry_Int_Tables_number   1
_chemical_formula_structural   ErZn5
_chemical_formula_sum   'Er6 Zn30'
_cell_volume   616.36152064
_cell_formula_units_Z   6
loop_
 _symmetry_equiv_pos_site_id
 _symmetry_equiv_pos_as_xyz
  1  'x, y, z'
loop_
 _atom_site_type_symbol
 _atom_site_label
 _atom_site_symmetry_multiplicity
 _atom_site_fract_x
 _atom_site_fract_y
 _atom_site_fract_z
 _atom_site_occupancy
  Zn  Zn0  1  0.00000000  0.00000000  0.00000000  1
  Zn  Zn1  1  0.00000000  0.00000000  0.50000000  1
  Zn  Zn2  1  0.33333333  0.66666667  0.01929532  1
  Zn  Zn3  1  0.66666667  0.33333333  0.51929532  1
  Zn  Zn4  1  0.66666667  0.33333333  0.98070468  1
  Zn  Zn5  1  0.33333333  0.66666667  0.48070468  1
  Zn  Zn6  1  0.50000000  0.00000000  0.00000000  1
  Zn  Zn7  1  0.50000000  0.50000000  0.50000000  1
  Zn  Zn8  1  0.00000000  0.50000000  0.50000000  1
  Zn  Zn9  1  0.00000000  0.50000000  0.00000000  1
  Zn  Zn10  1  0.50000000  0.50000000  0.00000000  1
  Zn  Zn11  1  0.50000000  0.00000000  0.50000000  1
  Zn  Zn12  1  0.56771560  0.13543120  0.25000000  1
  Zn  Zn13  1  0.43228440  0.56771560  0.75000000  1
  Zn  Zn14  1  0.13543120  0.56771560  0.75000000  1
  Zn  Zn15  1  0.86456880  0.43228440  0.25000000  1
  Zn  Zn16  1  0.56771560  0.43228440  0.25000000  1
  Zn  Zn17  1  0.43228440  0.86456880  0.75000000  1
  Zn  Zn18  1  0.83954690  0.67909379  0.09282491  1
  Zn  Zn19  1  0.16045310  0.83954690  0.59282491  1
  Zn  Zn20  1  0.67909379  0.83954690  0.59282491  1
  Zn  Zn21  1  0.32090621  0.16045310  0.09282491  1
  Zn  Zn22  1  0.83954690  0.16045310  0.09282491  1
  Zn  Zn23  1  0.16045310  0.32090621  0.90717509  1
  Zn  Zn24  1  0.16045310  0.83954690  0.90717509  1
  Zn  Zn25  1  0.16045310  0.32090621  0.59282491  1
  Zn  Zn26  1  0.67909379  0.83954690  0.90717509  1
  Zn  Zn27  1  0.32090621  0.16045310  0.40717509  1
  Zn  Zn28  1  0.83954690  0.67909379  0.40717509  1
  Zn  Zn29  1  0.83954690  0.16045310  0.40717509  1
  Er  Er30  1  0.18944785  0.37889570  0.25000000  1
  Er  Er31  1  0.81055215  0.18944785  0.75000000  1
  Er  Er32  1  0.37889570  0.18944785  0.75000000  1
  Er  Er33  1  0.62110430  0.81055215  0.25000000  1
  Er  Er34  1  0.18944785  0.81055215  0.25000000  1
  Er  Er35  1  0.81055215  0.62110430  0.75000000  1
