# generated using pymatgen
data_YbIn4Pt
_symmetry_space_group_name_H-M   'P 1'
_cell_length_a   4.48828052
_cell_length_b   7.68421917
_cell_length_c   8.66579216
_cell_angle_alpha   90.00000000
_cell_angle_beta   105.00868094
_cell_angle_gamma   90.00000000
_symmetry_Int_Tables_number   1
_chemical_formula_structural   YbIn4Pt
_chemical_formula_sum   'Yb2 In8 Pt2'
_cell_volume   288.67830477
_cell_formula_units_Z   2
loop_
 _symmetry_equiv_pos_site_id
 _symmetry_equiv_pos_as_xyz
  1  'x, y, z'
loop_
 _atom_site_type_symbol
 _atom_site_label
 _atom_site_symmetry_multiplicity
 _atom_site_fract_x
 _atom_site_fract_y
 _atom_site_fract_z
 _atom_site_occupancy
  In  In0  1  0.50000000  0.50000000  0.00000000  1
  In  In1  1  0.50000000  0.00000000  0.00000000  1
  In  In2  1  0.93725799  0.75000000  0.87451598  1
  In  In3  1  0.06274201  0.25000000  0.12548402  1
  In  In4  1  0.68185968  0.04764853  0.36371937  1
  In  In5  1  0.31814032  0.95235147  0.63628063  1
  In  In6  1  0.31814032  0.54764853  0.63628063  1
  In  In7  1  0.68185968  0.45235147  0.36371937  1
  Yb  Yb8  1  0.86823410  0.25000000  0.73646821  1
  Yb  Yb9  1  0.13176590  0.75000000  0.26353179  1
  Pt  Pt10  1  0.22738644  0.25000000  0.45477288  1
  Pt  Pt11  1  0.77261356  0.75000000  0.54522712  1
