# generated using pymatgen
data_ThBr4
_symmetry_space_group_name_H-M   'P 1'
_cell_length_a   7.60244469
_cell_length_b   7.60244468
_cell_length_c   7.60244468
_cell_angle_alpha   107.14418959
_cell_angle_beta   107.14418961
_cell_angle_gamma   114.23280507
_symmetry_Int_Tables_number   1
_chemical_formula_structural   ThBr4
_chemical_formula_sum   'Th2 Br8'
_cell_volume   336.48299050
_cell_formula_units_Z   2
loop_
 _symmetry_equiv_pos_site_id
 _symmetry_equiv_pos_as_xyz
  1  'x, y, z'
loop_
 _atom_site_type_symbol
 _atom_site_label
 _atom_site_symmetry_multiplicity
 _atom_site_fract_x
 _atom_site_fract_y
 _atom_site_fract_z
 _atom_site_occupancy
  Br  Br0  1  0.19480243  0.25856271  0.56376028  1
  Br  Br1  1  0.63104215  0.19480243  0.43623972  1
  Br  Br2  1  0.36895785  0.80519757  0.56376028  1
  Br  Br3  1  0.80519757  0.74143729  0.43623972  1
  Br  Br4  1  0.80519757  0.36895785  0.06376028  1
  Br  Br5  1  0.74143729  0.80519757  0.93623972  1
  Br  Br6  1  0.19480243  0.63104215  0.93623972  1
  Br  Br7  1  0.25856271  0.19480243  0.06376028  1
  Th  Th8  1  0.87500000  0.12500000  0.75000000  1
  Th  Th9  1  0.12500000  0.87500000  0.25000000  1
