# generated using pymatgen
data_Dy2Cu(GeO3)4
_symmetry_space_group_name_H-M   'P 1'
_cell_length_a   4.98725950
_cell_length_b   7.28374030
_cell_length_c   8.00866622
_cell_angle_alpha   66.34707876
_cell_angle_beta   87.00959932
_cell_angle_gamma   77.02163453
_symmetry_Int_Tables_number   1
_chemical_formula_structural   Dy2Cu(GeO3)4
_chemical_formula_sum   'Dy2 Cu1 Ge4 O12'
_cell_volume   259.44050732
_cell_formula_units_Z   1
loop_
 _symmetry_equiv_pos_site_id
 _symmetry_equiv_pos_as_xyz
  1  'x, y, z'
loop_
 _atom_site_type_symbol
 _atom_site_label
 _atom_site_symmetry_multiplicity
 _atom_site_fract_x
 _atom_site_fract_y
 _atom_site_fract_z
 _atom_site_occupancy
  O  O0  1  0.77438681  0.93321996  0.61228866  1
  O  O1  1  0.22561319  0.06678004  0.38771134  1
  O  O2  1  0.78847067  0.57548390  0.39107040  1
  O  O3  1  0.21152933  0.42451610  0.60892960  1
  O  O4  1  0.41597047  0.65647877  0.71003501  1
  O  O5  1  0.58402953  0.34352123  0.28996499  1
  O  O6  1  0.73385899  0.69208600  0.98954908  1
  O  O7  1  0.74573913  0.22465618  0.80640058  1
  O  O8  1  0.25426087  0.77534382  0.19359942  1
  O  O9  1  0.75125392  0.99208784  0.20309879  1
  O  O10  1  0.24874608  0.00791216  0.79690121  1
  O  O11  1  0.26614101  0.30791400  0.01045092  1
  Cu  Cu12  1  0.00000000  0.00000000  0.00000000  1
  Ge  Ge13  1  0.54041057  0.83207658  0.77680884  1
  Ge  Ge14  1  0.45958943  0.16792342  0.22319116  1
  Ge  Ge15  1  0.58044844  0.61692377  0.20488768  1
  Ge  Ge16  1  0.41955156  0.38307623  0.79511232  1
  Dy  Dy17  1  0.04516901  0.76956828  0.45186716  1
  Dy  Dy18  1  0.95483099  0.23043172  0.54813284  1
