# generated using pymatgen
data_Dy3(AgSn)4
_symmetry_space_group_name_H-M   'P 1'
_cell_length_a   4.57989502
_cell_length_b   7.40597590
_cell_length_c   8.82226054
_cell_angle_alpha   114.82212661
_cell_angle_beta   105.04423520
_cell_angle_gamma   90.00000001
_symmetry_Int_Tables_number   1
_chemical_formula_structural   Dy3(AgSn)4
_chemical_formula_sum   'Dy3 Ag4 Sn4'
_cell_volume   260.25023953
_cell_formula_units_Z   1
loop_
 _symmetry_equiv_pos_site_id
 _symmetry_equiv_pos_as_xyz
  1  'x, y, z'
loop_
 _atom_site_type_symbol
 _atom_site_label
 _atom_site_symmetry_multiplicity
 _atom_site_fract_x
 _atom_site_fract_y
 _atom_site_fract_z
 _atom_site_occupancy
  Ag  Ag0  1  0.32865918  0.02632037  0.65731836  1
  Ag  Ag1  1  0.67134082  0.97367963  0.34268164  1
  Ag  Ag2  1  0.32873367  0.63121003  0.65746734  1
  Ag  Ag3  1  0.67126633  0.36878997  0.34253266  1
  Sn  Sn4  1  0.21577269  0.21584832  0.43154538  1
  Sn  Sn5  1  0.50002479  0.69629227  0.00004957  1
  Sn  Sn6  1  0.49997521  0.30370773  0.99995043  1
  Sn  Sn7  1  0.78422731  0.78415168  0.56845462  1
  Dy  Dy8  1  0.00000000  0.00000000  0.00000000  1
  Dy  Dy9  1  0.87252782  0.37253660  0.74505565  1
  Dy  Dy10  1  0.12747218  0.62746340  0.25494435  1
