# generated using pymatgen
data_U3S5
_symmetry_space_group_name_H-M   'P 1'
_cell_length_a   7.30757663
_cell_length_b   7.82895628
_cell_length_c   11.56330701
_cell_angle_alpha   90.00000000
_cell_angle_beta   90.00000000
_cell_angle_gamma   90.00000000
_symmetry_Int_Tables_number   1
_chemical_formula_structural   U3S5
_chemical_formula_sum   'U12 S20'
_cell_volume   661.54486464
_cell_formula_units_Z   4
loop_
 _symmetry_equiv_pos_site_id
 _symmetry_equiv_pos_as_xyz
  1  'x, y, z'
loop_
 _atom_site_type_symbol
 _atom_site_label
 _atom_site_symmetry_multiplicity
 _atom_site_fract_x
 _atom_site_fract_y
 _atom_site_fract_z
 _atom_site_occupancy
  S  S0  1  0.17011220  0.75000000  0.68731216  1
  S  S1  1  0.67011220  0.25000000  0.81268784  1
  S  S2  1  0.82988780  0.25000000  0.31268784  1
  S  S3  1  0.32988780  0.75000000  0.18731216  1
  S  S4  1  0.53537878  0.75000000  0.50013443  1
  S  S5  1  0.03537878  0.25000000  0.99986557  1
  S  S6  1  0.46462122  0.25000000  0.49986557  1
  S  S7  1  0.96462122  0.75000000  0.00013443  1
  S  S8  1  0.79703703  0.75000000  0.28154409  1
  S  S9  1  0.29703703  0.25000000  0.21845591  1
  S  S10  1  0.20296297  0.25000000  0.71845591  1
  S  S11  1  0.70296297  0.75000000  0.78154409  1
  S  S12  1  0.16875093  0.54799765  0.40207692  1
  S  S13  1  0.66875093  0.45200235  0.09792308  1
  S  S14  1  0.83124907  0.04799765  0.59792308  1
  S  S15  1  0.33124907  0.95200235  0.90207692  1
  S  S16  1  0.83124907  0.45200235  0.59792308  1
  S  S17  1  0.33124907  0.54799765  0.90207692  1
  S  S18  1  0.16875093  0.95200235  0.40207692  1
  S  S19  1  0.66875093  0.04799765  0.09792308  1
  U  U20  1  0.92083692  0.75000000  0.50710366  1
  U  U21  1  0.42083692  0.25000000  0.99289634  1
  U  U22  1  0.07916308  0.25000000  0.49289634  1
  U  U23  1  0.57916308  0.75000000  0.00710366  1
  U  U24  1  0.47828109  0.99802342  0.67960514  1
  U  U25  1  0.97828109  0.00197658  0.82039486  1
  U  U26  1  0.52171891  0.49802342  0.32039486  1
  U  U27  1  0.02171891  0.50197658  0.17960514  1
  U  U28  1  0.52171891  0.00197658  0.32039486  1
  U  U29  1  0.02171891  0.99802342  0.17960514  1
  U  U30  1  0.47828109  0.50197658  0.67960514  1
  U  U31  1  0.97828109  0.49802342  0.82039486  1
