# generated using pymatgen
data_Sc2PbS4
_symmetry_space_group_name_H-M   'P 1'
_cell_length_a   3.78118426
_cell_length_b   11.77159425
_cell_length_c   13.77146492
_cell_angle_alpha   90.00000000
_cell_angle_beta   90.00000000
_cell_angle_gamma   90.00000000
_symmetry_Int_Tables_number   1
_chemical_formula_structural   Sc2PbS4
_chemical_formula_sum   'Sc8 Pb4 S16'
_cell_volume   612.97571054
_cell_formula_units_Z   4
loop_
 _symmetry_equiv_pos_site_id
 _symmetry_equiv_pos_as_xyz
  1  'x, y, z'
loop_
 _atom_site_type_symbol
 _atom_site_label
 _atom_site_symmetry_multiplicity
 _atom_site_fract_x
 _atom_site_fract_y
 _atom_site_fract_z
 _atom_site_occupancy
  S  S0  1  0.25000000  0.91338876  0.92694702  1
  S  S1  1  0.75000000  0.08661124  0.07305298  1
  S  S2  1  0.25000000  0.41338876  0.57305298  1
  S  S3  1  0.75000000  0.58661124  0.42694702  1
  S  S4  1  0.25000000  0.03083718  0.28437131  1
  S  S5  1  0.75000000  0.96916282  0.71562869  1
  S  S6  1  0.25000000  0.53083718  0.21562869  1
  S  S7  1  0.75000000  0.46916282  0.78437131  1
  S  S8  1  0.25000000  0.62138351  0.97166768  1
  S  S9  1  0.75000000  0.37861649  0.02833232  1
  S  S10  1  0.25000000  0.12138351  0.52833232  1
  S  S11  1  0.75000000  0.87861649  0.47166768  1
  S  S12  1  0.75000000  0.79657619  0.15806233  1
  S  S13  1  0.25000000  0.20342381  0.84193767  1
  S  S14  1  0.75000000  0.29657619  0.34193767  1
  S  S15  1  0.25000000  0.70342381  0.65806233  1
  Sc  Sc16  1  0.75000000  0.55749182  0.61079722  1
  Sc  Sc17  1  0.25000000  0.44250818  0.38920278  1
  Sc  Sc18  1  0.75000000  0.05749182  0.88920278  1
  Sc  Sc19  1  0.25000000  0.94250818  0.11079722  1
  Sc  Sc20  1  0.25000000  0.91816768  0.59697048  1
  Sc  Sc21  1  0.75000000  0.08183232  0.40302952  1
  Sc  Sc22  1  0.25000000  0.41816768  0.90302952  1
  Sc  Sc23  1  0.75000000  0.58183232  0.09697048  1
  Pb  Pb24  1  0.75000000  0.23980295  0.67053205  1
  Pb  Pb25  1  0.25000000  0.76019705  0.32946795  1
  Pb  Pb26  1  0.75000000  0.73980295  0.82946795  1
  Pb  Pb27  1  0.25000000  0.26019705  0.17053205  1
