# generated using pymatgen
data_WCl3
_symmetry_space_group_name_H-M   'P 1'
_cell_length_a   9.63583774
_cell_length_b   9.63583774
_cell_length_c   9.63583774
_cell_angle_alpha   110.51912526
_cell_angle_beta   110.51912529
_cell_angle_gamma   110.51912525
_symmetry_Int_Tables_number   1
_chemical_formula_structural   WCl3
_chemical_formula_sum   'W6 Cl18'
_cell_volume   660.65689586
_cell_formula_units_Z   6
loop_
 _symmetry_equiv_pos_site_id
 _symmetry_equiv_pos_as_xyz
  1  'x, y, z'
loop_
 _atom_site_type_symbol
 _atom_site_label
 _atom_site_symmetry_multiplicity
 _atom_site_fract_x
 _atom_site_fract_y
 _atom_site_fract_z
 _atom_site_occupancy
  Cl  Cl0  1  0.68859500  0.95853406  0.50216692  1
  Cl  Cl1  1  0.95853406  0.50216692  0.68859500  1
  Cl  Cl2  1  0.50216692  0.68859500  0.95853406  1
  Cl  Cl3  1  0.31140500  0.04146594  0.49783308  1
  Cl  Cl4  1  0.04146594  0.49783308  0.31140500  1
  Cl  Cl5  1  0.49783308  0.31140500  0.04146594  1
  Cl  Cl6  1  0.43741411  0.19487748  0.29336468  1
  Cl  Cl7  1  0.29336468  0.43741411  0.19487748  1
  Cl  Cl8  1  0.19487748  0.29336468  0.43741411  1
  Cl  Cl9  1  0.56258589  0.80512252  0.70663532  1
  Cl  Cl10  1  0.70663532  0.56258589  0.80512252  1
  Cl  Cl11  1  0.80512252  0.70663532  0.56258589  1
  Cl  Cl12  1  0.09735346  0.14744221  0.76270399  1
  Cl  Cl13  1  0.76270399  0.09735346  0.14744221  1
  Cl  Cl14  1  0.14744221  0.76270399  0.09735346  1
  Cl  Cl15  1  0.90264654  0.85255779  0.23729601  1
  Cl  Cl16  1  0.23729601  0.90264654  0.85255779  1
  Cl  Cl17  1  0.85255779  0.23729601  0.90264654  1
  W  W18  1  0.85263990  0.97571254  0.76878144  1
  W  W19  1  0.97571254  0.76878144  0.85263990  1
  W  W20  1  0.76878144  0.85263990  0.97571254  1
  W  W21  1  0.14736010  0.02428746  0.23121856  1
  W  W22  1  0.02428746  0.23121856  0.14736010  1
  W  W23  1  0.23121856  0.14736010  0.02428746  1
