# generated using pymatgen
data_K2CuH12(SO7)2
_symmetry_space_group_name_H-M   'P 1'
_cell_length_a   6.18425460
_cell_length_b   9.13744781
_cell_length_c   12.32451727
_cell_angle_alpha   90.00000000
_cell_angle_beta   90.00000000
_cell_angle_gamma   104.19424462
_symmetry_Int_Tables_number   1
_chemical_formula_structural   K2CuH12(SO7)2
_chemical_formula_sum   'K4 Cu2 H24 S4 O28'
_cell_volume   675.17531520
_cell_formula_units_Z   2
loop_
 _symmetry_equiv_pos_site_id
 _symmetry_equiv_pos_as_xyz
  1  'x, y, z'
loop_
 _atom_site_type_symbol
 _atom_site_label
 _atom_site_symmetry_multiplicity
 _atom_site_fract_x
 _atom_site_fract_y
 _atom_site_fract_z
 _atom_site_occupancy
  K  K0  1  0.65415291  0.37557862  0.84969942  1
  K  K1  1  0.65415291  0.87557862  0.65030058  1
  K  K2  1  0.34584709  0.12442138  0.34969942  1
  K  K3  1  0.34584709  0.62442138  0.15030058  1
  Cu  Cu4  1  0.00000000  0.00000000  0.00000000  1
  Cu  Cu5  1  0.00000000  0.50000000  0.50000000  1
  H  H6  1  0.32639957  0.39862235  0.56078370  1
  H  H7  1  0.07451914  0.78959984  0.60667839  1
  H  H8  1  0.00452179  0.33643603  0.30459990  1
  H  H9  1  0.67360043  0.60137765  0.43921630  1
  H  H10  1  0.31515167  0.03423633  0.85823699  1
  H  H11  1  0.31830784  0.70343113  0.41065937  1
  H  H12  1  0.92548086  0.71040016  0.10667839  1
  H  H13  1  0.31830784  0.20343113  0.08934063  1
  H  H14  1  0.91541731  0.26105669  0.62390334  1
  H  H15  1  0.32639957  0.89862235  0.93921630  1
  H  H16  1  0.08458269  0.23894331  0.12390334  1
  H  H17  1  0.91541731  0.76105669  0.87609666  1
  H  H18  1  0.31515167  0.53423633  0.64176301  1
  H  H19  1  0.99547821  0.16356397  0.80459990  1
  H  H20  1  0.08458269  0.73894331  0.37609666  1
  H  H21  1  0.68484833  0.46576367  0.35823699  1
  H  H22  1  0.99547821  0.66356397  0.69540010  1
  H  H23  1  0.68484833  0.96576367  0.14176301  1
  H  H24  1  0.07451914  0.28959984  0.89332161  1
  H  H25  1  0.67360043  0.10137765  0.06078370  1
  H  H26  1  0.92548086  0.21040016  0.39332161  1
  H  H27  1  0.68169216  0.29656887  0.58934063  1
  H  H28  1  0.00452179  0.83643603  0.19540010  1
  H  H29  1  0.68169216  0.79656887  0.91065937  1
  S  S30  1  0.27659607  0.60277554  0.86179018  1
  S  S31  1  0.72340393  0.39722446  0.13820982  1
  S  S32  1  0.72340393  0.89722446  0.36179018  1
  S  S33  1  0.27659607  0.10277554  0.63820982  1
  O  O34  1  0.04910067  0.12099397  0.66706412  1
  O  O35  1  0.25943970  0.46024953  0.92260104  1
  O  O36  1  0.95089933  0.37900603  0.16706412  1
  O  O37  1  0.28947767  0.49929354  0.56458056  1
  O  O38  1  0.41186665  0.10372889  0.73897954  1
  O  O39  1  0.60545911  0.26764578  0.06778724  1
  O  O40  1  0.71052233  0.50070646  0.43541944  1
  O  O41  1  0.60545911  0.76764578  0.43221276  1
  O  O42  1  0.16163950  0.15641195  0.11236282  1
  O  O43  1  0.28947767  -0.00070646  0.93541944  1
  O  O44  1  0.83836050  0.34358805  0.61236282  1
  O  O45  1  0.39454089  0.23235422  0.56778724  1
  O  O46  1  0.16163950  0.65641195  0.38763718  1
  O  O47  1  0.58813335  0.39627111  0.23897954  1
  O  O48  1  0.71052233  1.00070646  0.06458056  1
  O  O49  1  0.74056030  0.03975047  0.42260104  1
  O  O50  1  0.04128324  0.30452640  0.37764397  1
  O  O51  1  0.58813335  0.89627111  0.26102046  1
  O  O52  1  0.25943970  0.96024953  0.57739896  1
  O  O53  1  0.95871676  0.69547360  0.62235603  1
  O  O54  1  0.83836050  0.84358805  0.88763718  1
  O  O55  1  0.95089933  0.87900603  0.33293588  1
  O  O56  1  0.41186665  0.60372889  0.76102046  1
  O  O57  1  0.95871676  0.19547360  0.87764397  1
  O  O58  1  0.39454089  0.73235422  0.93221276  1
  O  O59  1  0.04128324  0.80452640  0.12235603  1
  O  O60  1  0.04910067  0.62099397  0.83293588  1
  O  O61  1  0.74056030  0.53975047  0.07739896  1
