# generated using pymatgen
data_CaB2H10O9
_symmetry_space_group_name_H-M   'P 1'
_cell_length_a   6.52898505
_cell_length_b   7.82636881
_cell_length_c   8.13254280
_cell_angle_alpha   69.07153880
_cell_angle_beta   68.43495907
_cell_angle_gamma   73.78843754
_symmetry_Int_Tables_number   1
_chemical_formula_structural   CaB2H10O9
_chemical_formula_sum   'Ca2 B4 H20 O18'
_cell_volume   355.70312206
_cell_formula_units_Z   2
loop_
 _symmetry_equiv_pos_site_id
 _symmetry_equiv_pos_as_xyz
  1  'x, y, z'
loop_
 _atom_site_type_symbol
 _atom_site_label
 _atom_site_symmetry_multiplicity
 _atom_site_fract_x
 _atom_site_fract_y
 _atom_site_fract_z
 _atom_site_occupancy
  H  H0  1  0.19491578  0.56945208  0.52262074  1
  H  H1  1  0.76225560  0.49146509  0.27423637  1
  H  H2  1  0.23774440  0.50853491  0.72576363  1
  H  H3  1  0.80508422  0.43054792  0.47737926  1
  H  H4  1  0.12181854  0.51956558  0.30737513  1
  H  H5  1  0.70975963  0.69466139  0.04890639  1
  H  H6  1  0.10199419  0.07534381  0.55731383  1
  H  H7  1  0.89800581  0.92465619  0.44268617  1
  H  H8  1  0.99305720  0.17763512  0.00731909  1
  H  H9  1  0.00694280  0.82236488  0.99268091  1
  H  H10  1  0.91077846  0.76863347  0.70025165  1
  H  H11  1  0.87818146  0.48043442  0.69262487  1
  H  H12  1  0.32399563  0.59947051  0.96001728  1
  H  H13  1  0.67600437  0.40052949  0.03998272  1
  H  H14  1  0.35131874  0.74723371  0.57754031  1
  H  H15  1  0.64868126  0.25276629  0.42245969  1
  H  H16  1  0.59067749  0.67354964  0.60419388  1
  H  H17  1  0.40932251  0.32645036  0.39580612  1
  H  H18  1  0.29024037  0.30533861  0.95109361  1
  H  H19  1  0.08922154  0.23136653  0.29974835  1
  B  B20  1  0.84980186  0.99748760  0.79256422  1
  B  B21  1  0.15019814  0.00251240  0.20743578  1
  B  B22  1  0.62434167  0.32073426  0.84186128  1
  B  B23  1  0.37565833  0.67926574  0.15813872  1
  O  O24  1  0.19750647  0.11402931  0.30237629  1
  O  O25  1  0.13961463  0.59219503  0.64755774  1
  O  O26  1  0.06826463  0.05843822  0.69044936  1
  O  O27  1  0.93173537  0.94156178  0.30955064  1
  O  O28  1  0.14585346  0.11886911  0.01592900  1
  O  O29  1  0.85414654  0.88113089  0.98407100  1
  O  O30  1  0.50986166  0.20921508  0.44357507  1
  O  O31  1  0.80249353  0.88597069  0.69762371  1
  O  O32  1  0.34674640  0.85488740  0.19434293  1
  O  O33  1  0.65325360  0.14511260  0.80565707  1
  O  O34  1  0.86038537  0.40780497  0.35244226  1
  O  O35  1  0.70547681  0.28514030  0.00298001  1
  O  O36  1  0.25964974  0.53421360  0.32001684  1
  O  O37  1  0.74035026  0.46578640  0.67998316  1
  O  O38  1  0.38203029  0.40541201  0.87929776  1
  O  O39  1  0.61796971  0.59458799  0.12070224  1
  O  O40  1  0.49013834  0.79078492  0.55642493  1
  O  O41  1  0.29452319  0.71485970  0.99701999  1
  Ca  Ca42  1  0.59538407  0.00256897  0.23598741  1
  Ca  Ca43  1  0.40461593  0.99743103  0.76401259  1
