# generated using pymatgen
data_LiAlSi2H2O7
_symmetry_space_group_name_H-M   'P 1'
_cell_length_a   5.00688368
_cell_length_b   7.71322896
_cell_length_c   8.73666278
_cell_angle_alpha   114.44590013
_cell_angle_beta   90.13738329
_cell_angle_gamma   90.04608346
_symmetry_Int_Tables_number   1
_chemical_formula_structural   LiAlSi2H2O7
_chemical_formula_sum   'Li2 Al2 Si4 H4 O14'
_cell_volume   307.15441249
_cell_formula_units_Z   2
loop_
 _symmetry_equiv_pos_site_id
 _symmetry_equiv_pos_as_xyz
  1  'x, y, z'
loop_
 _atom_site_type_symbol
 _atom_site_label
 _atom_site_symmetry_multiplicity
 _atom_site_fract_x
 _atom_site_fract_y
 _atom_site_fract_z
 _atom_site_occupancy
  H  H0  1  0.67924337  0.46425329  0.48865619  1
  H  H1  1  0.79432370  0.45779535  0.32230690  1
  H  H2  1  0.17566131  0.51409501  0.51490749  1
  H  H3  1  0.29589695  0.53232373  0.68429761  1
  Li  Li4  1  0.86900156  0.12362357  0.30009324  1
  Li  Li5  1  0.36572128  0.85703878  0.68920048  1
  O  O6  1  0.32990751  0.56843364  0.59116201  1
  O  O7  1  0.18545802  0.95681283  0.91408754  1
  O  O8  1  0.83323629  0.67411681  0.84116601  1
  O  O9  1  0.74222512  0.94121675  0.73668365  1
  O  O10  1  0.88980603  0.30669184  0.73985840  1
  O  O11  1  0.19562926  0.97206589  0.54662080  1
  O  O12  1  0.24547696  0.04142886  0.26756934  1
  O  O13  1  0.70853467  0.02610568  0.06887047  1
  O  O14  1  0.33406364  0.33519721  0.15691351  1
  O  O15  1  0.98882601  0.53645754  0.06315439  1
  O  O16  1  0.39350127  0.70526738  0.26979441  1
  O  O17  1  0.67698649  0.01730784  0.43882125  1
  O  O18  1  0.48757464  0.49047055  0.94594255  1
  O  O19  1  0.83120780  0.41411142  0.41046461  1
  Al  Al20  1  0.87374749  0.06296620  0.61997821  1
  Al  Al21  1  0.36745505  0.09258226  0.09962428  1
  Si  Si22  1  0.30205631  0.51327490  0.10824492  1
  Si  Si23  1  0.37465806  0.93644868  0.37978374  1
  Si  Si24  1  0.80274599  0.49696326  0.89659748  1
  Si  Si25  1  0.86728521  0.90253075  0.89339050  1
