# generated using pymatgen
data_LaSmI4
_symmetry_space_group_name_H-M   'P 1'
_cell_length_a   7.81792936
_cell_length_b   7.94207795
_cell_length_c   8.96044028
_cell_angle_alpha   112.21257458
_cell_angle_beta   111.74474907
_cell_angle_gamma   98.59937027
_symmetry_Int_Tables_number   1
_chemical_formula_structural   LaSmI4
_chemical_formula_sum   'La2 Sm2 I8'
_cell_volume   450.47648472
_cell_formula_units_Z   2
loop_
 _symmetry_equiv_pos_site_id
 _symmetry_equiv_pos_as_xyz
  1  'x, y, z'
loop_
 _atom_site_type_symbol
 _atom_site_label
 _atom_site_symmetry_multiplicity
 _atom_site_fract_x
 _atom_site_fract_y
 _atom_site_fract_z
 _atom_site_occupancy
  La  La0  1  0.73665671  0.48663581  0.97340994  1
  La  La1  1  0.26334329  0.51336419  0.02659006  1
  Sm  Sm2  1  0.61881794  0.86891259  0.73781274  1
  Sm  Sm3  1  0.38118206  0.13108741  0.26218726  1
  I  I4  1  0.65161449  0.55387839  0.37389337  1
  I  I5  1  0.00893093  0.75372910  0.88016969  1
  I  I6  1  0.99106907  0.24627090  0.11983031  1
  I  I7  1  0.22249383  0.82011511  0.37382862  1
  I  I8  1  0.77750617  0.17988489  0.62617138  1
  I  I9  1  0.37107578  0.12641095  0.88015547  1
  I  I10  1  0.62892422  0.87358905  0.11984453  1
  I  I11  1  0.34838551  0.44612161  0.62610663  1
