# generated using pymatgen
data_FeMoClO4
_symmetry_space_group_name_H-M   'P 1'
_cell_length_a   6.77966753
_cell_length_b   6.78393538
_cell_length_c   5.60218772
_cell_angle_alpha   90.00000000
_cell_angle_beta   91.36820985
_cell_angle_gamma   90.00000000
_symmetry_Int_Tables_number   1
_chemical_formula_structural   FeMoClO4
_chemical_formula_sum   'Fe2 Mo2 Cl2 O8'
_cell_volume   257.58698615
_cell_formula_units_Z   2
loop_
 _symmetry_equiv_pos_site_id
 _symmetry_equiv_pos_as_xyz
  1  'x, y, z'
loop_
 _atom_site_type_symbol
 _atom_site_label
 _atom_site_symmetry_multiplicity
 _atom_site_fract_x
 _atom_site_fract_y
 _atom_site_fract_z
 _atom_site_occupancy
  O  O0  1  0.97445550  0.25000000  0.17543990  1
  O  O1  1  0.74080722  0.46511774  0.81398809  1
  O  O2  1  0.74080722  0.03488226  0.81398809  1
  O  O3  1  0.54460803  0.25000000  0.19579189  1
  O  O4  1  0.45539197  0.75000000  0.80420811  1
  O  O5  1  0.25919278  0.96511774  0.18601191  1
  O  O6  1  0.02554450  0.75000000  0.82456010  1
  O  O7  1  0.25919278  0.53488226  0.18601191  1
  Cl  Cl8  1  0.25311199  0.25000000  0.66635006  1
  Cl  Cl9  1  0.74688801  0.75000000  0.33364994  1
  Fe  Fe10  1  0.74062474  0.75000000  0.73212280  1
  Fe  Fe11  1  0.25937526  0.25000000  0.26787720  1
  Mo  Mo12  1  0.24976133  0.75000000  0.00011856  1
  Mo  Mo13  1  0.75023867  0.25000000  0.99988144  1
