# generated using pymatgen
data_Mo3P3O16
_symmetry_space_group_name_H-M   'P 1'
_cell_length_a   6.54779019
_cell_length_b   7.94085811
_cell_length_c   12.76144827
_cell_angle_alpha   79.77930873
_cell_angle_beta   77.62508322
_cell_angle_gamma   81.69445996
_symmetry_Int_Tables_number   1
_chemical_formula_structural   Mo3P3O16
_chemical_formula_sum   'Mo6 P6 O32'
_cell_volume   633.91032915
_cell_formula_units_Z   2
loop_
 _symmetry_equiv_pos_site_id
 _symmetry_equiv_pos_as_xyz
  1  'x, y, z'
loop_
 _atom_site_type_symbol
 _atom_site_label
 _atom_site_symmetry_multiplicity
 _atom_site_fract_x
 _atom_site_fract_y
 _atom_site_fract_z
 _atom_site_occupancy
  O  O0  1  0.43556476  0.04319762  0.89074470  1
  O  O1  1  0.83047850  0.38569567  0.78245314  1
  O  O2  1  0.87216965  0.02164781  0.84693158  1
  O  O3  1  0.88588763  0.24009719  0.51883706  1
  O  O4  1  0.65565985  0.76588803  0.84068328  1
  O  O5  1  0.79794740  0.59720576  0.61155841  1
  O  O6  1  0.06539364  0.29211357  0.02039884  1
  O  O7  1  0.16951970  0.61430474  0.21754641  1
  O  O8  1  0.12782952  0.97835320  0.15306774  1
  O  O9  1  0.11411557  0.75990248  0.48116349  1
  O  O10  1  0.34433879  0.23411427  0.15931556  1
  O  O11  1  0.20205291  0.40279442  0.38844124  1
  O  O12  1  0.14304926  0.40362997  0.62699015  1
  O  O13  1  0.03181351  0.63997091  0.73994933  1
  O  O14  1  0.16819455  0.04406676  0.63554451  1
  O  O15  1  0.27404234  0.04592871  0.41449299  1
  O  O16  1  0.37118789  0.76206631  0.01178405  1
  O  O17  1  0.37788355  0.80668953  0.30705271  1
  O  O18  1  0.85695123  0.59636905  0.37301057  1
  O  O19  1  0.60364278  0.60033464  0.16342101  1
  O  O20  1  0.51239819  0.23092211  0.51268019  1
  O  O21  1  0.56443351  0.95680301  0.10925577  1
  O  O22  1  0.93460420  0.70788628  0.97960212  1
  O  O23  1  0.48760407  0.76907637  0.48731991  1
  O  O24  1  0.39635522  0.39966547  0.83657830  1
  O  O25  1  0.72782676  0.18102412  0.17120802  1
  O  O26  1  0.62211689  0.19330886  0.69294773  1
  O  O27  1  0.62881200  0.23793407  0.98821565  1
  O  O28  1  0.72596152  0.95407015  0.58550732  1
  O  O29  1  0.83180566  0.95593234  0.36445605  1
  O  O30  1  0.96818565  0.36002763  0.26005174  1
  O  O31  1  0.27217177  0.81897696  0.82879175  1
  P  P32  1  0.04870287  0.48987282  0.31625963  1
  P  P33  1  0.95129870  0.51012548  0.68374109  1
  P  P34  1  0.56161382  0.15310716  0.10827990  1
  P  P35  1  0.30982620  0.84895611  0.42740712  1
  P  P36  1  0.69017651  0.15104181  0.57259303  1
  P  P37  1  0.43838496  0.84689408  0.89171958  1
  Mo  Mo38  1  0.96371403  0.80101375  0.84748195  1
  Mo  Mo39  1  0.79957282  0.78874550  0.46931065  1
  Mo  Mo40  1  0.60354130  0.24482676  0.83504489  1
  Mo  Mo41  1  0.39645767  0.75517301  0.16495521  1
  Mo  Mo42  1  0.20043068  0.21125459  0.53068933  1
  Mo  Mo43  1  0.03628394  0.19898871  0.15251588  1
