# generated using pymatgen
data_LiBiP2O7
_symmetry_space_group_name_H-M   'P 1'
_cell_length_a   5.24747496
_cell_length_b   8.40764882
_cell_length_c   12.38390417
_cell_angle_alpha   90.00000000
_cell_angle_beta   90.11030507
_cell_angle_gamma   90.00000000
_symmetry_Int_Tables_number   1
_chemical_formula_structural   LiBiP2O7
_chemical_formula_sum   'Li4 Bi4 P8 O28'
_cell_volume   546.36354702
_cell_formula_units_Z   4
loop_
 _symmetry_equiv_pos_site_id
 _symmetry_equiv_pos_as_xyz
  1  'x, y, z'
loop_
 _atom_site_type_symbol
 _atom_site_label
 _atom_site_symmetry_multiplicity
 _atom_site_fract_x
 _atom_site_fract_y
 _atom_site_fract_z
 _atom_site_occupancy
  Li  Li0  1  0.15565193  0.63983518  0.90144936  1
  Li  Li1  1  0.84434807  0.36016482  0.09855064  1
  Li  Li2  1  0.65565193  0.86016482  0.40144936  1
  Li  Li3  1  0.34434807  0.13983518  0.59855064  1
  O  O4  1  0.50861034  0.55984008  0.70680012  1
  O  O5  1  0.89737096  0.82604086  0.54006721  1
  O  O6  1  0.96966001  0.39132177  0.26726650  1
  O  O7  1  0.99138966  0.05984008  0.79319988  1
  O  O8  1  0.00861034  0.94015992  0.20680012  1
  O  O9  1  0.03033999  0.60867823  0.73273350  1
  O  O10  1  0.10262904  0.17395914  0.45993279  1
  O  O11  1  0.14437763  0.38065510  0.90052832  1
  O  O12  1  0.18475755  0.34888392  0.65832966  1
  O  O13  1  0.22682696  0.30792498  0.09570710  1
  O  O14  1  0.22361913  0.59922418  0.54427183  1
  O  O15  1  0.27638087  0.09922418  0.95572817  1
  O  O16  1  0.27317304  0.80792498  0.40429290  1
  O  O17  1  0.31524245  0.84888392  0.84167034  1
  O  O18  1  0.35562237  0.88065510  0.59947168  1
  O  O19  1  0.81524245  0.65111608  0.34167034  1
  O  O20  1  0.46966001  0.10867823  0.76726650  1
  O  O21  1  0.49138966  0.44015992  0.29319988  1
  O  O22  1  0.39737096  0.67395914  0.04006721  1
  O  O23  1  0.53033999  0.89132177  0.23273350  1
  O  O24  1  0.60262904  0.32604086  0.95993279  1
  O  O25  1  0.64437763  0.11934490  0.40052832  1
  O  O26  1  0.68475755  0.15111608  0.15832966  1
  O  O27  1  0.72682696  0.19207502  0.59570710  1
  O  O28  1  0.72361913  0.90077582  0.04427183  1
  O  O29  1  0.77638087  0.40077582  0.45572817  1
  O  O30  1  0.77317304  0.69207502  0.90429290  1
  O  O31  1  0.85562237  0.61934490  0.09947168  1
  P  P32  1  0.32011599  0.28985148  0.97960378  1
  P  P33  1  0.67988401  0.71014852  0.02039622  1
  P  P34  1  0.73468210  0.97330579  0.16377935  1
  P  P35  1  0.76531790  0.47330579  0.33622065  1
  P  P36  1  0.17988401  0.78985148  0.52039622  1
  P  P37  1  0.23468210  0.52669421  0.66377935  1
  P  P38  1  0.82011599  0.21014852  0.47960378  1
  P  P39  1  0.26531790  0.02669421  0.83622065  1
  Bi  Bi40  1  0.80899481  0.30339531  0.77620855  1
  Bi  Bi41  1  0.69100519  0.80339531  0.72379145  1
  Bi  Bi42  1  0.30899481  0.19660469  0.27620855  1
  Bi  Bi43  1  0.19100519  0.69660469  0.22379145  1
