# generated using pymatgen
data_Er2WO6
_symmetry_space_group_name_H-M   'P 1'
_cell_length_a   5.23894951
_cell_length_b   9.10375982
_cell_length_c   9.92868536
_cell_angle_alpha   90.00000000
_cell_angle_beta   90.00000000
_cell_angle_gamma   90.00000000
_symmetry_Int_Tables_number   1
_chemical_formula_structural   Er2WO6
_chemical_formula_sum   'Er8 W4 O24'
_cell_volume   473.54009020
_cell_formula_units_Z   4
loop_
 _symmetry_equiv_pos_site_id
 _symmetry_equiv_pos_as_xyz
  1  'x, y, z'
loop_
 _atom_site_type_symbol
 _atom_site_label
 _atom_site_symmetry_multiplicity
 _atom_site_fract_x
 _atom_site_fract_y
 _atom_site_fract_z
 _atom_site_occupancy
  O  O0  1  0.25436618  0.08854419  0.50403460  1
  O  O1  1  0.75436618  0.41145581  0.49596540  1
  O  O2  1  0.74563382  0.58854419  0.99596540  1
  O  O3  1  0.24563382  0.91145581  0.00403460  1
  O  O4  1  0.73508927  0.11682908  0.56882254  1
  O  O5  1  0.23508927  0.38317092  0.43117746  1
  O  O6  1  0.26491073  0.61682908  0.93117746  1
  O  O7  1  0.76491073  0.88317092  0.06882254  1
  O  O8  1  0.59293963  0.84217294  0.53184285  1
  O  O9  1  0.09293963  0.65782706  0.46815715  1
  O  O10  1  0.40706037  0.34217294  0.96815715  1
  O  O11  1  0.90706037  0.15782706  0.03184285  1
  O  O12  1  0.19367442  0.85755352  0.26434180  1
  O  O13  1  0.69367442  0.64244648  0.73565820  1
  O  O14  1  0.80632558  0.35755352  0.23565820  1
  O  O15  1  0.30632558  0.14244648  0.76434180  1
  O  O16  1  0.82470430  0.04635312  0.30161382  1
  O  O17  1  0.32470430  0.45364688  0.69838618  1
  O  O18  1  0.17529570  0.54635312  0.19838618  1
  O  O19  1  0.67529570  0.95364688  0.80161382  1
  O  O20  1  0.32196061  0.13742563  0.18116933  1
  O  O21  1  0.82196061  0.36257437  0.81883067  1
  O  O22  1  0.67803939  0.63742563  0.31883067  1
  O  O23  1  0.17803939  0.86257437  0.68116933  1
  Er  Er24  1  0.48506999  0.60380431  0.53455067  1
  Er  Er25  1  0.98506999  0.89619569  0.46544933  1
  Er  Er26  1  0.51493001  0.10380431  0.96544933  1
  Er  Er27  1  0.01493001  0.39619569  0.03455067  1
  Er  Er28  1  0.95863625  0.78127220  0.87134169  1
  Er  Er29  1  0.45863625  0.71872780  0.12865831  1
  Er  Er30  1  0.04136375  0.28127220  0.62865831  1
  Er  Er31  1  0.54136375  0.21872780  0.37134169  1
  W  W32  1  0.46283476  0.99562966  0.65226918  1
  W  W33  1  0.96283476  0.50437034  0.34773082  1
  W  W34  1  0.53716524  0.49562966  0.84773082  1
  W  W35  1  0.03716524  0.00437034  0.15226918  1
