# generated using pymatgen
data_V2NiP2(H4O7)2
_symmetry_space_group_name_H-M   'P 1'
_cell_length_a   6.33390302
_cell_length_b   6.33390302
_cell_length_c   8.06377591
_cell_angle_alpha   113.12497562
_cell_angle_beta   113.12497563
_cell_angle_gamma   89.99999994
_symmetry_Int_Tables_number   1
_chemical_formula_structural   V2NiP2(H4O7)2
_chemical_formula_sum   'V2 Ni1 P2 H8 O14'
_cell_volume   269.01819487
_cell_formula_units_Z   1
loop_
 _symmetry_equiv_pos_site_id
 _symmetry_equiv_pos_as_xyz
  1  'x, y, z'
loop_
 _atom_site_type_symbol
 _atom_site_label
 _atom_site_symmetry_multiplicity
 _atom_site_fract_x
 _atom_site_fract_y
 _atom_site_fract_z
 _atom_site_occupancy
  H  H0  1  0.40627556  0.24149492  0.11967639  1
  H  H1  1  0.87818256  0.40627521  0.11967735  1
  H  H2  1  0.24149430  0.71340152  0.11967680  1
  H  H3  1  0.71340129  0.87818180  0.11967650  1
  H  H4  1  0.59372528  0.75850522  0.88032382  1
  H  H5  1  0.28659783  0.12181833  0.88032317  1
  H  H6  1  0.12181828  0.59372492  0.88032286  1
  H  H7  1  0.75850482  0.28659861  0.88032287  1
  O  O8  1  0.01442494  0.34598048  0.63708245  1
  O  O9  1  0.37734331  0.70889808  0.36291768  1
  O  O10  1  0.29110134  0.01442576  0.63708247  1
  O  O11  1  0.70889778  0.98557437  0.36291720  1
  O  O12  1  0.98557417  0.65401965  0.36291722  1
  O  O13  1  0.34598113  0.62265677  0.63708251  1
  O  O14  1  0.84513953  0.84513814  0.69027792  1
  O  O15  1  0.25707124  0.20042545  0.00000069  1
  O  O16  1  0.79957532  0.25707076  0.00000029  1
  O  O17  1  0.20042552  0.74292938  0.99999991  1
  O  O18  1  0.74292960  0.79957468  0.99999951  1
  O  O19  1  0.62265753  0.29110205  0.63708252  1
  O  O20  1  0.65401971  0.37734337  0.36291770  1
  O  O21  1  0.15486131  0.15486200  0.30972228  1
  P  P22  1  0.25000012  0.74999990  0.49999998  1
  P  P23  1  0.75000072  0.25000023  0.50000022  1
  V  V24  1  0.27740194  0.27740121  0.55480251  1
  V  V25  1  0.72259891  0.72259893  0.44519770  1
  Ni  Ni26  1  0.00000000  0.00000000  0.00000000  1
