# generated using pymatgen
data_Mg2VBiO6
_symmetry_space_group_name_H-M   'P 1'
_cell_length_a   5.52257078
_cell_length_b   7.44777661
_cell_length_c   7.44777662
_cell_angle_alpha   114.83653344
_cell_angle_beta   90.00000000
_cell_angle_gamma   90.00000000
_symmetry_Int_Tables_number   1
_chemical_formula_structural   Mg2VBiO6
_chemical_formula_sum   'Mg4 V2 Bi2 O12'
_cell_volume   278.00071795
_cell_formula_units_Z   2
loop_
 _symmetry_equiv_pos_site_id
 _symmetry_equiv_pos_as_xyz
  1  'x, y, z'
loop_
 _atom_site_type_symbol
 _atom_site_label
 _atom_site_symmetry_multiplicity
 _atom_site_fract_x
 _atom_site_fract_y
 _atom_site_fract_z
 _atom_site_occupancy
  O  O0  1  0.74999977  0.10131697  0.54859106  1
  O  O1  1  0.24999932  0.89868408  0.45140897  1
  O  O2  1  0.24999932  0.54859040  0.10131543  1
  O  O3  1  0.74999977  0.45140917  0.89868398  1
  O  O4  1  0.99005561  0.88379131  0.11620951  1
  O  O5  1  0.49005516  0.11620973  0.88379052  1
  O  O6  1  0.00994529  0.11620973  0.88379052  1
  O  O7  1  0.50994392  0.88379131  0.11620951  1
  O  O8  1  0.50000045  0.32964303  0.32964290  1
  O  O9  1  0.00000000  0.67035654  0.67035651  1
  O  O10  1  0.00000000  0.32964303  0.32964290  1
  O  O11  1  0.50000045  0.67035654  0.67035651  1
  Mg  Mg12  1  0.74999977  0.10285719  0.28148372  1
  Mg  Mg13  1  0.24999932  0.89714238  0.71851569  1
  Mg  Mg14  1  0.74999977  0.71851615  0.89714226  1
  Mg  Mg15  1  0.24999932  0.28148342  0.10285715  1
  V  V16  1  0.74999977  0.19803491  0.80196570  1
  V  V17  1  0.24999932  0.80196614  0.19803432  1
  Bi  Bi18  1  0.24999932  0.40952078  0.59048011  1
  Bi  Bi19  1  0.74999977  0.59047879  0.40952065  1
