# generated using pymatgen
data_TiP2O7
_symmetry_space_group_name_H-M   'P 1'
_cell_length_a   4.91680005
_cell_length_b   8.13222458
_cell_length_c   7.03485572
_cell_angle_alpha   90.00000000
_cell_angle_beta   105.78908267
_cell_angle_gamma   90.00000000
_symmetry_Int_Tables_number   1
_chemical_formula_structural   TiP2O7
_chemical_formula_sum   'Ti2 P4 O14'
_cell_volume   270.67240861
_cell_formula_units_Z   2
loop_
 _symmetry_equiv_pos_site_id
 _symmetry_equiv_pos_as_xyz
  1  'x, y, z'
loop_
 _atom_site_type_symbol
 _atom_site_label
 _atom_site_symmetry_multiplicity
 _atom_site_fract_x
 _atom_site_fract_y
 _atom_site_fract_z
 _atom_site_occupancy
  O  O0  1  0.01254761  0.27443505  0.83281265  1
  O  O1  1  0.16110914  0.61101691  0.91933839  1
  O  O2  1  0.14965801  1.00694940  0.46053803  1
  O  O3  1  0.27954457  0.30667811  0.52274809  1
  O  O4  1  0.42129617  0.62151038  0.62969064  1
  O  O5  1  0.55591944  0.35806318  0.90585659  1
  O  O6  1  0.58104593  0.08692227  0.72887834  1
  O  O7  1  0.41895407  0.58692227  0.27112166  1
  O  O8  1  0.44408056  0.85806318  0.09414341  1
  O  O9  1  0.57870383  0.12151038  0.37030936  1
  O  O10  1  0.72045543  0.80667811  0.47725191  1
  O  O11  1  0.85034199  0.50694940  0.53946197  1
  O  O12  1  0.83889086  0.11101691  0.08066161  1
  O  O13  1  0.98745239  0.77443505  0.16718735  1
  P  P14  1  0.38958122  0.13209423  0.50998325  1
  P  P15  1  0.24563116  0.71529001  0.10667519  1
  P  P16  1  0.75436884  0.21529001  0.89332481  1
  P  P17  1  0.61041878  0.63209423  0.49001675  1
  Ti  Ti18  1  0.20990465  0.45099448  0.72777229  1
  Ti  Ti19  1  0.79009535  0.95099448  0.27222771  1
