# generated using pymatgen
data_KTh6F25
_symmetry_space_group_name_H-M   'P 1'
_cell_length_a   9.78572606
_cell_length_b   9.78572606
_cell_length_c   9.78572606
_cell_angle_alpha   50.66213802
_cell_angle_beta   50.66213804
_cell_angle_gamma   50.66213802
_symmetry_Int_Tables_number   1
_chemical_formula_structural   KTh6F25
_chemical_formula_sum   'K1 Th6 F25'
_cell_volume   516.64130469
_cell_formula_units_Z   1
loop_
 _symmetry_equiv_pos_site_id
 _symmetry_equiv_pos_as_xyz
  1  'x, y, z'
loop_
 _atom_site_type_symbol
 _atom_site_label
 _atom_site_symmetry_multiplicity
 _atom_site_fract_x
 _atom_site_fract_y
 _atom_site_fract_z
 _atom_site_occupancy
  F  F0  1  0.25266066  0.25266066  0.68866746  1
  F  F1  1  0.25266066  0.68866746  0.25266066  1
  F  F2  1  0.68866746  0.25266066  0.25266066  1
  F  F3  1  0.31133254  0.74733934  0.74733934  1
  F  F4  1  0.74733934  0.74733934  0.31133254  1
  F  F5  1  0.74733934  0.31133254  0.74733934  1
  F  F6  1  0.54995858  0.54995858  0.54995858  1
  F  F7  1  0.50000000  0.50000000  0.00000000  1
  F  F8  1  0.00000000  0.50000000  0.50000000  1
  F  F9  1  0.50000000  0.00000000  0.50000000  1
  F  F10  1  0.12678656  0.55166087  0.12678656  1
  F  F11  1  0.12678656  0.12678656  0.55166087  1
  F  F12  1  0.55166087  0.12678656  0.12678656  1
  F  F13  1  0.44833913  0.87321344  0.87321344  1
  F  F14  1  0.87321344  0.44833913  0.87321344  1
  F  F15  1  0.87321344  0.87321344  0.44833913  1
  F  F16  1  0.82191365  0.17808635  0.50000000  1
  F  F17  1  0.50000000  0.82191365  0.17808635  1
  F  F18  1  0.17808635  0.50000000  0.82191365  1
  F  F19  1  0.17808635  0.82191365  0.50000000  1
  F  F20  1  0.50000000  0.17808635  0.82191365  1
  F  F21  1  0.82191365  0.50000000  0.17808635  1
  F  F22  1  0.21000079  0.21000079  0.21000079  1
  F  F23  1  0.78999921  0.78999921  0.78999921  1
  F  F24  1  0.45004142  0.45004142  0.45004142  1
  K  K25  1  0.00000000  0.00000000  0.00000000  1
  Th  Th26  1  0.40825334  0.90877787  0.40825334  1
  Th  Th27  1  0.90877787  0.40825334  0.40825334  1
  Th  Th28  1  0.09122213  0.59174666  0.59174666  1
  Th  Th29  1  0.59174666  0.59174666  0.09122213  1
  Th  Th30  1  0.59174666  0.09122213  0.59174666  1
  Th  Th31  1  0.40825334  0.40825334  0.90877787  1
