# generated using pymatgen
data_Si2NCl5
_symmetry_space_group_name_H-M   'P 1'
_cell_length_a   6.81758048
_cell_length_b   11.10208280
_cell_length_c   13.44986081
_cell_angle_alpha   90.00000000
_cell_angle_beta   90.00000000
_cell_angle_gamma   102.43671441
_symmetry_Int_Tables_number   1
_chemical_formula_structural   Si2NCl5
_chemical_formula_sum   'Si8 N4 Cl20'
_cell_volume   994.12296503
_cell_formula_units_Z   4
loop_
 _symmetry_equiv_pos_site_id
 _symmetry_equiv_pos_as_xyz
  1  'x, y, z'
loop_
 _atom_site_type_symbol
 _atom_site_label
 _atom_site_symmetry_multiplicity
 _atom_site_fract_x
 _atom_site_fract_y
 _atom_site_fract_z
 _atom_site_occupancy
  N  N0  1  0.98319269  0.60768424  0.50354829  1
  N  N1  1  0.51680731  0.89231576  0.00354829  1
  N  N2  1  0.01680731  0.39231576  0.49645171  1
  N  N3  1  0.48319269  0.10768424  0.99645171  1
  Si  Si4  1  0.93429678  0.49188156  0.41320774  1
  Si  Si5  1  0.56570322  0.00811844  0.91320774  1
  Si  Si6  1  0.06570322  0.50811844  0.58679226  1
  Si  Si7  1  0.43429678  0.99188156  0.08679226  1
  Si  Si8  1  0.98612519  0.76247196  0.50190080  1
  Si  Si9  1  0.51387481  0.73752804  0.00190080  1
  Si  Si10  1  0.01387481  0.23752804  0.49809920  1
  Si  Si11  1  0.48612519  0.26247196  0.99809920  1
  Cl  Cl12  1  0.10090367  0.53166319  0.28738964  1
  Cl  Cl13  1  0.39909633  0.96833681  0.78738964  1
  Cl  Cl14  1  0.89909633  0.46833681  0.71261036  1
  Cl  Cl15  1  0.60090367  0.03166319  0.21261036  1
  Cl  Cl16  1  0.64225524  0.43560066  0.37175242  1
  Cl  Cl17  1  0.85774476  0.06439934  0.87175242  1
  Cl  Cl18  1  0.35774476  0.56439934  0.62824758  1
  Cl  Cl19  1  0.14225524  0.93560066  0.12824758  1
  Cl  Cl20  1  0.89343436  0.81552647  0.63599280  1
  Cl  Cl21  1  0.60656564  0.68447353  0.13599280  1
  Cl  Cl22  1  0.10656564  0.18447353  0.36400720  1
  Cl  Cl23  1  0.39343436  0.31552647  0.86400720  1
  Cl  Cl24  1  0.79871760  0.79633124  0.39223413  1
  Cl  Cl25  1  0.70128240  0.70366876  0.89223413  1
  Cl  Cl26  1  0.20128240  0.20366876  0.60776587  1
  Cl  Cl27  1  0.29871760  0.29633124  0.10776587  1
  Cl  Cl28  1  0.26734594  0.86509794  0.47485825  1
  Cl  Cl29  1  0.23265406  0.63490206  0.97485825  1
  Cl  Cl30  1  0.73265406  0.13490206  0.52514175  1
  Cl  Cl31  1  0.76734594  0.36509794  0.02514175  1
