# generated using pymatgen
data_NaTe
_symmetry_space_group_name_H-M   'P 1'
_cell_length_a   9.22361416
_cell_length_b   10.02884662
_cell_length_c   16.02680429
_cell_angle_alpha   90.00000000
_cell_angle_beta   90.00000000
_cell_angle_gamma   90.00000000
_symmetry_Int_Tables_number   1
_chemical_formula_structural   NaTe
_chemical_formula_sum   'Na24 Te24'
_cell_volume   1482.51484319
_cell_formula_units_Z   24
loop_
 _symmetry_equiv_pos_site_id
 _symmetry_equiv_pos_as_xyz
  1  'x, y, z'
loop_
 _atom_site_type_symbol
 _atom_site_label
 _atom_site_symmetry_multiplicity
 _atom_site_fract_x
 _atom_site_fract_y
 _atom_site_fract_z
 _atom_site_occupancy
  Na  Na0  1  0.44084043  0.31946172  0.97117716  1
  Na  Na1  1  0.27403006  0.48843252  0.18936995  1
  Na  Na2  1  0.22596994  0.98843252  0.68936995  1
  Na  Na3  1  0.24213298  0.82999978  0.11307737  1
  Na  Na4  1  0.94084043  0.18053828  0.52882284  1
  Na  Na5  1  0.77403006  0.01156748  0.31063005  1
  Na  Na6  1  0.74213298  0.67000022  0.38692263  1
  Na  Na7  1  0.55915957  0.68053828  0.02882284  1
  Na  Na8  1  0.05915957  0.31946172  0.02882284  1
  Na  Na9  1  0.25786702  0.32999978  0.61307737  1
  Na  Na10  1  0.75786702  0.67000022  0.61307737  1
  Na  Na11  1  0.77403006  0.51156748  0.18936995  1
  Na  Na12  1  0.22596994  0.48843252  0.81063005  1
  Na  Na13  1  0.25786702  0.82999978  0.88692263  1
  Na  Na14  1  0.24213298  0.32999978  0.38692263  1
  Na  Na15  1  0.55915957  0.18053828  0.47117716  1
  Na  Na16  1  0.75786702  0.17000022  0.88692263  1
  Na  Na17  1  0.72596994  0.01156748  0.68936995  1
  Na  Na18  1  0.72596994  0.51156748  0.81063005  1
  Na  Na19  1  0.05915957  0.81946172  0.47117716  1
  Na  Na20  1  0.74213298  0.17000022  0.11307737  1
  Na  Na21  1  0.44084043  0.81946172  0.52882284  1
  Na  Na22  1  0.27403006  0.98843252  0.31063005  1
  Na  Na23  1  0.94084043  0.68053828  0.97117716  1
  Te  Te24  1  0.51094511  0.74710029  0.24723520  1
  Te  Te25  1  0.98905489  0.74710029  0.75276480  1
  Te  Te26  1  0.98905489  0.24710029  0.74723520  1
  Te  Te27  1  0.50000000  0.50000000  0.50000000  1
  Te  Te28  1  0.69135061  0.35907626  0.63260781  1
  Te  Te29  1  0.25000000  0.57258382  0.00000000  1
  Te  Te30  1  0.25000000  0.07258382  0.50000000  1
  Te  Te31  1  0.75000000  0.92741618  0.50000000  1
  Te  Te32  1  0.48905489  0.75289971  0.74723520  1
  Te  Te33  1  0.80864939  0.35907626  0.36739219  1
  Te  Te34  1  0.01094511  0.25289971  0.24723520  1
  Te  Te35  1  0.19135061  0.14092374  0.86739219  1
  Te  Te36  1  0.51094511  0.24710029  0.25276480  1
  Te  Te37  1  -0.00000000  0.50000000  0.50000000  1
  Te  Te38  1  0.80864939  0.85907626  0.13260781  1
  Te  Te39  1  0.69135061  0.85907626  0.86739219  1
  Te  Te40  1  0.19135061  0.64092374  0.63260781  1
  Te  Te41  1  0.48905489  0.25289971  0.75276480  1
  Te  Te42  1  0.00000000  0.00000000  0.00000000  1
  Te  Te43  1  0.75000000  0.42741618  0.00000000  1
  Te  Te44  1  0.30864939  0.14092374  0.13260781  1
  Te  Te45  1  0.01094511  0.75289971  0.25276480  1
  Te  Te46  1  0.50000000  0.00000000  0.00000000  1
  Te  Te47  1  0.30864939  0.64092374  0.36739219  1
