# generated using pymatgen
data_P3Se4I
_symmetry_space_group_name_H-M   'P 1'
_cell_length_a   7.04355123
_cell_length_b   12.39077772
_cell_length_c   14.26691024
_cell_angle_alpha   111.57289114
_cell_angle_beta   90.00000000
_cell_angle_gamma   90.00000000
_symmetry_Int_Tables_number   1
_chemical_formula_structural   P3Se4I
_chemical_formula_sum   'P12 Se16 I4'
_cell_volume   1157.92393446
_cell_formula_units_Z   4
loop_
 _symmetry_equiv_pos_site_id
 _symmetry_equiv_pos_as_xyz
  1  'x, y, z'
loop_
 _atom_site_type_symbol
 _atom_site_label
 _atom_site_symmetry_multiplicity
 _atom_site_fract_x
 _atom_site_fract_y
 _atom_site_fract_z
 _atom_site_occupancy
  P  P0  1  0.84402405  0.05864921  0.87274419  1
  P  P1  1  0.34402405  0.44135079  0.62725581  1
  P  P2  1  0.15597595  0.94135079  0.12725581  1
  P  P3  1  0.65597595  0.55864921  0.37274419  1
  P  P4  1  0.07856334  0.33084902  0.01069064  1
  P  P5  1  0.57856334  0.16915098  0.48930936  1
  P  P6  1  0.92143666  0.66915098  0.98930936  1
  P  P7  1  0.42143666  0.83084902  0.51069064  1
  P  P8  1  0.77403837  0.32915014  0.04688704  1
  P  P9  1  0.27403837  0.17084986  0.45311296  1
  P  P10  1  0.22596163  0.67084986  0.95311296  1
  P  P11  1  0.72596163  0.82915014  0.54688704  1
  Se  Se12  1  0.71045832  0.14444645  0.02909944  1
  Se  Se13  1  0.21045832  0.35555355  0.47090056  1
  Se  Se14  1  0.28954168  0.85555355  0.97090056  1
  Se  Se15  1  0.78954168  0.64444645  0.52909944  1
  Se  Se16  1  0.13303341  0.14964310  0.89368545  1
  Se  Se17  1  0.63303341  0.35035690  0.60631455  1
  Se  Se18  1  0.86696659  0.85035690  0.10631455  1
  Se  Se19  1  0.36696659  0.64964310  0.39368545  1
  Se  Se20  1  0.68659100  0.34332014  0.89738049  1
  Se  Se21  1  0.18659100  0.15667986  0.60261951  1
  Se  Se22  1  0.31340900  0.65667986  0.10261951  1
  Se  Se23  1  0.81340900  0.84332014  0.39738049  1
  Se  Se24  1  0.67801794  0.14274288  0.78430872  1
  Se  Se25  1  0.17801794  0.35725712  0.71569128  1
  Se  Se26  1  0.32198206  0.85725712  0.21569128  1
  Se  Se27  1  0.82198206  0.64274288  0.28430872  1
  I  I28  1  0.20971170  0.32757188  0.17548508  1
  I  I29  1  0.70971170  0.17242812  0.32451492  1
  I  I30  1  0.79028830  0.67242812  0.82451492  1
  I  I31  1  0.29028830  0.82757188  0.67548508  1
