# generated using pymatgen
data_BH4N
_symmetry_space_group_name_H-M   'P 1'
_cell_length_a   4.48553359
_cell_length_b   11.32438129
_cell_length_c   12.40461597
_cell_angle_alpha   90.00000000
_cell_angle_beta   90.00000000
_cell_angle_gamma   90.00000000
_symmetry_Int_Tables_number   1
_chemical_formula_structural   BH4N
_chemical_formula_sum   'B12 H48 N12'
_cell_volume   630.10354133
_cell_formula_units_Z   12
loop_
 _symmetry_equiv_pos_site_id
 _symmetry_equiv_pos_as_xyz
  1  'x, y, z'
loop_
 _atom_site_type_symbol
 _atom_site_label
 _atom_site_symmetry_multiplicity
 _atom_site_fract_x
 _atom_site_fract_y
 _atom_site_fract_z
 _atom_site_occupancy
  H  H0  1  0.16676322  0.75000000  0.70607620  1
  H  H1  1  0.16676322  0.25000000  0.79392380  1
  H  H2  1  0.83323678  0.25000000  0.29392380  1
  H  H3  1  0.83323678  0.75000000  0.20607620  1
  H  H4  1  0.47927329  0.75000000  0.63987711  1
  H  H5  1  0.47927329  0.25000000  0.86012289  1
  H  H6  1  0.52072671  0.25000000  0.36012289  1
  H  H7  1  0.52072671  0.75000000  0.13987711  1
  H  H8  1  0.73757177  0.04666456  0.38314341  1
  H  H9  1  0.73757177  0.95333544  0.11685659  1
  H  H10  1  0.26242823  0.54666456  0.61685659  1
  H  H11  1  0.26242823  0.45333544  0.88314341  1
  H  H12  1  0.26242823  0.95333544  0.61685659  1
  H  H13  1  0.26242823  0.04666456  0.88314341  1
  H  H14  1  0.73757177  0.45333544  0.38314341  1
  H  H15  1  0.73757177  0.54666456  0.11685659  1
  H  H16  1  0.12317843  0.12738851  0.42509622  1
  H  H17  1  0.83073404  0.06332974  0.58726864  1
  H  H18  1  0.12317843  0.87261149  0.07490378  1
  H  H19  1  0.87682157  0.37261149  0.92509622  1
  H  H20  1  0.87682157  0.87261149  0.57490378  1
  H  H21  1  0.87682157  0.12738851  0.92509622  1
  H  H22  1  0.12317843  0.37261149  0.42509622  1
  H  H23  1  0.12317843  0.62738851  0.07490378  1
  H  H24  1  0.12702398  0.75000000  0.88083560  1
  H  H25  1  0.12702398  0.25000000  0.61916440  1
  H  H26  1  0.87297602  0.25000000  0.11916440  1
  H  H27  1  0.87297602  0.75000000  0.38083560  1
  H  H28  1  0.74298328  0.75000000  0.79511618  1
  H  H29  1  0.74298328  0.25000000  0.70488382  1
  H  H30  1  0.25701672  0.25000000  0.20488382  1
  H  H31  1  0.25701672  0.75000000  0.29511618  1
  H  H32  1  0.52135185  0.62885529  0.94486020  1
  H  H33  1  0.52135185  0.37114471  0.55513980  1
  H  H34  1  0.47864815  0.12885529  0.05513980  1
  H  H35  1  0.47864815  0.87114471  0.44486020  1
  H  H36  1  0.47864815  0.37114471  0.05513980  1
  H  H37  1  0.47864815  0.62885529  0.44486020  1
  H  H38  1  0.52135185  0.87114471  0.94486020  1
  H  H39  1  0.52135185  0.12885529  0.55513980  1
  H  H40  1  0.83073404  0.56332974  0.91273136  1
  H  H41  1  0.83073404  0.43667026  0.58726864  1
  H  H42  1  0.16926596  0.06332974  0.08726864  1
  H  H43  1  0.16926596  0.93667026  0.41273136  1
  H  H44  1  0.16926596  0.43667026  0.08726864  1
  H  H45  1  0.16926596  0.56332974  0.41273136  1
  H  H46  1  0.83073404  0.93667026  0.91273136  1
  H  H47  1  0.87682157  0.62738851  0.57490378  1
  B  B48  1  0.85453160  0.75000000  0.88500355  1
  B  B49  1  0.85453160  0.25000000  0.61499645  1
  B  B50  1  0.14546840  0.25000000  0.11499645  1
  B  B51  1  0.14546840  0.75000000  0.38500355  1
  B  B52  1  0.85095725  0.13191315  0.42766887  1
  B  B53  1  0.85095725  0.86808685  0.07233113  1
  B  B54  1  0.14904275  0.63191315  0.57233113  1
  B  B55  1  0.14904275  0.36808685  0.92766887  1
  B  B56  1  0.14904275  0.86808685  0.57233113  1
  B  B57  1  0.14904275  0.13191315  0.92766887  1
  B  B58  1  0.85095725  0.36808685  0.42766887  1
  B  B59  1  0.85095725  0.63191315  0.07233113  1
  N  N60  1  0.74907916  0.13753140  0.54990341  1
  N  N61  1  0.74907916  0.86246860  0.95009659  1
  N  N62  1  0.25092084  0.63753140  0.45009659  1
  N  N63  1  0.25092084  0.36246860  0.04990341  1
  N  N64  1  0.25092084  0.86246860  0.45009659  1
  N  N65  1  0.25092084  0.13753140  0.04990341  1
  N  N66  1  0.74907916  0.36246860  0.54990341  1
  N  N67  1  0.74907916  0.63753140  0.95009659  1
  N  N68  1  0.74805715  0.75000000  0.12913339  1
  N  N69  1  0.74805715  0.25000000  0.37086661  1
  N  N70  1  0.25194285  0.25000000  0.87086661  1
  N  N71  1  0.25194285  0.75000000  0.62913339  1
