# generated using pymatgen
data_BiSe
_symmetry_space_group_name_H-M   'P 1'
_cell_length_a   4.25832183
_cell_length_b   4.25832183
_cell_length_c   24.15937822
_cell_angle_alpha   90.00000000
_cell_angle_beta   90.00000000
_cell_angle_gamma   119.99999996
_symmetry_Int_Tables_number   1
_chemical_formula_structural   BiSe
_chemical_formula_sum   'Bi6 Se6'
_cell_volume   379.39652265
_cell_formula_units_Z   6
loop_
 _symmetry_equiv_pos_site_id
 _symmetry_equiv_pos_as_xyz
  1  'x, y, z'
loop_
 _atom_site_type_symbol
 _atom_site_label
 _atom_site_symmetry_multiplicity
 _atom_site_fract_x
 _atom_site_fract_y
 _atom_site_fract_z
 _atom_site_occupancy
  Se  Se0  1  0.00000000  0.00000000  0.64928749  1
  Se  Se1  1  0.00000000  0.00000000  0.35071251  1
  Se  Se2  1  0.66666667  0.33333333  0.20830413  1
  Se  Se3  1  0.33333333  0.66666667  0.79169587  1
  Se  Se4  1  0.66666667  0.33333333  0.93432666  1
  Se  Se5  1  0.33333333  0.66666667  0.06567334  1
  Bi  Bi6  1  0.66666667  0.33333333  0.46291729  1
  Bi  Bi7  1  0.33333333  0.66666667  0.53708271  1
  Bi  Bi8  1  0.66666667  0.33333333  0.71399215  1
  Bi  Bi9  1  0.33333333  0.66666667  0.28600785  1
  Bi  Bi10  1  0.00000000  0.00000000  0.87149174  1
  Bi  Bi11  1  0.00000000  0.00000000  0.12850826  1
