# generated using pymatgen
data_KSc2F7
_symmetry_space_group_name_H-M   'P 1'
_cell_length_a   4.08483394
_cell_length_b   6.31859604
_cell_length_c   6.31859604
_cell_angle_alpha   116.96870065
_cell_angle_beta   90.00000000
_cell_angle_gamma   90.00000000
_symmetry_Int_Tables_number   1
_chemical_formula_structural   KSc2F7
_chemical_formula_sum   'K1 Sc2 F7'
_cell_volume   145.35074856
_cell_formula_units_Z   1
loop_
 _symmetry_equiv_pos_site_id
 _symmetry_equiv_pos_as_xyz
  1  'x, y, z'
loop_
 _atom_site_type_symbol
 _atom_site_label
 _atom_site_symmetry_multiplicity
 _atom_site_fract_x
 _atom_site_fract_y
 _atom_site_fract_z
 _atom_site_occupancy
  F  F0  1  0.50000000  0.50000000  0.50000000  1
  F  F1  1  0.50000000  0.66529514  0.95617388  1
  F  F2  1  0.50000000  0.33470486  0.04382612  1
  F  F3  1  0.00000000  0.70110909  0.29889091  1
  F  F4  1  0.00000000  0.29889091  0.70110909  1
  F  F5  1  0.50000000  0.04382612  0.33470486  1
  F  F6  1  0.50000000  0.95617388  0.66529514  1
  K  K7  1  0.00000000  0.00000000  0.00000000  1
  Sc  Sc8  1  0.50000000  0.69249091  0.30750909  1
  Sc  Sc9  1  0.50000000  0.30750909  0.69249091  1
