# generated using pymatgen
data_SbPC3S3N3Cl3O
_symmetry_space_group_name_H-M   'P 1'
_cell_length_a   12.56884709
_cell_length_b   12.56884687
_cell_length_c   12.56884704
_cell_angle_alpha   109.47122273
_cell_angle_beta   109.47122238
_cell_angle_gamma   109.47121926
_symmetry_Int_Tables_number   1
_chemical_formula_structural   SbPC3S3N3Cl3O
_chemical_formula_sum   'Sb4 P4 C12 S12 N12 Cl12 O4'
_cell_volume   1528.49638107
_cell_formula_units_Z   4
loop_
 _symmetry_equiv_pos_site_id
 _symmetry_equiv_pos_as_xyz
  1  'x, y, z'
loop_
 _atom_site_type_symbol
 _atom_site_label
 _atom_site_symmetry_multiplicity
 _atom_site_fract_x
 _atom_site_fract_y
 _atom_site_fract_z
 _atom_site_occupancy
  Sb  Sb0  1  0.78583025  0.00000000  1.00000000  1
  Sb  Sb1  1  0.21416975  0.21416975  0.21416975  1
  Sb  Sb2  1  1.00000000  1.00000000  0.78583025  1
  Sb  Sb3  1  1.00000000  0.78583025  1.00000000  1
  P  P4  1  0.34643488  1.00000000  0.00000000  1
  P  P5  1  0.00000000  0.34643488  0.00000000  1
  P  P6  1  0.00000000  0.00000000  0.34643488  1
  P  P7  1  0.65356512  0.65356512  0.65356512  1
  C  C8  1  0.29154812  0.78154213  0.78154213  1
  C  C9  1  0.78154213  0.78154213  0.29154812  1
  C  C10  1  1.00000000  0.21845787  0.51000599  1
  C  C11  1  0.21845787  0.51000599  1.00000000  1
  C  C12  1  0.78154213  0.29154812  0.78154213  1
  C  C13  1  0.48999401  0.70845188  0.48999401  1
  C  C14  1  0.70845188  0.48999401  0.48999401  1
  C  C15  1  0.51000599  0.21845787  1.00000000  1
  C  C16  1  1.00000000  0.51000599  0.21845787  1
  C  C17  1  0.21845787  1.00000000  0.51000599  1
  C  C18  1  0.51000599  1.00000000  0.21845787  1
  C  C19  1  0.48999401  0.48999401  0.70845188  1
  S  S20  1  0.66110678  0.26029315  0.66110678  1
  S  S21  1  0.33889322  1.00000000  0.59918636  1
  S  S22  1  1.00000000  0.33889322  0.59918636  1
  S  S23  1  0.40081364  0.40081364  0.73970685  1
  S  S24  1  0.33889322  0.59918636  1.00000000  1
  S  S25  1  0.26029315  0.66110678  0.66110678  1
  S  S26  1  0.59918636  1.00000000  0.33889322  1
  S  S27  1  0.73970685  0.40081364  0.40081364  1
  S  S28  1  0.59918636  0.33889322  1.00000000  1
  S  S29  1  0.40081364  0.73970685  0.40081364  1
  S  S30  1  0.66110678  0.66110678  0.26029315  1
  S  S31  1  1.00000000  0.59918636  0.33889322  1
  N  N32  1  0.44017979  0.12501930  1.00000000  1
  N  N33  1  0.31516049  0.87498070  0.87498070  1
  N  N34  1  0.87498070  0.87498070  0.31516049  1
  N  N35  1  0.12501930  0.00000000  0.44017979  1
  N  N36  1  0.12501930  0.44017979  1.00000000  1
  N  N37  1  0.87498070  0.31516049  0.87498070  1
  N  N38  1  0.44017979  1.00000000  0.12501930  1
  N  N39  1  0.00000000  0.12501930  0.44017979  1
  N  N40  1  1.00000000  0.44017979  0.12501930  1
  N  N41  1  0.68483951  0.55982021  0.55982021  1
  N  N42  1  0.55982021  0.55982021  0.68483951  1
  N  N43  1  0.55982021  0.68483951  0.55982021  1
  Cl  Cl44  1  0.00000000  0.62931257  0.82791530  1
  Cl  Cl45  1  0.37068743  0.19860273  0.37068743  1
  Cl  Cl46  1  0.62931257  0.00000000  0.82791530  1
  Cl  Cl47  1  0.19860273  0.37068743  0.37068743  1
  Cl  Cl48  1  0.00000000  0.82791530  0.62931257  1
  Cl  Cl49  1  0.80139727  0.17208470  0.17208470  1
  Cl  Cl50  1  0.17208470  0.17208470  0.80139727  1
  Cl  Cl51  1  0.82791530  0.00000000  0.62931257  1
  Cl  Cl52  1  0.62931257  0.82791530  0.00000000  1
  Cl  Cl53  1  0.17208470  0.80139727  0.17208470  1
  Cl  Cl54  1  0.82791530  0.62931257  0.00000000  1
  Cl  Cl55  1  0.37068743  0.37068743  0.19860273  1
  O  O56  1  0.77197693  0.77197693  0.77197693  1
  O  O57  1  0.00000000  0.22802307  0.00000000  1
  O  O58  1  0.00000000  0.00000000  0.22802307  1
  O  O59  1  0.22802307  1.00000000  0.00000000  1
