# generated using pymatgen
data_Na5Ca4Al13Si11O48
_symmetry_space_group_name_H-M   'P 1'
_cell_length_a   12.17499776
_cell_length_b   12.43787795
_cell_length_c   12.48620077
_cell_angle_alpha   89.75415589
_cell_angle_beta   90.11278381
_cell_angle_gamma   90.11612251
_symmetry_Int_Tables_number   1
_chemical_formula_structural   Na5Ca4Al13Si11O48
_chemical_formula_sum   'Na5 Ca4 Al13 Si11 O48'
_cell_volume   1890.77465036
_cell_formula_units_Z   1
loop_
 _symmetry_equiv_pos_site_id
 _symmetry_equiv_pos_as_xyz
  1  'x, y, z'
loop_
 _atom_site_type_symbol
 _atom_site_label
 _atom_site_symmetry_multiplicity
 _atom_site_fract_x
 _atom_site_fract_y
 _atom_site_fract_z
 _atom_site_occupancy
  Na  Na0  1  0.21664420  0.19951180  0.20391911  1
  Na  Na1  1  0.47907585  0.79436214  0.81029739  1
  Na  Na2  1  0.68372684  0.40647458  0.83823351  1
  Na  Na3  1  0.48999404  0.38744273  0.05386997  1
  Na  Na4  1  0.55962422  0.87475613  0.32671277  1
  Ca  Ca5  1  0.81947074  0.18754388  0.21923351  1
  Ca  Ca6  1  0.83633669  0.16602191  0.78488615  1
  Ca  Ca7  1  0.84655694  0.78989179  0.17045584  1
  Ca  Ca8  1  0.82528641  0.83557511  0.83417334  1
  Al  Al9  1  0.00519898  0.36809895  0.18787072  1
  Al  Al10  1  0.01380183  0.81136621  0.36237077  1
  Al  Al11  1  0.37409872  0.99174383  0.81840699  1
  Al  Al12  1  0.37840293  0.80384976  0.01201766  1
  Al  Al13  1  0.64688712  0.01132729  0.17473978  1
  Al  Al14  1  0.63530037  0.19251285  0.99390880  1
  Al  Al15  1  0.64009852  0.01295141  0.82189820  1
  Al  Al16  1  0.64642058  0.82404634  0.01552450  1
  Al  Al17  1  0.82176216  0.98691257  0.37626836  1
  Al  Al18  1  0.83557159  0.97099181  0.62145776  1
  Al  Al19  1  0.81395127  0.37258398  0.00084822  1
  Al  Al20  1  0.84584025  0.62701301  0.97569971  1
  Al  Al21  1  0.00290639  0.35922180  0.81883186  1
  Si  Si22  1  0.01819158  0.17842026  0.38043240  1
  Si  Si23  1  0.02190319  0.17398679  0.62088159  1
  Si  Si24  1  0.02223092  0.61154004  0.17901211  1
  Si  Si25  1  0.03014578  0.61879016  0.80365125  1
  Si  Si26  1  0.02224479  0.79864575  0.62061843  1
  Si  Si27  1  0.19891993  0.99966614  0.37173098  1
  Si  Si28  1  0.19866468  0.99426097  0.62116918  1
  Si  Si29  1  0.19093513  0.35643677  0.00491041  1
  Si  Si30  1  0.20668936  0.60293206  0.99724681  1
  Si  Si31  1  0.37559335  0.98905653  0.18205011  1
  Si  Si32  1  0.36949157  0.16445979  0.00084161  1
  O  O33  1  0.02161272  0.22926733  0.50080138  1
  O  O34  1  0.00504796  0.49746639  0.23812818  1
  O  O35  1  0.99598931  0.26334908  0.71230344  1
  O  O36  1  0.01340873  0.71238004  0.26087079  1
  O  O37  1  0.05373733  0.69481823  0.69769108  1
  O  O38  1  0.13634700  0.11062641  0.64026496  1
  O  O39  1  0.13632657  0.11918237  0.35252464  1
  O  O40  1  0.12819693  0.34014565  0.11982334  1
  O  O41  1  0.13312420  0.61393958  0.10639287  1
  O  O42  1  0.13204202  0.62756717  0.88981578  1
  O  O43  1  0.11066766  0.89619605  0.63957201  1
  O  O44  1  0.11182706  0.32961732  0.90561243  1
  O  O45  1  0.11985743  0.90337421  0.33813277  1
  O  O46  1  0.24005830  0.99312836  0.49537447  1
  O  O47  1  0.24940819  0.47590476  0.99379956  1
  O  O48  1  0.29910849  0.27696951  0.01885518  1
  O  O49  1  0.30074561  0.98425382  0.69867128  1
  O  O50  1  0.31182408  0.67836482  0.00443257  1
  O  O51  1  0.30812151  0.00964359  0.29530797  1
  O  O52  1  0.32947351  0.08818006  0.10397708  1
  O  O53  1  0.34887817  0.11335654  0.88647643  1
  O  O54  1  0.35457758  0.87057223  0.13606096  1
  O  O55  1  0.34487928  0.88232932  0.90138124  1
  O  O56  1  0.50560363  0.00856761  0.20927562  1
  O  O57  1  0.49463486  0.20351956  0.02390153  1
  O  O58  1  0.51919527  0.76851546  0.99405907  1
  O  O59  1  0.51281047  0.97514882  0.77734359  1
  O  O60  1  0.70109998  0.11441298  0.09322007  1
  O  O61  1  0.66621474  0.14948860  0.86233028  1
  O  O62  1  0.67688850  0.87328741  0.14763457  1
  O  O63  1  0.68601193  0.92234830  0.92151101  1
  O  O64  1  0.75920494  0.99421321  0.73890548  1
  O  O65  1  0.67491728  0.32772632  0.00749664  1
  O  O66  1  0.76387374  0.74152070  0.99261947  1
  O  O67  1  0.71990173  0.04019802  0.29181517  1
  O  O68  1  0.77034227  0.95892192  0.50133358  1
  O  O69  1  0.78597133  0.50436467  0.95784752  1
  O  O70  1  0.91821741  0.09015626  0.63209137  1
  O  O71  1  0.91822670  0.63568032  0.09726608  1
  O  O72  1  0.91432217  0.09858547  0.36330179  1
  O  O73  1  0.88460596  0.33213780  0.11667362  1
  O  O74  1  0.87386853  0.31839268  0.87978253  1
  O  O75  1  0.92068328  0.67360474  0.86119935  1
  O  O76  1  0.88816208  0.87422908  0.32114051  1
  O  O77  1  0.90406129  0.84940182  0.66502822  1
  O  O78  1  0.99686934  0.27012656  0.29042340  1
  O  O79  1  0.00631063  0.49373667  0.77560619  1
  O  O80  1  0.01477735  0.76669203  0.49575114  1
