# generated using pymatgen
data_SmI2
_symmetry_space_group_name_H-M   'P 1'
_cell_length_a   7.40034648
_cell_length_b   8.24739920
_cell_length_c   14.13088374
_cell_angle_alpha   90.00000000
_cell_angle_beta   90.00000000
_cell_angle_gamma   90.00000000
_symmetry_Int_Tables_number   1
_chemical_formula_structural   SmI2
_chemical_formula_sum   'Sm8 I16'
_cell_volume   862.45887030
_cell_formula_units_Z   8
loop_
 _symmetry_equiv_pos_site_id
 _symmetry_equiv_pos_as_xyz
  1  'x, y, z'
loop_
 _atom_site_type_symbol
 _atom_site_label
 _atom_site_symmetry_multiplicity
 _atom_site_fract_x
 _atom_site_fract_y
 _atom_site_fract_z
 _atom_site_occupancy
  Sm  Sm0  1  0.67497193  0.54975410  0.90562114  1
  Sm  Sm1  1  0.17497193  0.95024590  0.90562114  1
  Sm  Sm2  1  0.67497193  0.04975410  0.59437886  1
  Sm  Sm3  1  0.82502807  0.54975410  0.40562114  1
  Sm  Sm4  1  0.82502807  0.04975410  0.09437886  1
  Sm  Sm5  1  0.32502807  0.45024590  0.09437886  1
  Sm  Sm6  1  0.32502807  0.95024590  0.40562114  1
  Sm  Sm7  1  0.17497193  0.45024590  0.59437886  1
  I  I8  1  0.19518576  0.61585999  0.29517803  1
  I  I9  1  0.69518576  0.88414001  0.29517803  1
  I  I10  1  0.80481424  0.38414001  0.70482197  1
  I  I11  1  0.80481424  0.88414001  0.79517803  1
  I  I12  1  0.30481424  0.61585999  0.79517803  1
  I  I13  1  0.98222513  0.70672038  0.04616356  1
  I  I14  1  0.98222513  0.20672038  0.45383644  1
  I  I15  1  0.01777487  0.79327962  0.54616356  1
  I  I16  1  0.19518576  0.11585999  0.20482197  1
  I  I17  1  0.51777487  0.20672038  0.95383644  1
  I  I18  1  0.69518576  0.38414001  0.20482197  1
  I  I19  1  0.51777487  0.70672038  0.54616356  1
  I  I20  1  0.30481424  0.11585999  0.70482197  1
  I  I21  1  0.48222513  0.79327962  0.04616356  1
  I  I22  1  0.01777487  0.29327962  0.95383644  1
  I  I23  1  0.48222513  0.29327962  0.45383644  1
