# generated using pymatgen
data_Si2Ni3
_symmetry_space_group_name_H-M   'P 1'
_cell_length_a   6.91581984
_cell_length_b   8.15712787
_cell_length_c   8.15712787
_cell_angle_alpha   97.00922328
_cell_angle_beta   90.00000000
_cell_angle_gamma   90.00000000
_symmetry_Int_Tables_number   1
_chemical_formula_structural   Si2Ni3
_chemical_formula_sum   'Si16 Ni24'
_cell_volume   456.73083408
_cell_formula_units_Z   8
loop_
 _symmetry_equiv_pos_site_id
 _symmetry_equiv_pos_as_xyz
  1  'x, y, z'
loop_
 _atom_site_type_symbol
 _atom_site_label
 _atom_site_symmetry_multiplicity
 _atom_site_fract_x
 _atom_site_fract_y
 _atom_site_fract_z
 _atom_site_occupancy
  Si  Si0  1  0.71658889  0.59246791  0.59246791  1
  Si  Si1  1  0.21658889  0.40753209  0.40753209  1
  Si  Si2  1  0.21587401  0.84391568  0.84391568  1
  Si  Si3  1  0.71587401  0.15608432  0.15608432  1
  Si  Si4  1  0.92456055  0.19078476  0.49366766  1
  Si  Si5  1  0.42456055  0.80921524  0.50633234  1
  Si  Si6  1  0.42456055  0.50633234  0.80921524  1
  Si  Si7  1  0.92456055  0.49366766  0.19078476  1
  Si  Si8  1  0.50774700  0.18971740  0.49360012  1
  Si  Si9  1  0.00774700  0.81028260  0.50639988  1
  Si  Si10  1  0.00774700  0.50639988  0.81028260  1
  Si  Si11  1  0.50774700  0.49360012  0.18971740  1
  Si  Si12  1  0.21573463  0.93755565  0.17614442  1
  Si  Si13  1  0.71573463  0.06244435  0.82385558  1
  Si  Si14  1  0.71573463  0.82385558  0.06244435  1
  Si  Si15  1  0.21573463  0.17614442  0.93755565  1
  Ni  Ni16  1  0.96588103  1.00000150  1.00000150  1
  Ni  Ni17  1  0.46588103  -0.00000150  -0.00000150  1
  Ni  Ni18  1  0.02755729  0.23482582  0.23482582  1
  Ni  Ni19  1  0.52755729  0.76517418  0.76517418  1
  Ni  Ni20  1  0.40455484  0.23461776  0.23461776  1
  Ni  Ni21  1  0.90455484  0.76538224  0.76538224  1
  Ni  Ni22  1  0.71522498  0.38322738  0.38322738  1
  Ni  Ni23  1  0.21522498  0.61677262  0.61677262  1
  Ni  Ni24  1  0.21614407  0.31491690  0.67642600  1
  Ni  Ni25  1  0.71614407  0.68508310  0.32357400  1
  Ni  Ni26  1  0.71614407  0.32357400  0.68508310  1
  Ni  Ni27  1  0.21614407  0.67642600  0.31491690  1
  Ni  Ni28  1  0.21577443  0.05003719  0.44346036  1
  Ni  Ni29  1  0.71577443  0.94996281  0.55653964  1
  Ni  Ni30  1  0.71577443  0.55653964  0.94996281  1
  Ni  Ni31  1  0.21577443  0.44346036  0.05003719  1
  Ni  Ni32  1  0.90497090  0.94691408  0.29107803  1
  Ni  Ni33  1  0.40497090  0.05308592  0.70892197  1
  Ni  Ni34  1  0.40497090  0.70892197  0.05308592  1
  Ni  Ni35  1  0.90497090  0.29107803  0.94691408  1
  Ni  Ni36  1  0.52622790  0.94609689  0.29100467  1
  Ni  Ni37  1  0.02622790  0.05390311  0.70899533  1
  Ni  Ni38  1  0.02622790  0.70899533  0.05390311  1
  Ni  Ni39  1  0.52622790  0.29100467  0.94609689  1
