# generated using pymatgen
data_Th5Fe19P12
_symmetry_space_group_name_H-M   'P 1'
_cell_length_a   3.76156764
_cell_length_b   9.22213143
_cell_length_c   14.54240910
_cell_angle_alpha   102.88644344
_cell_angle_beta   97.43093311
_cell_angle_gamma   90.00000002
_symmetry_Int_Tables_number   1
_chemical_formula_structural   Th5Fe19P12
_chemical_formula_sum   'Th5 Fe19 P12'
_cell_volume   487.41852708
_cell_formula_units_Z   1
loop_
 _symmetry_equiv_pos_site_id
 _symmetry_equiv_pos_as_xyz
  1  'x, y, z'
loop_
 _atom_site_type_symbol
 _atom_site_label
 _atom_site_symmetry_multiplicity
 _atom_site_fract_x
 _atom_site_fract_y
 _atom_site_fract_z
 _atom_site_occupancy
  P  P0  1  0.91899557  0.05029687  0.83799115  1
  P  P1  1  0.08100443  0.94970313  0.16200885  1
  P  P2  1  0.69505443  0.03014506  0.39010886  1
  P  P3  1  0.30494557  0.96985494  0.60989114  1
  P  P4  1  0.39858844  0.37286026  0.79717688  1
  P  P5  1  0.73343514  0.64753083  0.46687027  1
  P  P6  1  0.15332604  0.34501374  0.30665209  1
  P  P7  1  0.84667396  0.65498626  0.69334791  1
  P  P8  1  0.01314601  0.26941102  0.02629201  1
  P  P9  1  0.98685399  0.73058898  0.97370799  1
  P  P10  1  0.60141156  0.62713974  0.20282312  1
  P  P11  1  0.26656486  0.35246917  0.53312973  1
  Fe  Fe12  1  0.77991968  0.49434660  0.55983935  1
  Fe  Fe13  1  0.75843562  0.89961191  0.51687125  1
  Fe  Fe14  1  0.24156438  0.10038809  0.48312875  1
  Fe  Fe15  1  0.22008032  0.50565340  0.44016065  1
  Fe  Fe16  1  0.34276583  0.50679096  0.68553166  1
  Fe  Fe17  1  0.61600082  0.89005814  0.23200164  1
  Fe  Fe18  1  0.38399918  0.10994186  0.76799836  1
  Fe  Fe19  1  0.52713663  0.85679604  0.05427327  1
  Fe  Fe20  1  0.47286337  0.14320396  0.94572673  1
  Fe  Fe21  1  0.29425683  0.72008429  0.58851366  1
  Fe  Fe22  1  0.70574317  0.27991571  0.41148634  1
  Fe  Fe23  1  0.00000000  0.00000000  0.00000000  1
  Fe  Fe24  1  0.84655537  0.90221035  0.69311074  1
  Fe  Fe25  1  0.08829086  0.45571344  0.17658171  1
  Fe  Fe26  1  0.91170914  0.54428656  0.82341829  1
  Fe  Fe27  1  0.06622603  0.70743284  0.13245206  1
  Fe  Fe28  1  0.93377397  0.29256716  0.86754794  1
  Fe  Fe29  1  0.65723417  0.49320904  0.31446834  1
  Fe  Fe30  1  0.15344463  0.09778965  0.30688926  1
  Th  Th31  1  0.50000000  0.50000000  0.00000000  1
  Th  Th32  1  0.58193130  0.19137841  0.16386259  1
  Th  Th33  1  0.41806870  0.80862159  0.83613741  1
  Th  Th34  1  0.17705377  0.77509379  0.35410753  1
  Th  Th35  1  0.82294623  0.22490621  0.64589247  1
