# generated using pymatgen
data_TeWBr9
_symmetry_space_group_name_H-M   'P 1'
_cell_length_a   7.11290629
_cell_length_b   10.38584376
_cell_length_c   12.17127293
_cell_angle_alpha   90.00000000
_cell_angle_beta   90.00000000
_cell_angle_gamma   103.41716775
_symmetry_Int_Tables_number   1
_chemical_formula_structural   TeWBr9
_chemical_formula_sum   'Te2 W2 Br18'
_cell_volume   874.59430380
_cell_formula_units_Z   2
loop_
 _symmetry_equiv_pos_site_id
 _symmetry_equiv_pos_as_xyz
  1  'x, y, z'
loop_
 _atom_site_type_symbol
 _atom_site_label
 _atom_site_symmetry_multiplicity
 _atom_site_fract_x
 _atom_site_fract_y
 _atom_site_fract_z
 _atom_site_occupancy
  Br  Br0  1  0.54747184  0.30550065  0.60682646  1
  Br  Br1  1  0.45252816  0.69449935  0.10682646  1
  Br  Br2  1  0.45252816  0.69449935  0.39317354  1
  Br  Br3  1  0.54747184  0.30550065  0.89317354  1
  Br  Br4  1  0.31501070  0.01127926  0.75000000  1
  Br  Br5  1  0.68498930  0.98872074  0.25000000  1
  Br  Br6  1  0.48103039  0.65111615  0.75000000  1
  Br  Br7  1  0.51896961  0.34888385  0.25000000  1
  Br  Br8  1  0.97853109  0.31528256  0.75000000  1
  Br  Br9  1  0.02146891  0.68471744  0.25000000  1
  Br  Br10  1  0.75469206  0.02545253  0.89885589  1
  Br  Br11  1  0.24530794  0.97454747  0.39885589  1
  Br  Br12  1  0.24530794  0.97454747  0.10114411  1
  Br  Br13  1  0.75469206  0.02545253  0.60114411  1
  Br  Br14  1  0.94946789  0.66431298  0.90635921  1
  Br  Br15  1  0.05053211  0.33568702  0.40635921  1
  Br  Br16  1  0.05053211  0.33568702  0.09364079  1
  Br  Br17  1  0.94946789  0.66431298  0.59364079  1
  Te  Te18  1  0.24300730  0.46856044  0.25000000  1
  Te  Te19  1  0.75699270  0.53143956  0.75000000  1
  W  W20  1  0.35545532  0.85364076  0.25000000  1
  W  W21  1  0.64454468  0.14635924  0.75000000  1
