# generated using pymatgen
data_Ba7Ir6O19
_symmetry_space_group_name_H-M   'P 1'
_cell_length_a   5.82821761
_cell_length_b   8.06173577
_cell_length_c   11.19623553
_cell_angle_alpha   98.38647630
_cell_angle_beta   90.00000000
_cell_angle_gamma   111.19075415
_symmetry_Int_Tables_number   1
_chemical_formula_structural   Ba7Ir6O19
_chemical_formula_sum   'Ba7 Ir6 O19'
_cell_volume   484.45200274
_cell_formula_units_Z   1
loop_
 _symmetry_equiv_pos_site_id
 _symmetry_equiv_pos_as_xyz
  1  'x, y, z'
loop_
 _atom_site_type_symbol
 _atom_site_label
 _atom_site_symmetry_multiplicity
 _atom_site_fract_x
 _atom_site_fract_y
 _atom_site_fract_z
 _atom_site_occupancy
  O  O0  1  0.00000000  0.00000000  0.50000000  1
  O  O1  1  0.29789124  0.59578247  0.38654180  1
  O  O2  1  0.70210876  0.40421753  0.61345820  1
  O  O3  1  0.94224478  0.88448955  0.84952697  1
  O  O4  1  0.05775522  0.11551045  0.15047303  1
  O  O5  1  0.60243793  0.20487585  0.93564196  1
  O  O6  1  0.39756207  0.79512415  0.06435804  1
  O  O7  1  0.67987385  0.85770906  0.29385214  1
  O  O8  1  0.82216479  0.14229094  0.70614786  1
  O  O9  1  0.32012615  0.14229094  0.70614786  1
  O  O10  1  0.17783521  0.85770906  0.29385214  1
  O  O11  1  0.01473141  0.48772414  0.16309091  1
  O  O12  1  0.52700728  0.51227586  0.83690909  1
  O  O13  1  0.89257519  0.25049923  0.36735131  1
  O  O14  1  0.64207595  0.74950077  0.63264869  1
  O  O15  1  0.10742481  0.74950077  0.63264869  1
  O  O16  1  0.35792405  0.25049923  0.36735131  1
  O  O17  1  0.47299272  0.48772414  0.16309091  1
  O  O18  1  0.98526859  0.51227586  0.83690909  1
  Ba  Ba19  1  0.50000000  0.00000000  0.50000000  1
  Ba  Ba20  1  0.14442607  0.28885215  0.94525170  1
  Ba  Ba21  1  0.85557393  0.71114785  0.05474830  1
  Ba  Ba22  1  0.42612325  0.85224651  0.83750328  1
  Ba  Ba23  1  0.57387675  0.14775349  0.16249672  1
  Ba  Ba24  1  0.19522380  0.39044761  0.58977700  1
  Ba  Ba25  1  0.80477620  0.60955239  0.41022300  1
  Ir  Ir26  1  0.81677030  0.63354060  0.73449057  1
  Ir  Ir27  1  0.18322970  0.36645940  0.26550943  1
  Ir  Ir28  1  0.65464756  0.30929511  0.78152808  1
  Ir  Ir29  1  0.34535244  0.69070489  0.21847192  1
  Ir  Ir30  1  0.97661116  0.95322232  0.67734541  1
  Ir  Ir31  1  0.02338884  0.04677768  0.32265459  1
