# generated using pymatgen
data_Zn4As2O9
_symmetry_space_group_name_H-M   'P 1'
_cell_length_a   8.35963020
_cell_length_b   9.93055880
_cell_length_c   10.13812578
_cell_angle_alpha   116.24883051
_cell_angle_beta   90.00000000
_cell_angle_gamma   90.00000000
_symmetry_Int_Tables_number   1
_chemical_formula_structural   Zn4As2O9
_chemical_formula_sum   'Zn16 As8 O36'
_cell_volume   754.83777315
_cell_formula_units_Z   4
loop_
 _symmetry_equiv_pos_site_id
 _symmetry_equiv_pos_as_xyz
  1  'x, y, z'
loop_
 _atom_site_type_symbol
 _atom_site_label
 _atom_site_symmetry_multiplicity
 _atom_site_fract_x
 _atom_site_fract_y
 _atom_site_fract_z
 _atom_site_occupancy
  O  O0  1  0.66472570  0.35629958  0.11447749  1
  O  O1  1  0.16472570  0.14370042  0.38552251  1
  O  O2  1  0.33527430  0.64370042  0.88552251  1
  O  O3  1  0.83527430  0.85629958  0.61447749  1
  O  O4  1  0.51655405  0.26160368  0.30651010  1
  O  O5  1  0.01655405  0.23839632  0.19348990  1
  O  O6  1  0.48344595  0.73839632  0.69348990  1
  O  O7  1  0.98344595  0.76160368  0.80651010  1
  O  O8  1  0.32652778  0.01333857  0.00863546  1
  O  O9  1  0.82652778  0.48666143  0.49136454  1
  O  O10  1  0.67347222  0.98666143  0.99136454  1
  O  O11  1  0.17347222  0.51333857  0.50863546  1
  O  O12  1  0.50067224  0.38702810  0.86345501  1
  O  O13  1  0.00067224  0.11297190  0.63654499  1
  O  O14  1  0.52437138  0.56254311  0.38709046  1
  O  O15  1  0.49932776  0.61297190  0.13654499  1
  O  O16  1  0.34193769  0.16978083  0.61339585  1
  O  O17  1  0.84193769  0.33021917  0.88660415  1
  O  O18  1  0.65806231  0.83021917  0.38660415  1
  O  O19  1  0.15806231  0.66978083  0.11339585  1
  O  O20  1  0.57232137  0.09055548  0.78362720  1
  O  O21  1  0.07232137  0.40944452  0.71637280  1
  O  O22  1  0.42767863  0.90944452  0.21637280  1
  O  O23  1  0.92767863  0.59055548  0.28362720  1
  O  O24  1  0.17921761  0.87597786  0.65323434  1
  O  O25  1  0.67921761  0.62402214  0.84676566  1
  O  O26  1  0.82078239  0.12402214  0.34676566  1
  O  O27  1  0.32078239  0.37597786  0.15323434  1
  O  O28  1  0.82927081  0.70033521  0.09428646  1
  O  O29  1  0.32927081  0.79966479  0.40571354  1
  O  O30  1  0.17072919  0.29966479  0.90571354  1
  O  O31  1  0.67072919  0.20033521  0.59428646  1
  O  O32  1  0.97562862  0.06254311  0.88709046  1
  O  O33  1  0.47562862  0.43745689  0.61290954  1
  O  O34  1  0.02437138  0.93745689  0.11290954  1
  O  O35  1  0.99932776  0.88702810  0.36345501  1
  Zn  Zn36  1  0.31846945  0.67601398  0.52331969  1
  Zn  Zn37  1  0.81846945  0.82398602  0.97668031  1
  Zn  Zn38  1  0.68153055  0.32398602  0.47668031  1
  Zn  Zn39  1  0.18153055  0.17601398  0.02331969  1
  Zn  Zn40  1  0.02034855  0.44641811  0.34575638  1
  Zn  Zn41  1  0.52034855  0.05358189  0.15424362  1
  Zn  Zn42  1  0.97965145  0.55358189  0.65424362  1
  Zn  Zn43  1  0.47965145  0.94641811  0.84575638  1
  Zn  Zn44  1  0.69283194  0.50995729  0.99445323  1
  Zn  Zn45  1  0.19283194  0.99004271  0.50554677  1
  Zn  Zn46  1  0.30716806  0.49004271  0.00554677  1
  Zn  Zn47  1  0.80716806  0.00995729  0.49445323  1
  Zn  Zn48  1  0.75638874  0.16231893  0.95634484  1
  Zn  Zn49  1  0.25638874  0.33768107  0.54365516  1
  Zn  Zn50  1  0.24361126  0.83768107  0.04365516  1
  Zn  Zn51  1  0.74361126  0.66231893  0.45634484  1
  As  As52  1  0.98363543  0.71390873  0.21392391  1
  As  As53  1  0.48363543  0.78609127  0.28607609  1
  As  As54  1  0.01636457  0.28609127  0.78607609  1
  As  As55  1  0.51636457  0.21390873  0.71392391  1
  As  As56  1  0.99445208  0.89247971  0.73329009  1
  As  As57  1  0.49445208  0.60752029  0.76670991  1
  As  As58  1  0.00554792  0.10752029  0.26670991  1
  As  As59  1  0.50554792  0.39247971  0.23329009  1
