# generated using pymatgen
data_KRbS
_symmetry_space_group_name_H-M   'P 1'
_cell_length_a   5.05139402
_cell_length_b   8.35496888
_cell_length_c   9.55670707
_cell_angle_alpha   90.00000000
_cell_angle_beta   90.00000000
_cell_angle_gamma   90.00000000
_symmetry_Int_Tables_number   1
_chemical_formula_structural   KRbS
_chemical_formula_sum   'K4 Rb4 S4'
_cell_volume   403.33355724
_cell_formula_units_Z   4
loop_
 _symmetry_equiv_pos_site_id
 _symmetry_equiv_pos_as_xyz
  1  'x, y, z'
loop_
 _atom_site_type_symbol
 _atom_site_label
 _atom_site_symmetry_multiplicity
 _atom_site_fract_x
 _atom_site_fract_y
 _atom_site_fract_z
 _atom_site_occupancy
  S  S0  1  0.25000000  0.73657810  0.39166914  1
  S  S1  1  0.75000000  0.26342190  0.60833086  1
  S  S2  1  0.25000000  0.23657810  0.10833086  1
  S  S3  1  0.75000000  0.76342190  0.89166914  1
  K  K4  1  0.75000000  0.64691332  0.57537863  1
  K  K5  1  0.25000000  0.35308668  0.42462137  1
  K  K6  1  0.75000000  0.14691332  0.92462137  1
  K  K7  1  0.25000000  0.85308668  0.07537863  1
  Rb  Rb8  1  0.25000000  0.97837378  0.67623890  1
  Rb  Rb9  1  0.75000000  0.02162622  0.32376110  1
  Rb  Rb10  1  0.25000000  0.47837378  0.82376110  1
  Rb  Rb11  1  0.75000000  0.52162622  0.17623890  1
