# generated using pymatgen
data_Ca10P6O25
_symmetry_space_group_name_H-M   'P 1'
_cell_length_a   9.59496099
_cell_length_b   9.59496099
_cell_length_c   6.90069663
_cell_angle_alpha   90.00000000
_cell_angle_beta   90.00000000
_cell_angle_gamma   119.99999997
_symmetry_Int_Tables_number   1
_chemical_formula_structural   Ca10P6O25
_chemical_formula_sum   'Ca10 P6 O25'
_cell_volume   550.18658088
_cell_formula_units_Z   1
loop_
 _symmetry_equiv_pos_site_id
 _symmetry_equiv_pos_as_xyz
  1  'x, y, z'
loop_
 _atom_site_type_symbol
 _atom_site_label
 _atom_site_symmetry_multiplicity
 _atom_site_fract_x
 _atom_site_fract_y
 _atom_site_fract_z
 _atom_site_occupancy
  O  O0  1  0.32481596  0.47895890  0.00000000  1
  O  O1  1  0.15414294  0.67518404  0.00000000  1
  O  O2  1  0.52104110  0.84585706  0.00000000  1
  O  O3  1  0.65540682  0.50210152  0.50000000  1
  O  O4  1  0.84669471  0.34459318  0.50000000  1
  O  O5  1  0.49789848  0.15330529  0.50000000  1
  O  O6  1  0.57361855  0.44755339  0.00000000  1
  O  O7  1  0.87393484  0.42638145  0.00000000  1
  O  O8  1  0.55244661  0.12606516  0.00000000  1
  O  O9  1  0.40019132  0.52626690  0.50000000  1
  O  O10  1  0.12607558  0.59980868  0.50000000  1
  O  O11  1  0.47373310  0.87392442  0.50000000  1
  O  O12  1  0.32418182  0.24191322  0.82137465  1
  O  O13  1  0.91773140  0.67581818  0.17862535  1
  O  O14  1  0.75808678  0.08226860  0.17862535  1
  O  O15  1  0.75808678  0.08226860  0.82137465  1
  O  O16  1  0.91773140  0.67581818  0.82137465  1
  O  O17  1  0.32418182  0.24191322  0.17862535  1
  O  O18  1  0.64355245  0.72758003  0.68290901  1
  O  O19  1  0.08402758  0.35644755  0.31709099  1
  O  O20  1  0.27241997  0.91597242  0.31709099  1
  O  O21  1  0.27241997  0.91597242  0.68290901  1
  O  O22  1  0.08402758  0.35644755  0.68290901  1
  O  O23  1  0.64355245  0.72758003  0.31709099  1
  O  O24  1  0.00000000  0.00000000  0.50000000  1
  P  P25  1  0.97073413  0.61567463  0.00000000  1
  P  P26  1  0.64494050  0.02926587  0.00000000  1
  P  P27  1  0.58759763  0.61832373  0.50000000  1
  P  P28  1  0.03072610  0.41240237  0.50000000  1
  P  P29  1  0.38167627  0.96927390  0.50000000  1
  P  P30  1  0.38432537  0.35505950  0.00000000  1
  Ca  Ca31  1  0.33333333  0.66666667  0.74646257  1
  Ca  Ca32  1  0.66666667  0.33333333  0.74380598  1
  Ca  Ca33  1  0.33333333  0.66666667  0.25353743  1
  Ca  Ca34  1  0.27532403  0.99563740  0.00000000  1
  Ca  Ca35  1  0.72031336  0.72467597  0.00000000  1
  Ca  Ca36  1  0.00436260  0.27968664  0.00000000  1
  Ca  Ca37  1  0.76993912  -0.00812875  0.50000000  1
  Ca  Ca38  1  0.22193213  0.23006088  0.50000000  1
  Ca  Ca39  1  1.00812875  0.77806787  0.50000000  1
  Ca  Ca40  1  0.66666667  0.33333333  0.25619402  1
