# generated using pymatgen
data_Rb2CdCl4
_symmetry_space_group_name_H-M   'P 1'
_cell_length_a   5.31359086
_cell_length_b   5.31359086
_cell_length_c   9.01663699
_cell_angle_alpha   107.13683928
_cell_angle_beta   107.13683929
_cell_angle_gamma   90.00000000
_symmetry_Int_Tables_number   1
_chemical_formula_structural   Rb2CdCl4
_chemical_formula_sum   'Rb2 Cd1 Cl4'
_cell_volume   231.42202296
_cell_formula_units_Z   1
loop_
 _symmetry_equiv_pos_site_id
 _symmetry_equiv_pos_as_xyz
  1  'x, y, z'
loop_
 _atom_site_type_symbol
 _atom_site_label
 _atom_site_symmetry_multiplicity
 _atom_site_fract_x
 _atom_site_fract_y
 _atom_site_fract_z
 _atom_site_occupancy
  Cl  Cl0  1  0.84025095  0.84025095  0.68050189  1
  Cl  Cl1  1  0.15974905  0.15974905  0.31949811  1
  Cl  Cl2  1  0.00000000  0.50000000  0.00000000  1
  Cl  Cl3  1  0.50000000  0.00000000  0.00000000  1
  Rb  Rb4  1  0.35973175  0.35973175  0.71946351  1
  Rb  Rb5  1  0.64026825  0.64026825  0.28053649  1
  Cd  Cd6  1  0.00000000  0.00000000  0.00000000  1
