# generated using pymatgen
data_Pd(Se3Cl)2
_symmetry_space_group_name_H-M   'P 1'
_cell_length_a   4.95376487
_cell_length_b   8.60234738
_cell_length_c   13.13618422
_cell_angle_alpha   90.00000000
_cell_angle_beta   99.28651729
_cell_angle_gamma   90.00000000
_symmetry_Int_Tables_number   1
_chemical_formula_structural   Pd(Se3Cl)2
_chemical_formula_sum   'Pd2 Se12 Cl4'
_cell_volume   552.44873038
_cell_formula_units_Z   2
loop_
 _symmetry_equiv_pos_site_id
 _symmetry_equiv_pos_as_xyz
  1  'x, y, z'
loop_
 _atom_site_type_symbol
 _atom_site_label
 _atom_site_symmetry_multiplicity
 _atom_site_fract_x
 _atom_site_fract_y
 _atom_site_fract_z
 _atom_site_occupancy
  Cl  Cl0  1  0.70976870  0.53665441  0.35555167  1
  Cl  Cl1  1  0.79023130  0.03665441  0.14444833  1
  Cl  Cl2  1  0.29023130  0.46334559  0.64444833  1
  Cl  Cl3  1  0.20976870  0.96334559  0.85555167  1
  Se  Se4  1  0.46747421  0.12126153  0.64718222  1
  Se  Se5  1  0.53252579  0.87873847  0.35281778  1
  Se  Se6  1  0.85506665  0.36877601  0.86052260  1
  Se  Se7  1  0.96747421  0.37873847  0.14718222  1
  Se  Se8  1  0.14493335  0.63122399  0.13947740  1
  Se  Se9  1  0.35506665  0.13122399  0.36052260  1
  Se  Se10  1  0.83246676  0.73227087  0.99338383  1
  Se  Se11  1  0.66753324  0.23227087  0.50661617  1
  Se  Se12  1  0.16753324  0.26772913  0.00661617  1
  Se  Se13  1  0.33246676  0.76772913  0.49338383  1
  Se  Se14  1  0.64493335  0.86877601  0.63947740  1
  Se  Se15  1  0.03252579  0.62126153  0.85281778  1
  Pd  Pd16  1  0.50000000  0.50000000  0.50000000  1
  Pd  Pd17  1  0.00000000  0.00000000  0.00000000  1
