# generated using pymatgen
data_Ni4P16W
_symmetry_space_group_name_H-M   'P 1'
_cell_length_a   5.69507201
_cell_length_b   10.24486392
_cell_length_c   11.16185645
_cell_angle_alpha   100.51486106
_cell_angle_beta   90.00000000
_cell_angle_gamma   106.13775309
_symmetry_Int_Tables_number   1
_chemical_formula_structural   Ni4P16W
_chemical_formula_sum   'Ni8 P32 W2'
_cell_volume   614.18716309
_cell_formula_units_Z   2
loop_
 _symmetry_equiv_pos_site_id
 _symmetry_equiv_pos_as_xyz
  1  'x, y, z'
loop_
 _atom_site_type_symbol
 _atom_site_label
 _atom_site_symmetry_multiplicity
 _atom_site_fract_x
 _atom_site_fract_y
 _atom_site_fract_z
 _atom_site_occupancy
  P  P0  1  0.74098877  0.00832465  0.60742169  1
  P  P1  1  0.73266412  0.99167535  0.89257831  1
  P  P2  1  0.25901123  0.99167535  0.39257831  1
  P  P3  1  0.26733588  0.00832465  0.10742169  1
  P  P4  1  0.38432962  0.75840421  0.66079792  1
  P  P5  1  0.62592541  0.24159579  0.83920208  1
  P  P6  1  0.61567038  0.24159579  0.33920208  1
  P  P7  1  0.37407459  0.75840421  0.16079792  1
  P  P8  1  0.73277147  0.71799134  0.71953214  1
  P  P9  1  0.01478014  0.28200866  0.78046786  1
  P  P10  1  0.00937627  0.12293778  0.36793770  1
  P  P11  1  0.88643849  0.87706222  0.13206230  1
  P  P12  1  0.99062373  0.87706222  0.63206230  1
  P  P13  1  0.11356151  0.12293778  0.86793770  1
  P  P14  1  0.78040209  0.12396887  0.08029476  1
  P  P15  1  0.65643322  0.87603113  0.41970524  1
  P  P16  1  0.21959791  0.87603113  0.91970524  1
  P  P17  1  0.34356678  0.12396887  0.58029476  1
  P  P18  1  0.60252933  0.28336285  0.04253864  1
  P  P19  1  0.31916648  0.71663715  0.45746136  1
  P  P20  1  0.39747067  0.71663715  0.95746136  1
  P  P21  1  0.68083352  0.28336285  0.54253864  1
  P  P22  1  0.14655825  0.42582181  0.05429121  1
  P  P23  1  0.72073644  0.57417819  0.44570879  1
  P  P24  1  0.85344175  0.57417819  0.94570879  1
  P  P25  1  0.27926356  0.42582181  0.55429121  1
  P  P26  1  0.88381744  0.44246181  0.31204904  1
  P  P27  1  0.44135562  0.55753819  0.18795096  1
  P  P28  1  0.11618256  0.55753819  0.68795096  1
  P  P29  1  0.55864438  0.44246181  0.81204904  1
  P  P30  1  0.98521986  0.71799134  0.21953214  1
  P  P31  1  0.26722853  0.28200866  0.28046786  1
  Ni  Ni32  1  0.69454801  0.49905512  0.62846073  1
  Ni  Ni33  1  0.19549289  0.50094488  0.87153927  1
  Ni  Ni34  1  0.30545199  0.50094488  0.37153927  1
  Ni  Ni35  1  0.80450711  0.49905512  0.12846073  1
  Ni  Ni36  1  0.20045294  0.21224383  0.07439323  1
  Ni  Ni37  1  0.98820911  0.78775617  0.42560677  1
  Ni  Ni38  1  0.79954706  0.78775617  0.92560677  1
  Ni  Ni39  1  0.01179089  0.21224383  0.57439323  1
  W  W40  1  0.39476473  0.00000000  0.75000000  1
  W  W41  1  0.60523527  0.00000000  0.25000000  1
