# generated using pymatgen
data_Ba(Fe2O3)9
_symmetry_space_group_name_H-M   'P 1'
_cell_length_a   6.02248803
_cell_length_b   6.02248809
_cell_length_c   33.12366722
_cell_angle_alpha   90.00000000
_cell_angle_beta   90.00000000
_cell_angle_gamma   120.00000573
_symmetry_Int_Tables_number   1
_chemical_formula_structural   Ba(Fe2O3)9
_chemical_formula_sum   'Ba2 Fe36 O54'
_cell_volume   1040.44928200
_cell_formula_units_Z   2
loop_
 _symmetry_equiv_pos_site_id
 _symmetry_equiv_pos_as_xyz
  1  'x, y, z'
loop_
 _atom_site_type_symbol
 _atom_site_label
 _atom_site_symmetry_multiplicity
 _atom_site_fract_x
 _atom_site_fract_y
 _atom_site_fract_z
 _atom_site_occupancy
  Ba  Ba0  1  0.00000000  0.00000000  0.75000000  1
  Ba  Ba1  1  0.00000000  0.00000000  0.25000000  1
  Fe  Fe2  1  0.66666700  0.33333300  0.59666663  1
  Fe  Fe3  1  0.33355327  0.16677613  0.14988749  1
  Fe  Fe4  1  0.00000000  0.00000000  0.94442033  1
  Fe  Fe5  1  0.83322387  0.16677613  0.14988749  1
  Fe  Fe6  1  0.33333300  0.66666700  0.75000000  1
  Fe  Fe7  1  0.00000000  0.00000000  0.55557967  1
  Fe  Fe8  1  0.16677613  0.33355327  0.64988749  1
  Fe  Fe9  1  0.66666700  0.33333300  0.90333337  1
  Fe  Fe10  1  0.33333300  0.66666700  0.20787042  1
  Fe  Fe11  1  0.83322387  0.16677613  0.35011251  1
  Fe  Fe12  1  0.50000000  0.00000000  0.50000000  1
  Fe  Fe13  1  0.00000000  0.50000000  0.50000000  1
  Fe  Fe14  1  0.33333300  0.66666700  0.09666663  1
  Fe  Fe15  1  0.50000000  0.50000000  0.00000000  1
  Fe  Fe16  1  0.16677613  0.83322387  0.85011251  1
  Fe  Fe17  1  0.33333300  0.66666700  0.40333337  1
  Fe  Fe18  1  0.66666700  0.33333300  0.79212958  1
  Fe  Fe19  1  0.00000000  0.00000000  0.44442033  1
  Fe  Fe20  1  0.33355327  0.16677613  0.35011251  1
  Fe  Fe21  1  0.66666700  0.33333300  0.42662615  1
  Fe  Fe22  1  0.50000000  0.00000000  0.00000000  1
  Fe  Fe23  1  0.33333300  0.66666700  0.57337385  1
  Fe  Fe24  1  0.66666700  0.33333300  0.25000000  1
  Fe  Fe25  1  0.50000000  0.50000000  0.50000000  1
  Fe  Fe26  1  0.83322387  0.66644673  0.35011251  1
  Fe  Fe27  1  0.33333300  0.66666700  0.92662615  1
  Fe  Fe28  1  0.66644673  0.83322387  0.85011251  1
  Fe  Fe29  1  0.83322387  0.66644673  0.14988749  1
  Fe  Fe30  1  0.00000000  0.00000000  0.05557967  1
  Fe  Fe31  1  0.66666700  0.33333300  0.70787042  1
  Fe  Fe32  1  0.00000000  0.50000000  0.00000000  1
  Fe  Fe33  1  0.16677613  0.83322387  0.64988749  1
  Fe  Fe34  1  0.66644673  0.83322387  0.64988749  1
  Fe  Fe35  1  0.16677613  0.33355327  0.85011251  1
  Fe  Fe36  1  0.66666700  0.33333300  0.07337385  1
  Fe  Fe37  1  0.33333300  0.66666700  0.29212958  1
  O  O38  1  0.32597855  0.16298928  0.82136266  1
  O  O39  1  0.48869748  0.97739596  0.61050601  1
  O  O40  1  0.00000000  0.00000000  0.11246918  1
  O  O41  1  0.17491312  0.82508688  0.53440251  1
  O  O42  1  0.65017376  0.82508688  0.53440251  1
  O  O43  1  0.67402145  0.83701072  0.17863734  1
  O  O44  1  0.48869748  0.97739596  0.88949399  1
  O  O45  1  0.97739596  0.48869748  0.38949399  1
  O  O46  1  0.48390549  0.96781097  0.25000000  1
  O  O47  1  0.83701072  0.16298928  0.67863734  1
  O  O48  1  0.67402145  0.83701072  0.32136266  1
  O  O49  1  0.51130252  0.48869748  0.11050601  1
  O  O50  1  0.48869748  0.51130252  0.61050601  1
  O  O51  1  0.51130252  0.48869748  0.38949399  1
  O  O52  1  0.00000000  0.00000000  0.38753082  1
  O  O53  1  0.66666700  0.33333300  0.31925488  1
  O  O54  1  0.66666700  0.33333300  0.18074512  1
  O  O55  1  0.51130252  0.02260404  0.38949399  1
  O  O56  1  0.65017376  0.82508688  0.96559749  1
  O  O57  1  0.82508688  0.65017376  0.46559749  1
  O  O58  1  0.17491312  0.82508688  0.96559749  1
  O  O59  1  0.96781097  0.48390549  0.75000000  1
  O  O60  1  0.16298928  0.83701072  0.32136266  1
  O  O61  1  0.32597855  0.16298928  0.67863734  1
  O  O62  1  0.51130252  0.02260404  0.11050601  1
  O  O63  1  0.34982624  0.17491312  0.46559749  1
  O  O64  1  0.00000000  0.00000000  0.61246918  1
  O  O65  1  0.16298928  0.83701072  0.17863734  1
  O  O66  1  0.03218903  0.51609451  0.25000000  1
  O  O67  1  0.48390549  0.51609451  0.25000000  1
  O  O68  1  0.82508688  0.65017376  0.03440251  1
  O  O69  1  0.66666700  0.33333300  0.96603444  1
  O  O70  1  0.16298928  0.32597855  0.17863734  1
  O  O71  1  0.48869748  0.51130252  0.88949399  1
  O  O72  1  0.82508688  0.17491312  0.46559749  1
  O  O73  1  0.83701072  0.67402145  0.82136266  1
  O  O74  1  0.33333300  0.66666700  0.81925488  1
  O  O75  1  0.16298928  0.32597855  0.32136266  1
  O  O76  1  0.17491312  0.34982624  0.53440251  1
  O  O77  1  0.51609451  0.03218903  0.75000000  1
  O  O78  1  0.17491312  0.34982624  0.96559749  1
  O  O79  1  0.33333300  0.66666700  0.68074512  1
  O  O80  1  0.83701072  0.67402145  0.67863734  1
  O  O81  1  0.00000000  0.00000000  0.88753082  1
  O  O82  1  0.82508688  0.17491312  0.03440251  1
  O  O83  1  0.33333300  0.66666700  0.03396556  1
  O  O84  1  0.02260404  0.51130252  0.61050601  1
  O  O85  1  0.66666700  0.33333300  0.53396556  1
  O  O86  1  0.51609451  0.48390549  0.75000000  1
  O  O87  1  0.34982624  0.17491312  0.03440251  1
  O  O88  1  0.33333300  0.66666700  0.46603444  1
  O  O89  1  0.02260404  0.51130252  0.88949399  1
  O  O90  1  0.97739596  0.48869748  0.11050601  1
  O  O91  1  0.83701072  0.16298928  0.82136266  1
