# generated using pymatgen
data_U(BO3)2
_symmetry_space_group_name_H-M   'P 1'
_cell_length_a   4.22409930
_cell_length_b   6.68110063
_cell_length_c   9.52435031
_cell_angle_alpha   82.02002745
_cell_angle_beta   77.18800622
_cell_angle_gamma   71.57137769
_symmetry_Int_Tables_number   1
_chemical_formula_structural   U(BO3)2
_chemical_formula_sum   'U2 B4 O12'
_cell_volume   247.97245134
_cell_formula_units_Z   2
loop_
 _symmetry_equiv_pos_site_id
 _symmetry_equiv_pos_as_xyz
  1  'x, y, z'
loop_
 _atom_site_type_symbol
 _atom_site_label
 _atom_site_symmetry_multiplicity
 _atom_site_fract_x
 _atom_site_fract_y
 _atom_site_fract_z
 _atom_site_occupancy
  B  B0  1  0.54857785  0.35168751  0.25065499  1
  B  B1  1  0.84907966  0.85168751  0.75065499  1
  B  B2  1  0.45142215  0.64831249  0.74934501  1
  B  B3  1  0.15092034  0.14831249  0.24934501  1
  O  O4  1  0.15633048  0.23137749  0.94417903  1
  O  O5  1  0.33188701  0.26862251  0.55582097  1
  O  O6  1  0.65627269  0.44963249  0.75339981  1
  O  O7  1  0.85930499  0.05036751  0.74660019  1
  O  O8  1  0.34372731  0.55036751  0.24660019  1
  O  O9  1  0.14069501  0.94963249  0.25339981  1
  O  O10  1  0.52533480  0.83361148  0.75854781  1
  O  O11  1  0.11749409  0.66638852  0.74145219  1
  O  O12  1  0.47466520  0.16638852  0.24145219  1
  O  O13  1  0.88250591  0.33361148  0.25854781  1
  O  O14  1  0.66811299  0.73137749  0.44417903  1
  O  O15  1  0.84366952  0.76862251  0.05582097  1
  U  U16  1  0.23745203  0.25000000  0.75000000  1
  U  U17  1  0.76254797  0.75000000  0.25000000  1
