# generated using pymatgen
data_Ti5Ga4
_symmetry_space_group_name_H-M   'P 1'
_cell_length_a   7.87959199
_cell_length_b   7.87959224
_cell_length_c   5.41712692
_cell_angle_alpha   90.00000000
_cell_angle_beta   90.00000000
_cell_angle_gamma   119.99999890
_symmetry_Int_Tables_number   1
_chemical_formula_structural   Ti5Ga4
_chemical_formula_sum   'Ti10 Ga8'
_cell_volume   291.27762280
_cell_formula_units_Z   2
loop_
 _symmetry_equiv_pos_site_id
 _symmetry_equiv_pos_as_xyz
  1  'x, y, z'
loop_
 _atom_site_type_symbol
 _atom_site_label
 _atom_site_symmetry_multiplicity
 _atom_site_fract_x
 _atom_site_fract_y
 _atom_site_fract_z
 _atom_site_occupancy
  Ga  Ga0  1  0.00000000  0.00000000  0.00000000  1
  Ga  Ga1  1  0.00000000  0.00000000  0.50000000  1
  Ga  Ga2  1  0.62314986  0.00000000  0.25000000  1
  Ga  Ga3  1  0.62314986  0.62314986  0.75000000  1
  Ga  Ga4  1  0.00000000  0.37685014  0.75000000  1
  Ga  Ga5  1  1.00000000  0.62314986  0.25000000  1
  Ga  Ga6  1  0.37685014  0.37685014  0.25000000  1
  Ga  Ga7  1  0.37685014  0.00000000  0.75000000  1
  Ti  Ti8  1  0.33333300  0.66666700  0.00000000  1
  Ti  Ti9  1  0.66666700  0.33333300  0.50000000  1
  Ti  Ti10  1  0.66666700  0.33333300  0.00000000  1
  Ti  Ti11  1  0.33333300  0.66666700  0.50000000  1
  Ti  Ti12  1  0.28711022  0.00000000  0.25000000  1
  Ti  Ti13  1  0.28711022  0.28711022  0.75000000  1
  Ti  Ti14  1  1.00000000  0.71288978  0.75000000  1
  Ti  Ti15  1  0.00000000  0.28711022  0.25000000  1
  Ti  Ti16  1  0.71288978  0.71288978  0.25000000  1
  Ti  Ti17  1  0.71288978  0.00000000  0.75000000  1
