# generated using pymatgen
data_Si3(Cl4O)2
_symmetry_space_group_name_H-M   'P 1'
_cell_length_a   6.64944754
_cell_length_b   11.39201547
_cell_length_c   21.10047987
_cell_angle_alpha   90.00000000
_cell_angle_beta   90.00000000
_cell_angle_gamma   90.00000000
_symmetry_Int_Tables_number   1
_chemical_formula_structural   Si3(Cl4O)2
_chemical_formula_sum   'Si12 Cl32 O8'
_cell_volume   1598.37420546
_cell_formula_units_Z   4
loop_
 _symmetry_equiv_pos_site_id
 _symmetry_equiv_pos_as_xyz
  1  'x, y, z'
loop_
 _atom_site_type_symbol
 _atom_site_label
 _atom_site_symmetry_multiplicity
 _atom_site_fract_x
 _atom_site_fract_y
 _atom_site_fract_z
 _atom_site_occupancy
  O  O0  1  0.12316900  0.85760462  0.18788511  1
  O  O1  1  0.62316900  0.64239538  0.68788511  1
  O  O2  1  0.37683100  0.35760462  0.18788511  1
  O  O3  1  0.87683100  0.14239538  0.81211489  1
  O  O4  1  0.87683100  0.14239538  0.68788511  1
  O  O5  1  0.37683100  0.35760462  0.31211489  1
  O  O6  1  0.62316900  0.64239538  0.81211489  1
  O  O7  1  0.12316900  0.85760462  0.31211489  1
  Si  Si8  1  0.47795832  0.29725166  0.25000000  1
  Si  Si9  1  0.11000113  0.91240154  0.11676788  1
  Si  Si10  1  0.02204168  0.79725166  0.25000000  1
  Si  Si11  1  0.97795832  0.20274834  0.75000000  1
  Si  Si12  1  0.61000113  0.58759846  0.88323212  1
  Si  Si13  1  0.38999887  0.41240154  0.38323212  1
  Si  Si14  1  0.88999887  0.08759846  0.61676788  1
  Si  Si15  1  0.88999887  0.08759846  0.88323212  1
  Si  Si16  1  0.38999887  0.41240154  0.11676788  1
  Si  Si17  1  0.61000113  0.58759846  0.61676788  1
  Si  Si18  1  0.52204168  0.70274834  0.75000000  1
  Si  Si19  1  0.11000113  0.91240154  0.38323212  1
  Cl  Cl20  1  0.96425846  0.06930720  0.11947527  1
  Cl  Cl21  1  0.45967484  0.69944867  0.55840582  1
  Cl  Cl22  1  0.54032516  0.30055133  0.05840582  1
  Cl  Cl23  1  0.04032516  0.19944867  0.94159418  1
  Cl  Cl24  1  0.04032516  0.19944867  0.55840582  1
  Cl  Cl25  1  0.54032516  0.30055133  0.44159418  1
  Cl  Cl26  1  0.95967484  0.80055133  0.44159418  1
  Cl  Cl27  1  0.95967484  0.80055133  0.05840582  1
  Cl  Cl28  1  0.39458759  0.93584494  0.41565178  1
  Cl  Cl29  1  0.89458759  0.56415506  0.58434822  1
  Cl  Cl30  1  0.10541241  0.43584494  0.08434822  1
  Cl  Cl31  1  0.60541241  0.06415506  0.91565178  1
  Cl  Cl32  1  0.60541241  0.06415506  0.58434822  1
  Cl  Cl33  1  0.10541241  0.43584494  0.41565178  1
  Cl  Cl34  1  0.89458759  0.56415506  0.91565178  1
  Cl  Cl35  1  0.39458759  0.93584494  0.08434822  1
  Cl  Cl36  1  0.71881969  0.82157760  0.25000000  1
  Cl  Cl37  1  0.21881969  0.67842240  0.75000000  1
  Cl  Cl38  1  0.78118031  0.32157760  0.25000000  1
  Cl  Cl39  1  0.28118031  0.17842240  0.75000000  1
  Cl  Cl40  1  0.08318877  0.62274325  0.25000000  1
  Cl  Cl41  1  0.58318877  0.87725675  0.75000000  1
  Cl  Cl42  1  0.41681123  0.12274325  0.25000000  1
  Cl  Cl43  1  0.91681123  0.37725675  0.75000000  1
  Cl  Cl44  1  0.46425846  0.43069280  0.88052473  1
  Cl  Cl45  1  0.53574154  0.56930720  0.38052473  1
  Cl  Cl46  1  0.03574154  0.93069280  0.61947527  1
  Cl  Cl47  1  0.03574154  0.93069280  0.88052473  1
  Cl  Cl48  1  0.53574154  0.56930720  0.11947527  1
  Cl  Cl49  1  0.46425846  0.43069280  0.61947527  1
  Cl  Cl50  1  0.96425846  0.06930720  0.38052473  1
  Cl  Cl51  1  0.45967484  0.69944867  0.94159418  1
