# generated using pymatgen
data_Ti4FeS8
_symmetry_space_group_name_H-M   'P 1'
_cell_length_a   6.75115615
_cell_length_b   6.75115615
_cell_length_c   11.13895520
_cell_angle_alpha   89.48271804
_cell_angle_beta   90.51728196
_cell_angle_gamma   119.69832299
_symmetry_Int_Tables_number   1
_chemical_formula_structural   Ti4FeS8
_chemical_formula_sum   'Ti8 Fe2 S16'
_cell_volume   440.98104612
_cell_formula_units_Z   2
loop_
 _symmetry_equiv_pos_site_id
 _symmetry_equiv_pos_as_xyz
  1  'x, y, z'
loop_
 _atom_site_type_symbol
 _atom_site_label
 _atom_site_symmetry_multiplicity
 _atom_site_fract_x
 _atom_site_fract_y
 _atom_site_fract_z
 _atom_site_occupancy
  S  S0  1  0.84092980  0.67551601  0.88327622  1
  S  S1  1  0.67551601  0.84092980  0.11672378  1
  S  S2  1  0.15907020  0.32448399  0.11672378  1
  S  S3  1  0.32448399  0.15907020  0.88327622  1
  S  S4  1  0.82448399  0.65907020  0.38327622  1
  S  S5  1  0.65907020  0.82448399  0.61672378  1
  S  S6  1  0.17551601  0.34092980  0.61672378  1
  S  S7  1  0.34092980  0.17551601  0.38327622  1
  S  S8  1  0.66731989  0.33268011  0.11699910  1
  S  S9  1  0.33268011  0.66731989  0.88300090  1
  S  S10  1  0.16156710  0.83843290  0.12509452  1
  S  S11  1  0.83843290  0.16156710  0.87490548  1
  S  S12  1  0.16731989  0.83268011  0.61699910  1
  S  S13  1  0.83268011  0.16731989  0.38300090  1
  S  S14  1  0.33843290  0.66156710  0.37490548  1
  S  S15  1  0.66156710  0.33843290  0.62509452  1
  Ti  Ti16  1  0.51074333  0.01074333  0.25000000  1
  Ti  Ti17  1  0.01074333  0.51074333  0.75000000  1
  Ti  Ti18  1  0.48925667  0.98925667  0.75000000  1
  Ti  Ti19  1  0.98925667  0.48925667  0.25000000  1
  Ti  Ti20  1  0.49694950  0.50305050  0.75744558  1
  Ti  Ti21  1  0.50305050  0.49694950  0.24255442  1
  Ti  Ti22  1  0.00305050  0.99694950  0.74255442  1
  Ti  Ti23  1  0.99694950  0.00305050  0.25744558  1
  Fe  Fe24  1  0.50000000  0.50000000  0.50000000  1
  Fe  Fe25  1  0.00000000  0.00000000  0.00000000  1
