# generated using pymatgen
data_V(NiP4)4
_symmetry_space_group_name_H-M   'P 1'
_cell_length_a   5.66550164
_cell_length_b   10.18163950
_cell_length_c   11.09703105
_cell_angle_alpha   100.45401068
_cell_angle_beta   90.00000000
_cell_angle_gamma   106.15408578
_symmetry_Int_Tables_number   1
_chemical_formula_structural   V(NiP4)4
_chemical_formula_sum   'V2 Ni8 P32'
_cell_volume   603.77812766
_cell_formula_units_Z   2
loop_
 _symmetry_equiv_pos_site_id
 _symmetry_equiv_pos_as_xyz
  1  'x, y, z'
loop_
 _atom_site_type_symbol
 _atom_site_label
 _atom_site_symmetry_multiplicity
 _atom_site_fract_x
 _atom_site_fract_y
 _atom_site_fract_z
 _atom_site_occupancy
  P  P0  1  0.73653649  0.00840845  0.60870535  1
  P  P1  1  0.72812803  0.99159155  0.89129465  1
  P  P2  1  0.26346351  0.99159155  0.39129465  1
  P  P3  1  0.27187197  0.00840845  0.10870535  1
  P  P4  1  0.38167219  0.76287406  0.66346838  1
  P  P5  1  0.61879813  0.23712594  0.83653162  1
  P  P6  1  0.61832781  0.23712594  0.33653162  1
  P  P7  1  0.38120187  0.76287406  0.16346838  1
  P  P8  1  0.73071445  0.71920207  0.71966807  1
  P  P9  1  0.01151238  0.28079793  0.78033193  1
  P  P10  1  0.00551093  0.11987803  0.36603592  1
  P  P11  1  0.88563290  0.88012197  0.13396408  1
  P  P12  1  0.99448907  0.88012197  0.63396408  1
  P  P13  1  0.11436710  0.11987803  0.86603592  1
  P  P14  1  0.77863990  0.12112987  0.08223325  1
  P  P15  1  0.65751003  0.87887013  0.41776675  1
  P  P16  1  0.22136010  0.87887013  0.91776675  1
  P  P17  1  0.34248997  0.12112987  0.58223325  1
  P  P18  1  0.60370148  0.28180608  0.04155888  1
  P  P19  1  0.32189540  0.71819392  0.45844112  1
  P  P20  1  0.39629852  0.71819392  0.95844112  1
  P  P21  1  0.67810460  0.28180608  0.54155888  1
  P  P22  1  0.14705920  0.42507951  0.05382624  1
  P  P23  1  0.72197969  0.57492049  0.44617376  1
  P  P24  1  0.85294080  0.57492049  0.94617376  1
  P  P25  1  0.27802031  0.42507951  0.55382624  1
  P  P26  1  0.88557251  0.44164187  0.31221371  1
  P  P27  1  0.44393064  0.55835813  0.18778629  1
  P  P28  1  0.11442749  0.55835813  0.68778629  1
  P  P29  1  0.55606936  0.44164187  0.81221371  1
  P  P30  1  0.98848762  0.71920207  0.21966807  1
  P  P31  1  0.26928555  0.28079793  0.28033193  1
  V  V32  1  0.60708683  0.00000000  0.25000000  1
  V  V33  1  0.39291317  0.00000000  0.75000000  1
  Ni  Ni34  1  0.30675857  0.50108947  0.37098581  1
  Ni  Ni35  1  0.80566910  0.49891053  0.12901419  1
  Ni  Ni36  1  0.20016631  0.21231369  0.07379831  1
  Ni  Ni37  1  0.98785262  0.78768631  0.42620169  1
  Ni  Ni38  1  0.79983369  0.78768631  0.92620169  1
  Ni  Ni39  1  0.01214738  0.21231369  0.57379831  1
  Ni  Ni40  1  0.19433090  0.50108947  0.87098581  1
  Ni  Ni41  1  0.69324143  0.49891053  0.62901419  1
