# generated using pymatgen
data_UMo13P9
_symmetry_space_group_name_H-M   'P 1'
_cell_length_a   10.88371730
_cell_length_b   10.88371730
_cell_length_c   3.31508680
_cell_angle_alpha   90.00000000
_cell_angle_beta   90.00000000
_cell_angle_gamma   120.00000000
_symmetry_Int_Tables_number   1
_chemical_formula_structural   UMo13P9
_chemical_formula_sum   'U1 Mo13 P9'
_cell_volume   340.07917716
_cell_formula_units_Z   1
loop_
 _symmetry_equiv_pos_site_id
 _symmetry_equiv_pos_as_xyz
  1  'x, y, z'
loop_
 _atom_site_type_symbol
 _atom_site_label
 _atom_site_symmetry_multiplicity
 _atom_site_fract_x
 _atom_site_fract_y
 _atom_site_fract_z
 _atom_site_occupancy
  P  P0  1  0.41232461  0.20616231  0.50000000  1
  P  P1  1  0.13229349  0.56614675  0.00000000  1
  P  P2  1  0.43385325  0.56614675  0.00000000  1
  P  P3  1  0.43385325  0.86770651  0.00000000  1
  P  P4  1  0.80630988  0.90315494  0.50000000  1
  P  P5  1  0.09684506  0.90315494  0.50000000  1
  P  P6  1  0.09684506  0.19369012  0.50000000  1
  P  P7  1  0.79383769  0.20616231  0.50000000  1
  P  P8  1  0.79383769  0.58767539  0.50000000  1
  Mo  Mo9  1  0.24089959  0.48179917  0.50000000  1
  Mo  Mo10  1  0.24089959  0.75910041  0.50000000  1
  Mo  Mo11  1  0.52632745  0.05265491  0.50000000  1
  Mo  Mo12  1  0.52632745  0.47367255  0.50000000  1
  Mo  Mo13  1  0.94734509  0.47367255  0.50000000  1
  Mo  Mo14  1  0.99484529  0.27922126  0.00000000  1
  Mo  Mo15  1  0.72077874  0.71562403  0.00000000  1
  Mo  Mo16  1  0.72077874  0.00515471  0.00000000  1
  Mo  Mo17  1  0.99484529  0.71562403  0.00000000  1
  Mo  Mo18  1  0.28437597  0.27922126  0.00000000  1
  Mo  Mo19  1  0.00000000  0.00000000  0.00000000  1
  Mo  Mo20  1  0.51820083  0.75910041  0.50000000  1
  Mo  Mo21  1  0.28437597  0.00515471  0.00000000  1
  U  U22  1  0.66666667  0.33333333  0.00000000  1
