# generated using pymatgen
data_CuH12C5S4N
_symmetry_space_group_name_H-M   'P 1'
_cell_length_a   11.05647725
_cell_length_b   11.56196914
_cell_length_c   16.90858312
_cell_angle_alpha   90.00000000
_cell_angle_beta   90.00000000
_cell_angle_gamma   90.00000000
_symmetry_Int_Tables_number   1
_chemical_formula_structural   CuH12C5S4N
_chemical_formula_sum   'Cu8 H96 C40 S32 N8'
_cell_volume   2161.50278420
_cell_formula_units_Z   8
loop_
 _symmetry_equiv_pos_site_id
 _symmetry_equiv_pos_as_xyz
  1  'x, y, z'
loop_
 _atom_site_type_symbol
 _atom_site_label
 _atom_site_symmetry_multiplicity
 _atom_site_fract_x
 _atom_site_fract_y
 _atom_site_fract_z
 _atom_site_occupancy
  Cu  Cu0  1  0.43643068  0.10727110  0.49283859  1
  Cu  Cu1  1  0.43643068  0.39272890  0.99283859  1
  Cu  Cu2  1  0.93643068  0.10727110  0.00716141  1
  Cu  Cu3  1  0.56356932  0.89272890  0.50716141  1
  Cu  Cu4  1  0.93643068  0.39272890  0.50716141  1
  Cu  Cu5  1  0.06356932  0.60727110  0.49283859  1
  Cu  Cu6  1  0.56356932  0.60727110  0.00716141  1
  Cu  Cu7  1  0.06356932  0.89272890  0.99283859  1
  H  H8  1  0.08225799  0.89172649  0.22198342  1
  H  H9  1  0.42676420  0.74428232  0.17662929  1
  H  H10  1  0.18044892  0.95552285  0.69508723  1
  H  H11  1  0.87477418  0.32693121  0.18457256  1
  H  H12  1  0.31955108  0.04447715  0.19508723  1
  H  H13  1  0.70343379  0.16448700  0.82570265  1
  H  H14  1  0.01862016  0.63547342  0.93087044  1
  H  H15  1  0.42676420  0.75571768  0.67662929  1
  H  H16  1  0.62323723  0.44087511  0.42938244  1
  H  H17  1  0.01653950  0.48024308  0.91914584  1
  H  H18  1  0.98346050  0.51975692  0.08085416  1
  H  H19  1  0.29656621  0.83551300  0.17429735  1
  H  H20  1  0.40756850  0.48041117  0.78356984  1
  H  H21  1  0.92676420  0.74428232  0.32337071  1
  H  H22  1  0.41774201  0.39172649  0.22198342  1
  H  H23  1  0.51862016  0.86452658  0.06912956  1
  H  H24  1  0.96829236  0.10510113  0.29639526  1
  H  H25  1  0.29656621  0.66448700  0.67429735  1
  H  H26  1  0.98346050  0.98024308  0.58085416  1
  H  H27  1  0.64374721  0.98015845  0.19947650  1
  H  H28  1  0.07323580  0.24428232  0.17662929  1
  H  H29  1  0.46829236  0.39489887  0.70360474  1
  H  H30  1  0.68044892  0.95552285  0.80491277  1
  H  H31  1  0.12522582  0.67306879  0.81542744  1
  H  H32  1  0.48346050  0.51975692  0.41914584  1
  H  H33  1  0.37676277  0.94087511  0.07061756  1
  H  H34  1  0.87676277  0.94087511  0.42938244  1
  H  H35  1  0.70343379  0.33551300  0.32570265  1
  H  H36  1  0.96829236  0.39489887  0.79639526  1
  H  H37  1  0.37477418  0.17306879  0.81542744  1
  H  H38  1  0.03170764  0.89489887  0.70360474  1
  H  H39  1  0.03170764  0.60510113  0.20360474  1
  H  H40  1  0.62522582  0.67306879  0.68457256  1
  H  H41  1  0.14374721  0.98015845  0.30052350  1
  H  H42  1  0.18044892  0.54447715  0.19508723  1
  H  H43  1  0.46829236  0.10510113  0.20360474  1
  H  H44  1  0.48137984  0.13547342  0.93087044  1
  H  H45  1  0.59243150  0.51958883  0.21643016  1
  H  H46  1  0.01653950  0.01975692  0.41914584  1
  H  H47  1  0.79656621  0.83551300  0.32570265  1
  H  H48  1  0.62522582  0.82693121  0.18457256  1
  H  H49  1  0.87477418  0.17306879  0.68457256  1
  H  H50  1  0.40756850  0.01958883  0.28356984  1
  H  H51  1  0.87796843  0.81474245  0.23353845  1
  H  H52  1  0.92676420  0.75571768  0.82337071  1
  H  H53  1  0.53170764  0.60510113  0.29639526  1
  H  H54  1  0.90756850  0.01958883  0.21643016  1
  H  H55  1  0.14374721  0.51984155  0.80052350  1
  H  H56  1  0.12203157  0.18525755  0.76646155  1
  H  H57  1  0.81955108  0.04447715  0.30491277  1
  H  H58  1  0.09243150  0.98041117  0.78356984  1
  H  H59  1  0.87796843  0.68525755  0.73353845  1
  H  H60  1  0.37477418  0.32693121  0.31542744  1
  H  H61  1  0.12323723  0.05912489  0.57061756  1
  H  H62  1  0.12203157  0.31474245  0.26646155  1
  H  H63  1  0.62323723  0.05912489  0.92938244  1
  H  H64  1  0.62203157  0.31474245  0.23353845  1
  H  H65  1  0.12323723  0.44087511  0.07061756  1
  H  H66  1  0.79656621  0.66448700  0.82570265  1
  H  H67  1  0.51862016  0.63547342  0.56912956  1
  H  H68  1  0.87676277  0.55912489  0.92938244  1
  H  H69  1  0.91774201  0.39172649  0.27801658  1
  H  H70  1  0.37796843  0.68525755  0.76646155  1
  H  H71  1  0.48346050  0.98024308  0.91914584  1
  H  H72  1  0.37676277  0.55912489  0.57061756  1
  H  H73  1  0.35625279  0.48015845  0.30052350  1
  H  H74  1  0.81955108  0.45552285  0.80491277  1
  H  H75  1  0.07323580  0.25571768  0.67662929  1
  H  H76  1  0.20343379  0.16448700  0.67429735  1
  H  H77  1  0.57323580  0.24428232  0.32337071  1
  H  H78  1  0.91774201  0.10827351  0.77801658  1
  H  H79  1  0.98137984  0.13547342  0.56912956  1
  H  H80  1  0.68044892  0.54447715  0.30491277  1
  H  H81  1  0.20343379  0.33551300  0.17429735  1
  H  H82  1  0.53170764  0.89489887  0.79639526  1
  H  H83  1  0.12522582  0.82693121  0.31542744  1
  H  H84  1  0.31955108  0.45552285  0.69508723  1
  H  H85  1  0.58225799  0.60827351  0.77801658  1
  H  H86  1  0.64374721  0.51984155  0.69947650  1
  H  H87  1  0.51653950  0.48024308  0.58085416  1
  H  H88  1  0.01862016  0.86452658  0.43087044  1
  H  H89  1  0.62203157  0.18525755  0.73353845  1
  H  H90  1  0.08225799  0.60827351  0.72198342  1
  H  H91  1  0.35625279  0.01984155  0.80052350  1
  H  H92  1  0.41774201  0.10827351  0.72198342  1
  H  H93  1  0.90756850  0.48041117  0.71643016  1
  H  H94  1  0.85625279  0.01984155  0.69947650  1
  H  H95  1  0.59243150  0.98041117  0.71643016  1
  H  H96  1  0.98137984  0.36452658  0.06912956  1
  H  H97  1  0.58225799  0.89172649  0.27801658  1
  H  H98  1  0.09243150  0.51958883  0.28356984  1
  H  H99  1  0.37796843  0.81474245  0.26646155  1
  H  H100  1  0.57323580  0.25571768  0.82337071  1
  H  H101  1  0.51653950  0.01975692  0.08085416  1
  H  H102  1  0.85625279  0.48015845  0.19947650  1
  H  H103  1  0.48137984  0.36452658  0.43087044  1
  C  C104  1  0.41075277  0.03124078  0.21924508  1
  C  C105  1  0.32225602  0.75342998  0.45069346  1
  C  C106  1  0.17774398  0.24657002  0.95069346  1
  C  C107  1  0.46930709  0.56147855  0.59387554  1
  C  C108  1  0.82225602  0.75342998  0.04930654  1
  C  C109  1  0.88522680  0.67770605  0.79814891  1
  C  C110  1  0.41185417  0.40425350  0.28626295  1
  C  C111  1  0.53069291  0.06147855  0.90612446  1
  C  C112  1  0.58814583  0.90425350  0.21373705  1
  C  C113  1  0.88522680  0.82229395  0.29814891  1
  C  C114  1  0.08814583  0.90425350  0.28626295  1
  C  C115  1  0.11477320  0.17770605  0.70185109  1
  C  C116  1  0.91075277  0.46875922  0.78075492  1
  C  C117  1  0.96930709  0.56147855  0.90612446  1
  C  C118  1  0.38522680  0.67770605  0.70185109  1
  C  C119  1  0.41075277  0.46875922  0.71924508  1
  C  C120  1  0.67774398  0.24657002  0.54930654  1
  C  C121  1  0.61477320  0.32229395  0.29814891  1
  C  C122  1  0.41185417  0.09574650  0.78626295  1
  C  C123  1  0.08924723  0.96875922  0.71924508  1
  C  C124  1  0.17774398  0.25342998  0.45069346  1
  C  C125  1  0.96930709  0.93852145  0.40612446  1
  C  C126  1  0.53069291  0.43852145  0.40612446  1
  C  C127  1  0.08924723  0.53124078  0.21924508  1
  C  C128  1  0.67774398  0.25342998  0.04930654  1
  C  C129  1  0.91075277  0.03124078  0.28075492  1
  C  C130  1  0.91185417  0.09574650  0.71373705  1
  C  C131  1  0.03069291  0.43852145  0.09387554  1
  C  C132  1  0.82225602  0.74657002  0.54930654  1
  C  C133  1  0.03069291  0.06147855  0.59387554  1
  C  C134  1  0.46930709  0.93852145  0.09387554  1
  C  C135  1  0.32225602  0.74657002  0.95069346  1
  C  C136  1  0.08814583  0.59574650  0.78626295  1
  C  C137  1  0.61477320  0.17770605  0.79814891  1
  C  C138  1  0.58814583  0.59574650  0.71373705  1
  C  C139  1  0.11477320  0.32229395  0.20185109  1
  C  C140  1  0.38522680  0.82229395  0.20185109  1
  C  C141  1  0.91185417  0.40425350  0.21373705  1
  C  C142  1  0.58924723  0.96875922  0.78075492  1
  C  C143  1  0.58924723  0.53124078  0.28075492  1
  S  S144  1  0.53343096  0.27326472  0.08072753  1
  S  S145  1  0.61585185  0.05516941  0.42573410  1
  S  S146  1  0.27501538  0.34652106  0.91017221  1
  S  S147  1  0.38414815  0.55516941  0.07426590  1
  S  S148  1  0.27501538  0.15347894  0.41017221  1
  S  S149  1  0.96656904  0.72673528  0.58072753  1
  S  S150  1  0.24087643  0.17014272  0.02895984  1
  S  S151  1  0.75912357  0.67014272  0.47104016  1
  S  S152  1  0.22498462  0.84652106  0.91017221  1
  S  S153  1  0.25912357  0.82985728  0.52895984  1
  S  S154  1  0.77501538  0.15347894  0.08982779  1
  S  S155  1  0.46656904  0.72673528  0.91927247  1
  S  S156  1  0.88414815  0.55516941  0.42573410  1
  S  S157  1  0.24087643  0.32985728  0.52895984  1
  S  S158  1  0.38414815  0.94483059  0.57426590  1
  S  S159  1  0.11585185  0.05516941  0.07426590  1
  S  S160  1  0.25912357  0.67014272  0.02895984  1
  S  S161  1  0.22498462  0.65347894  0.41017221  1
  S  S162  1  0.74087643  0.17014272  0.47104016  1
  S  S163  1  0.77501538  0.34652106  0.58982779  1
  S  S164  1  0.03343096  0.27326472  0.41927247  1
  S  S165  1  0.74087643  0.32985728  0.97104016  1
  S  S166  1  0.75912357  0.82985728  0.97104016  1
  S  S167  1  0.96656904  0.77326472  0.08072753  1
  S  S168  1  0.53343096  0.22673528  0.58072753  1
  S  S169  1  0.61585185  0.44483059  0.92573410  1
  S  S170  1  0.03343096  0.22673528  0.91927247  1
  S  S171  1  0.72498462  0.84652106  0.58982779  1
  S  S172  1  0.88414815  0.94483059  0.92573410  1
  S  S173  1  0.11585185  0.44483059  0.57426590  1
  S  S174  1  0.46656904  0.77326472  0.41927247  1
  S  S175  1  0.72498462  0.65347894  0.08982779  1
  N  N176  1  0.46326977  0.57563151  0.68232137  1
  N  N177  1  0.96326977  0.92436849  0.31767863  1
  N  N178  1  0.46326977  0.92436849  0.18232137  1
  N  N179  1  0.53673023  0.07563151  0.81767863  1
  N  N180  1  0.03673023  0.07563151  0.68232137  1
  N  N181  1  0.53673023  0.42436849  0.31767863  1
  N  N182  1  0.03673023  0.42436849  0.18232137  1
  N  N183  1  0.96326977  0.57563151  0.81767863  1
