# generated using pymatgen
data_Zr(TeCl)6
_symmetry_space_group_name_H-M   'P 1'
_cell_length_a   11.44097134
_cell_length_b   11.38149093
_cell_length_c   13.14108182
_cell_angle_alpha   90.00000000
_cell_angle_beta   90.00000000
_cell_angle_gamma   90.00000000
_symmetry_Int_Tables_number   1
_chemical_formula_structural   Zr(TeCl)6
_chemical_formula_sum   'Zr4 Te24 Cl24'
_cell_volume   1711.17006312
_cell_formula_units_Z   4
loop_
 _symmetry_equiv_pos_site_id
 _symmetry_equiv_pos_as_xyz
  1  'x, y, z'
loop_
 _atom_site_type_symbol
 _atom_site_label
 _atom_site_symmetry_multiplicity
 _atom_site_fract_x
 _atom_site_fract_y
 _atom_site_fract_z
 _atom_site_occupancy
  Cl  Cl0  1  0.90957484  0.15644101  0.88500838  1
  Cl  Cl1  1  0.40957484  0.84355899  0.61499162  1
  Cl  Cl2  1  0.59042516  0.15644101  0.11499162  1
  Cl  Cl3  1  0.09042516  0.84355899  0.38500838  1
  Cl  Cl4  1  0.09042516  0.84355899  0.11499162  1
  Cl  Cl5  1  0.59042516  0.15644101  0.38500838  1
  Cl  Cl6  1  0.40957484  0.84355899  0.88500838  1
  Cl  Cl7  1  0.90957484  0.15644101  0.61499162  1
  Cl  Cl8  1  0.67173938  0.36435234  0.61834290  1
  Cl  Cl9  1  0.17173938  0.63564766  0.88165710  1
  Cl  Cl10  1  0.82826062  0.36435234  0.38165710  1
  Cl  Cl11  1  0.32826062  0.63564766  0.11834290  1
  Cl  Cl12  1  0.32826062  0.63564766  0.38165710  1
  Cl  Cl13  1  0.82826062  0.36435234  0.11834290  1
  Cl  Cl14  1  0.17173938  0.63564766  0.61834290  1
  Cl  Cl15  1  0.67173938  0.36435234  0.88165710  1
  Cl  Cl16  1  0.34528508  0.90151607  0.25000000  1
  Cl  Cl17  1  0.84528508  0.09848393  0.25000000  1
  Cl  Cl18  1  0.15471492  0.90151607  0.75000000  1
  Cl  Cl19  1  0.65471492  0.09848393  0.75000000  1
  Cl  Cl20  1  0.05708812  0.58048676  0.25000000  1
  Cl  Cl21  1  0.55708812  0.41951324  0.25000000  1
  Cl  Cl22  1  0.44291188  0.58048676  0.75000000  1
  Cl  Cl23  1  0.94291188  0.41951324  0.75000000  1
  Zr  Zr24  1  0.79254719  0.26315195  0.75000000  1
  Zr  Zr25  1  0.29254719  0.73684805  0.75000000  1
  Zr  Zr26  1  0.70745281  0.26315195  0.25000000  1
  Zr  Zr27  1  0.20745281  0.73684805  0.25000000  1
  Te  Te28  1  0.24185340  0.27401082  0.75000000  1
  Te  Te29  1  0.74185340  0.72598918  0.75000000  1
  Te  Te30  1  0.25814660  0.27401082  0.25000000  1
  Te  Te31  1  0.75814660  0.72598918  0.25000000  1
  Te  Te32  1  0.75000000  0.97629266  0.50000000  1
  Te  Te33  1  0.25000000  0.02370734  0.00000000  1
  Te  Te34  1  0.25000000  0.02370734  0.50000000  1
  Te  Te35  1  0.75000000  0.97629266  0.00000000  1
  Te  Te36  1  0.63540270  0.61413845  0.53146350  1
  Te  Te37  1  0.13540270  0.38586155  0.96853650  1
  Te  Te38  1  0.86459730  0.61413845  0.46853650  1
  Te  Te39  1  0.36459730  0.38586155  0.03146350  1
  Te  Te40  1  0.36459730  0.38586155  0.46853650  1
  Te  Te41  1  0.86459730  0.61413845  0.03146350  1
  Te  Te42  1  0.13540270  0.38586155  0.53146350  1
  Te  Te43  1  0.63540270  0.61413845  0.96853650  1
  Te  Te44  1  0.60091582  0.81523722  0.40365272  1
  Te  Te45  1  0.10091582  0.18476278  0.09634728  1
  Te  Te46  1  0.89908418  0.81523722  0.59634728  1
  Te  Te47  1  0.39908418  0.18476278  0.90365272  1
  Te  Te48  1  0.39908418  0.18476278  0.59634728  1
  Te  Te49  1  0.89908418  0.81523722  0.90365272  1
  Te  Te50  1  0.10091582  0.18476278  0.40365272  1
  Te  Te51  1  0.60091582  0.81523722  0.09634728  1
