# generated using pymatgen
data_Mo2P3O13
_symmetry_space_group_name_H-M   'P 1'
_cell_length_a   6.44133366
_cell_length_b   7.60462408
_cell_length_c   11.56834450
_cell_angle_alpha   77.54107569
_cell_angle_beta   86.79339678
_cell_angle_gamma   78.78496222
_symmetry_Int_Tables_number   1
_chemical_formula_structural   Mo2P3O13
_chemical_formula_sum   'Mo4 P6 O26'
_cell_volume   542.69460336
_cell_formula_units_Z   2
loop_
 _symmetry_equiv_pos_site_id
 _symmetry_equiv_pos_as_xyz
  1  'x, y, z'
loop_
 _atom_site_type_symbol
 _atom_site_label
 _atom_site_symmetry_multiplicity
 _atom_site_fract_x
 _atom_site_fract_y
 _atom_site_fract_z
 _atom_site_occupancy
  O  O0  1  0.48960960  0.81799044  0.88236917  1
  O  O1  1  0.85954843  0.64890749  0.78117512  1
  O  O2  1  0.89046508  0.54052442  0.34346927  1
  O  O3  1  0.92265379  0.20946679  0.57863004  1
  O  O4  1  0.14045219  0.35109213  0.21882494  1
  O  O5  1  0.10953554  0.45947519  0.65653079  1
  O  O6  1  0.07734683  0.79053282  0.42137002  1
  O  O7  1  0.23256335  0.10725824  0.78270793  1
  O  O8  1  0.10364715  0.81882018  0.89411193  1
  O  O9  1  0.24431432  0.34440548  0.42539990  1
  O  O10  1  0.24256813  0.62568436  0.26159284  1
  O  O11  1  0.18373074  0.37413097  0.97937118  1
  O  O12  1  0.25709291  0.00893234  0.00520075  1
  O  O13  1  0.24250994  0.96517443  0.23894196  1
  O  O14  1  0.31554535  0.98381868  0.57544127  1
  O  O15  1  0.89635165  0.18118081  0.10588799  1
  O  O16  1  0.52793148  0.27117491  0.60751954  1
  O  O17  1  0.47206757  0.72882473  0.39248057  1
  O  O18  1  0.76743727  0.89274138  0.21729213  1
  O  O19  1  0.68445527  0.01618094  0.42455879  1
  O  O20  1  0.75749068  0.03482519  0.76105810  1
  O  O21  1  0.74290613  0.99106728  0.99479849  1
  O  O22  1  0.81626962  0.62587000  0.02062867  1
  O  O23  1  0.75743066  0.37431663  0.73840708  1
  O  O24  1  0.75568474  0.65559415  0.57460021  1
  O  O25  1  0.51038946  0.18200919  0.11763094  1
  P  P26  1  0.25996937  0.78779625  0.33076635  1
  P  P27  1  0.27006787  0.94474487  0.88582055  1
  P  P28  1  0.72993275  0.05525475  0.11417951  1
  P  P29  1  0.74003125  0.21220337  0.66923372  1
  P  P30  1  0.11823406  0.46141496  0.31929284  1
  P  P31  1  0.88176500  0.53858467  0.68070728  1
  Mo  Mo32  1  0.80045782  0.79914893  0.89912140  1
  Mo  Mo33  1  0.75774107  0.79905437  0.40291434  1
  Mo  Mo34  1  0.24225956  0.20094524  0.59708573  1
  Mo  Mo35  1  0.19954280  0.20085068  0.10087866  1
