# generated using pymatgen
data_Li2Mn3(P2O7)2
_symmetry_space_group_name_H-M   'P 1'
_cell_length_a   7.48787654
_cell_length_b   8.01043352
_cell_length_c   9.89404957
_cell_angle_alpha   90.00000000
_cell_angle_beta   110.00168399
_cell_angle_gamma   90.00000000
_symmetry_Int_Tables_number   1
_chemical_formula_structural   Li2Mn3(P2O7)2
_chemical_formula_sum   'Li4 Mn6 P8 O28'
_cell_volume   557.66058248
_cell_formula_units_Z   2
loop_
 _symmetry_equiv_pos_site_id
 _symmetry_equiv_pos_as_xyz
  1  'x, y, z'
loop_
 _atom_site_type_symbol
 _atom_site_label
 _atom_site_symmetry_multiplicity
 _atom_site_fract_x
 _atom_site_fract_y
 _atom_site_fract_z
 _atom_site_occupancy
  Li  Li0  1  0.29096575  0.57950691  0.85182516  1
  Li  Li1  1  0.29096556  0.92049319  0.35182567  1
  Li  Li2  1  0.70903332  0.07950729  0.64817446  1
  Li  Li3  1  0.70903312  0.42049357  0.14817395  1
  O  O4  1  0.31629225  0.12976780  0.80765191  1
  O  O5  1  0.96586436  0.91493657  0.10852365  1
  O  O6  1  0.84365637  0.62477713  0.12463934  1
  O  O7  1  0.98861187  0.20405485  0.64472708  1
  O  O8  1  0.96586455  0.58506353  0.60852416  1
  O  O9  1  0.68370663  0.87023268  0.19234822  1
  O  O10  1  0.01138863  0.70405446  0.85527292  1
  O  O11  1  0.03413594  0.08506391  0.89147685  1
  O  O12  1  0.15634393  0.37522335  0.87536116  1
  O  O13  1  0.01138844  0.79594563  0.35527342  1
  O  O14  1  0.03413575  0.41493570  0.39147634  1
  O  O15  1  0.98861168  0.29594477  0.14472657  1
  O  O16  1  0.37802913  0.82821384  0.89253113  1
  O  O17  1  0.15634374  0.12477627  0.37536065  1
  O  O18  1  0.27914543  0.89087466  0.62525567  1
  O  O19  1  0.39675179  0.49546851  0.70458098  1
  O  O20  1  0.31629206  0.37023182  0.30765140  1
  O  O21  1  0.37802894  0.67178625  0.39253062  1
  O  O22  1  0.27914524  0.60912544  0.12525516  1
  O  O23  1  0.62197117  0.17178664  0.10746937  1
  O  O24  1  0.39675160  0.00453235  0.20458047  1
  O  O25  1  0.72085506  0.39087379  0.87474432  1
  O  O26  1  0.62197136  0.32821423  0.60746886  1
  O  O27  1  0.68370682  0.62976741  0.69234873  1
  O  O28  1  0.60324851  0.50453197  0.29541952  1
  O  O29  1  0.72085487  0.10912582  0.37474483  1
  O  O30  1  0.84365657  0.87522296  0.62463883  1
  O  O31  1  0.60324870  0.99546813  0.79541902  1
  P  P32  1  0.88386961  0.79550816  0.19491109  1
  P  P33  1  0.88386980  0.70449194  0.69491160  1
  P  P34  1  0.60129903  0.05082850  0.22094011  1
  P  P35  1  0.39870108  0.55082936  0.27905988  1
  P  P36  1  0.60129922  0.44917111  0.72094062  1
  P  P37  1  0.39870127  0.94917073  0.77905937  1
  P  P38  1  0.11612927  0.20449232  0.80508803  1
  P  P39  1  0.11613050  0.29550729  0.30508890  1
  Mn  Mn40  1  0.00000019  0.00000000  0.50000051  1
  Mn  Mn41  1  0.19835987  0.62311776  0.52076625  1
  Mn  Mn42  1  0.00000000  0.49999961  0.00000000  1
  Mn  Mn43  1  0.19835968  0.87688233  0.02076676  1
  Mn  Mn44  1  0.80164062  0.12311815  0.97923374  1
  Mn  Mn45  1  0.80164043  0.37688272  0.47923323  1
