# generated using pymatgen
data_Ca5Hg3
_symmetry_space_group_name_H-M   'P 1'
_cell_length_a   8.24806902
_cell_length_b   8.24806481
_cell_length_c   9.43296068
_cell_angle_alpha   115.92271714
_cell_angle_beta   115.92498862
_cell_angle_gamma   89.99999999
_symmetry_Int_Tables_number   1
_chemical_formula_structural   Ca5Hg3
_chemical_formula_sum   'Ca10 Hg6'
_cell_volume   504.38261464
_cell_formula_units_Z   2
loop_
 _symmetry_equiv_pos_site_id
 _symmetry_equiv_pos_as_xyz
  1  'x, y, z'
loop_
 _atom_site_type_symbol
 _atom_site_label
 _atom_site_symmetry_multiplicity
 _atom_site_fract_x
 _atom_site_fract_y
 _atom_site_fract_z
 _atom_site_occupancy
  Ca  Ca0  1  0.00000000  0.00000000  0.00000000  1
  Ca  Ca1  1  0.50000000  0.50000000  0.00000000  1
  Ca  Ca2  1  0.31203422  0.81202698  0.29519723  1
  Ca  Ca3  1  0.48316301  0.31202698  0.29519723  1
  Ca  Ca4  1  0.81203272  0.98315987  0.29520006  1
  Ca  Ca5  1  0.51683699  0.68797302  0.70480277  1
  Ca  Ca6  1  0.18796728  0.01684013  0.70479994  1
  Ca  Ca7  1  0.01683266  0.51684013  0.70479994  1
  Ca  Ca8  1  0.68796578  0.18797302  0.70480277  1
  Ca  Ca9  1  0.98316734  0.48315987  0.29520006  1
  Hg  Hg10  1  0.24999979  0.25000000  0.50000000  1
  Hg  Hg11  1  0.75000021  0.75000000  0.50000000  1
  Hg  Hg12  1  0.36535663  0.86535680  0.00000032  1
  Hg  Hg13  1  0.13464369  0.36535680  0.00000032  1
  Hg  Hg14  1  0.86535631  0.63464320  0.99999968  1
  Hg  Hg15  1  0.63464337  0.13464320  0.99999968  1
