# generated using pymatgen
data_Pr2Si2O7
_symmetry_space_group_name_H-M   'P 1'
_cell_length_a   6.85816189
_cell_length_b   6.85816189
_cell_length_c   24.96009096
_cell_angle_alpha   90.00000000
_cell_angle_beta   90.00000000
_cell_angle_gamma   90.00000000
_symmetry_Int_Tables_number   1
_chemical_formula_structural   Pr2Si2O7
_chemical_formula_sum   'Pr16 Si16 O56'
_cell_volume   1173.98251560
_cell_formula_units_Z   8
loop_
 _symmetry_equiv_pos_site_id
 _symmetry_equiv_pos_as_xyz
  1  'x, y, z'
loop_
 _atom_site_type_symbol
 _atom_site_label
 _atom_site_symmetry_multiplicity
 _atom_site_fract_x
 _atom_site_fract_y
 _atom_site_fract_z
 _atom_site_occupancy
  O  O0  1  0.18359073  0.79462953  0.58809976  1
  O  O1  1  0.20537047  0.18359073  0.83809976  1
  O  O2  1  0.79462953  0.81640927  0.33809976  1
  O  O3  1  0.81640927  0.20537047  0.08809976  1
  O  O4  1  0.83762127  0.87932314  0.63835737  1
  O  O5  1  0.12067686  0.83762127  0.88835737  1
  O  O6  1  0.87932314  0.16237873  0.38835737  1
  O  O7  1  0.16237873  0.12067686  0.13835737  1
  O  O8  1  0.01485844  0.54860755  0.66015454  1
  O  O9  1  0.45139245  0.01485844  0.91015454  1
  O  O10  1  0.54860755  0.98514156  0.41015454  1
  O  O11  1  0.98514156  0.45139245  0.16015454  1
  O  O12  1  0.87547452  0.57571077  0.56621279  1
  O  O13  1  0.42428923  0.87547452  0.81621279  1
  O  O14  1  0.57571077  0.12452548  0.31621279  1
  O  O15  1  0.12452548  0.42428923  0.06621279  1
  O  O16  1  0.86746098  0.76273160  0.47371910  1
  O  O17  1  0.23726840  0.86746098  0.72371910  1
  O  O18  1  0.76273160  0.13253902  0.22371910  1
  O  O19  1  0.13253902  0.23726840  0.97371910  1
  O  O20  1  0.54959277  0.76300592  0.53287868  1
  O  O21  1  0.55745007  0.13895364  0.58820450  1
  O  O22  1  0.23699408  0.54959277  0.78287868  1
  O  O23  1  0.45040723  0.23699408  0.03287868  1
  O  O24  1  0.67117506  0.42955186  0.48220161  1
  O  O25  1  0.57044814  0.67117506  0.73220161  1
  O  O26  1  0.42955186  0.32882494  0.23220161  1
  O  O27  1  0.32882494  0.57044814  0.98220161  1
  O  O28  1  0.23978380  0.19817425  0.64700823  1
  O  O29  1  0.80182575  0.23978380  0.89700823  1
  O  O30  1  0.19817425  0.76021620  0.39700823  1
  O  O31  1  0.76021620  0.80182575  0.14700823  1
  O  O32  1  0.89110308  0.60859793  0.95845307  1
  O  O33  1  0.39140207  0.89110308  0.20845307  1
  O  O34  1  0.60859793  0.10889692  0.70845307  1
  O  O35  1  0.10889692  0.39140207  0.45845307  1
  O  O36  1  0.72366044  0.93855554  0.98384815  1
  O  O37  1  0.06144446  0.72366044  0.23384815  1
  O  O38  1  0.93855554  0.27633956  0.73384815  1
  O  O39  1  0.27633956  0.06144446  0.48384815  1
  O  O40  1  0.04547487  0.83968292  0.04031221  1
  O  O41  1  0.16031708  0.04547487  0.29031221  1
  O  O42  1  0.83968292  0.95452513  0.79031221  1
  O  O43  1  0.95452513  0.16031708  0.54031221  1
  O  O44  1  0.72139638  0.62368045  0.05084727  1
  O  O45  1  0.37631955  0.72139638  0.30084727  1
  O  O46  1  0.62368045  0.27860362  0.80084727  1
  O  O47  1  0.27860362  0.37631955  0.55084727  1
  O  O48  1  0.48029030  0.51462897  0.13199106  1
  O  O49  1  0.48537103  0.48029030  0.38199106  1
  O  O50  1  0.51462897  0.51970970  0.88199106  1
  O  O51  1  0.51970970  0.48537103  0.63199106  1
  O  O52  1  0.44254993  0.86104636  0.08820450  1
  O  O53  1  0.13895364  0.44254993  0.33820450  1
  O  O54  1  0.86104636  0.55745007  0.83820450  1
  O  O55  1  0.76300592  0.45040723  0.28287868  1
  Si  Si56  1  0.98292121  0.71310975  0.61398270  1
  Si  Si57  1  0.28689025  0.98292121  0.86398270  1
  Si  Si58  1  0.71310975  0.01707879  0.36398270  1
  Si  Si59  1  0.01707879  0.28689025  0.11398270  1
  Si  Si60  1  0.73301219  0.62543712  0.51396264  1
  Si  Si61  1  0.37456288  0.73301219  0.76396264  1
  Si  Si62  1  0.62543712  0.26698781  0.26396264  1
  Si  Si63  1  0.26698781  0.37456288  0.01396264  1
  Si  Si64  1  0.39621650  0.30674051  0.60715726  1
  Si  Si65  1  0.69325949  0.39621650  0.85715726  1
  Si  Si66  1  0.30674051  0.60378350  0.35715726  1
  Si  Si67  1  0.60378350  0.69325949  0.10715726  1
  Si  Si68  1  0.14524046  0.24012065  0.50866655  1
  Si  Si69  1  0.75987935  0.14524046  0.75866655  1
  Si  Si70  1  0.24012065  0.85475954  0.25866655  1
  Si  Si71  1  0.85475954  0.75987935  0.00866655  1
  Pr  Pr72  1  0.86925309  0.24138982  0.63320508  1
  Pr  Pr73  1  0.75861018  0.86925309  0.88320508  1
  Pr  Pr74  1  0.24138982  0.13074691  0.38320508  1
  Pr  Pr75  1  0.13074691  0.75861018  0.13320508  1
  Pr  Pr76  1  0.65867581  0.08305310  0.49516138  1
  Pr  Pr77  1  0.91694690  0.65867581  0.74516138  1
  Pr  Pr78  1  0.08305310  0.34132419  0.24516138  1
  Pr  Pr79  1  0.34132419  0.91694690  0.99516138  1
  Pr  Pr80  1  0.47709006  0.83269719  0.64150152  1
  Pr  Pr81  1  0.16730281  0.47709006  0.89150152  1
  Pr  Pr82  1  0.83269719  0.52290994  0.39150152  1
  Pr  Pr83  1  0.52290994  0.16730281  0.14150152  1
  Pr  Pr84  1  0.22549610  0.70643694  0.49466453  1
  Pr  Pr85  1  0.29356306  0.22549610  0.74466453  1
  Pr  Pr86  1  0.70643694  0.77450390  0.24466453  1
  Pr  Pr87  1  0.77450390  0.29356306  0.99466453  1
