# generated using pymatgen
data_LiMo8(P2O11)4
_symmetry_space_group_name_H-M   'P 1'
_cell_length_a   10.00359159
_cell_length_b   9.97328136
_cell_length_c   10.21651752
_cell_angle_alpha   67.29480397
_cell_angle_beta   66.99020200
_cell_angle_gamma   80.56075669
_symmetry_Int_Tables_number   1
_chemical_formula_structural   LiMo8(P2O11)4
_chemical_formula_sum   'Li1 Mo8 P8 O44'
_cell_volume   865.38112022
_cell_formula_units_Z   1
loop_
 _symmetry_equiv_pos_site_id
 _symmetry_equiv_pos_as_xyz
  1  'x, y, z'
loop_
 _atom_site_type_symbol
 _atom_site_label
 _atom_site_symmetry_multiplicity
 _atom_site_fract_x
 _atom_site_fract_y
 _atom_site_fract_z
 _atom_site_occupancy
  Li  Li0  1  0.75000000  0.75000000  0.00000000  1
  O  O1  1  0.97952317  0.74818012  0.91047721  1
  O  O2  1  0.98798950  0.74254982  0.64400237  1
  O  O3  1  0.68754988  0.92101464  0.80522756  1
  O  O4  1  0.69011858  0.62742846  0.88827125  1
  O  O5  1  0.37586211  0.93556306  0.88278383  1
  O  O6  1  0.87578224  0.42984465  0.88479349  1
  O  O7  1  0.94237498  0.69851215  0.32738072  1
  O  O8  1  0.80988042  0.87257054  0.11172875  1
  O  O9  1  0.00672789  0.25443895  0.09014321  1
  O  O10  1  0.01239352  0.25929903  0.35215910  1
  O  O11  1  0.32301266  0.07341299  0.19874155  1
  O  O12  1  0.12413789  0.56443694  0.11721617  1
  O  O13  1  0.31766543  0.37302007  0.11739998  1
  O  O14  1  0.62421776  0.07015435  0.11520751  1
  O  O15  1  0.05328631  0.30172212  0.67840778  1
  O  O16  1  0.44671469  0.19827788  0.32159222  1
  O  O17  1  0.18233457  0.12697993  0.88259902  1
  O  O18  1  0.29778475  0.54854836  0.25187864  1
  O  O19  1  0.79971397  0.04220363  0.25120721  1
  O  O20  1  0.11686544  0.86801142  0.03776006  1
  O  O21  1  0.61519592  0.36726847  0.03909506  1
  O  O22  1  0.17698834  0.42658801  0.80125845  1
  O  O23  1  0.48760748  0.24069997  0.64784090  1
  O  O24  1  0.29641939  0.55283945  0.51834779  1
  O  O25  1  0.79743614  0.04901514  0.51837370  1
  O  O26  1  0.06191873  0.99960827  0.30430711  1
  O  O27  1  0.55582263  0.49561506  0.31108951  1
  O  O28  1  0.25681246  0.81223496  0.29751485  1
  O  O29  1  0.75337254  0.31165833  0.30233046  1
  O  O30  1  0.52047583  0.75181888  0.08952279  1
  O  O31  1  0.49327111  0.24556005  0.90985679  1
  O  O32  1  0.24318754  0.68776504  0.70248415  1
  O  O33  1  0.74662846  0.18834167  0.69766954  1
  O  O34  1  0.43808027  0.50039073  0.69569289  1
  O  O35  1  0.94417637  0.00438494  0.68891049  1
  O  O36  1  0.20358061  0.94716055  0.48165221  1
  O  O37  1  0.70256386  0.45098586  0.48162630  1
  O  O38  1  0.51200950  0.75745018  0.35599663  1
  O  O39  1  0.81245012  0.57898636  0.19477144  1
  O  O40  1  0.38313456  0.63198958  0.96223994  1
  O  O41  1  0.20221525  0.95145164  0.74812136  1
  O  O42  1  0.88480408  0.13273253  0.96090594  1
  O  O43  1  0.70028603  0.45779637  0.74879279  1
  O  O44  1  0.55762402  0.80148685  0.67261928  1
  P  P45  1  0.71840548  0.47090008  0.88320820  1
  P  P46  1  0.21865106  0.96976955  0.88095103  1
  P  P47  1  0.70598238  0.45751116  0.32860051  1
  P  P48  1  0.20803499  0.95629127  0.32748205  1
  P  P49  1  0.79401762  0.04248884  0.67139949  1
  P  P50  1  0.29196401  0.54370773  0.67251795  1
  P  P51  1  0.78159452  0.02909992  0.11679080  1
  P  P52  1  0.28134894  0.53023045  0.11904897  1
  Mo  Mo53  1  0.46511927  0.21500747  0.14403396  1
  Mo  Mo54  1  0.03487973  0.28499253  0.85596704  1
  Mo  Mo55  1  0.42641318  0.67325045  0.29358977  1
  Mo  Mo56  1  0.92478998  0.17401490  0.29257346  1
  Mo  Mo57  1  0.07358682  0.82674955  0.70641123  1
  Mo  Mo58  1  0.57521002  0.32598510  0.70742654  1
  Mo  Mo59  1  0.96888693  0.71397574  0.14865032  1
  Mo  Mo60  1  0.53111307  0.78602426  0.85134968  1
