# generated using pymatgen
data_NaCO2
_symmetry_space_group_name_H-M   'P 1'
_cell_length_a   3.55141283
_cell_length_b   5.29731544
_cell_length_c   10.60019099
_cell_angle_alpha   90.00000000
_cell_angle_beta   93.73970843
_cell_angle_gamma   90.00000000
_symmetry_Int_Tables_number   1
_chemical_formula_structural   NaCO2
_chemical_formula_sum   'Na4 C4 O8'
_cell_volume   198.99626965
_cell_formula_units_Z   4
loop_
 _symmetry_equiv_pos_site_id
 _symmetry_equiv_pos_as_xyz
  1  'x, y, z'
loop_
 _atom_site_type_symbol
 _atom_site_label
 _atom_site_symmetry_multiplicity
 _atom_site_fract_x
 _atom_site_fract_y
 _atom_site_fract_z
 _atom_site_occupancy
  C  C0  1  0.11327168  0.45609836  0.56301861  1
  C  C1  1  0.88672832  0.95609836  0.93698139  1
  C  C2  1  0.88672832  0.54390164  0.43698139  1
  C  C3  1  0.11327168  0.04390164  0.06301861  1
  O  O4  1  0.16174530  0.88246859  0.15111043  1
  O  O5  1  0.83825470  0.38246859  0.34888957  1
  O  O6  1  0.83825470  0.11753141  0.84888957  1
  O  O7  1  0.16174530  0.61753141  0.65111043  1
  O  O8  1  0.23031129  0.27008438  0.06710405  1
  O  O9  1  0.76968871  0.77008438  0.43289595  1
  O  O10  1  0.76968871  0.72991562  0.93289595  1
  O  O11  1  0.23031129  0.22991562  0.56710405  1
  Na  Na12  1  0.29789749  0.44316794  0.85592864  1
  Na  Na13  1  0.70210251  0.94316794  0.64407136  1
  Na  Na14  1  0.70210251  0.55683206  0.14407136  1
  Na  Na15  1  0.29789749  0.05683206  0.35592864  1
