# generated using pymatgen
data_KNO3
_symmetry_space_group_name_H-M   'P 1'
_cell_length_a   4.64108982
_cell_length_b   9.20031959
_cell_length_c   7.40743245
_cell_angle_alpha   36.37741267
_cell_angle_beta   67.01665259
_cell_angle_gamma   71.67703072
_symmetry_Int_Tables_number   1
_chemical_formula_structural   KNO3
_chemical_formula_sum   'K2 N2 O6'
_cell_volume   172.70275815
_cell_formula_units_Z   2
loop_
 _symmetry_equiv_pos_site_id
 _symmetry_equiv_pos_as_xyz
  1  'x, y, z'
loop_
 _atom_site_type_symbol
 _atom_site_label
 _atom_site_symmetry_multiplicity
 _atom_site_fract_x
 _atom_site_fract_y
 _atom_site_fract_z
 _atom_site_occupancy
  K  K0  1  0.54167059  0.00000000  0.48589786  1
  K  K1  1  0.45832941  0.50000000  0.51410214  1
  N  N2  1  0.04461457  1.00000000  0.02237392  1
  N  N3  1  0.95538543  0.50000000  0.97762608  1
  O  O4  1  0.09733912  0.29850389  0.12056581  1
  O  O5  1  0.09733912  0.70149611  0.71757359  1
  O  O6  1  0.66757825  0.50000000  0.09228815  1
  O  O7  1  0.33242175  0.00000000  0.90771185  1
  O  O8  1  0.90266088  0.20149611  0.87943419  1
  O  O9  1  0.90266088  0.79850389  0.28242641  1
