# generated using pymatgen
data_SrLaMnCoO6
_symmetry_space_group_name_H-M   'P 1'
_cell_length_a   5.46345401
_cell_length_b   5.44871464
_cell_length_c   5.48410499
_cell_angle_alpha   60.32859558
_cell_angle_beta   60.20350933
_cell_angle_gamma   60.59864584
_symmetry_Int_Tables_number   1
_chemical_formula_structural   SrLaMnCoO6
_chemical_formula_sum   'Sr1 La1 Mn1 Co1 O6'
_cell_volume   116.42014770
_cell_formula_units_Z   1
loop_
 _symmetry_equiv_pos_site_id
 _symmetry_equiv_pos_as_xyz
  1  'x, y, z'
loop_
 _atom_site_type_symbol
 _atom_site_label
 _atom_site_symmetry_multiplicity
 _atom_site_fract_x
 _atom_site_fract_y
 _atom_site_fract_z
 _atom_site_occupancy
  Sr  Sr0  1  0.24978607  0.24985255  0.24968101  1
  La  La1  1  0.75007241  0.75009042  0.75004216  1
  Mn  Mn2  1  0.49984562  0.49986639  0.49986556  1
  Co  Co3  1  0.99927298  0.99950736  0.99916785  1
  O  O4  1  0.25094086  0.25062907  0.74833075  1
  O  O5  1  0.25295937  0.74643014  0.25323564  1
  O  O6  1  0.25403370  0.74784324  0.74751597  1
  O  O7  1  0.74700279  0.25199262  0.25259960  1
  O  O8  1  0.74692832  0.25449112  0.74678285  1
  O  O9  1  0.74915787  0.74929708  0.25277862  1
