# generated using pymatgen
data_Al2SiO5
_symmetry_space_group_name_H-M   'P 1'
_cell_length_a   5.81749413
_cell_length_b   7.57317059
_cell_length_c   7.77819289
_cell_angle_alpha   90.00000000
_cell_angle_beta   90.00000000
_cell_angle_gamma   90.00000000
_symmetry_Int_Tables_number   1
_chemical_formula_structural   Al2SiO5
_chemical_formula_sum   'Al8 Si4 O20'
_cell_volume   342.68287540
_cell_formula_units_Z   4
loop_
 _symmetry_equiv_pos_site_id
 _symmetry_equiv_pos_as_xyz
  1  'x, y, z'
loop_
 _atom_site_type_symbol
 _atom_site_label
 _atom_site_symmetry_multiplicity
 _atom_site_fract_x
 _atom_site_fract_y
 _atom_site_fract_z
 _atom_site_occupancy
  O  O0  1  0.01379056  0.62546502  0.27631804  1
  O  O1  1  0.51379056  0.37453498  0.72368196  1
  O  O2  1  0.98620944  0.12546502  0.22368196  1
  O  O3  1  0.48620944  0.87453498  0.77631804  1
  O  O4  1  0.98620944  0.37453498  0.72368196  1
  O  O5  1  0.48620944  0.62546502  0.27631804  1
  O  O6  1  0.01379056  0.87453498  0.77631804  1
  O  O7  1  0.51379056  0.12546502  0.22368196  1
  O  O8  1  0.75000000  0.02166255  0.50108184  1
  O  O9  1  0.25000000  0.97833745  0.49891816  1
  O  O10  1  0.25000000  0.52166255  0.99891816  1
  O  O11  1  0.75000000  0.47833745  0.00108184  1
  O  O12  1  0.75000000  0.35928480  0.41026429  1
  O  O13  1  0.25000000  0.64071520  0.58973571  1
  O  O14  1  0.25000000  0.85928480  0.08973571  1
  O  O15  1  0.75000000  0.14071520  0.91026429  1
  O  O16  1  0.25000000  0.35744734  0.43440181  1
  O  O17  1  0.75000000  0.64255266  0.56559819  1
  O  O18  1  0.75000000  0.85744734  0.06559819  1
  O  O19  1  0.25000000  0.14255266  0.93440181  1
  Al  Al20  1  0.00000000  0.00000000  0.00000000  1
  Al  Al21  1  0.50000000  0.00000000  0.00000000  1
  Al  Al22  1  0.00000000  0.50000000  0.50000000  1
  Al  Al23  1  0.50000000  0.50000000  0.50000000  1
  Al  Al24  1  0.25000000  0.35695069  0.84619568  1
  Al  Al25  1  0.75000000  0.64304931  0.15380432  1
  Al  Al26  1  0.75000000  0.85695069  0.65380432  1
  Al  Al27  1  0.25000000  0.14304931  0.34619568  1
  Si  Si28  1  0.75000000  0.15266809  0.34105188  1
  Si  Si29  1  0.25000000  0.84733191  0.65894812  1
  Si  Si30  1  0.25000000  0.65266809  0.15894812  1
  Si  Si31  1  0.75000000  0.34733191  0.84105188  1
