# generated using pymatgen
data_NaPO3
_symmetry_space_group_name_H-M   'P 1'
_cell_length_a   6.25645467
_cell_length_b   7.08625961
_cell_length_c   12.31704780
_cell_angle_alpha   91.64832719
_cell_angle_beta   90.00000000
_cell_angle_gamma   90.00000000
_symmetry_Int_Tables_number   1
_chemical_formula_structural   NaPO3
_chemical_formula_sum   'Na8 P8 O24'
_cell_volume   545.84865405
_cell_formula_units_Z   8
loop_
 _symmetry_equiv_pos_site_id
 _symmetry_equiv_pos_as_xyz
  1  'x, y, z'
loop_
 _atom_site_type_symbol
 _atom_site_label
 _atom_site_symmetry_multiplicity
 _atom_site_fract_x
 _atom_site_fract_y
 _atom_site_fract_z
 _atom_site_occupancy
  O  O0  1  0.52126743  0.81588126  0.55520639  1
  O  O1  1  0.02126743  0.68411874  0.94479361  1
  O  O2  1  0.47873257  0.18411874  0.44479361  1
  O  O3  1  0.97873257  0.31588126  0.05520639  1
  O  O4  1  0.20397554  0.58477977  0.54228506  1
  O  O5  1  0.70397554  0.91522023  0.95771494  1
  O  O6  1  0.79602446  0.41522023  0.45771494  1
  O  O7  1  0.29602446  0.08477977  0.04228506  1
  O  O8  1  0.50491743  0.52214012  0.67165504  1
  O  O9  1  0.00491743  0.97785988  0.82834496  1
  O  O10  1  0.49508257  0.47785988  0.32834496  1
  O  O11  1  0.99508257  0.02214012  0.17165504  1
  O  O12  1  0.98049341  0.99449621  0.62037215  1
  O  O13  1  0.48049341  0.50550379  0.87962785  1
  O  O14  1  0.01950659  0.00550379  0.37962785  1
  O  O15  1  0.51950659  0.49449621  0.12037215  1
  O  O16  1  0.21186453  0.65146735  0.22852452  1
  O  O17  1  0.71186453  0.84853265  0.27147548  1
  O  O18  1  0.78813547  0.34853265  0.77147548  1
  O  O19  1  0.28813547  0.15146735  0.72852452  1
  O  O20  1  0.23953975  0.29018331  0.21469961  1
  O  O21  1  0.73953975  0.20981669  0.28530039  1
  O  O22  1  0.76046025  0.70981669  0.78530039  1
  O  O23  1  0.26046025  0.79018331  0.71469961  1
  Na  Na24  1  0.87378503  0.62781164  0.13181613  1
  Na  Na25  1  0.37378503  0.87218836  0.36818387  1
  Na  Na26  1  0.12621497  0.37218836  0.86818387  1
  Na  Na27  1  0.62621497  0.12781164  0.63181613  1
  Na  Na28  1  0.37898484  0.76337015  0.00465716  1
  Na  Na29  1  0.87898484  0.73662985  0.49534284  1
  Na  Na30  1  0.62101516  0.23662985  0.99534284  1
  Na  Na31  1  0.12101516  0.26337015  0.50465716  1
  P  P32  1  0.36672219  0.49099220  0.21462964  1
  P  P33  1  0.86672219  0.00900780  0.28537036  1
  P  P34  1  0.63327781  0.50900780  0.78537036  1
  P  P35  1  0.13327781  0.99099220  0.71462964  1
  P  P36  1  0.12887553  0.18263502  0.11011231  1
  P  P37  1  0.62887553  0.31736498  0.38988769  1
  P  P38  1  0.87112447  0.81736498  0.88988769  1
  P  P39  1  0.37112447  0.68263502  0.61011231  1
