# generated using pymatgen
data_MgAl2O4
_symmetry_space_group_name_H-M   'P 1'
_cell_length_a   5.77533474
_cell_length_b   5.77533490
_cell_length_c   40.44787271
_cell_angle_alpha   60.02369518
_cell_angle_beta   60.02369426
_cell_angle_gamma   59.92625194
_symmetry_Int_Tables_number   1
_chemical_formula_structural   MgAl2O4
_chemical_formula_sum   'Mg14 Al28 O56'
_cell_volume   953.77878370
_cell_formula_units_Z   14
loop_
 _symmetry_equiv_pos_site_id
 _symmetry_equiv_pos_as_xyz
  1  'x, y, z'
loop_
 _atom_site_type_symbol
 _atom_site_label
 _atom_site_symmetry_multiplicity
 _atom_site_fract_x
 _atom_site_fract_y
 _atom_site_fract_z
 _atom_site_occupancy
  Al  Al0  1  0.13239923  0.13239923  0.01625128  1
  Al  Al1  1  0.50347392  0.50347392  0.99846943  1
  Al  Al2  1  0.50000807  0.50000807  0.07142606  1
  Al  Al3  1  0.00211187  0.49815637  0.21468003  1
  Al  Al4  1  0.49649837  0.49649837  0.14439144  1
  Al  Al5  1  0.49804840  0.49804840  0.21451516  1
  Al  Al6  1  0.00034853  0.50047726  0.35695937  1
  Al  Al7  1  0.49815637  0.00211187  0.21468003  1
  Al  Al8  1  0.86758973  0.86758973  0.12661335  1
  Al  Al9  1  0.50011520  0.50011520  0.28562499  1
  Al  Al10  1  0.50046950  0.50046950  0.35694593  1
  Al  Al11  1  0.50023524  0.50023524  0.42845964  1
  Al  Al12  1  0.50047726  0.00034853  0.35695937  1
  Al  Al13  1  0.50006324  0.50006324  0.49996594  1
  Al  Al14  1  0.99993470  0.49996854  0.64288110  1
  Al  Al15  1  0.49996854  0.99993470  0.64288110  1
  Al  Al16  1  0.50006881  0.00011107  0.49996565  1
  Al  Al17  1  0.50002756  0.50002756  0.57142174  1
  Al  Al18  1  0.49997573  0.49997573  0.64288161  1
  Al  Al19  1  0.00011107  0.50006881  0.49996565  1
  Al  Al20  1  0.99961035  0.49949254  0.78590310  1
  Al  Al21  1  0.49975467  0.49975467  0.71438937  1
  Al  Al22  1  0.99786300  0.50186069  0.92818352  1
  Al  Al23  1  0.49949939  0.49949939  0.78591579  1
  Al  Al24  1  0.49983007  0.49983007  0.85725063  1
  Al  Al25  1  0.49949254  0.99961035  0.78590310  1
  Al  Al26  1  0.50198194  0.50198194  0.92833868  1
  Al  Al27  1  0.50186069  0.99786300  0.92818352  1
  Mg  Mg28  1  0.00004084  0.49997755  0.07142944  1
  Mg  Mg29  1  0.13203005  0.13203005  0.15862741  1
  Mg  Mg30  1  0.49997755  0.00004084  0.07142944  1
  Mg  Mg31  1  0.12416537  0.12416537  0.30398912  1
  Mg  Mg32  1  0.12539135  0.12539135  0.44628996  1
  Mg  Mg33  1  0.87709551  0.87709551  0.26696365  1
  Mg  Mg34  1  0.12515573  0.12515573  0.58924991  1
  Mg  Mg35  1  0.87497040  0.87497040  0.41069719  1
  Mg  Mg36  1  0.12501040  0.12501040  0.73215699  1
  Mg  Mg37  1  0.87486630  0.87486630  0.55360404  1
  Mg  Mg38  1  0.12292876  0.12292876  0.87589377  1
  Mg  Mg39  1  0.87460262  0.87460262  0.69656361  1
  Mg  Mg40  1  0.87582799  0.87582799  0.83886752  1
  Mg  Mg41  1  0.86798860  0.86798860  0.98422164  1
  O  O42  1  0.27008749  0.27008749  0.03092725  1
  O  O43  1  0.27861591  0.27861591  0.10011300  1
  O  O44  1  0.27256743  0.74557415  0.03275592  1
  O  O45  1  0.74557415  0.27256743  0.03275592  1
  O  O46  1  0.25442939  0.72743035  0.11010382  1
  O  O47  1  0.25944258  0.25944258  0.18221363  1
  O  O48  1  0.72142062  0.72142062  0.04273690  1
  O  O49  1  0.72743035  0.25442939  0.11010382  1
  O  O50  1  0.26228625  0.26228625  0.24504272  1
  O  O51  1  0.25755485  0.70898636  0.18191078  1
  O  O52  1  0.72992486  0.72992486  0.11192719  1
  O  O53  1  0.70898636  0.25755485  0.18191078  1
  O  O54  1  0.29442226  0.73628133  0.24764434  1
  O  O55  1  0.26408184  0.26408184  0.32328176  1
  O  O56  1  0.73628133  0.29442226  0.24764434  1
  O  O57  1  0.74204604  0.74204604  0.18207680  1
  O  O58  1  0.26371932  0.70901797  0.32330366  1
  O  O59  1  0.26394485  0.26394485  0.38691468  1
  O  O60  1  0.70901797  0.26371932  0.32330366  1
  O  O61  1  0.73563454  0.73563454  0.24781052  1
  O  O62  1  0.29127027  0.73693561  0.39072101  1
  O  O63  1  0.26385923  0.26385923  0.46615064  1
  O  O64  1  0.73693561  0.29127027  0.39072101  1
  O  O65  1  0.73735711  0.73735711  0.32680712  1
  O  O66  1  0.26379983  0.26379983  0.52984081  1
  O  O67  1  0.26357815  0.70930595  0.46618109  1
  O  O68  1  0.73664310  0.73664310  0.39076225  1
  O  O69  1  0.70930595  0.26357815  0.46618109  1
  O  O70  1  0.29084083  0.73661209  0.53374069  1
  O  O71  1  0.26370445  0.26370445  0.60907497  1
  O  O72  1  0.26366918  0.26366918  0.67275414  1
  O  O73  1  0.73661209  0.29084083  0.53374069  1
  O  O74  1  0.73634293  0.73634293  0.47009672  1
  O  O75  1  0.26344180  0.70918680  0.60910645  1
  O  O76  1  0.73633522  0.73633522  0.53377128  1
  O  O77  1  0.70918680  0.26344180  0.60910645  1
  O  O78  1  0.29070939  0.73643238  0.67667011  1
  O  O79  1  0.26332807  0.26332807  0.75209869  1
  O  O80  1  0.73643238  0.29070939  0.67667011  1
  O  O81  1  0.26260886  0.26260886  0.81605317  1
  O  O82  1  0.73623745  0.73623745  0.61301313  1
  O  O83  1  0.26304552  0.70869312  0.75213624  1
  O  O84  1  0.73614784  0.73614784  0.67670100  1
  O  O85  1  0.70869312  0.26304552  0.75213624  1
  O  O86  1  0.29095262  0.73622656  0.81956503  1
  O  O87  1  0.26435887  0.26435887  0.89505514  1
  O  O88  1  0.73622656  0.29095262  0.81956503  1
  O  O89  1  0.73602771  0.73602771  0.75594453  1
  O  O90  1  0.25795137  0.25795137  0.96078089  1
  O  O91  1  0.26370092  0.70559339  0.89522047  1
  O  O92  1  0.70559339  0.26370092  0.89522047  1
  O  O93  1  0.73588228  0.73588228  0.81958544  1
  O  O94  1  0.29101924  0.74245113  0.96094771  1
  O  O95  1  0.73770996  0.73770996  0.89781543  1
  O  O96  1  0.74245113  0.29101924  0.96094771  1
  O  O97  1  0.74054690  0.74054690  0.96064531  1
