# generated using pymatgen
data_LiScGeO4
_symmetry_space_group_name_H-M   'P 1'
_cell_length_a   5.02410602
_cell_length_b   6.05707843
_cell_length_c   10.77110809
_cell_angle_alpha   90.00000000
_cell_angle_beta   90.00000000
_cell_angle_gamma   90.00000000
_symmetry_Int_Tables_number   1
_chemical_formula_structural   LiScGeO4
_chemical_formula_sum   'Li4 Sc4 Ge4 O16'
_cell_volume   327.77994401
_cell_formula_units_Z   4
loop_
 _symmetry_equiv_pos_site_id
 _symmetry_equiv_pos_as_xyz
  1  'x, y, z'
loop_
 _atom_site_type_symbol
 _atom_site_label
 _atom_site_symmetry_multiplicity
 _atom_site_fract_x
 _atom_site_fract_y
 _atom_site_fract_z
 _atom_site_occupancy
  Li  Li0  1  0.00000000  0.00000000  0.00000000  1
  Li  Li1  1  0.50000000  0.00000000  0.50000000  1
  Li  Li2  1  0.00000000  0.50000000  0.00000000  1
  Li  Li3  1  0.50000000  0.50000000  0.50000000  1
  Sc  Sc4  1  0.99624115  0.75000000  0.72815453  1
  Sc  Sc5  1  0.49624115  0.25000000  0.77184547  1
  Sc  Sc6  1  0.00375885  0.25000000  0.27184547  1
  Sc  Sc7  1  0.50375885  0.75000000  0.22815453  1
  Ge  Ge8  1  0.55030660  0.75000000  0.90993193  1
  Ge  Ge9  1  0.05030660  0.25000000  0.59006807  1
  Ge  Ge10  1  0.44969340  0.25000000  0.09006807  1
  Ge  Ge11  1  0.94969340  0.75000000  0.40993193  1
  O  O12  1  0.20362920  0.75000000  0.90285003  1
  O  O13  1  0.70362920  0.25000000  0.59714997  1
  O  O14  1  0.79637080  0.25000000  0.09714997  1
  O  O15  1  0.29637080  0.75000000  0.40285003  1
  O  O16  1  0.80047431  0.75000000  0.55812145  1
  O  O17  1  0.30047431  0.25000000  0.94187855  1
  O  O18  1  0.19952569  0.25000000  0.44187855  1
  O  O19  1  0.69952569  0.75000000  0.05812145  1
  O  O20  1  0.71493828  0.97023446  0.82687948  1
  O  O21  1  0.21493828  0.02976554  0.67312052  1
  O  O22  1  0.28506172  0.47023446  0.17312052  1
  O  O23  1  0.78506172  0.52976554  0.32687948  1
  O  O24  1  0.28506172  0.02976554  0.17312052  1
  O  O25  1  0.78506172  0.97023446  0.32687948  1
  O  O26  1  0.71493828  0.52976554  0.82687948  1
  O  O27  1  0.21493828  0.47023446  0.67312052  1
