# generated using pymatgen
data_MgAl2O4
_symmetry_space_group_name_H-M   'P 1'
_cell_length_a   5.77387998
_cell_length_b   5.77388021
_cell_length_c   23.11712211
_cell_angle_alpha   60.03090070
_cell_angle_beta   60.03089933
_cell_angle_gamma   60.00000064
_symmetry_Int_Tables_number   1
_chemical_formula_structural   MgAl2O4
_chemical_formula_sum   'Mg8 Al16 O32'
_cell_volume   545.20141435
_cell_formula_units_Z   8
loop_
 _symmetry_equiv_pos_site_id
 _symmetry_equiv_pos_as_xyz
  1  'x, y, z'
loop_
 _atom_site_type_symbol
 _atom_site_label
 _atom_site_symmetry_multiplicity
 _atom_site_fract_x
 _atom_site_fract_y
 _atom_site_fract_z
 _atom_site_occupancy
  Al  Al0  1  0.49594925  0.49594925  0.12599291  1
  Al  Al1  1  0.49964570  0.49964570  0.25026573  1
  Al  Al2  1  0.49594925  0.00412987  0.12599291  1
  Al  Al3  1  0.50039132  0.50039132  0.37465509  1
  Al  Al4  1  0.00412987  0.49594925  0.12599291  1
  Al  Al5  1  0.50093928  0.50093928  0.49929554  1
  Al  Al6  1  0.50039132  0.00059701  0.37465509  1
  Al  Al7  1  0.50024134  0.50024134  0.62454744  1
  Al  Al8  1  0.00059701  0.50039132  0.37465509  1
  Al  Al9  1  0.50198072  0.50198072  0.74851446  1
  Al  Al10  1  0.50024134  0.00132759  0.62454744  1
  Al  Al11  1  0.00132759  0.50024134  0.62454744  1
  Al  Al12  1  0.49860958  0.49860958  0.87423883  1
  Al  Al13  1  0.49860958  0.00582551  0.87423883  1
  Al  Al14  1  0.00582551  0.49860958  0.87423883  1
  Al  Al15  1  0.87765288  0.87765288  0.96676034  1
  Mg  Mg16  1  0.12115265  0.12115265  0.03413552  1
  Mg  Mg17  1  0.49708288  0.49708288  0.00218784  1
  Mg  Mg18  1  0.12304053  0.12304053  0.28271960  1
  Mg  Mg19  1  0.12577296  0.12577296  0.53067028  1
  Mg  Mg20  1  0.87781694  0.87781694  0.21663729  1
  Mg  Mg21  1  0.12526386  0.12526386  0.78105210  1
  Mg  Mg22  1  0.87537036  0.87537036  0.46847223  1
  Mg  Mg23  1  0.87413739  0.87413739  0.71939696  1
  O  O24  1  0.25082658  0.25082658  0.07163419  1
  O  O25  1  0.26017033  0.26017033  0.17987225  1
  O  O26  1  0.25082658  0.71181008  0.07163419  1
  O  O27  1  0.71181008  0.25082658  0.07163419  1
  O  O28  1  0.29706576  0.73484347  0.18331182  1
  O  O29  1  0.26366544  0.26366544  0.31598980  1
  O  O30  1  0.73484347  0.29706576  0.18331182  1
  O  O31  1  0.26362298  0.26362298  0.42728277  1
  O  O32  1  0.74882411  0.74882411  0.06338192  1
  O  O33  1  0.26366544  0.70870991  0.31598980  1
  O  O34  1  0.70870991  0.26366544  0.31598980  1
  O  O35  1  0.73484347  0.73484347  0.18331182  1
  O  O36  1  0.26327067  0.26327067  0.56610542  1
  O  O37  1  0.29096091  0.73631764  0.43410095  1
  O  O38  1  0.73760181  0.73760181  0.32179865  1
  O  O39  1  0.73631764  0.29096091  0.43410095  1
  O  O40  1  0.26338241  0.26338241  0.67746320  1
  O  O41  1  0.26327067  0.70903698  0.56610542  1
  O  O42  1  0.70903698  0.26327067  0.56610542  1
  O  O43  1  0.73631764  0.73631764  0.43410095  1
  O  O44  1  0.26585575  0.26585575  0.81493140  1
  O  O45  1  0.28988022  0.73650489  0.68427750  1
  O  O46  1  0.73650489  0.28988022  0.68427750  1
  O  O47  1  0.73603698  0.73603698  0.57297227  1
  O  O48  1  0.26281965  0.26281965  0.92788526  1
  O  O49  1  0.26585575  0.70856290  0.81493140  1
  O  O50  1  0.70856290  0.26585575  0.81493140  1
  O  O51  1  0.73650489  0.73650489  0.68427750  1
  O  O52  1  0.26511206  0.75469918  0.93137239  1
  O  O53  1  0.73231660  0.73231660  0.82576255  1
  O  O54  1  0.75469918  0.26511206  0.93137239  1
  O  O55  1  0.75469918  0.75469918  0.93137239  1
