# generated using pymatgen
data_Li13Ti22O48
_symmetry_space_group_name_H-M   'P 1'
_cell_length_a   5.97419284
_cell_length_b   11.94435480
_cell_length_c   17.91958021
_cell_angle_alpha   59.96589458
_cell_angle_beta   59.99506624
_cell_angle_gamma   59.98027362
_symmetry_Int_Tables_number   1
_chemical_formula_structural   Li13Ti22O48
_chemical_formula_sum   'Li13 Ti22 O48'
_cell_volume   903.77799686
_cell_formula_units_Z   1
loop_
 _symmetry_equiv_pos_site_id
 _symmetry_equiv_pos_as_xyz
  1  'x, y, z'
loop_
 _atom_site_type_symbol
 _atom_site_label
 _atom_site_symmetry_multiplicity
 _atom_site_fract_x
 _atom_site_fract_y
 _atom_site_fract_z
 _atom_site_occupancy
  Li  Li0  1  0.00216877  0.49782983  0.99996159  1
  Li  Li1  1  0.25039393  0.12789385  0.08120416  1
  Li  Li2  1  0.00387552  0.49840998  0.33179505  1
  Li  Li3  1  0.24640667  0.12653271  0.41800187  1
  Li  Li4  1  0.24929633  0.62679994  0.08266084  1
  Li  Li5  1  1.00144428  0.49726792  0.66752271  1
  Li  Li6  1  1.00042537  0.00160642  0.33192984  1
  Li  Li7  1  0.24688551  0.12493676  0.75216572  1
  Li  Li8  1  0.25016946  0.62348399  0.41757400  1
  Li  Li9  1  0.62506643  0.31229845  0.37509277  1
  Li  Li10  1  0.24588668  0.62631466  0.75192809  1
  Li  Li11  1  1.00030019  0.99890998  0.66718238  1
  Li  Li12  1  0.62476352  0.56317615  0.87470985  1
  O  O13  1  0.39062420  0.19332252  0.12982605  1
  O  O14  1  0.38449193  0.19602197  0.27970436  1
  O  O15  1  0.39055907  0.41772545  0.12778866  1
  O  O16  1  0.83325596  0.19327573  0.12987552  1
  O  O17  1  0.38990075  0.69453255  0.12912171  1
  O  O18  1  0.41074678  0.43671496  0.27975598  1
  O  O19  1  0.37391211  0.18813727  0.47011046  1
  O  O20  1  0.38677480  0.19415967  0.61275427  1
  O  O21  1  0.87607649  0.20468542  0.27950765  1
  O  O22  1  0.38849362  0.69190196  0.27977421  1
  O  O23  1  0.38679402  0.91894375  0.12948140  1
  O  O24  1  0.86321700  0.43010692  0.13771949  1
  O  O25  1  0.37416488  0.42030085  0.47033469  1
  O  O26  1  0.83369658  0.69447913  0.12918240  1
  O  O27  1  0.83944690  0.18812776  0.47012132  1
  O  O28  1  0.87655562  0.43667385  0.27978006  1
  O  O29  1  0.38959162  0.19439825  0.79538092  1
  O  O30  1  0.41504559  0.43060496  0.62112641  1
  O  O31  1  0.41334296  0.93148840  0.28762236  1
  O  O32  1  0.38768349  0.69387954  0.46295841  1
  O  O33  1  0.86295421  0.70556834  0.28772222  1
  O  O34  1  0.38675154  0.69423404  0.61275153  1
  O  O35  1  0.39210788  0.19262189  0.94355869  1
  O  O36  1  0.85987503  0.92894739  0.14070482  1
  O  O37  1  0.85907285  0.20825876  0.62176739  1
  O  O38  1  0.86409837  0.43016751  0.47045515  1
  O  O39  1  0.38708543  0.41919581  0.79575271  1
  O  O40  1  0.38703768  0.91856908  0.46285979  1
  O  O41  1  0.83553298  0.19432181  0.79540566  1
  O  O42  1  0.83565852  0.69380383  0.46300369  1
  O  O43  1  0.86031784  0.43055321  0.62118801  1
  O  O44  1  0.86081037  0.93139440  0.28767847  1
  O  O45  1  0.40795113  0.41981132  0.95866775  1
  O  O46  1  0.37472739  0.70563532  0.79138800  1
  O  O47  1  0.41781443  0.93081523  0.61986922  1
  O  O48  1  0.85900548  0.21221839  0.95254570  1
  O  O49  1  0.37546040  0.70518674  0.94627761  1
  O  O50  1  0.86237511  0.93269054  0.46994169  1
  O  O51  1  0.87620273  0.41986477  0.80258012  1
  O  O52  1  0.86252798  0.70532140  0.62143856  1
  O  O53  1  0.38762345  0.91887023  0.79561431  1
  O  O54  1  0.83992489  0.70563498  0.79139902  1
  O  O55  1  0.87635413  0.41978921  0.95868011  1
  O  O56  1  0.86084827  0.93075592  0.61994530  1
  O  O57  1  0.42457349  0.92939678  0.95231812  1
  O  O58  1  0.86575400  0.70438177  0.95326930  1
  O  O59  1  0.86043058  0.93280411  0.80446501  1
  O  O60  1  0.85971057  0.92930963  0.95235436  1
  Ti  Ti61  1  0.11397450  0.31168245  0.21307991  1
  Ti  Ti62  1  0.63112762  0.06310059  0.20387806  1
  Ti  Ti63  1  0.62113520  0.32154163  0.03817725  1
  Ti  Ti64  1  0.12455321  0.81256864  0.20710006  1
  Ti  Ti65  1  0.13680966  0.31269956  0.53688917  1
  Ti  Ti66  1  0.62344460  0.31162647  0.21313757  1
  Ti  Ti67  1  0.62208621  0.55860999  0.21287642  1
  Ti  Ti68  1  0.62669868  0.06622667  0.53800674  1
  Ti  Ti69  1  0.62175841  0.81726245  0.04063707  1
  Ti  Ti70  1  0.12344883  0.81389173  0.54227099  1
  Ti  Ti71  1  0.11165056  0.31789483  0.87559029  1
  Ti  Ti72  1  0.62908502  0.81254844  0.20710522  1
  Ti  Ti73  1  0.62710478  0.31271886  0.53682919  1
  Ti  Ti74  1  0.62165837  0.56198004  0.54420610  1
  Ti  Ti75  1  0.62504249  0.05982989  0.87676597  1
  Ti  Ti76  1  0.62841332  0.30884566  0.70852337  1
  Ti  Ti77  1  0.62563170  0.81225464  0.37473026  1
  Ti  Ti78  1  0.13348900  0.80706803  0.87611146  1
  Ti  Ti79  1  0.62190555  0.81390915  0.54225869  1
  Ti  Ti80  1  0.62580219  0.31782270  0.87561950  1
  Ti  Ti81  1  0.62709889  0.80376874  0.71281134  1
  Ti  Ti82  1  0.62403747  0.80708487  0.87613787  1
