# generated using pymatgen
data_LiAlSiH2O5
_symmetry_space_group_name_H-M   'P 1'
_cell_length_a   5.10937864
_cell_length_b   8.49259506
_cell_length_c   11.94630911
_cell_angle_alpha   90.00000000
_cell_angle_beta   90.00000000
_cell_angle_gamma   90.00000000
_symmetry_Int_Tables_number   1
_chemical_formula_structural   LiAlSiH2O5
_chemical_formula_sum   'Li4 Al4 Si4 H8 O20'
_cell_volume   518.37285671
_cell_formula_units_Z   4
loop_
 _symmetry_equiv_pos_site_id
 _symmetry_equiv_pos_as_xyz
  1  'x, y, z'
loop_
 _atom_site_type_symbol
 _atom_site_label
 _atom_site_symmetry_multiplicity
 _atom_site_fract_x
 _atom_site_fract_y
 _atom_site_fract_z
 _atom_site_occupancy
  Li  Li0  1  0.05927242  0.74716017  0.60494831  1
  Li  Li1  1  0.55927242  0.24716017  0.89505169  1
  Li  Li2  1  0.55927242  0.25283983  0.39505169  1
  Li  Li3  1  0.05927242  0.75283983  0.10494831  1
  Al  Al4  1  0.75471119  0.64691628  0.34634799  1
  Al  Al5  1  0.25471119  0.14691628  0.15365201  1
  Al  Al6  1  0.75471119  0.85308372  0.84634799  1
  Al  Al7  1  0.25471119  0.35308372  0.65365201  1
  Si  Si8  1  0.21760506  0.46490930  0.27515248  1
  Si  Si9  1  0.71760506  0.96490930  0.22484752  1
  Si  Si10  1  0.71760506  0.53509070  0.72484752  1
  Si  Si11  1  0.21760506  0.03509070  0.77515248  1
  H  H12  1  0.96583625  0.02132859  0.62381971  1
  H  H13  1  0.46583625  0.52132859  0.87618029  1
  H  H14  1  0.46583625  0.97867141  0.37618029  1
  H  H15  1  0.28970778  0.13905041  0.54383705  1
  H  H16  1  0.78970778  0.86094959  0.45616295  1
  H  H17  1  0.78970778  0.63905041  0.95616295  1
  H  H18  1  0.96583625  0.47867141  0.12381971  1
  H  H19  1  0.28970778  0.36094959  0.04383705  1
  O  O20  1  0.44064099  0.52701009  0.65877182  1
  O  O21  1  0.94064099  0.02701009  0.84122818  1
  O  O22  1  0.33116033  0.25052949  0.02812065  1
  O  O23  1  0.13776795  0.97672296  0.64013909  1
  O  O24  1  0.93194321  0.08426270  0.17617106  1
  O  O25  1  0.93194321  0.41573730  0.67617106  1
  O  O26  1  0.83065281  0.71452508  0.73714400  1
  O  O27  1  0.83065281  0.78547492  0.23714400  1
  O  O28  1  0.43194321  0.58426270  0.32382894  1
  O  O29  1  0.43194321  0.91573730  0.82382894  1
  O  O30  1  0.83116033  0.74947051  0.97187935  1
  O  O31  1  0.33116033  0.24947051  0.52812065  1
  O  O32  1  0.83116033  0.75052949  0.47187935  1
  O  O33  1  0.33065281  0.21452508  0.76285600  1
  O  O34  1  0.94064099  0.47298991  0.34122818  1
  O  O35  1  0.13776795  0.52327704  0.14013909  1
  O  O36  1  0.63776795  0.02327704  0.35986091  1
  O  O37  1  0.33065281  0.28547492  0.26285600  1
  O  O38  1  0.44064099  0.97298991  0.15877182  1
  O  O39  1  0.63776795  0.47672296  0.85986091  1
