# generated using pymatgen
data_Ti20(Sb3Se)3
_symmetry_space_group_name_H-M   'P 1'
_cell_length_a   6.98629609
_cell_length_b   16.67436809
_cell_length_c   10.06530350
_cell_angle_alpha   90.00000000
_cell_angle_beta   90.00000000
_cell_angle_gamma   90.00000000
_symmetry_Int_Tables_number   1
_chemical_formula_structural   Ti20(Sb3Se)3
_chemical_formula_sum   'Ti40 Sb18 Se6'
_cell_volume   1172.52806597
_cell_formula_units_Z   2
loop_
 _symmetry_equiv_pos_site_id
 _symmetry_equiv_pos_as_xyz
  1  'x, y, z'
loop_
 _atom_site_type_symbol
 _atom_site_label
 _atom_site_symmetry_multiplicity
 _atom_site_fract_x
 _atom_site_fract_y
 _atom_site_fract_z
 _atom_site_occupancy
  Ti  Ti0  1  0.02819878  0.37635686  0.49451784  1
  Ti  Ti1  1  0.02819878  0.87364314  0.49451784  1
  Ti  Ti2  1  0.15929211  0.12500000  0.79010828  1
  Ti  Ti3  1  0.17493996  0.62500000  0.77955050  1
  Ti  Ti4  1  0.18165054  0.37602397  0.77328740  1
  Ti  Ti5  1  0.18165054  0.87397603  0.77328740  1
  Ti  Ti6  1  0.18855091  0.02804291  0.05176367  1
  Ti  Ti7  1  0.18855091  0.22195709  0.05176367  1
  Ti  Ti8  1  0.19746529  0.52026490  0.05011816  1
  Ti  Ti9  1  0.19746529  0.72973510  0.05011816  1
  Ti  Ti10  1  0.30253471  0.22973510  0.55011816  1
  Ti  Ti11  1  0.31144909  0.72195709  0.55176367  1
  Ti  Ti12  1  0.30253471  0.02026490  0.55011816  1
  Ti  Ti13  1  0.31144909  0.52804291  0.55176367  1
  Ti  Ti14  1  0.31834946  0.37397603  0.27328740  1
  Ti  Ti15  1  0.31834946  0.87602397  0.27328740  1
  Ti  Ti16  1  0.32506004  0.12500000  0.27955050  1
  Ti  Ti17  1  0.34070789  0.62500000  0.29010828  1
  Ti  Ti18  1  0.47180122  0.37364314  0.99451784  1
  Ti  Ti19  1  0.47180122  0.87635686  0.99451784  1
  Ti  Ti20  1  0.52775552  0.12500000  0.00474914  1
  Ti  Ti21  1  0.51326172  0.62500000  0.01056391  1
  Ti  Ti22  1  0.65913077  0.37686003  0.70842557  1
  Ti  Ti23  1  0.65913077  0.87313997  0.70842557  1
  Ti  Ti24  1  0.69967032  0.12500000  0.74317807  1
  Ti  Ti25  1  0.68052199  0.62500000  0.72528536  1
  Ti  Ti26  1  0.69141246  0.47345306  0.45014667  1
  Ti  Ti27  1  0.69070348  0.96571774  0.44844607  1
  Ti  Ti28  1  0.69070348  0.28428226  0.44844607  1
  Ti  Ti29  1  0.69141246  0.77654694  0.45014667  1
  Ti  Ti30  1  0.80858754  0.27654694  0.95014667  1
  Ti  Ti31  1  0.80929652  0.46571774  0.94844607  1
  Ti  Ti32  1  0.80929652  0.78428226  0.94844607  1
  Ti  Ti33  1  0.80858754  0.97345306  0.95014667  1
  Ti  Ti34  1  0.81947801  0.12500000  0.22528536  1
  Ti  Ti35  1  0.80032968  0.62500000  0.24317807  1
  Ti  Ti36  1  0.84086923  0.37313997  0.20842557  1
  Ti  Ti37  1  0.84086923  0.87686003  0.20842557  1
  Ti  Ti38  1  0.98673828  0.12500000  0.51056391  1
  Ti  Ti39  1  0.97224448  0.62500000  0.50474914  1
  Sb  Sb40  1  0.06072839  0.00428962  0.32301038  1
  Sb  Sb41  1  0.06072839  0.24571038  0.32301038  1
  Sb  Sb42  1  0.06450525  0.50521546  0.32002045  1
  Sb  Sb43  1  0.06450525  0.74478454  0.32002045  1
  Sb  Sb44  1  0.43549475  0.24478454  0.82002045  1
  Sb  Sb45  1  0.43927161  0.74571038  0.82301038  1
  Sb  Sb46  1  0.43549475  0.00521546  0.82002045  1
  Sb  Sb47  1  0.43927161  0.50428962  0.82301038  1
  Sb  Sb48  1  0.56512184  0.49294874  0.17857841  1
  Sb  Sb49  1  0.56304597  0.99572262  0.17792977  1
  Sb  Sb50  1  0.56304597  0.25427738  0.17792977  1
  Sb  Sb51  1  0.56512184  0.75705126  0.17857841  1
  Sb  Sb52  1  0.58996310  0.12500000  0.47703499  1
  Sb  Sb53  1  0.91003690  0.62500000  0.97703499  1
  Sb  Sb54  1  0.93487816  0.25705126  0.67857841  1
  Sb  Sb55  1  0.93695403  0.49572262  0.67792977  1
  Sb  Sb56  1  0.93695403  0.75427738  0.67792977  1
  Sb  Sb57  1  0.93487816  0.99294874  0.67857841  1
  Se  Se58  1  0.08807456  0.37201183  0.02118798  1
  Se  Se59  1  0.08807456  0.87798817  0.02118798  1
  Se  Se60  1  0.41192544  0.37798817  0.52118798  1
  Se  Se61  1  0.41192544  0.87201183  0.52118798  1
  Se  Se62  1  0.58782504  0.62500000  0.47466599  1
  Se  Se63  1  0.91217496  0.12500000  0.97466599  1
