# generated using pymatgen
data_CoPO4
_symmetry_space_group_name_H-M   'P 1'
_cell_length_a   8.62733511
_cell_length_b   5.27092316
_cell_length_c   8.62309747
_cell_angle_alpha   90.00000000
_cell_angle_beta   106.16473046
_cell_angle_gamma   90.00000000
_symmetry_Int_Tables_number   1
_chemical_formula_structural   CoPO4
_chemical_formula_sum   'Co4 P4 O16'
_cell_volume   376.62426818
_cell_formula_units_Z   4
loop_
 _symmetry_equiv_pos_site_id
 _symmetry_equiv_pos_as_xyz
  1  'x, y, z'
loop_
 _atom_site_type_symbol
 _atom_site_label
 _atom_site_symmetry_multiplicity
 _atom_site_fract_x
 _atom_site_fract_y
 _atom_site_fract_z
 _atom_site_occupancy
  O  O0  1  0.36789502  0.28800259  0.07389556  1
  O  O1  1  0.93590856  0.86976163  0.36021538  1
  O  O2  1  0.85731854  0.28912248  0.57483794  1
  O  O3  1  0.65857052  0.22725715  0.22546024  1
  O  O4  1  0.01801866  0.21378006  0.86647029  1
  O  O5  1  0.00396450  0.42019020  0.30861081  1
  O  O6  1  0.22958454  0.63782233  0.80227306  1
  O  O7  1  0.28900814  0.08241743  0.72869453  1
  O  O8  1  0.15857152  0.77274185  0.22546024  1
  O  O9  1  0.78900814  0.91758357  0.72869553  1
  O  O10  1  0.51801866  0.78621994  0.86646929  1
  O  O11  1  0.43590856  0.13023737  0.36021638  1
  O  O12  1  0.86789502  0.71199841  0.07389556  1
  O  O13  1  0.50396450  0.57981080  0.30860981  1
  O  O14  1  0.72958454  0.36217867  0.80227406  1
  O  O15  1  0.35731754  0.71087752  0.57483794  1
  P  P16  1  0.34902498  0.80418095  0.74213550  1
  P  P17  1  0.49075048  0.30600488  0.24071008  1
  P  P18  1  0.84902498  0.19582005  0.74213650  1
  P  P19  1  0.99075048  0.69399412  0.24071008  1
  Co  Co20  1  0.86425408  0.19710408  0.37023878  1
  Co  Co21  1  0.72620798  0.69733132  0.87066083  1
  Co  Co22  1  0.36425308  0.80289692  0.37023878  1
  Co  Co23  1  0.22620798  0.30266768  0.87066083  1
