# generated using pymatgen
data_MnP2O7
_symmetry_space_group_name_H-M   'P 1'
_cell_length_a   8.49096516
_cell_length_b   5.01601793
_cell_length_c   12.24196749
_cell_angle_alpha   90.00000000
_cell_angle_beta   77.08500280
_cell_angle_gamma   90.00000000
_symmetry_Int_Tables_number   1
_chemical_formula_structural   MnP2O7
_chemical_formula_sum   'Mn4 P8 O28'
_cell_volume   508.20571101
_cell_formula_units_Z   4
loop_
 _symmetry_equiv_pos_site_id
 _symmetry_equiv_pos_as_xyz
  1  'x, y, z'
loop_
 _atom_site_type_symbol
 _atom_site_label
 _atom_site_symmetry_multiplicity
 _atom_site_fract_x
 _atom_site_fract_y
 _atom_site_fract_z
 _atom_site_occupancy
  Mn  Mn0  1  0.23901144  0.24773280  0.02853972  1
  Mn  Mn1  1  0.26098856  0.74773280  0.47146028  1
  Mn  Mn2  1  0.73901144  0.25226720  0.52853972  1
  Mn  Mn3  1  0.76098856  0.75226720  0.97146028  1
  O  O4  1  0.08782520  0.04702747  0.13900974  1
  O  O5  1  0.16913597  0.55638777  0.12036158  1
  O  O6  1  0.10326705  0.68106737  0.38467951  1
  O  O7  1  0.10718085  0.94655111  0.58237303  1
  O  O8  1  0.08645005  0.27989556  0.74255781  1
  O  O9  1  0.07742064  0.30044340  0.94587890  1
  O  O10  1  0.20331033  0.42198506  0.55097560  1
  O  O11  1  0.39673295  0.18106737  0.11532049  1
  O  O12  1  0.33086403  0.05638777  0.37963842  1
  O  O13  1  0.41217480  0.54702747  0.36099026  1
  O  O14  1  0.29668967  0.92198506  0.94902440  1
  O  O15  1  0.42257936  0.80044340  0.55412110  1
  O  O16  1  0.41354995  0.77989556  0.75744219  1
  O  O17  1  0.60718085  0.55344889  0.08237303  1
  O  O18  1  0.39281915  0.44655111  0.91762697  1
  O  O19  1  0.58645005  0.22010444  0.24255781  1
  O  O20  1  0.57742064  0.19955660  0.44587890  1
  O  O21  1  0.70331033  0.07801494  0.05097560  1
  O  O22  1  0.58782520  0.45297253  0.63900974  1
  O  O23  1  0.66913597  0.94361223  0.62036158  1
  O  O24  1  0.60326705  0.81893263  0.88467951  1
  O  O25  1  0.79668967  0.57801494  0.44902440  1
  O  O26  1  0.92257936  0.69955660  0.05412110  1
  O  O27  1  0.91354995  0.72010444  0.25744219  1
  O  O28  1  0.89281915  0.05344889  0.41762697  1
  O  O29  1  0.89673295  0.31893263  0.61532049  1
  O  O30  1  0.83086403  0.44361223  0.87963842  1
  O  O31  1  0.91217480  0.95297253  0.86099026  1
  P  P32  1  0.02943510  0.75742024  0.13509763  1
  P  P33  1  0.07093630  0.23958628  0.61481101  1
  P  P34  1  0.47056490  0.25742024  0.36490237  1
  P  P35  1  0.57093630  0.26041372  0.11481101  1
  P  P36  1  0.42906370  0.73958628  0.88518899  1
  P  P37  1  0.52943510  0.74257976  0.63509763  1
  P  P38  1  0.92906370  0.76041372  0.38518899  1
  P  P39  1  0.97056490  0.24257976  0.86490237  1
