# generated using pymatgen
data_Na3FeSe3
_symmetry_space_group_name_H-M   'P 1'
_cell_length_a   7.23212886
_cell_length_b   7.48128505
_cell_length_c   13.02633391
_cell_angle_alpha   91.37717243
_cell_angle_beta   90.00000000
_cell_angle_gamma   90.00000000
_symmetry_Int_Tables_number   1
_chemical_formula_structural   Na3FeSe3
_chemical_formula_sum   'Na12 Fe4 Se12'
_cell_volume   704.59425572
_cell_formula_units_Z   4
loop_
 _symmetry_equiv_pos_site_id
 _symmetry_equiv_pos_as_xyz
  1  'x, y, z'
loop_
 _atom_site_type_symbol
 _atom_site_label
 _atom_site_symmetry_multiplicity
 _atom_site_fract_x
 _atom_site_fract_y
 _atom_site_fract_z
 _atom_site_occupancy
  Na  Na0  1  0.48283526  0.21754698  0.09299451  1
  Na  Na1  1  0.98283526  0.28245302  0.40700549  1
  Na  Na2  1  0.01716474  0.71754698  0.59299451  1
  Na  Na3  1  0.51716474  0.78245302  0.90700549  1
  Na  Na4  1  0.49988751  0.27237744  0.77642272  1
  Na  Na5  1  0.99988751  0.22762256  0.72357728  1
  Na  Na6  1  0.50011249  0.72762256  0.22357728  1
  Na  Na7  1  0.98330017  0.16246404  0.11377484  1
  Na  Na8  1  0.51669983  0.66246404  0.61377484  1
  Na  Na9  1  0.01669983  0.83753596  0.88622516  1
  Na  Na10  1  0.48330017  0.33753596  0.38622516  1
  Na  Na11  1  0.00011249  0.77237744  0.27642272  1
  Fe  Fe12  1  0.87985465  0.42628481  0.92588500  1
  Fe  Fe13  1  0.12014535  0.57371519  0.07411500  1
  Fe  Fe14  1  0.37985465  0.07371519  0.57411500  1
  Fe  Fe15  1  0.62014535  0.92628481  0.42588500  1
  Se  Se16  1  0.28353248  0.92623066  0.72546850  1
  Se  Se17  1  0.21134414  0.41133903  0.92360602  1
  Se  Se18  1  0.28865586  0.91133903  0.42360602  1
  Se  Se19  1  0.78865586  0.58866097  0.07639398  1
  Se  Se20  1  0.71134414  0.08866097  0.57639398  1
  Se  Se21  1  0.78353248  0.57376934  0.77453150  1
  Se  Se22  1  0.71646752  0.07376934  0.27453150  1
  Se  Se23  1  0.21646752  0.42623066  0.22546850  1
  Se  Se24  1  0.75767835  0.13124891  0.92697513  1
  Se  Se25  1  0.25767835  0.36875109  0.57302487  1
  Se  Se26  1  0.24232165  0.86875109  0.07302487  1
  Se  Se27  1  0.74232165  0.63124891  0.42697513  1
