# generated using pymatgen
data_V4As3
_symmetry_space_group_name_H-M   'P 1'
_cell_length_a   3.39424608
_cell_length_b   7.05459186
_cell_length_c   18.02025194
_cell_angle_alpha   90.00000000
_cell_angle_beta   90.00000000
_cell_angle_gamma   103.92018361
_symmetry_Int_Tables_number   1
_chemical_formula_structural   V4As3
_chemical_formula_sum   'V16 As12'
_cell_volume   418.82306490
_cell_formula_units_Z   4
loop_
 _symmetry_equiv_pos_site_id
 _symmetry_equiv_pos_as_xyz
  1  'x, y, z'
loop_
 _atom_site_type_symbol
 _atom_site_label
 _atom_site_symmetry_multiplicity
 _atom_site_fract_x
 _atom_site_fract_y
 _atom_site_fract_z
 _atom_site_occupancy
  V  V0  1  0.00000000  0.00000000  0.00000000  1
  V  V1  1  0.00000000  0.00000000  0.50000000  1
  V  V2  1  0.94158704  0.88317408  0.75000000  1
  V  V3  1  0.05841296  0.11682592  0.25000000  1
  V  V4  1  0.26651042  0.53302084  0.16322404  1
  V  V5  1  0.73348958  0.46697916  0.83677596  1
  V  V6  1  0.73348958  0.46697916  0.66322404  1
  V  V7  1  0.26651042  0.53302084  0.33677596  1
  V  V8  1  0.46523062  0.93046125  0.11657195  1
  V  V9  1  0.53476938  0.06953875  0.88342805  1
  V  V10  1  0.53476938  0.06953875  0.61657195  1
  V  V11  1  0.46523062  0.93046125  0.38342805  1
  V  V12  1  0.33647364  0.67294728  0.97204136  1
  V  V13  1  0.66352636  0.32705272  0.02795864  1
  V  V14  1  0.66352636  0.32705272  0.47204136  1
  V  V15  1  0.33647364  0.67294728  0.52795864  1
  As  As16  1  0.58138076  0.16276151  0.75000000  1
  As  As17  1  0.41861924  0.83723849  0.25000000  1
  As  As18  1  0.30295999  0.60591998  0.75000000  1
  As  As19  1  0.69704001  0.39408002  0.25000000  1
  As  As20  1  0.09806219  0.19612437  0.11763153  1
  As  As21  1  0.90193781  0.80387563  0.88236847  1
  As  As22  1  0.90193781  0.80387563  0.61763153  1
  As  As23  1  0.09806219  0.19612437  0.38236847  1
  As  As24  1  0.16003507  0.32007015  0.92432706  1
  As  As25  1  0.83996493  0.67992985  0.07567294  1
  As  As26  1  0.83996493  0.67992985  0.42432706  1
  As  As27  1  0.16003507  0.32007015  0.57567294  1
