# generated using pymatgen
data_O2
_symmetry_space_group_name_H-M   'P 1'
_cell_length_a   2.41323076
_cell_length_b   2.41460054
_cell_length_c   4.17926161
_cell_angle_alpha   102.72581502
_cell_angle_beta   103.16864252
_cell_angle_gamma   103.05608992
_symmetry_Int_Tables_number   1
_chemical_formula_structural   O2
_chemical_formula_sum   O2
_cell_volume   22.13087160
_cell_formula_units_Z   1
loop_
 _symmetry_equiv_pos_site_id
 _symmetry_equiv_pos_as_xyz
  1  'x, y, z'
loop_
 _atom_site_type_symbol
 _atom_site_label
 _atom_site_symmetry_multiplicity
 _atom_site_fract_x
 _atom_site_fract_y
 _atom_site_fract_z
 _atom_site_occupancy
  O  O0  1  0.90612678  0.91569515  0.82946810  1
  O  O1  1  0.06400222  0.07204485  0.14507590  1
