# generated using pymatgen
data_BaV2(P2O7)2
_symmetry_space_group_name_H-M   'P 1'
_cell_length_a   7.59337560
_cell_length_b   7.59337561
_cell_length_c   9.94840179
_cell_angle_alpha   80.60776696
_cell_angle_beta   80.60776697
_cell_angle_gamma   89.41832235
_symmetry_Int_Tables_number   1
_chemical_formula_structural   BaV2(P2O7)2
_chemical_formula_sum   'Ba2 V4 P8 O28'
_cell_volume   558.26194846
_cell_formula_units_Z   2
loop_
 _symmetry_equiv_pos_site_id
 _symmetry_equiv_pos_as_xyz
  1  'x, y, z'
loop_
 _atom_site_type_symbol
 _atom_site_label
 _atom_site_symmetry_multiplicity
 _atom_site_fract_x
 _atom_site_fract_y
 _atom_site_fract_z
 _atom_site_occupancy
  O  O0  1  0.94439100  0.78543259  0.15808667  1
  O  O1  1  0.21456741  0.05560900  0.34191333  1
  O  O2  1  0.05560900  0.21456741  0.84191333  1
  O  O3  1  0.78543259  0.94439100  0.65808667  1
  O  O4  1  0.62121435  0.73998700  0.29150492  1
  O  O5  1  0.26001300  0.37878565  0.20849508  1
  O  O6  1  0.37878565  0.26001300  0.70849508  1
  O  O7  1  0.73998700  0.62121435  0.79150492  1
  O  O8  1  0.85532141  0.85343836  0.40396575  1
  O  O9  1  0.14656164  0.14467859  0.09603425  1
  O  O10  1  0.14467859  0.14656164  0.59603425  1
  O  O11  1  0.85343836  0.85532141  0.90396575  1
  O  O12  1  0.87365764  0.53409360  0.34669617  1
  O  O13  1  0.46590640  0.12634236  0.15330383  1
  O  O14  1  0.40848681  0.72930464  0.09396257  1
  O  O15  1  0.27069536  0.59151319  0.40603743  1
  O  O16  1  0.59151319  0.27069536  0.90603743  1
  O  O17  1  0.72930464  0.40848681  0.59396257  1
  O  O18  1  0.36623680  0.57219561  0.89133603  1
  O  O19  1  0.42780439  0.63376320  0.60866397  1
  O  O20  1  0.63376320  0.42780439  0.10866397  1
  O  O21  1  0.57219561  0.36623680  0.39133603  1
  O  O22  1  0.20621914  0.85394848  0.92348766  1
  O  O23  1  0.14605152  0.79378086  0.57651234  1
  O  O24  1  0.79378086  0.14605152  0.07651234  1
  O  O25  1  0.85394848  0.20621914  0.42348766  1
  O  O26  1  0.53409360  0.87365764  0.84669617  1
  O  O27  1  0.12634236  0.46590640  0.65330383  1
  P  P28  1  0.82114477  0.74055426  0.29728369  1
  P  P29  1  0.25944574  0.17885523  0.20271631  1
  P  P30  1  0.17885523  0.25944574  0.70271631  1
  P  P31  1  0.74055426  0.82114477  0.79728369  1
  P  P32  1  0.75095901  0.37566843  0.44529381  1
  P  P33  1  0.62433157  0.24904099  0.05470619  1
  P  P34  1  0.24904099  0.62433157  0.55470619  1
  P  P35  1  0.37566843  0.75095901  0.94529381  1
  V  V36  1  0.00000000  0.00000000  0.50000000  1
  V  V37  1  0.00000000  0.00000000  0.00000000  1
  V  V38  1  0.45525035  0.54474965  0.25000000  1
  V  V39  1  0.54474965  0.45525035  0.75000000  1
  Ba  Ba40  1  0.00000000  0.50000000  0.00000000  1
  Ba  Ba41  1  0.50000000  0.00000000  0.50000000  1
