# generated using pymatgen
data_Co2P2H4O9
_symmetry_space_group_name_H-M   'P 1'
_cell_length_a   6.40931935
_cell_length_b   7.42513962
_cell_length_c   14.19529624
_cell_angle_alpha   90.00000000
_cell_angle_beta   90.00000000
_cell_angle_gamma   95.71919407
_symmetry_Int_Tables_number   1
_chemical_formula_structural   Co2P2H4O9
_chemical_formula_sum   'Co8 P8 H16 O36'
_cell_volume   672.19268909
_cell_formula_units_Z   4
loop_
 _symmetry_equiv_pos_site_id
 _symmetry_equiv_pos_as_xyz
  1  'x, y, z'
loop_
 _atom_site_type_symbol
 _atom_site_label
 _atom_site_symmetry_multiplicity
 _atom_site_fract_x
 _atom_site_fract_y
 _atom_site_fract_z
 _atom_site_occupancy
  Co  Co0  1  0.76565622  0.58172733  0.61092021  1
  Co  Co1  1  0.73434378  0.91827267  0.11092021  1
  Co  Co2  1  0.23434378  0.41827267  0.38907979  1
  Co  Co3  1  0.26565622  0.08172733  0.88907979  1
  Co  Co4  1  0.55189422  0.84910231  0.75177210  1
  Co  Co5  1  0.94810578  0.65089769  0.25177210  1
  Co  Co6  1  0.44810578  0.15089769  0.24822790  1
  Co  Co7  1  0.05189422  0.34910231  0.74822790  1
  P  P8  1  0.76126917  0.14997191  0.91528101  1
  P  P9  1  0.73873083  0.35002809  0.41528101  1
  P  P10  1  0.23873083  0.85002809  0.08471899  1
  P  P11  1  0.26126917  0.64997191  0.58471899  1
  P  P12  1  0.56720894  0.42675313  0.81267467  1
  P  P13  1  0.93279106  0.07324687  0.31267467  1
  P  P14  1  0.43279106  0.57324687  0.18732533  1
  P  P15  1  0.06720894  0.92675313  0.68732533  1
  O  O16  1  0.80646783  0.12944360  0.01962395  1
  O  O17  1  0.69353217  0.37055640  0.51962395  1
  O  O18  1  0.19353217  0.87055640  0.98037605  1
  O  O19  1  0.30646783  0.62944360  0.48037605  1
  O  O20  1  0.96328535  0.15757988  0.85622746  1
  O  O21  1  0.53671465  0.34242012  0.35622746  1
  O  O22  1  0.03671465  0.84242012  0.14377254  1
  O  O23  1  0.46328535  0.65757988  0.64377254  1
  O  O24  1  0.58411924  0.01646023  0.87437422  1
  O  O25  1  0.91588076  0.48353977  0.37437422  1
  O  O26  1  0.41588076  0.98353977  0.12562578  1
  O  O27  1  0.08411924  0.51646023  0.62562578  1
  O  O28  1  0.54192950  0.62275522  0.83862902  1
  O  O29  1  0.95807050  0.87724478  0.33862902  1
  O  O30  1  0.45807050  0.37724478  0.16137098  1
  O  O31  1  0.04192950  0.12275522  0.66137098  1
  O  O32  1  0.35883794  0.30737528  0.79727296  1
  O  O33  1  0.14116206  0.19262472  0.29727296  1
  O  O34  1  0.64116206  0.69262472  0.20272704  1
  O  O35  1  0.85883794  0.80737528  0.70272704  1
  O  O36  1  0.71998250  0.39993516  0.72958079  1
  O  O37  1  0.78001750  0.10006484  0.22958079  1
  O  O38  1  0.28001750  0.60006484  0.27041921  1
  O  O39  1  0.21998250  0.89993516  0.77041921  1
  O  O40  1  0.67437498  0.34811542  0.90576252  1
  O  O41  1  0.82562502  0.15188458  0.40576252  1
  O  O42  1  0.32562502  0.65188458  0.09423748  1
  O  O43  1  0.17437498  0.84811542  0.59423748  1
  O  O44  1  0.74723590  0.72253738  0.00256798  1
  O  O45  1  0.75276410  0.77746262  0.50256798  1
  O  O46  1  0.25276410  0.27746262  0.99743202  1
  O  O47  1  0.24723590  0.22253738  0.49743202  1
  O  O48  1  0.07315835  0.56458693  0.84449333  1
  O  O49  1  0.42684165  0.93541307  0.34449333  1
  O  O50  1  0.92684165  0.43541307  0.15550667  1
  O  O51  1  0.57315835  0.06458693  0.65550667  1
  H  H52  1  0.65244807  0.69675841  0.94771482  1
  H  H53  1  0.84755193  0.80324159  0.44771482  1
  H  H54  1  0.34755193  0.30324159  0.05228518  1
  H  H55  1  0.15244807  0.19675841  0.55228518  1
  H  H56  1  0.88948549  0.73854992  0.97599864  1
  H  H57  1  0.61051451  0.76145008  0.47599864  1
  H  H58  1  0.11051451  0.26145008  0.02400136  1
  H  H59  1  0.38948549  0.23854992  0.52400136  1
  H  H60  1  0.11579662  0.68773209  0.81946636  1
  H  H61  1  0.38420338  0.81226791  0.31946636  1
  H  H62  1  0.88420338  0.31226791  0.18053364  1
  H  H63  1  0.61579662  0.18773209  0.68053364  1
  H  H64  1  0.18061626  0.54462635  0.89124217  1
  H  H65  1  0.31938374  0.95537365  0.39124217  1
  H  H66  1  0.81938374  0.45537365  0.10875783  1
  H  H67  1  0.68061626  0.04462635  0.60875783  1
