# generated using pymatgen
data_K2MgB12(H2O3)10
_symmetry_space_group_name_H-M   'P 1'
_cell_length_a   7.61653039
_cell_length_b   7.87690511
_cell_length_c   10.93971176
_cell_angle_alpha   108.55214825
_cell_angle_beta   94.56274242
_cell_angle_gamma   91.82987173
_symmetry_Int_Tables_number   1
_chemical_formula_structural   K2MgB12(H2O3)10
_chemical_formula_sum   'K2 Mg1 B12 H20 O30'
_cell_volume   619.10752704
_cell_formula_units_Z   1
loop_
 _symmetry_equiv_pos_site_id
 _symmetry_equiv_pos_as_xyz
  1  'x, y, z'
loop_
 _atom_site_type_symbol
 _atom_site_label
 _atom_site_symmetry_multiplicity
 _atom_site_fract_x
 _atom_site_fract_y
 _atom_site_fract_z
 _atom_site_occupancy
  Mg  Mg0  1  0.00000000  0.00000000  0.00000000  1
  K  K1  1  0.73686016  0.36661474  0.40212530  1
  K  K2  1  0.26313984  0.63338526  0.59787470  1
  O  O3  1  0.21004782  0.11435422  0.14194919  1
  O  O4  1  0.78995218  0.88564578  0.85805081  1
  O  O5  1  0.41935282  0.13382021  0.32579664  1
  O  O6  1  0.58064718  0.86617979  0.67420336  1
  O  O7  1  0.22456139  0.04150242  0.45872547  1
  O  O8  1  0.77543861  0.95849758  0.54127453  1
  O  O9  1  0.10124167  0.41765525  0.33131082  1
  O  O10  1  0.89875833  0.58234475  0.66868918  1
  O  O11  1  0.11085743  0.55307082  0.16239845  1
  O  O12  1  0.88914257  0.44692918  0.83760155  1
  O  O13  1  0.13366488  0.73058807  0.38746106  1
  O  O14  1  0.86633512  0.26941193  0.61253894  1
  O  O15  1  0.02940385  0.74787518  0.03372183  1
  O  O16  1  0.97059615  0.25212482  0.96627817  1
  O  O17  1  0.56264745  0.70598688  0.45367339  1
  O  O18  1  0.43735255  0.29401312  0.54632661  1
  O  O19  1  0.82259950  0.07543471  0.14952716  1
  O  O20  1  0.17740050  0.92456529  0.85047284  1
  O  O21  1  0.46664777  0.93511035  0.11802416  1
  O  O22  1  0.53335223  0.06488965  0.88197584  1
  O  O23  1  0.40641497  0.29995275  0.03488028  1
  O  O24  1  0.59358503  0.70004725  0.96511972  1
  O  O25  1  0.22158623  0.86683787  0.22910330  1
  O  O26  1  0.77841377  0.13316213  0.77089670  1
  O  O27  1  0.72181947  0.61402579  0.23065960  1
  O  O28  1  0.27818053  0.38597421  0.76934040  1
  O  O29  1  0.32435586  0.63809727  0.04386394  1
  O  O30  1  0.67564414  0.36190273  0.95613606  1
  O  O31  1  0.05458361  0.06560080  0.67502537  1
  O  O32  1  0.94541639  0.93439920  0.32497463  1
  B  B33  1  0.35755430  0.15391808  0.44377120  1
  B  B34  1  0.64244570  0.84608192  0.55622880  1
  B  B35  1  0.45949905  0.75894187  0.04410396  1
  B  B36  1  0.54050095  0.24105813  0.95589604  1
  B  B37  1  0.33255537  0.01532569  0.20520912  1
  B  B38  1  0.66744463  0.98467431  0.79479088  1
  B  B39  1  0.16679246  0.69954244  0.11559942  1
  B  B40  1  0.83320754  0.30045756  0.88440058  1
  B  B41  1  0.11494879  0.56783304  0.29216393  1
  B  B42  1  0.88505121  0.43216696  0.70783607  1
  B  B43  1  0.12987590  0.89519874  0.35325669  1
  B  B44  1  0.87012410  0.10480126  0.64674331  1
  H  H45  1  0.39647227  0.30762340  0.63230814  1
  H  H46  1  0.60352773  0.69237660  0.36769186  1
  H  H47  1  0.30248625  0.97011131  0.87074126  1
  H  H48  1  0.69751375  0.02988869  0.12925874  1
  H  H49  1  0.12114698  0.05150939  0.59809712  1
  H  H50  1  0.87885302  0.94849061  0.40190288  1
  H  H51  1  0.28394735  0.46576506  0.85929858  1
  H  H52  1  0.71605265  0.53423494  0.14070142  1
  H  H53  1  0.02071814  0.35802746  0.03915090  1
  H  H54  1  0.97928186  0.64197254  0.96084910  1
  H  H55  1  0.13057901  0.97676800  0.78200601  1
  H  H56  1  0.86942099  0.02323200  0.21799399  1
  H  H57  1  0.19297793  0.28487223  0.76163723  1
  H  H58  1  0.80702207  0.71512777  0.23836277  1
  H  H59  1  0.28491165  0.18763535  0.10334048  1
  H  H60  1  0.71508835  0.81236465  0.89665952  1
  H  H61  1  0.12493756  0.30485538  0.26353357  1
  H  H62  1  0.87506244  0.69514462  0.73646643  1
  H  H63  1  0.38698938  0.42983322  0.05687434  1
  H  H64  1  0.61301062  0.57016678  0.94312566  1
