# generated using pymatgen
data_Sm2Co7
_symmetry_space_group_name_H-M   'P 1'
_cell_length_a   5.01705075
_cell_length_b   5.01705066
_cell_length_c   24.29386501
_cell_angle_alpha   90.00000000
_cell_angle_beta   90.00000000
_cell_angle_gamma   120.00000069
_symmetry_Int_Tables_number   1
_chemical_formula_structural   Sm2Co7
_chemical_formula_sum   'Sm8 Co28'
_cell_volume   529.57103450
_cell_formula_units_Z   4
loop_
 _symmetry_equiv_pos_site_id
 _symmetry_equiv_pos_as_xyz
  1  'x, y, z'
loop_
 _atom_site_type_symbol
 _atom_site_label
 _atom_site_symmetry_multiplicity
 _atom_site_fract_x
 _atom_site_fract_y
 _atom_site_fract_z
 _atom_site_occupancy
  Sm  Sm0  1  0.33333300  0.66666700  0.02785275  1
  Sm  Sm1  1  0.66666700  0.33333300  0.52785275  1
  Sm  Sm2  1  0.66666700  0.33333300  0.97214725  1
  Sm  Sm3  1  0.33333300  0.66666700  0.47214725  1
  Sm  Sm4  1  0.33333300  0.66666700  0.17304628  1
  Sm  Sm5  1  0.66666700  0.33333300  0.67304628  1
  Sm  Sm6  1  0.66666700  0.33333300  0.82695372  1
  Sm  Sm7  1  0.33333300  0.66666700  0.32695372  1
  Co  Co8  1  0.00000000  0.00000000  0.00000000  1
  Co  Co9  1  0.00000000  0.00000000  0.50000000  1
  Co  Co10  1  0.00000000  0.00000000  0.16813338  1
  Co  Co11  1  0.00000000  0.00000000  0.66813338  1
  Co  Co12  1  0.00000000  0.00000000  0.83186662  1
  Co  Co13  1  0.00000000  0.00000000  0.33186662  1
  Co  Co14  1  0.33333300  0.66666700  0.83150069  1
  Co  Co15  1  0.66666700  0.33333300  0.33150069  1
  Co  Co16  1  0.66666700  0.33333300  0.16849931  1
  Co  Co17  1  0.33333300  0.66666700  0.66849931  1
  Co  Co18  1  0.83392318  0.66784636  0.25000000  1
  Co  Co19  1  0.16607682  0.83392318  0.75000000  1
  Co  Co20  1  0.66784636  0.83392318  0.75000000  1
  Co  Co21  1  0.33215364  0.16607682  0.25000000  1
  Co  Co22  1  0.83392318  0.16607682  0.25000000  1
  Co  Co23  1  0.16607682  0.33215364  0.75000000  1
  Co  Co24  1  0.83413633  0.66827266  0.08775086  1
  Co  Co25  1  0.16586367  0.83413633  0.58775086  1
  Co  Co26  1  0.66827266  0.83413633  0.58775086  1
  Co  Co27  1  0.33172734  0.16586367  0.08775086  1
  Co  Co28  1  0.83413633  0.16586367  0.08775086  1
  Co  Co29  1  0.16586367  0.33172734  0.91224914  1
  Co  Co30  1  0.16586367  0.83413633  0.91224914  1
  Co  Co31  1  0.16586367  0.33172734  0.58775086  1
  Co  Co32  1  0.66827266  0.83413633  0.91224914  1
  Co  Co33  1  0.33172734  0.16586367  0.41224914  1
  Co  Co34  1  0.83413633  0.66827266  0.41224914  1
  Co  Co35  1  0.83413633  0.16586367  0.41224914  1
