# generated using pymatgen
data_Fe2(TeO3)3
_symmetry_space_group_name_H-M   'P 1'
_cell_length_a   7.63563570
_cell_length_b   9.67008184
_cell_length_c   11.27140693
_cell_angle_alpha   90.00000000
_cell_angle_beta   90.00000000
_cell_angle_gamma   90.00000000
_symmetry_Int_Tables_number   1
_chemical_formula_structural   Fe2(TeO3)3
_chemical_formula_sum   'Fe8 Te12 O36'
_cell_volume   832.24937709
_cell_formula_units_Z   4
loop_
 _symmetry_equiv_pos_site_id
 _symmetry_equiv_pos_as_xyz
  1  'x, y, z'
loop_
 _atom_site_type_symbol
 _atom_site_label
 _atom_site_symmetry_multiplicity
 _atom_site_fract_x
 _atom_site_fract_y
 _atom_site_fract_z
 _atom_site_occupancy
  Te  Te0  1  0.75000000  0.03306690  0.83787558  1
  Te  Te1  1  0.25000000  0.96693310  0.16212442  1
  Te  Te2  1  0.75000000  0.53306690  0.66212442  1
  Te  Te3  1  0.25000000  0.46693310  0.33787558  1
  Te  Te4  1  0.75000000  0.53867992  0.01053498  1
  Te  Te5  1  0.25000000  0.46132008  0.98946502  1
  Te  Te6  1  0.75000000  0.03867992  0.48946502  1
  Te  Te7  1  0.25000000  0.96132008  0.51053498  1
  Te  Te8  1  0.25000000  0.61103268  0.67593560  1
  Te  Te9  1  0.75000000  0.38896732  0.32406440  1
  Te  Te10  1  0.25000000  0.11103268  0.82406440  1
  Te  Te11  1  0.75000000  0.88896732  0.17593560  1
  Fe  Fe12  1  0.44273382  0.77220332  0.94154597  1
  Fe  Fe13  1  0.94273382  0.22779668  0.05845403  1
  Fe  Fe14  1  0.05726618  0.27220332  0.55845403  1
  Fe  Fe15  1  0.55726618  0.72779668  0.44154597  1
  Fe  Fe16  1  0.55726618  0.22779668  0.05845403  1
  Fe  Fe17  1  0.05726618  0.77220332  0.94154597  1
  Fe  Fe18  1  0.94273382  0.72779668  0.44154597  1
  Fe  Fe19  1  0.44273382  0.27220332  0.55845403  1
  O  O20  1  0.75000000  0.34812302  0.96371070  1
  O  O21  1  0.25000000  0.65187698  0.03628930  1
  O  O22  1  0.75000000  0.84812302  0.53628930  1
  O  O23  1  0.25000000  0.15187698  0.46371070  1
  O  O24  1  0.25000000  0.73934454  0.81072109  1
  O  O25  1  0.75000000  0.26065546  0.18927891  1
  O  O26  1  0.25000000  0.23934454  0.68927891  1
  O  O27  1  0.75000000  0.76065546  0.31072109  1
  O  O28  1  0.25000000  0.91989706  0.99181801  1
  O  O29  1  0.75000000  0.08010294  0.00818199  1
  O  O30  1  0.25000000  0.41989706  0.50818199  1
  O  O31  1  0.75000000  0.58010294  0.49181801  1
  O  O32  1  0.06436180  0.70109459  0.59556888  1
  O  O33  1  0.56436180  0.29890541  0.40443112  1
  O  O34  1  0.43563820  0.20109459  0.90443112  1
  O  O35  1  0.93563820  0.79890541  0.09556888  1
  O  O36  1  0.93563820  0.29890541  0.40443112  1
  O  O37  1  0.43563820  0.70109459  0.59556888  1
  O  O38  1  0.56436180  0.79890541  0.09556888  1
  O  O39  1  0.06436180  0.20109459  0.90443112  1
  O  O40  1  0.93668210  0.40590083  0.65729392  1
  O  O41  1  0.43668210  0.59409917  0.34270608  1
  O  O42  1  0.56331790  0.90590083  0.84270608  1
  O  O43  1  0.06331790  0.09409917  0.15729392  1
  O  O44  1  0.06331790  0.59409917  0.34270608  1
  O  O45  1  0.56331790  0.40590083  0.65729392  1
  O  O46  1  0.43668210  0.09409917  0.15729392  1
  O  O47  1  0.93668210  0.90590083  0.84270608  1
  O  O48  1  0.93349857  0.59645160  0.90516204  1
  O  O49  1  0.43349857  0.40354840  0.09483796  1
  O  O50  1  0.56650143  0.09645160  0.59483796  1
  O  O51  1  0.06650143  0.90354840  0.40516204  1
  O  O52  1  0.06650143  0.40354840  0.09483796  1
  O  O53  1  0.56650143  0.59645160  0.90516204  1
  O  O54  1  0.43349857  0.90354840  0.40516204  1
  O  O55  1  0.93349857  0.09645160  0.59483796  1
