# generated using pymatgen
data_Cd(BiO2)2
_symmetry_space_group_name_H-M   'P 1'
_cell_length_a   9.51093184
_cell_length_b   11.45048246
_cell_length_c   11.45048282
_cell_angle_alpha   80.06796235
_cell_angle_beta   65.46134326
_cell_angle_gamma   65.46134517
_symmetry_Int_Tables_number   1
_chemical_formula_structural   Cd(BiO2)2
_chemical_formula_sum   'Cd8 Bi16 O32'
_cell_volume   1031.92746699
_cell_formula_units_Z   8
loop_
 _symmetry_equiv_pos_site_id
 _symmetry_equiv_pos_as_xyz
  1  'x, y, z'
loop_
 _atom_site_type_symbol
 _atom_site_label
 _atom_site_symmetry_multiplicity
 _atom_site_fract_x
 _atom_site_fract_y
 _atom_site_fract_z
 _atom_site_occupancy
  Bi  Bi0  1  0.03297044  0.25000000  0.43405913  1
  Bi  Bi1  1  0.96702956  0.06594087  0.25000000  1
  Bi  Bi2  1  0.28297044  0.43405913  0.25000000  1
  Bi  Bi3  1  0.71702956  0.25000000  0.06594087  1
  Bi  Bi4  1  0.96702956  0.75000000  0.56594087  1
  Bi  Bi5  1  0.03297044  0.93405913  0.75000000  1
  Bi  Bi6  1  0.71702956  0.56594087  0.75000000  1
  Bi  Bi7  1  0.28297044  0.75000000  0.93405913  1
  Bi  Bi8  1  0.22372691  0.10897541  0.89102459  1
  Bi  Bi9  1  0.61475151  0.60897541  0.10897541  1
  Bi  Bi10  1  0.33270232  0.89102459  0.39102459  1
  Bi  Bi11  1  0.22372691  0.39102459  0.60897541  1
  Bi  Bi12  1  0.66729768  0.10897541  0.60897541  1
  Bi  Bi13  1  0.38524849  0.39102459  0.89102459  1
  Bi  Bi14  1  0.77627309  0.60897541  0.39102459  1
  Bi  Bi15  1  0.77627309  0.89102459  0.10897541  1
  Cd  Cd16  1  0.39066736  0.60933264  0.60933264  1
  Cd  Cd17  1  0.50000000  0.89066736  0.60933264  1
  Cd  Cd18  1  0.00000000  0.60933264  0.89066736  1
  Cd  Cd19  1  0.60933264  0.89066736  0.89066736  1
  Cd  Cd20  1  0.60933264  0.39066736  0.39066736  1
  Cd  Cd21  1  0.50000000  0.10933264  0.39066736  1
  Cd  Cd22  1  1.00000000  0.39066736  0.10933264  1
  Cd  Cd23  1  0.39066736  0.10933264  0.10933264  1
  O  O24  1  0.27031209  0.89924692  0.79300347  1
  O  O25  1  0.56331556  0.70699653  0.89924692  1
  O  O26  1  0.16955901  0.79300347  0.60075308  1
  O  O27  1  0.96256248  0.60075308  0.70699653  1
  O  O28  1  0.83044099  0.89924692  0.70699653  1
  O  O29  1  0.43668444  0.60075308  0.79300347  1
  O  O30  1  0.72968791  0.70699653  0.60075308  1
  O  O31  1  0.03743752  0.79300347  0.89924692  1
  O  O32  1  0.72968791  0.10075308  0.20699653  1
  O  O33  1  0.43668444  0.29300347  0.10075308  1
  O  O34  1  0.83044099  0.20699653  0.39924692  1
  O  O35  1  0.03743752  0.39924692  0.29300347  1
  O  O36  1  0.16955901  0.10075308  0.29300347  1
  O  O37  1  0.56331556  0.39924692  0.20699653  1
  O  O38  1  0.27031209  0.29300347  0.39924692  1
  O  O39  1  0.96256248  0.20699653  0.10075308  1
  O  O40  1  0.68666123  0.02094438  0.97905562  1
  O  O41  1  0.16571685  0.52094438  0.02094438  1
  O  O42  1  0.70760561  0.97905562  0.47905562  1
  O  O43  1  0.68666123  0.47905562  0.52094438  1
  O  O44  1  0.29239439  0.02094438  0.52094438  1
  O  O45  1  0.83428315  0.47905562  0.97905562  1
  O  O46  1  0.31333877  0.52094438  0.47905562  1
  O  O47  1  0.31333877  0.97905562  0.02094438  1
  O  O48  1  0.26797724  0.25000000  0.96404553  1
  O  O49  1  0.73202276  0.53595447  0.25000000  1
  O  O50  1  0.51797724  0.96404553  0.25000000  1
  O  O51  1  0.48202276  0.25000000  0.53595447  1
  O  O52  1  0.73202276  0.75000000  0.03595447  1
  O  O53  1  0.26797724  0.46404553  0.75000000  1
  O  O54  1  0.48202276  0.03595447  0.75000000  1
  O  O55  1  0.51797724  0.75000000  0.46404553  1
