# generated using pymatgen
data_Cr5(PO4)4
_symmetry_space_group_name_H-M   'P 1'
_cell_length_a   8.07316547
_cell_length_b   8.35015472
_cell_length_c   10.37969614
_cell_angle_alpha   91.71543646
_cell_angle_beta   99.10326714
_cell_angle_gamma   113.63409559
_symmetry_Int_Tables_number   1
_chemical_formula_structural   Cr5(PO4)4
_chemical_formula_sum   'Cr10 P8 O32'
_cell_volume   629.57447035
_cell_formula_units_Z   2
loop_
 _symmetry_equiv_pos_site_id
 _symmetry_equiv_pos_as_xyz
  1  'x, y, z'
loop_
 _atom_site_type_symbol
 _atom_site_label
 _atom_site_symmetry_multiplicity
 _atom_site_fract_x
 _atom_site_fract_y
 _atom_site_fract_z
 _atom_site_occupancy
  Cr  Cr0  1  0.24807852  0.76486405  0.05811161  1
  Cr  Cr1  1  0.24784448  0.76520980  0.55794909  1
  Cr  Cr2  1  0.75216643  0.23478754  0.44205095  1
  Cr  Cr3  1  0.75191023  0.23513828  0.94188378  1
  Cr  Cr4  1  0.00001279  0.00001644  0.00001237  1
  Cr  Cr5  1  0.99997599  0.99997487  0.49997816  1
  Cr  Cr6  1  0.41495794  0.66532023  0.32268185  1
  Cr  Cr7  1  0.41476795  0.66528475  0.82250140  1
  Cr  Cr8  1  0.58527485  0.33475034  0.17753594  1
  Cr  Cr9  1  0.58502804  0.33462989  0.67731774  1
  P  P10  1  0.19881859  0.42590718  0.07089784  1
  P  P11  1  0.19891647  0.42627916  0.57094071  1
  P  P12  1  0.80108507  0.57371731  0.42906796  1
  P  P13  1  0.80119160  0.57409275  0.92910340  1
  P  P14  1  0.30523278  0.02415009  0.31999604  1
  P  P15  1  0.30528313  0.02396631  0.82015860  1
  P  P16  1  0.69471199  0.97603419  0.17983244  1
  P  P17  1  0.69476420  0.97586081  0.68000765  1
  O  O18  1  0.23518269  0.95579025  0.17198044  1
  O  O19  1  0.23530583  0.95564039  0.67238895  1
  O  O20  1  0.76470159  0.04437589  0.32759821  1
  O  O21  1  0.76480668  0.04423353  0.82801856  1
  O  O22  1  0.33978997  0.88099643  0.39981526  1
  O  O23  1  0.33997293  0.88095427  0.90004880  1
  O  O24  1  0.66003382  0.11904033  0.09993645  1
  O  O25  1  0.66021540  0.11902059  0.60018729  1
  O  O26  1  0.17080083  0.55812163  0.16891156  1
  O  O27  1  0.17098387  0.55845902  0.66908971  1
  O  O28  1  0.82901277  0.44154642  0.33090841  1
  O  O29  1  0.82919616  0.44186384  0.83109922  1
  O  O30  1  0.01232695  0.26488070  0.02461117  1
  O  O31  1  0.01258533  0.26556802  0.52463809  1
  O  O32  1  0.98741205  0.73443049  0.47536923  1
  O  O33  1  0.98766875  0.73514774  0.97538472  1
  O  O34  1  0.25479426  0.54990759  0.45915078  1
  O  O35  1  0.25463586  0.54948695  0.95910684  1
  O  O36  1  0.74535911  0.45051623  0.04089143  1
  O  O37  1  0.74521139  0.45008337  0.54084958  1
  O  O38  1  0.17816908  0.08767146  0.37569038  1
  O  O39  1  0.17805141  0.08747568  0.87596140  1
  O  O40  1  0.82194780  0.91252775  0.12403230  1
  O  O41  1  0.82182415  0.91233020  0.62432016  1
  O  O42  1  0.50053393  0.81577686  0.16939849  1
  O  O43  1  0.50033286  0.81588433  0.66934492  1
  O  O44  1  0.49967017  0.18411827  0.33065995  1
  O  O45  1  0.49946523  0.18422291  0.83059947  1
  O  O46  1  0.34479718  0.36686744  0.12998683  1
  O  O47  1  0.34480671  0.36706961  0.62995261  1
  O  O48  1  0.65518919  0.63291338  0.37004418  1
  O  O49  1  0.65519694  0.63309440  0.86999708  1
