# generated using pymatgen
data_Lu7Te
_symmetry_space_group_name_H-M   'P 1'
_cell_length_a   3.74232444
_cell_length_b   6.41519561
_cell_length_c   19.97480342
_cell_angle_alpha   90.00000000
_cell_angle_beta   90.00000000
_cell_angle_gamma   106.95835623
_symmetry_Int_Tables_number   1
_chemical_formula_structural   Lu7Te
_chemical_formula_sum   'Lu14 Te2'
_cell_volume   458.69768502
_cell_formula_units_Z   2
loop_
 _symmetry_equiv_pos_site_id
 _symmetry_equiv_pos_as_xyz
  1  'x, y, z'
loop_
 _atom_site_type_symbol
 _atom_site_label
 _atom_site_symmetry_multiplicity
 _atom_site_fract_x
 _atom_site_fract_y
 _atom_site_fract_z
 _atom_site_occupancy
  Lu  Lu0  1  0.01994204  0.03988409  0.89084496  1
  Lu  Lu1  1  0.98005796  0.96011591  0.10915504  1
  Lu  Lu2  1  0.98005796  0.96011591  0.39084496  1
  Lu  Lu3  1  0.01994204  0.03988409  0.60915504  1
  Lu  Lu4  1  0.24496358  0.48992715  0.35545708  1
  Lu  Lu5  1  0.75503642  0.51007285  0.64454292  1
  Lu  Lu6  1  0.75503642  0.51007285  0.85545708  1
  Lu  Lu7  1  0.24496358  0.48992715  0.14454292  1
  Lu  Lu8  1  0.35759673  0.71519346  0.98754605  1
  Lu  Lu9  1  0.64240327  0.28480654  0.01245395  1
  Lu  Lu10  1  0.64240327  0.28480654  0.48754605  1
  Lu  Lu11  1  0.35759673  0.71519346  0.51245395  1
  Lu  Lu12  1  0.43733664  0.87467327  0.75000000  1
  Lu  Lu13  1  0.56266336  0.12532673  0.25000000  1
  Te  Te14  1  0.14864817  0.29729633  0.75000000  1
  Te  Te15  1  0.85135183  0.70270367  0.25000000  1
