# generated using pymatgen
data_KDy(PO3)4
_symmetry_space_group_name_H-M   'P 1'
_cell_length_a   8.98774963
_cell_length_b   10.42920157
_cell_length_c   10.96245217
_cell_angle_alpha   106.42988096
_cell_angle_beta   90.00000000
_cell_angle_gamma   90.00000000
_symmetry_Int_Tables_number   1
_chemical_formula_structural   KDy(PO3)4
_chemical_formula_sum   'K4 Dy4 P16 O48'
_cell_volume   985.60701264
_cell_formula_units_Z   4
loop_
 _symmetry_equiv_pos_site_id
 _symmetry_equiv_pos_as_xyz
  1  'x, y, z'
loop_
 _atom_site_type_symbol
 _atom_site_label
 _atom_site_symmetry_multiplicity
 _atom_site_fract_x
 _atom_site_fract_y
 _atom_site_fract_z
 _atom_site_occupancy
  Dy  Dy0  1  0.77387641  0.00058102  0.81515734  1
  Dy  Dy1  1  0.27387641  0.49941898  0.68484266  1
  Dy  Dy2  1  0.22612359  0.99941898  0.18484266  1
  Dy  Dy3  1  0.72612359  0.50058102  0.31515734  1
  K  K4  1  0.43208296  0.29562092  0.03980454  1
  K  K5  1  0.93208296  0.20437908  0.46019546  1
  K  K6  1  0.56791704  0.70437908  0.96019546  1
  K  K7  1  0.06791704  0.79562092  0.53980454  1
  P  P8  1  0.02545177  0.25147654  0.77437096  1
  P  P9  1  0.52545177  0.24852346  0.72562904  1
  P  P10  1  0.97454823  0.74852346  0.22562904  1
  P  P11  1  0.47454823  0.75147654  0.27437096  1
  P  P12  1  0.89033077  0.32279051  0.02184533  1
  P  P13  1  0.39033077  0.17720949  0.47815467  1
  P  P14  1  0.10966923  0.67720949  0.97815467  1
  P  P15  1  0.60966923  0.82279051  0.52184533  1
  P  P16  1  0.09103329  0.35194132  0.24275342  1
  P  P17  1  0.59103329  0.14805868  0.25724658  1
  P  P18  1  0.90896671  0.64805868  0.75724658  1
  P  P19  1  0.40896671  0.85194132  0.74275342  1
  P  P20  1  0.32884626  0.54025584  0.36343467  1
  P  P21  1  0.82884626  0.95974416  0.13656533  1
  P  P22  1  0.67115374  0.45974416  0.63656533  1
  P  P23  1  0.17115374  0.04025584  0.86343467  1
  O  O24  1  0.59340427  0.16981909  0.80649411  1
  O  O25  1  0.09340427  0.33018091  0.69350589  1
  O  O26  1  0.40659573  0.83018091  0.19350589  1
  O  O27  1  0.90659573  0.66981909  0.30649411  1
  O  O28  1  0.91494365  0.14447273  0.71179728  1
  O  O29  1  0.41494365  0.35552727  0.78820272  1
  O  O30  1  0.08505635  0.85552727  0.28820272  1
  O  O31  1  0.58505635  0.64447273  0.21179728  1
  O  O32  1  0.95297288  0.35930042  0.89727163  1
  O  O33  1  0.45297288  0.14069958  0.60272837  1
  O  O34  1  0.04702712  0.64069958  0.10272837  1
  O  O35  1  0.54702712  0.85930042  0.39727163  1
  O  O36  1  0.15822942  0.18579138  0.83782924  1
  O  O37  1  0.65822942  0.31420862  0.66217076  1
  O  O38  1  0.84177058  0.81420862  0.16217076  1
  O  O39  1  0.34177058  0.68579138  0.33782924  1
  O  O40  1  0.83454421  0.18188519  0.98080820  1
  O  O41  1  0.33454421  0.31811481  0.51919180  1
  O  O42  1  0.16545579  0.81811481  0.01919180  1
  O  O43  1  0.66545579  0.68188519  0.48080820  1
  O  O44  1  0.78802049  0.43124448  0.09494814  1
  O  O45  1  0.28802049  0.06875552  0.40505186  1
  O  O46  1  0.21197951  0.56875552  0.90505186  1
  O  O47  1  0.71197951  0.93124448  0.59494814  1
  O  O48  1  0.04730815  0.32807657  0.09608798  1
  O  O49  1  0.54730815  0.17192343  0.40391202  1
  O  O50  1  0.95269185  0.67192343  0.90391202  1
  O  O51  1  0.45269185  0.82807657  0.59608798  1
  O  O52  1  0.67506535  0.26628957  0.24180452  1
  O  O53  1  0.17506535  0.23371043  0.25819548  1
  O  O54  1  0.32493465  0.73371043  0.75819548  1
  O  O55  1  0.82493465  0.76628957  0.74180452  1
  O  O56  1  0.95824275  0.39941675  0.32654306  1
  O  O57  1  0.45824275  0.10058325  0.17345694  1
  O  O58  1  0.04175725  0.60058325  0.67345694  1
  O  O59  1  0.54175725  0.89941675  0.82654306  1
  O  O60  1  0.20770786  0.47369687  0.25393136  1
  O  O61  1  0.70770786  0.02630313  0.24606864  1
  O  O62  1  0.79229214  0.52630313  0.74606864  1
  O  O63  1  0.29229214  0.97369687  0.75393136  1
  O  O64  1  0.26045804  0.56477640  0.49256166  1
  O  O65  1  0.76045804  0.93522360  0.00743834  1
  O  O66  1  0.73954196  0.43522360  0.50743834  1
  O  O67  1  0.23954196  0.06477640  0.99256166  1
  O  O68  1  0.47086193  0.46316839  0.32836972  1
  O  O69  1  0.97086193  0.03683161  0.17163028  1
  O  O70  1  0.52913807  0.53683161  0.67163028  1
  O  O71  1  0.02913807  0.96316839  0.82836972  1
