# generated using pymatgen
data_Sr2CuOsO6
_symmetry_space_group_name_H-M   'P 1'
_cell_length_a   5.43651728
_cell_length_b   5.43536393
_cell_length_c   5.78635385
_cell_angle_alpha   117.99105033
_cell_angle_beta   117.99432849
_cell_angle_gamma   90.04692941
_symmetry_Int_Tables_number   1
_chemical_formula_structural   Sr2CuOsO6
_chemical_formula_sum   'Sr2 Cu1 Os1 O6'
_cell_volume   127.84300047
_cell_formula_units_Z   1
loop_
 _symmetry_equiv_pos_site_id
 _symmetry_equiv_pos_as_xyz
  1  'x, y, z'
loop_
 _atom_site_type_symbol
 _atom_site_label
 _atom_site_symmetry_multiplicity
 _atom_site_fract_x
 _atom_site_fract_y
 _atom_site_fract_z
 _atom_site_occupancy
  O  O0  1  0.72638146  0.72639481  0.45265428  1
  O  O1  1  0.19991651  0.68777920  0.00003673  1
  Sr  Sr2  1  0.75007481  0.25005721  0.50013752  1
  O  O3  1  0.27361753  0.27360436  0.54734475  1
  O  O4  1  0.80008213  0.31222035  0.99996242  1
  Sr  Sr5  1  0.24992351  0.74994142  0.49986110  1
  O  O6  1  0.31226392  0.19999248  0.00008030  1
  O  O7  1  0.68773357  0.80000600  0.99991858  1
  Os  Os8  1  0.49999852  0.49999889  -0.00000098  1
  Cu  Cu9  1  1.00000806  0.00000528  0.00000531  1
