# generated using pymatgen
data_P4O9
_symmetry_space_group_name_H-M   'P 1'
_cell_length_a   10.45276105
_cell_length_b   10.45276109
_cell_length_c   10.45276144
_cell_angle_alpha   57.78498210
_cell_angle_beta   57.78498199
_cell_angle_gamma   57.78498408
_symmetry_Int_Tables_number   1
_chemical_formula_structural   P4O9
_chemical_formula_sum   'P16 O36'
_cell_volume   766.48656200
_cell_formula_units_Z   4
loop_
 _symmetry_equiv_pos_site_id
 _symmetry_equiv_pos_as_xyz
  1  'x, y, z'
loop_
 _atom_site_type_symbol
 _atom_site_label
 _atom_site_symmetry_multiplicity
 _atom_site_fract_x
 _atom_site_fract_y
 _atom_site_fract_z
 _atom_site_occupancy
  P  P0  1  0.57722217  0.57722217  0.57722217  1
  P  P1  1  0.92277783  0.92277783  0.92277783  1
  P  P2  1  0.42277783  0.42277783  0.42277783  1
  P  P3  1  0.07722217  0.07722217  0.07722217  1
  P  P4  1  0.79635393  0.72719847  0.48595344  1
  P  P5  1  0.48595344  0.79635393  0.72719847  1
  P  P6  1  0.72719847  0.48595344  0.79635393  1
  P  P7  1  0.77280153  0.70364607  0.01404656  1
  P  P8  1  0.01404656  0.77280153  0.70364607  1
  P  P9  1  0.70364607  0.01404656  0.77280153  1
  P  P10  1  0.20364607  0.27280153  0.51404656  1
  P  P11  1  0.51404656  0.20364607  0.27280153  1
  P  P12  1  0.27280153  0.51404656  0.20364607  1
  P  P13  1  0.22719847  0.29635393  0.98595344  1
  P  P14  1  0.98595344  0.22719847  0.29635393  1
  P  P15  1  0.29635393  0.98595344  0.22719847  1
  O  O16  1  0.72301753  0.65940216  0.44415060  1
  O  O17  1  0.44415060  0.72301753  0.65940216  1
  O  O18  1  0.65940216  0.44415060  0.72301753  1
  O  O19  1  0.84059784  0.77698247  0.05584940  1
  O  O20  1  0.05584940  0.84059784  0.77698247  1
  O  O21  1  0.77698247  0.05584940  0.84059784  1
  O  O22  1  0.27698247  0.34059784  0.55584940  1
  O  O23  1  0.55584940  0.27698247  0.34059784  1
  O  O24  1  0.34059784  0.55584940  0.27698247  1
  O  O25  1  0.15940216  0.22301753  0.94415060  1
  O  O26  1  0.94415060  0.15940216  0.22301753  1
  O  O27  1  0.22301753  0.94415060  0.15940216  1
  O  O28  1  0.85020253  0.57575983  0.63765246  1
  O  O29  1  0.63765246  0.85020253  0.57575983  1
  O  O30  1  0.57575983  0.63765246  0.85020253  1
  O  O31  1  0.92424017  0.64979747  0.86234754  1
  O  O32  1  0.86234754  0.92424017  0.64979747  1
  O  O33  1  0.64979747  0.86234754  0.92424017  1
  O  O34  1  0.14979747  0.42424017  0.36234754  1
  O  O35  1  0.36234754  0.14979747  0.42424017  1
  O  O36  1  0.42424017  0.36234754  0.14979747  1
  O  O37  1  0.07575983  0.35020253  0.13765246  1
  O  O38  1  0.13765246  0.07575983  0.35020253  1
  O  O39  1  0.35020253  0.13765246  0.07575983  1
  O  O40  1  0.92300580  0.79222963  0.35733389  1
  O  O41  1  0.35733389  0.92300580  0.79222963  1
  O  O42  1  0.79222963  0.35733389  0.92300580  1
  O  O43  1  0.70777037  0.57699420  0.14266611  1
  O  O44  1  0.14266611  0.70777037  0.57699420  1
  O  O45  1  0.57699420  0.14266611  0.70777037  1
  O  O46  1  0.07699420  0.20777037  0.64266611  1
  O  O47  1  0.64266611  0.07699420  0.20777037  1
  O  O48  1  0.20777037  0.64266611  0.07699420  1
  O  O49  1  0.29222963  0.42300580  0.85733389  1
  O  O50  1  0.85733389  0.29222963  0.42300580  1
  O  O51  1  0.42300580  0.85733389  0.29222963  1
