# generated using pymatgen
data_H6RuN3Cl3O
_symmetry_space_group_name_H-M   'P 1'
_cell_length_a   6.79399368
_cell_length_b   10.01606685
_cell_length_c   11.64596276
_cell_angle_alpha   89.99752796
_cell_angle_beta   90.00354547
_cell_angle_gamma   97.34221793
_symmetry_Int_Tables_number   1
_chemical_formula_structural   H6RuN3Cl3O
_chemical_formula_sum   'H24 Ru4 N12 Cl12 O4'
_cell_volume   785.99917888
_cell_formula_units_Z   4
loop_
 _symmetry_equiv_pos_site_id
 _symmetry_equiv_pos_as_xyz
  1  'x, y, z'
loop_
 _atom_site_type_symbol
 _atom_site_label
 _atom_site_symmetry_multiplicity
 _atom_site_fract_x
 _atom_site_fract_y
 _atom_site_fract_z
 _atom_site_occupancy
  H  H0  1  0.44832201  0.17255062  0.40435749  1
  H  H1  1  0.62652077  0.14271756  0.11195326  1
  H  H2  1  0.09807552  0.57802435  0.25636985  1
  H  H3  1  0.05168313  0.32744397  0.90436822  1
  H  H4  1  0.12653226  0.64271630  0.38804414  1
  H  H5  1  0.87346547  0.35728096  0.61195440  1
  H  H6  1  0.46002465  0.32740964  0.45956039  1
  H  H7  1  0.20426283  0.22285821  0.85858058  1
  H  H8  1  0.94831551  0.67255409  0.09563106  1
  Ru  Ru9  1  0.84657781  0.15084431  0.75987917  1
  H  H10  1  0.29573892  0.27714291  0.35857123  1
  H  H11  1  0.03999732  0.17258363  0.95957299  1
  H  H12  1  0.17525231  0.86241462  0.80585471  1
  H  H13  1  0.96000194  0.82741691  0.04042559  1
  H  H14  1  0.67525278  0.36242473  0.69414321  1
  Ru  Ru15  1  0.65339787  0.34916171  0.25985174  1
  H  H16  1  0.79573924  0.77714075  0.14141855  1
  H  H17  1  0.55168285  0.82745134  0.59563805  1
  H  H18  1  0.59808752  0.07802800  0.24363184  1
  H  H19  1  0.70426840  0.72285933  0.64142340  1
  H  H20  1  0.37347925  0.85728440  0.88804451  1
  H  H21  1  0.32474670  0.63757212  0.30585740  1
  Ru  Ru22  1  0.15339610  0.84916149  0.24014330  1
  Ru  Ru23  1  0.34661935  0.65083501  0.74015540  1
  H  H24  1  0.53997920  0.67259245  0.54043592  1
  H  H25  1  0.82474542  0.13758433  0.19414255  1
  H  H26  1  0.90192240  0.42197309  0.74362984  1
  H  H27  1  0.40191260  0.92197436  0.75636456  1
  N  N28  1  0.51842879  0.62008754  0.84488890  1
  N  N29  1  0.17746013  0.65281808  0.30499648  1
  N  N30  1  0.48157734  0.37991311  0.15510917  1
  N  N31  1  0.43848442  0.27197605  0.38533509  1
  N  N32  1  0.93847603  0.77197776  0.11465265  1
  N  N33  1  0.32254168  0.84717754  0.80499450  1
  N  N34  1  0.98158509  0.87991319  0.34487569  1
  N  N35  1  0.56152243  0.72802640  0.61466135  1
  N  N36  1  0.82253653  0.34717976  0.69500519  1
  N  N37  1  0.06152140  0.22802206  0.88534789  1
  N  N38  1  0.01839337  0.12009085  0.65513893  1
  N  N39  1  0.67745889  0.15282175  0.19500223  1
  Cl  Cl40  1  0.85006249  0.93047929  0.84537481  1
  Cl  Cl41  1  0.64992933  0.56951989  0.34535683  1
  Cl  Cl42  1  0.14994002  0.06952250  0.15462613  1
  Cl  Cl43  1  0.89446666  0.30414105  0.39634598  1
  Cl  Cl44  1  0.92132209  0.43021213  0.13319703  1
  Cl  Cl45  1  0.57866523  0.06979039  0.63320769  1
  Cl  Cl46  1  0.42133833  0.93020578  0.36679640  1
  Cl  Cl47  1  0.07868102  0.56978770  0.86679874  1
  Cl  Cl48  1  0.35008214  0.43048373  0.65464067  1
  Cl  Cl49  1  0.60552657  0.19586283  0.89635223  1
  Cl  Cl50  1  0.39446982  0.80413428  0.10364755  1
  Cl  Cl51  1  0.10553062  0.69586177  0.60364759  1
  O  O52  1  0.87541137  0.90340223  0.41884412  1
  O  O53  1  0.62461534  0.59659229  0.91886899  1
  O  O54  1  0.12457547  0.09659673  0.58115475  1
  O  O55  1  0.37539729  0.40340213  0.08112906  1
