# generated using pymatgen
data_Co3Ag2(P2O7)2
_symmetry_space_group_name_H-M   'P 1'
_cell_length_a   5.40577608
_cell_length_b   6.43835119
_cell_length_c   16.80908575
_cell_angle_alpha   80.66756985
_cell_angle_beta   80.37411021
_cell_angle_gamma   73.01421406
_symmetry_Int_Tables_number   1
_chemical_formula_structural   Co3Ag2(P2O7)2
_chemical_formula_sum   'Co6 Ag4 P8 O28'
_cell_volume   547.63239510
_cell_formula_units_Z   2
loop_
 _symmetry_equiv_pos_site_id
 _symmetry_equiv_pos_as_xyz
  1  'x, y, z'
loop_
 _atom_site_type_symbol
 _atom_site_label
 _atom_site_symmetry_multiplicity
 _atom_site_fract_x
 _atom_site_fract_y
 _atom_site_fract_z
 _atom_site_occupancy
  Ag  Ag0  1  0.88809469  0.73365939  0.02048005  1
  Ag  Ag1  1  0.11197861  0.26638442  0.97936226  1
  Ag  Ag2  1  0.39166994  0.74302335  0.12874522  1
  Ag  Ag3  1  0.60780884  0.25724442  0.87106596  1
  Co  Co4  1  0.23669555  0.95874111  0.34636960  1
  Co  Co5  1  0.76515147  0.04086079  0.65474515  1
  Co  Co6  1  0.80628173  0.71818794  0.40811177  1
  Co  Co7  1  0.20411259  0.27978949  0.59000792  1
  Co  Co8  1  0.96677189  0.36146754  0.20083857  1
  Co  Co9  1  0.03368238  0.63845634  0.79863482  1
  P  P10  1  0.57358019  0.24276081  0.08970318  1
  P  P11  1  0.42627449  0.75740563  0.91026138  1
  O  O12  1  0.72272728  0.39913518  0.10655193  1
  O  O13  1  0.27701300  0.60111793  0.89337581  1
  O  O14  1  0.69718075  0.13771527  0.01166602  1
  O  O15  1  0.30275886  0.86201213  0.98842524  1
  O  O16  1  0.27674734  0.34016626  0.09612299  1
  O  O17  1  0.72314129  0.66015383  0.90380377  1
  O  O18  1  0.60086248  0.04344619  0.16404878  1
  O  O19  1  0.39822778  0.95705152  0.83608633  1
  P  P20  1  0.81648793  0.89954076  0.22162924  1
  P  P21  1  0.18212542  0.10107641  0.77854919  1
  O  O22  1  0.95590188  0.69336753  0.17968630  1
  O  O23  1  0.04304223  0.30687135  0.82069978  1
  O  O24  1  0.01246068  0.02849947  0.22604634  1
  O  O25  1  0.98659254  0.97162506  0.77414491  1
  O  O26  1  0.64588157  0.86056466  0.30206889  1
  O  O27  1  0.35215745  0.13952119  0.69807841  1
  P  P28  1  0.69932086  0.22068034  0.45732618  1
  P  P29  1  0.29899416  0.77994055  0.54247758  1
  O  O30  1  0.82740255  0.40478111  0.44673217  1
  O  O31  1  0.16737562  0.59779177  0.55294013  1
  O  O32  1  0.87801837  0.01533621  0.42010476  1
  O  O33  1  0.12137650  0.98527639  0.58036221  1
  O  O34  1  0.58741916  0.16062982  0.54599723  1
  O  O35  1  0.41355021  0.83925287  0.45416736  1
  O  O36  1  0.43691482  0.29688854  0.41365701  1
  O  O37  1  0.56068806  0.70242973  0.58671662  1
  P  P38  1  0.36435051  0.42391058  0.32582968  1
  P  P39  1  0.63646656  0.57504481  0.67408846  1
  O  O40  1  0.60840011  0.44336327  0.27089936  1
  O  O41  1  0.39260621  0.55491235  0.72932970  1
  O  O42  1  0.21349859  0.28398831  0.29772062  1
  O  O43  1  0.78591027  0.71608735  0.70247272  1
  O  O44  1  0.18026076  0.65069170  0.34373106  1
  O  O45  1  0.82203584  0.34914831  0.65613633  1
