# generated using pymatgen
data_Zn(C2N3)2
_symmetry_space_group_name_H-M   'P 1'
_cell_length_a   7.69231181
_cell_length_b   7.70788196
_cell_length_c   12.13681111
_cell_angle_alpha   90.00000000
_cell_angle_beta   90.00000000
_cell_angle_gamma   90.00000000
_symmetry_Int_Tables_number   1
_chemical_formula_structural   Zn(C2N3)2
_chemical_formula_sum   'Zn4 C16 N24'
_cell_volume   719.60890372
_cell_formula_units_Z   4
loop_
 _symmetry_equiv_pos_site_id
 _symmetry_equiv_pos_as_xyz
  1  'x, y, z'
loop_
 _atom_site_type_symbol
 _atom_site_label
 _atom_site_symmetry_multiplicity
 _atom_site_fract_x
 _atom_site_fract_y
 _atom_site_fract_z
 _atom_site_occupancy
  Zn  Zn0  1  0.75000000  0.23090281  0.65161089  1
  Zn  Zn1  1  0.25000000  0.76909719  0.34838911  1
  Zn  Zn2  1  0.25000000  0.26909719  0.15161089  1
  Zn  Zn3  1  0.75000000  0.73090281  0.84838911  1
  C  C4  1  0.25000000  0.91826592  0.02246789  1
  C  C5  1  0.25000000  0.12201680  0.47472642  1
  C  C6  1  0.75000000  0.37798320  0.97472642  1
  C  C7  1  0.25000000  0.41826592  0.47753211  1
  C  C8  1  0.89889857  0.22294662  0.27222175  1
  C  C9  1  0.10110143  0.27705338  0.77222175  1
  C  C10  1  0.89889857  0.72294662  0.22777825  1
  C  C11  1  0.75000000  0.87798320  0.52527358  1
  C  C12  1  0.39889857  0.77705338  0.72777825  1
  C  C13  1  0.60110143  0.72294662  0.22777825  1
  C  C14  1  0.39889857  0.27705338  0.77222175  1
  C  C15  1  0.10110143  0.77705338  0.72777825  1
  C  C16  1  0.75000000  0.08173408  0.97753211  1
  C  C17  1  0.60110143  0.22294662  0.27222175  1
  C  C18  1  0.75000000  0.58173408  0.52246789  1
  C  C19  1  0.25000000  0.62201680  0.02527358  1
  N  N20  1  0.45851134  0.26232509  0.24681652  1
  N  N21  1  0.25000000  0.76908939  0.97467580  1
  N  N22  1  0.75000000  0.67190921  0.19243887  1
  N  N23  1  0.75000000  0.93959692  0.94243786  1
  N  N24  1  0.75000000  0.73091061  0.47467580  1
  N  N25  1  0.54148866  0.73767491  0.75318348  1
  N  N26  1  0.45851134  0.76232509  0.25318348  1
  N  N27  1  0.25000000  0.82809079  0.69243887  1
  N  N28  1  0.75000000  0.51777491  0.93619269  1
  N  N29  1  0.25000000  0.32809079  0.80756113  1
  N  N30  1  0.04148866  0.26232509  0.24681652  1
  N  N31  1  0.25000000  0.06040308  0.05756214  1
  N  N32  1  0.95851134  0.73767491  0.75318348  1
  N  N33  1  0.54148866  0.23767491  0.74681652  1
  N  N34  1  0.25000000  0.26908939  0.52532420  1
  N  N35  1  0.25000000  0.56040308  0.44243786  1
  N  N36  1  0.04148866  0.76232509  0.25318348  1
  N  N37  1  0.25000000  0.48222509  0.06380731  1
  N  N38  1  0.75000000  0.17190921  0.30756113  1
  N  N39  1  0.75000000  0.01777491  0.56380731  1
  N  N40  1  0.25000000  0.98222509  0.43619269  1
  N  N41  1  0.75000000  0.43959692  0.55756214  1
  N  N42  1  0.75000000  0.23091061  0.02532420  1
  N  N43  1  0.95851134  0.23767491  0.74681652  1
