# generated using pymatgen
data_FeP(H2O3)2
_symmetry_space_group_name_H-M   'P 1'
_cell_length_a   5.36373390
_cell_length_b   8.83547581
_cell_length_c   9.92119999
_cell_angle_alpha   90.00000000
_cell_angle_beta   90.00000000
_cell_angle_gamma   90.44206781
_symmetry_Int_Tables_number   1
_chemical_formula_structural   FeP(H2O3)2
_chemical_formula_sum   'Fe4 P4 H16 O24'
_cell_volume   470.16299372
_cell_formula_units_Z   4
loop_
 _symmetry_equiv_pos_site_id
 _symmetry_equiv_pos_as_xyz
  1  'x, y, z'
loop_
 _atom_site_type_symbol
 _atom_site_label
 _atom_site_symmetry_multiplicity
 _atom_site_fract_x
 _atom_site_fract_y
 _atom_site_fract_z
 _atom_site_occupancy
  Fe  Fe0  1  0.90764165  0.80926010  0.17361344  1
  Fe  Fe1  1  0.59235835  0.69073990  0.67361344  1
  Fe  Fe2  1  0.09235835  0.19073990  0.82638656  1
  Fe  Fe3  1  0.40764165  0.30926010  0.32638656  1
  P  P4  1  0.08836998  0.81550307  0.85090447  1
  P  P5  1  0.41163002  0.68449693  0.35090447  1
  P  P6  1  0.91163002  0.18449693  0.14909553  1
  P  P7  1  0.58836998  0.31550307  0.64909553  1
  O  O8  1  0.20018851  0.78350262  0.29371017  1
  O  O9  1  0.29981149  0.71649738  0.79371017  1
  O  O10  1  0.79981149  0.21649738  0.70628983  1
  O  O11  1  0.70018851  0.28350262  0.20628983  1
  O  O12  1  0.12229715  0.83139426  0.00619888  1
  O  O13  1  0.37770285  0.66860574  0.50619888  1
  O  O14  1  0.87770285  0.16860574  0.99380112  1
  O  O15  1  0.62229715  0.33139426  0.49380112  1
  O  O16  1  0.66635163  0.76656832  0.32587570  1
  O  O17  1  0.83364837  0.73343168  0.82587570  1
  O  O18  1  0.33364837  0.23343168  0.67412430  1
  O  O19  1  0.16635163  0.26656832  0.17412430  1
  O  O20  1  0.90914383  0.02850490  0.22038133  1
  O  O21  1  0.59085617  0.47149510  0.72038133  1
  O  O22  1  0.09085617  0.97149510  0.77961867  1
  O  O23  1  0.40914383  0.52850490  0.27961867  1
  O  O24  1  0.59297293  0.92550773  0.63383000  1
  O  O25  1  0.90702707  0.57449227  0.13383000  1
  O  O26  1  0.40702707  0.07449227  0.36617000  1
  O  O27  1  0.09297293  0.42550773  0.86617000  1
  O  O28  1  0.61136745  0.82107059  0.04685055  1
  O  O29  1  0.88863255  0.67892941  0.54685055  1
  O  O30  1  0.38863255  0.17892941  0.95314945  1
  O  O31  1  0.11136745  0.32107059  0.45314945  1
  H  H32  1  0.07439070  0.67209468  0.55059067  1
  H  H33  1  0.42560930  0.82790532  0.05059067  1
  H  H34  1  0.92560930  0.32790532  0.44940933  1
  H  H35  1  0.57439070  0.17209468  0.94940933  1
  H  H36  1  0.73184784  0.98778118  0.66863024  1
  H  H37  1  0.76815216  0.51221882  0.16863024  1
  H  H38  1  0.26815216  0.01221882  0.33136976  1
  H  H39  1  0.23184784  0.48778118  0.83136976  1
  H  H40  1  0.84036566  0.71751079  0.45572956  1
  H  H41  1  0.65963434  0.78248921  0.95572956  1
  H  H42  1  0.15963434  0.28248921  0.54427044  1
  H  H43  1  0.34036566  0.21751079  0.04427044  1
  H  H44  1  0.44013115  0.98238306  0.65236234  1
  H  H45  1  0.05986885  0.51761694  0.15236234  1
  H  H46  1  0.55986885  0.01761694  0.34763766  1
  H  H47  1  0.94013115  0.48238306  0.84763766  1
