# generated using pymatgen
data_BaZnAs2O7
_symmetry_space_group_name_H-M   'P 1'
_cell_length_a   5.74581761
_cell_length_b   8.69105636
_cell_length_c   13.59760004
_cell_angle_alpha   90.00000000
_cell_angle_beta   90.15551808
_cell_angle_gamma   90.00000000
_symmetry_Int_Tables_number   1
_chemical_formula_structural   BaZnAs2O7
_chemical_formula_sum   'Ba4 Zn4 As8 O28'
_cell_volume   679.02390656
_cell_formula_units_Z   4
loop_
 _symmetry_equiv_pos_site_id
 _symmetry_equiv_pos_as_xyz
  1  'x, y, z'
loop_
 _atom_site_type_symbol
 _atom_site_label
 _atom_site_symmetry_multiplicity
 _atom_site_fract_x
 _atom_site_fract_y
 _atom_site_fract_z
 _atom_site_occupancy
  Ba  Ba0  1  0.21471570  0.34589285  0.71493789  1
  Ba  Ba1  1  0.28528430  0.84589285  0.78506211  1
  Ba  Ba2  1  0.78528430  0.65410715  0.28506211  1
  Ba  Ba3  1  0.71471570  0.15410715  0.21493789  1
  Zn  Zn4  1  0.33119267  0.85079636  0.11216731  1
  Zn  Zn5  1  0.16880733  0.35079636  0.38783269  1
  Zn  Zn6  1  0.83119267  0.64920364  0.61216731  1
  Zn  Zn7  1  0.66880733  0.14920364  0.88783269  1
  As  As8  1  0.24876073  0.96669564  0.34212206  1
  As  As9  1  0.67251463  0.31470357  0.51343551  1
  As  As10  1  0.25123927  0.46669564  0.15787794  1
  As  As11  1  0.74876073  0.53330436  0.84212206  1
  As  As12  1  0.82748537  0.81470357  0.98656449  1
  As  As13  1  0.17251463  0.18529643  0.01343551  1
  As  As14  1  0.75123927  0.03330436  0.65787794  1
  As  As15  1  0.32748537  0.68529643  0.48656449  1
  O  O16  1  0.78806757  0.61263269  0.96278779  1
  O  O17  1  0.05801181  0.37945651  0.23636706  1
  O  O18  1  0.71193243  0.11263269  0.53721221  1
  O  O19  1  0.31231573  0.16436513  0.90314103  1
  O  O20  1  0.53121413  0.43971905  0.19154896  1
  O  O21  1  0.87896236  0.15143839  0.01564278  1
  O  O22  1  0.19465914  0.59062199  0.39071306  1
  O  O23  1  0.44198819  0.87945651  0.26363294  1
  O  O24  1  0.18768427  0.66436513  0.59685897  1
  O  O25  1  0.62103764  0.65143839  0.48435722  1
  O  O26  1  0.80534086  0.40937801  0.60928694  1
  O  O27  1  0.46878587  0.56028095  0.80845104  1
  O  O28  1  0.68768427  0.83563487  0.09685897  1
  O  O29  1  0.28806757  0.88736731  0.46278779  1
  O  O30  1  0.21193243  0.38736731  0.03721221  1
  O  O31  1  0.16552137  0.65416541  0.14888642  1
  O  O32  1  0.66552137  0.84583459  0.64888642  1
  O  O33  1  0.94198819  0.62054349  0.76363294  1
  O  O34  1  0.33447863  0.15416541  0.35111358  1
  O  O35  1  0.03121413  0.06028095  0.69154896  1
  O  O36  1  0.83447863  0.34583459  0.85111358  1
  O  O37  1  0.96878587  0.93971905  0.30845104  1
  O  O38  1  0.69465914  0.90937801  0.89071306  1
  O  O39  1  0.30534086  0.09062199  0.10928694  1
  O  O40  1  0.37896236  0.34856161  0.51564278  1
  O  O41  1  0.55801181  0.12054349  0.73636706  1
  O  O42  1  0.81231573  0.33563487  0.40314103  1
  O  O43  1  0.12103764  0.84856161  0.98435722  1
