# generated using pymatgen
data_BaMnFeF7
_symmetry_space_group_name_H-M   'P 1'
_cell_length_a   5.65807113
_cell_length_b   9.35392662
_cell_length_c   11.13575869
_cell_angle_alpha   90.00000000
_cell_angle_beta   90.00000000
_cell_angle_gamma   94.73262671
_symmetry_Int_Tables_number   1
_chemical_formula_structural   BaMnFeF7
_chemical_formula_sum   'Ba4 Mn4 Fe4 F28'
_cell_volume   587.35266639
_cell_formula_units_Z   4
loop_
 _symmetry_equiv_pos_site_id
 _symmetry_equiv_pos_as_xyz
  1  'x, y, z'
loop_
 _atom_site_type_symbol
 _atom_site_label
 _atom_site_symmetry_multiplicity
 _atom_site_fract_x
 _atom_site_fract_y
 _atom_site_fract_z
 _atom_site_occupancy
  Ba  Ba0  1  0.76459586  0.46007018  0.66852584  1
  Ba  Ba1  1  0.23540414  0.03992982  0.16852584  1
  Ba  Ba2  1  0.23540414  0.53992982  0.33147416  1
  Ba  Ba3  1  0.76459586  0.96007018  0.83147416  1
  Mn  Mn4  1  0.81606681  0.88134265  0.43597099  1
  Mn  Mn5  1  0.18393319  0.61865735  0.93597099  1
  Mn  Mn6  1  0.81606681  0.38134265  0.06402901  1
  Mn  Mn7  1  0.18393319  0.11865735  0.56402901  1
  Fe  Fe8  1  0.30943683  0.73509961  0.61975101  1
  Fe  Fe9  1  0.69056317  0.26490039  0.38024899  1
  Fe  Fe10  1  0.69056317  0.76490039  0.11975101  1
  Fe  Fe11  1  0.30943683  0.23509961  0.88024899  1
  F  F12  1  0.29410238  0.02691755  0.90539743  1
  F  F13  1  0.70589762  0.47308245  0.40539743  1
  F  F14  1  0.70589762  0.97308245  0.09460257  1
  F  F15  1  0.29410238  0.52691755  0.59460257  1
  F  F16  1  0.65534776  0.55900816  0.14589463  1
  F  F17  1  0.34465224  0.94099184  0.64589463  1
  F  F18  1  0.34465224  0.44099184  0.85410537  1
  F  F19  1  0.65534776  0.05900816  0.35410537  1
  F  F20  1  0.89628128  0.28930413  0.23811196  1
  F  F21  1  0.10371872  0.21069587  0.73811196  1
  F  F22  1  0.10371872  0.71069587  0.76188804  1
  F  F23  1  0.89628128  0.78930413  0.26188804  1
  F  F24  1  0.59424832  0.71815804  0.71317157  1
  F  F25  1  0.40575168  0.78184196  0.21317157  1
  F  F26  1  0.40575168  0.28184196  0.28682843  1
  F  F27  1  0.59424832  0.21815804  0.78682843  1
  F  F28  1  0.50384671  0.74639626  0.96965002  1
  F  F29  1  0.49615329  0.75360374  0.46965002  1
  F  F30  1  0.49615329  0.25360374  0.03034998  1
  F  F31  1  0.50384671  0.24639626  0.53034998  1
  F  F32  1  0.86186013  0.98982635  0.60174573  1
  F  F33  1  0.13813987  0.51017365  0.10174573  1
  F  F34  1  0.13813987  0.01017365  0.39825427  1
  F  F35  1  0.86186013  0.48982635  0.89825427  1
  F  F36  1  0.02300055  0.71778751  0.51526263  1
  F  F37  1  0.97699945  0.78221249  0.01526263  1
  F  F38  1  0.97699945  0.28221249  0.48473737  1
  F  F39  1  0.02300055  0.21778751  0.98473737  1
