# generated using pymatgen
data_Sr(PO3)2
_symmetry_space_group_name_H-M   'P 1'
_cell_length_a   7.50022998
_cell_length_b   7.49566802
_cell_length_c   18.88910117
_cell_angle_alpha   90.00000000
_cell_angle_beta   90.00000000
_cell_angle_gamma   90.25156702
_symmetry_Int_Tables_number   1
_chemical_formula_structural   Sr(PO3)2
_chemical_formula_sum   'Sr8 P16 O48'
_cell_volume   1061.92056316
_cell_formula_units_Z   8
loop_
 _symmetry_equiv_pos_site_id
 _symmetry_equiv_pos_as_xyz
  1  'x, y, z'
loop_
 _atom_site_type_symbol
 _atom_site_label
 _atom_site_symmetry_multiplicity
 _atom_site_fract_x
 _atom_site_fract_y
 _atom_site_fract_z
 _atom_site_occupancy
  Sr  Sr0  1  0.99192476  0.00179830  0.73189281  1
  Sr  Sr1  1  0.00807524  0.99820170  0.23189281  1
  Sr  Sr2  1  0.50924595  0.99260001  0.10657618  1
  Sr  Sr3  1  0.50070280  0.49179925  0.98049054  1
  Sr  Sr4  1  0.99725810  0.49755124  0.35534537  1
  Sr  Sr5  1  0.49075405  0.00739999  0.60657618  1
  Sr  Sr6  1  0.49929720  0.50820075  0.48049054  1
  Sr  Sr7  1  0.00274190  0.50244876  0.85534537  1
  P  P8  1  0.48629448  0.95157082  0.77777327  1
  P  P9  1  0.48690893  0.55226739  0.80726803  1
  P  P10  1  0.51309107  0.44773261  0.30726803  1
  P  P11  1  0.05433838  0.49486877  0.18278071  1
  P  P12  1  0.98380402  0.44588464  0.02852987  1
  P  P13  1  0.00988402  0.95589433  0.55862314  1
  P  P14  1  0.01619598  0.55411536  0.52852987  1
  P  P15  1  0.44910449  0.00856081  0.93333211  1
  P  P16  1  0.45364996  0.49041076  0.15216876  1
  P  P17  1  0.99011598  0.04410567  0.05862314  1
  P  P18  1  0.55089551  0.99143919  0.43333211  1
  P  P19  1  0.94973232  0.99198747  0.40319566  1
  P  P20  1  0.05026768  0.00801253  0.90319566  1
  P  P21  1  0.54635004  0.50958924  0.65216876  1
  P  P22  1  0.51370552  0.04842918  0.27777327  1
  P  P23  1  0.94566162  0.50513123  0.68278071  1
  O  O24  1  0.65461166  0.53264771  0.35287508  1
  O  O25  1  0.67256680  0.55179952  0.83655537  1
  O  O26  1  0.95818858  0.16563914  0.87070895  1
  O  O27  1  0.97488186  0.95758154  0.98059078  1
  O  O28  1  0.47621876  0.45924388  0.73027411  1
  O  O29  1  0.45237222  0.82206874  0.96180057  1
  O  O30  1  0.34538834  0.46735229  0.85287508  1
  O  O31  1  0.04675077  0.84001503  0.85974949  1
  O  O32  1  0.16691945  0.45463191  0.99680069  1
  O  O33  1  0.41898229  0.75073314  0.79104901  1
  O  O34  1  0.95324923  0.15998497  0.35974949  1
  O  O35  1  0.46166923  0.97853201  0.35574966  1
  O  O36  1  0.84857330  0.95973731  0.10422991  1
  O  O37  1  0.17660464  0.03712976  0.08693958  1
  O  O38  1  0.97549402  0.53992433  0.10535249  1
  O  O39  1  0.52378124  0.54075612  0.23027411  1
  O  O40  1  0.04181142  0.83436086  0.37070895  1
  O  O41  1  0.54762778  0.17793126  0.46180057  1
  O  O42  1  0.53903719  0.34196590  0.60841698  1
  O  O43  1  0.67155811  0.95403171  0.24680410  1
  O  O44  1  0.03729964  0.66125804  0.71726722  1
  O  O45  1  0.83749221  0.52312498  0.98362747  1
  O  O46  1  0.02511814  0.04241846  0.48059078  1
  O  O47  1  0.82339536  0.96287024  0.58693958  1
  O  O48  1  0.05526388  0.66481114  0.22498704  1
  O  O49  1  0.92488421  0.24507644  0.04603353  1
  O  O50  1  0.32743320  0.44820048  0.33655537  1
  O  O51  1  0.53833077  0.02146799  0.85574966  1
  O  O52  1  0.53466373  0.14955939  0.97889542  1
  O  O53  1  0.94473612  0.33518886  0.72498704  1
  O  O54  1  0.75050329  0.92374338  0.41895931  1
  O  O55  1  0.96270036  0.33874196  0.21726722  1
  O  O56  1  0.58101771  0.24926686  0.29104901  1
  O  O57  1  0.46533627  0.85044061  0.47889542  1
  O  O58  1  0.15142670  0.04026269  0.60422991  1
  O  O59  1  0.24949671  0.07625662  0.91895931  1
  O  O60  1  0.07511579  0.75492356  0.54603353  1
  O  O61  1  0.32844189  0.04596829  0.74680410  1
  O  O62  1  0.45415056  0.66836217  0.62091930  1
  O  O63  1  0.25198754  0.42596558  0.16546026  1
  O  O64  1  0.54584944  0.33163783  0.12091930  1
  O  O65  1  0.02450598  0.46007567  0.60535249  1
  O  O66  1  0.16250779  0.47687502  0.48362747  1
  O  O67  1  0.74801246  0.57403442  0.66546026  1
  O  O68  1  0.65380737  0.95759023  0.73395724  1
  O  O69  1  0.46096281  0.65803410  0.10841698  1
  O  O70  1  0.34619263  0.04240977  0.23395724  1
  O  O71  1  0.83308055  0.54536809  0.49680069  1
