# generated using pymatgen
data_Re2H4O9
_symmetry_space_group_name_H-M   'P 1'
_cell_length_a   9.00337223
_cell_length_b   8.90231069
_cell_length_c   4.99617259
_cell_angle_alpha   90.00000000
_cell_angle_beta   114.41384506
_cell_angle_gamma   90.00000000
_symmetry_Int_Tables_number   1
_chemical_formula_structural   Re2H4O9
_chemical_formula_sum   'Re4 H8 O18'
_cell_volume   364.64084166
_cell_formula_units_Z   2
loop_
 _symmetry_equiv_pos_site_id
 _symmetry_equiv_pos_as_xyz
  1  'x, y, z'
loop_
 _atom_site_type_symbol
 _atom_site_label
 _atom_site_symmetry_multiplicity
 _atom_site_fract_x
 _atom_site_fract_y
 _atom_site_fract_z
 _atom_site_occupancy
  Re  Re0  1  0.11964574  0.25498633  0.00835016  1
  Re  Re1  1  0.88035426  0.75498633  0.99164984  1
  Re  Re2  1  0.54999299  0.24917060  -0.00002296  1
  Re  Re3  1  0.45000701  0.74917060  0.00002296  1
  H  H4  1  0.94345875  0.24749723  0.28704112  1
  H  H5  1  0.05654125  0.74749723  0.71295888  1
  H  H6  1  0.97355798  0.52894734  0.43441917  1
  H  H7  1  0.02644202  0.02894734  0.56558083  1
  H  H8  1  0.28726886  0.48226583  0.26873195  1
  H  H9  1  0.71273114  0.98226583  0.73126805  1
  H  H10  1  0.70810394  0.52078576  0.72334300  1
  H  H11  1  0.29189606  0.02078576  0.27665700  1
  O  O12  1  0.34719040  0.24884957  0.98091964  1
  O  O13  1  0.65280960  0.74884957  0.01908036  1
  O  O14  1  0.69260554  0.25019577  0.36218473  1
  O  O15  1  0.30739446  0.75019577  0.63781527  1
  O  O16  1  0.93276570  0.25743760  0.08378088  1
  O  O17  1  0.06723430  0.75743760  0.91621912  1
  O  O18  1  0.06035764  0.38934218  0.72622712  1
  O  O19  1  0.93964236  0.88934218  0.27377288  1
  O  O20  1  0.95284450  0.60072579  0.27138963  1
  O  O21  1  0.04715550  0.10072579  0.72861037  1
  O  O22  1  0.58162230  0.40883470  0.82946759  1
  O  O23  1  0.41837770  0.90883470  0.17053241  1
  O  O24  1  0.41595692  0.59022505  0.17074851  1
  O  O25  1  0.58404308  0.09022505  0.82925149  1
  O  O26  1  0.22573906  0.39641565  0.30317759  1
  O  O27  1  0.77426094  0.89641565  0.69682241  1
  O  O28  1  0.77883843  0.60193761  0.70504781  1
  O  O29  1  0.22116157  0.10193761  0.29495219  1
