# generated using pymatgen
data_Ag5IO6
_symmetry_space_group_name_H-M   'P 1'
_cell_length_a   11.48298228
_cell_length_b   11.48298245
_cell_length_c   11.48298303
_cell_angle_alpha   30.39157381
_cell_angle_beta   30.39157249
_cell_angle_gamma   30.39157233
_symmetry_Int_Tables_number   1
_chemical_formula_structural   Ag5IO6
_chemical_formula_sum   'Ag10 I2 O12'
_cell_volume   343.46761443
_cell_formula_units_Z   2
loop_
 _symmetry_equiv_pos_site_id
 _symmetry_equiv_pos_as_xyz
  1  'x, y, z'
loop_
 _atom_site_type_symbol
 _atom_site_label
 _atom_site_symmetry_multiplicity
 _atom_site_fract_x
 _atom_site_fract_y
 _atom_site_fract_z
 _atom_site_occupancy
  Ag  Ag0  1  0.04526501  0.75000000  0.45473499  1
  Ag  Ag1  1  0.45473499  0.04526501  0.75000000  1
  Ag  Ag2  1  0.75000000  0.45473499  0.04526501  1
  Ag  Ag3  1  0.64989213  0.64989213  0.64989213  1
  Ag  Ag4  1  0.14989213  0.14989213  0.14989213  1
  Ag  Ag5  1  0.95473499  0.25000000  0.54526501  1
  Ag  Ag6  1  0.85010787  0.85010787  0.85010787  1
  Ag  Ag7  1  0.54526501  0.95473499  0.25000000  1
  Ag  Ag8  1  0.35010787  0.35010787  0.35010787  1
  Ag  Ag9  1  0.25000000  0.54526501  0.95473499  1
  I  I10  1  0.00000000  0.00000000  0.00000000  1
  I  I11  1  0.50000000  0.50000000  0.50000000  1
  O  O12  1  0.17994471  0.51643479  0.70258184  1
  O  O13  1  0.82005529  0.48356521  0.29741816  1
  O  O14  1  0.32005529  0.79741816  0.98356521  1
  O  O15  1  0.29741816  0.82005529  0.48356521  1
  O  O16  1  0.01643479  0.67994471  0.20258184  1
  O  O17  1  0.67994471  0.20258184  0.01643479  1
  O  O18  1  0.20258184  0.01643479  0.67994471  1
  O  O19  1  0.48356521  0.29741816  0.82005529  1
  O  O20  1  0.98356521  0.32005529  0.79741816  1
  O  O21  1  0.70258184  0.17994471  0.51643479  1
  O  O22  1  0.79741816  0.98356521  0.32005529  1
  O  O23  1  0.51643479  0.70258184  0.17994471  1
