# generated using pymatgen
data_Nb2Te4Cl10O
_symmetry_space_group_name_H-M   'P 1'
_cell_length_a   6.86361617
_cell_length_b   8.71683526
_cell_length_c   9.23611635
_cell_angle_alpha   80.80233245
_cell_angle_beta   88.93386816
_cell_angle_gamma   74.75918449
_symmetry_Int_Tables_number   1
_chemical_formula_structural   Nb2Te4Cl10O
_chemical_formula_sum   'Nb2 Te4 Cl10 O1'
_cell_volume   526.13901155
_cell_formula_units_Z   1
loop_
 _symmetry_equiv_pos_site_id
 _symmetry_equiv_pos_as_xyz
  1  'x, y, z'
loop_
 _atom_site_type_symbol
 _atom_site_label
 _atom_site_symmetry_multiplicity
 _atom_site_fract_x
 _atom_site_fract_y
 _atom_site_fract_z
 _atom_site_occupancy
  Nb  Nb0  1  0.51290625  0.64277899  0.63485831  1
  Nb  Nb1  1  0.48709375  0.35722101  0.36514169  1
  Te  Te2  1  0.18430736  0.90407558  0.16501257  1
  Te  Te3  1  0.08257470  0.19570221  0.98813519  1
  Te  Te4  1  0.91742530  0.80429779  0.01186481  1
  Te  Te5  1  0.81569264  0.09592442  0.83498743  1
  Cl  Cl6  1  0.45653884  0.17252381  0.18948315  1
  Cl  Cl7  1  0.38591478  0.48322486  0.82949539  1
  Cl  Cl8  1  0.81794920  0.19930528  0.42505623  1
  Cl  Cl9  1  0.14761797  0.52222525  0.28466512  1
  Cl  Cl10  1  0.61408522  0.51677514  0.17050461  1
  Cl  Cl11  1  0.34300117  0.20187752  0.54593879  1
  Cl  Cl12  1  0.85238203  0.47777475  0.71533488  1
  Cl  Cl13  1  0.65699883  0.79812248  0.45406121  1
  Cl  Cl14  1  0.18205080  0.80069472  0.57494377  1
  Cl  Cl15  1  0.54346116  0.82747619  0.81051685  1
  O  O16  1  0.50000000  0.50000000  0.50000000  1
