# generated using pymatgen
data_La2Mo4O15
_symmetry_space_group_name_H-M   'P 1'
_cell_length_a   9.28492791
_cell_length_b   10.73711586
_cell_length_c   12.96234108
_cell_angle_alpha   90.00000000
_cell_angle_beta   90.00000000
_cell_angle_gamma   90.06494539
_symmetry_Int_Tables_number   1
_chemical_formula_structural   La2Mo4O15
_chemical_formula_sum   'La8 Mo16 O60'
_cell_volume   1292.25833348
_cell_formula_units_Z   4
loop_
 _symmetry_equiv_pos_site_id
 _symmetry_equiv_pos_as_xyz
  1  'x, y, z'
loop_
 _atom_site_type_symbol
 _atom_site_label
 _atom_site_symmetry_multiplicity
 _atom_site_fract_x
 _atom_site_fract_y
 _atom_site_fract_z
 _atom_site_occupancy
  La  La0  1  0.91776309  0.22710500  0.64482168  1
  La  La1  1  0.58223691  0.27289500  0.14482168  1
  La  La2  1  0.08223691  0.77289500  0.35517832  1
  La  La3  1  0.41776309  0.72710500  0.85517832  1
  La  La4  1  0.34751757  0.24352298  0.62666382  1
  La  La5  1  0.15248243  0.25647702  0.12666382  1
  La  La6  1  0.65248243  0.75647702  0.37333618  1
  La  La7  1  0.84751757  0.74352298  0.87333618  1
  Mo  Mo8  1  0.13764561  0.90771107  0.66584405  1
  Mo  Mo9  1  0.36235439  0.59228893  0.16584405  1
  Mo  Mo10  1  0.86235439  0.09228893  0.33415595  1
  Mo  Mo11  1  0.63764561  0.40771107  0.83415595  1
  Mo  Mo12  1  0.62761259  0.94123232  0.65405775  1
  Mo  Mo13  1  0.87238741  0.55876768  0.15405775  1
  Mo  Mo14  1  0.37238741  0.05876768  0.34594225  1
  Mo  Mo15  1  0.12761259  0.44123232  0.84594225  1
  Mo  Mo16  1  0.07443906  0.39853672  0.40972406  1
  Mo  Mo17  1  0.42556094  0.10146328  0.90972406  1
  Mo  Mo18  1  0.92556094  0.60146328  0.59027594  1
  Mo  Mo19  1  0.57443906  0.89853672  0.09027594  1
  Mo  Mo20  1  0.69673886  0.37949508  0.43946754  1
  Mo  Mo21  1  0.80326114  0.12050492  0.93946754  1
  Mo  Mo22  1  0.30326114  0.62050492  0.56053246  1
  Mo  Mo23  1  0.19673886  0.87949508  0.06053246  1
  O  O24  1  0.62474484  0.84458818  0.77164045  1
  O  O25  1  0.87525516  0.65541182  0.27164045  1
  O  O26  1  0.37525516  0.15541182  0.22835955  1
  O  O27  1  0.12474484  0.34458818  0.72835955  1
  O  O28  1  0.11206582  0.29043765  0.51231735  1
  O  O29  1  0.38793418  0.20956235  0.01231735  1
  O  O30  1  0.88793418  0.70956235  0.48768265  1
  O  O31  1  0.61206582  0.79043765  0.98768265  1
  O  O32  1  0.11740894  0.56072413  0.44884140  1
  O  O33  1  0.38259106  0.93927587  0.94884140  1
  O  O34  1  0.88259106  0.43927587  0.55115860  1
  O  O35  1  0.61740894  0.06072413  0.05115860  1
  O  O36  1  0.17193938  0.81629115  0.54864496  1
  O  O37  1  0.32806062  0.68370885  0.04864496  1
  O  O38  1  0.82806062  0.18370885  0.45135504  1
  O  O39  1  0.67193938  0.31629115  0.95135504  1
  O  O40  1  0.89162303  0.39381672  0.35458447  1
  O  O41  1  0.60837697  0.10618328  0.85458447  1
  O  O42  1  0.10837697  0.60618328  0.64541553  1
  O  O43  1  0.39162303  0.89381672  0.14541553  1
  O  O44  1  0.12336704  0.07405591  0.63744163  1
  O  O45  1  0.37663296  0.42594409  0.13744163  1
  O  O46  1  0.87663296  0.92594409  0.36255837  1
  O  O47  1  0.62336704  0.57405591  0.86255837  1
  O  O48  1  0.19000124  0.35805622  0.30928267  1
  O  O49  1  0.30999876  0.14194378  0.80928267  1
  O  O50  1  0.80999876  0.64194378  0.69071733  1
  O  O51  1  0.69000124  0.85805622  0.19071733  1
  O  O52  1  0.59519139  0.32422913  0.33378955  1
  O  O53  1  0.90480861  0.17577087  0.83378955  1
  O  O54  1  0.40480861  0.67577087  0.66621045  1
  O  O55  1  0.09519139  0.82422913  0.16621045  1
  O  O56  1  0.65147503  0.54053650  0.44066462  1
  O  O57  1  0.84852497  0.95946350  0.94066462  1
  O  O58  1  0.34852497  0.45946350  0.55933538  1
  O  O59  1  0.15147503  0.04053650  0.05933538  1
  O  O60  1  0.47597266  0.04241801  0.64351372  1
  O  O61  1  0.02402734  0.45758199  0.14351372  1
  O  O62  1  0.52402734  0.95758199  0.35648628  1
  O  O63  1  0.97597266  0.54241801  0.85648628  1
  O  O64  1  0.61625393  0.31233766  0.55104645  1
  O  O65  1  0.88374607  0.18766234  0.05104645  1
  O  O66  1  0.38374607  0.68766234  0.44895355  1
  O  O67  1  0.11625393  0.81233766  0.94895355  1
  O  O68  1  0.63003588  0.84192869  0.54416908  1
  O  O69  1  0.86996412  0.65807131  0.04416908  1
  O  O70  1  0.36996412  0.15807131  0.45583092  1
  O  O71  1  0.13003588  0.34192869  0.95583092  1
  O  O72  1  0.78434097  0.03796422  0.64940077  1
  O  O73  1  0.71565903  0.46203578  0.14940077  1
  O  O74  1  0.21565903  0.96203578  0.35059923  1
  O  O75  1  0.28434097  0.53796422  0.85059923  1
  O  O76  1  0.28004982  0.87697815  0.75219390  1
  O  O77  1  0.21995018  0.62302185  0.25219390  1
  O  O78  1  0.71995018  0.12302185  0.24780610  1
  O  O79  1  0.78004982  0.37697815  0.74780610  1
  O  O80  1  0.97989188  0.85214705  0.72853627  1
  O  O81  1  0.52010812  0.64785295  0.22853627  1
  O  O82  1  0.02010812  0.14785295  0.27146373  1
  O  O83  1  0.47989188  0.35214705  0.77146373  1
