# generated using pymatgen
data_NaPH4O5
_symmetry_space_group_name_H-M   'P 1'
_cell_length_a   7.55652842
_cell_length_b   7.64628785
_cell_length_c   7.87713712
_cell_angle_alpha   90.00000000
_cell_angle_beta   90.00000000
_cell_angle_gamma   90.00000000
_symmetry_Int_Tables_number   1
_chemical_formula_structural   NaPH4O5
_chemical_formula_sum   'Na4 P4 H16 O20'
_cell_volume   455.13618913
_cell_formula_units_Z   4
loop_
 _symmetry_equiv_pos_site_id
 _symmetry_equiv_pos_as_xyz
  1  'x, y, z'
loop_
 _atom_site_type_symbol
 _atom_site_label
 _atom_site_symmetry_multiplicity
 _atom_site_fract_x
 _atom_site_fract_y
 _atom_site_fract_z
 _atom_site_occupancy
  Na  Na0  1  0.98348026  0.50407501  0.48551067  1
  Na  Na1  1  0.48348026  0.99592499  0.98551067  1
  Na  Na2  1  0.98348026  0.00407501  0.01448933  1
  Na  Na3  1  0.48348026  0.49592499  0.51448933  1
  P  P4  1  0.74546898  0.38000979  0.87867114  1
  P  P5  1  0.24546898  0.11999021  0.37867114  1
  P  P6  1  0.74546898  0.88000979  0.62132886  1
  P  P7  1  0.24546898  0.61999021  0.12132886  1
  H  H8  1  0.21151581  0.18977052  0.72834211  1
  H  H9  1  0.71151581  0.81022948  0.27165789  1
  H  H10  1  0.34124325  0.78437363  0.33917261  1
  H  H11  1  0.34124325  0.28437363  0.16082739  1
  H  H12  1  0.22798300  0.27661720  0.90505261  1
  H  H13  1  0.71151581  0.31022948  0.22834211  1
  H  H14  1  0.72798300  0.22338280  0.40505261  1
  H  H15  1  0.46381281  0.94821828  0.60339073  1
  H  H16  1  0.72798300  0.72338280  0.09494739  1
  H  H17  1  0.96381281  0.55178172  0.10339073  1
  H  H18  1  0.21151581  0.68977052  0.77165789  1
  H  H19  1  0.96381281  0.05178172  0.39660927  1
  H  H20  1  0.84124325  0.71562637  0.83917261  1
  H  H21  1  0.22798300  0.77661720  0.59494739  1
  H  H22  1  0.84124325  0.21562637  0.66082739  1
  H  H23  1  0.46381281  0.44821828  0.89660927  1
  O  O24  1  0.23542330  0.77296089  0.00040253  1
  O  O25  1  0.05554567  0.57069672  0.19708553  1
  O  O26  1  0.21238778  0.16177051  0.85094249  1
  O  O27  1  0.85642304  0.83770717  0.78728806  1
  O  O28  1  0.73542330  0.22703911  0.99959747  1
  O  O29  1  0.82701609  0.04802710  0.54649446  1
  O  O30  1  0.71238778  0.33822949  0.35094249  1
  O  O31  1  0.05554567  0.07069672  0.30291447  1
  O  O32  1  0.71238778  0.83822949  0.14905751  1
  O  O33  1  0.23542330  0.27296089  0.49959747  1
  O  O34  1  0.32701609  0.95197290  0.45350554  1
  O  O35  1  0.73542330  0.72703911  0.50040253  1
  O  O36  1  0.82701609  0.54802710  0.95350554  1
  O  O37  1  0.85642304  0.33770717  0.71271194  1
  O  O38  1  0.55554567  0.92930328  0.69708553  1
  O  O39  1  0.35642304  0.16229283  0.21271194  1
  O  O40  1  0.55554567  0.42930328  0.80291447  1
  O  O41  1  0.21238778  0.66177051  0.64905751  1
  O  O42  1  0.35642304  0.66229283  0.28728806  1
  O  O43  1  0.32701609  0.45197290  0.04649446  1
