# generated using pymatgen
data_Zn4As2O9
_symmetry_space_group_name_H-M   'P 1'
_cell_length_a   8.31613420
_cell_length_b   9.89274297
_cell_length_c   18.28908922
_cell_angle_alpha   91.52732543
_cell_angle_beta   90.00000000
_cell_angle_gamma   90.00000000
_symmetry_Int_Tables_number   1
_chemical_formula_structural   Zn4As2O9
_chemical_formula_sum   'Zn32 As16 O72'
_cell_volume   1504.09744247
_cell_formula_units_Z   8
loop_
 _symmetry_equiv_pos_site_id
 _symmetry_equiv_pos_as_xyz
  1  'x, y, z'
loop_
 _atom_site_type_symbol
 _atom_site_label
 _atom_site_symmetry_multiplicity
 _atom_site_fract_x
 _atom_site_fract_y
 _atom_site_fract_z
 _atom_site_occupancy
  Zn  Zn0  1  0.55658431  0.36803945  0.61946096  1
  Zn  Zn1  1  0.44362382  0.13517223  0.88126645  1
  Zn  Zn2  1  0.42808390  0.70131406  0.63179912  1
  Zn  Zn3  1  0.41384470  0.05141388  0.60916517  1
  Zn  Zn4  1  0.05637618  0.63517223  0.38126645  1
  Zn  Zn5  1  0.23029151  0.66273075  0.94417842  1
  Zn  Zn6  1  0.92808390  0.79868594  0.86820088  1
  Zn  Zn7  1  0.05658431  0.13196055  0.88053904  1
  Zn  Zn8  1  0.31711578  0.09591717  0.29030331  1
  Zn  Zn9  1  0.46234197  0.20770665  0.13229144  1
  Zn  Zn10  1  0.26970849  0.16273075  0.44417842  1
  Zn  Zn11  1  0.58615530  0.94858612  0.39083483  1
  Zn  Zn12  1  0.55637618  0.86482777  0.11873355  1
  Zn  Zn13  1  0.18288422  0.59591717  0.79030331  1
  Zn  Zn14  1  0.98511620  0.04744356  0.65248805  1
  Zn  Zn15  1  0.91384470  0.44858612  0.89083483  1
  Zn  Zn16  1  0.44341569  0.63196055  0.38053904  1
  Zn  Zn17  1  0.01488380  0.95255644  0.34751195  1
  Zn  Zn18  1  0.94341569  0.86803945  0.11946096  1
  Zn  Zn19  1  0.96234197  0.29229335  0.36770856  1
  Zn  Zn20  1  0.73029151  0.83726925  0.55582158  1
  Zn  Zn21  1  0.68288422  0.90408283  0.70969669  1
  Zn  Zn22  1  0.94362382  0.36482777  0.61873355  1
  Zn  Zn23  1  0.03765803  0.70770665  0.63229144  1
  Zn  Zn24  1  0.57191610  0.29868594  0.36820088  1
  Zn  Zn25  1  0.76970849  0.33726925  0.05582158  1
  Zn  Zn26  1  0.53765803  0.79229335  0.86770856  1
  Zn  Zn27  1  0.48511620  0.45255644  0.84751195  1
  Zn  Zn28  1  0.07191610  0.20131406  0.13179912  1
  Zn  Zn29  1  0.51488380  0.54744356  0.15248805  1
  Zn  Zn30  1  0.08615530  0.55141388  0.10916517  1
  Zn  Zn31  1  0.81711578  0.40408283  0.20969669  1
  As  As32  1  0.75613747  0.23538035  0.76680666  1
  As  As33  1  0.75929163  0.51862700  0.47445846  1
  As  As34  1  0.74810217  0.14605967  0.51094633  1
  As  As35  1  0.75189783  0.64605967  0.01094633  1
  As  As36  1  0.75386768  0.60654032  0.74811613  1
  As  As37  1  0.25929163  0.98137300  0.02554154  1
  As  As38  1  0.24386253  0.76461965  0.23319334  1
  As  As39  1  0.25613747  0.26461965  0.73319334  1
  As  As40  1  0.24613232  0.39345968  0.25188387  1
  As  As41  1  0.25386768  0.89345968  0.75188387  1
  As  As42  1  0.74613232  0.10654032  0.24811613  1
  As  As43  1  0.74070837  0.01862700  0.97445846  1
  As  As44  1  0.24070837  0.48137300  0.52554154  1
  As  As45  1  0.25189783  0.85394033  0.48905367  1
  As  As46  1  0.74386253  0.73538035  0.26680666  1
  As  As47  1  0.24810217  0.35394033  0.98905367  1
  O  O48  1  0.91192683  0.16550047  0.56816708  1
  O  O49  1  0.92605118  0.47941602  0.41964352  1
  O  O50  1  0.26862544  0.26016366  0.06584824  1
  O  O51  1  0.25596675  0.22655278  0.21205595  1
  O  O52  1  0.73137456  0.73983634  0.93415176  1
  O  O53  1  0.61033072  0.36155959  0.13580258  1
  O  O54  1  0.56935332  0.18408887  0.55455805  1
  O  O55  1  0.25091461  0.66172179  0.30838152  1
  O  O56  1  0.41017715  0.22789501  0.67222465  1
  O  O57  1  0.57394882  0.97941602  0.91964352  1
  O  O58  1  0.24403325  0.72655278  0.71205595  1
  O  O59  1  0.26454372  0.02112512  0.52030363  1
  O  O60  1  0.23137456  0.76016366  0.56584824  1
  O  O61  1  0.44702257  0.91585509  0.78388828  1
  O  O62  1  0.39373835  0.40288577  0.31596181  1
  O  O63  1  0.91033368  0.98499247  0.92066233  1
  O  O64  1  0.27338814  0.81230659  0.01073690  1
  O  O65  1  0.78377458  0.00612884  0.32193175  1
  O  O66  1  0.95758801  0.37993235  0.12311293  1
  O  O67  1  0.24908539  0.16172179  0.80838152  1
  O  O68  1  0.24746455  0.57005014  0.44580758  1
  O  O69  1  0.76862544  0.23983634  0.43415176  1
  O  O70  1  0.73545628  0.97887488  0.47969637  1
  O  O71  1  0.89373835  0.09711423  0.18403819  1
  O  O72  1  0.77338814  0.68769341  0.48926310  1
  O  O73  1  0.45758801  0.12006765  0.37688707  1
  O  O74  1  0.29970869  0.42642749  0.76644345  1
  O  O75  1  0.88966928  0.86155959  0.63580258  1
  O  O76  1  0.42322298  0.75224002  0.18686751  1
  O  O77  1  0.79970869  0.07357251  0.73355655  1
  O  O78  1  0.91017715  0.27210499  0.82777535  1
  O  O79  1  0.08807317  0.83449953  0.43183292  1
  O  O80  1  0.22661186  0.31230659  0.51073690  1
  O  O81  1  0.28377458  0.49387116  0.17806825  1
  O  O82  1  0.38966928  0.63844041  0.86419742  1
  O  O83  1  0.07677702  0.25224002  0.68686751  1
  O  O84  1  0.05297743  0.41585509  0.28388828  1
  O  O85  1  0.54241199  0.87993235  0.62311293  1
  O  O86  1  0.70029131  0.57357251  0.23355655  1
  O  O87  1  0.41192683  0.33449953  0.93183292  1
  O  O88  1  0.58807317  0.66550047  0.06816708  1
  O  O89  1  0.10626165  0.90288577  0.81596181  1
  O  O90  1  0.58982285  0.77210499  0.32777535  1
  O  O91  1  0.08966632  0.01500753  0.07933767  1
  O  O92  1  0.75596675  0.27344722  0.28794405  1
  O  O93  1  0.11033072  0.13844041  0.36419742  1
  O  O94  1  0.74403325  0.77344722  0.78794405  1
  O  O95  1  0.25253545  0.07005014  0.94580758  1
  O  O96  1  0.60626165  0.59711423  0.68403819  1
  O  O97  1  0.93064668  0.68408887  0.05455805  1
  O  O98  1  0.71622542  0.50612884  0.82193175  1
  O  O99  1  0.20029131  0.92642749  0.26644345  1
  O  O100  1  0.74746455  0.92994986  0.05419242  1
  O  O101  1  0.94702257  0.58414491  0.71611172  1
  O  O102  1  0.57677702  0.24775998  0.81313249  1
  O  O103  1  0.21622542  0.99387116  0.67806825  1
  O  O104  1  0.43064668  0.81591113  0.44544195  1
  O  O105  1  0.41033368  0.51500753  0.57933767  1
  O  O106  1  0.04241199  0.62006765  0.87688707  1
  O  O107  1  0.92322298  0.74775998  0.31313249  1
  O  O108  1  0.08982285  0.72789501  0.17222465  1
  O  O109  1  0.06935332  0.31591113  0.94544195  1
  O  O110  1  0.75253545  0.42994986  0.55419242  1
  O  O111  1  0.58966632  0.48499247  0.42066233  1
  O  O112  1  0.74908539  0.33827821  0.69161848  1
  O  O113  1  0.23545628  0.52112512  0.02030363  1
  O  O114  1  0.55297743  0.08414491  0.21611172  1
  O  O115  1  0.75091461  0.83827821  0.19161848  1
  O  O116  1  0.07394882  0.52058398  0.58035648  1
  O  O117  1  0.42605118  0.02058398  0.08035648  1
  O  O118  1  0.72661186  0.18769341  0.98926310  1
  O  O119  1  0.76454372  0.47887488  0.97969637  1
