# generated using pymatgen
data_NaSiBO4
_symmetry_space_group_name_H-M   'P 1'
_cell_length_a   8.13476083
_cell_length_b   8.13476072
_cell_length_c   7.78641949
_cell_angle_alpha   90.00000000
_cell_angle_beta   90.00000000
_cell_angle_gamma   120.00000042
_symmetry_Int_Tables_number   1
_chemical_formula_structural   NaSiBO4
_chemical_formula_sum   'Na6 Si6 B6 O24'
_cell_volume   446.22921359
_cell_formula_units_Z   6
loop_
 _symmetry_equiv_pos_site_id
 _symmetry_equiv_pos_as_xyz
  1  'x, y, z'
loop_
 _atom_site_type_symbol
 _atom_site_label
 _atom_site_symmetry_multiplicity
 _atom_site_fract_x
 _atom_site_fract_y
 _atom_site_fract_z
 _atom_site_occupancy
  Na  Na0  1  0.00000000  0.00000000  0.23134590  1
  Na  Na1  1  0.33333300  0.66666700  0.26849974  1
  Na  Na2  1  0.66666700  0.33333300  0.76849974  1
  Na  Na3  1  0.66666700  0.33333300  0.20105338  1
  Na  Na4  1  0.00000000  0.00000000  0.73134590  1
  Na  Na5  1  0.33333300  0.66666700  0.70105338  1
  Si  Si6  1  0.68221464  0.66058363  0.51254152  1
  Si  Si7  1  0.33941637  0.02163101  0.51254152  1
  Si  Si8  1  0.31778536  0.33941637  0.01254152  1
  Si  Si9  1  0.02163101  0.68221464  0.01254152  1
  Si  Si10  1  0.97836899  0.31778536  0.51254152  1
  Si  Si11  1  0.66058363  0.97836899  0.01254152  1
  B  B12  1  0.01786463  0.67977048  0.39245921  1
  B  B13  1  0.33809415  0.01786463  0.89245921  1
  B  B14  1  0.32022952  0.33809415  0.39245921  1
  B  B15  1  0.67977048  0.66190585  0.89245921  1
  B  B16  1  0.98213537  0.32022952  0.89245921  1
  B  B17  1  0.66190585  0.98213537  0.39245921  1
  O  O18  1  0.18947593  0.39861186  0.89273666  1
  O  O19  1  0.09089515  0.72313602  0.21279222  1
  O  O20  1  0.13991583  0.25423539  0.48961204  1
  O  O21  1  0.36775913  0.09089515  0.71279222  1
  O  O22  1  0.88568044  0.13991583  0.98961204  1
  O  O23  1  0.63224087  0.90910485  0.21279222  1
  O  O24  1  0.39861186  0.20913593  0.39273666  1
  O  O25  1  0.11431956  0.86008417  0.48961204  1
  O  O26  1  0.47207007  0.92860915  0.46669201  1
  O  O27  1  0.20913593  0.81052407  0.89273666  1
  O  O28  1  0.07139085  0.54346092  0.46669201  1
  O  O29  1  0.25423539  0.11431956  0.98961204  1
  O  O30  1  0.92860915  0.45653908  0.96669201  1
  O  O31  1  0.90910485  0.27686398  0.71279222  1
  O  O32  1  0.27686398  0.36775913  0.21279222  1
  O  O33  1  0.86008417  0.74576461  0.98961204  1
  O  O34  1  0.45653908  0.52792993  0.46669201  1
  O  O35  1  0.54346092  0.47207007  0.96669201  1
  O  O36  1  0.81052407  0.60138814  0.39273666  1
  O  O37  1  0.72313602  0.63224087  0.71279222  1
  O  O38  1  0.74576461  0.88568044  0.48961204  1
  O  O39  1  0.52792993  0.07139085  0.96669201  1
  O  O40  1  0.60138814  0.79086407  0.89273666  1
  O  O41  1  0.79086407  0.18947593  0.39273666  1
