# generated using pymatgen
data_Sr10Al2ClF25
_symmetry_space_group_name_H-M   'P 1'
_cell_length_a   11.74658359
_cell_length_b   11.74658310
_cell_length_c   11.74658337
_cell_angle_alpha   59.99999920
_cell_angle_beta   60.00000060
_cell_angle_gamma   60.00000066
_symmetry_Int_Tables_number   1
_chemical_formula_structural   Sr10Al2ClF25
_chemical_formula_sum   'Sr20 Al4 Cl2 F50'
_cell_volume   1146.09257221
_cell_formula_units_Z   2
loop_
 _symmetry_equiv_pos_site_id
 _symmetry_equiv_pos_as_xyz
  1  'x, y, z'
loop_
 _atom_site_type_symbol
 _atom_site_label
 _atom_site_symmetry_multiplicity
 _atom_site_fract_x
 _atom_site_fract_y
 _atom_site_fract_z
 _atom_site_occupancy
  Sr  Sr0  1  0.71048913  0.36853260  0.71048913  1
  Sr  Sr1  1  0.31922638  0.31922638  0.93077362  1
  Sr  Sr2  1  0.68077362  0.06922638  0.06922638  1
  Sr  Sr3  1  0.06922638  0.06922638  0.68077362  1
  Sr  Sr4  1  0.28951087  0.28951087  0.63146740  1
  Sr  Sr5  1  0.28951087  0.28951087  0.28951087  1
  Sr  Sr6  1  0.63146740  0.28951087  0.28951087  1
  Sr  Sr7  1  0.68077362  0.06922638  0.68077362  1
  Sr  Sr8  1  0.28951087  0.63146740  0.28951087  1
  Sr  Sr9  1  0.06922638  0.68077362  0.68077362  1
  Sr  Sr10  1  0.93077362  0.31922638  0.31922638  1
  Sr  Sr11  1  0.31922638  0.93077362  0.31922638  1
  Sr  Sr12  1  0.31922638  0.93077362  0.93077362  1
  Sr  Sr13  1  0.68077362  0.68077362  0.06922638  1
  Sr  Sr14  1  0.06922638  0.68077362  0.06922638  1
  Sr  Sr15  1  0.71048913  0.71048913  0.71048913  1
  Sr  Sr16  1  0.36853260  0.71048913  0.71048913  1
  Sr  Sr17  1  0.71048913  0.71048913  0.36853260  1
  Sr  Sr18  1  0.93077362  0.93077362  0.31922638  1
  Sr  Sr19  1  0.93077362  0.31922638  0.93077362  1
  Al  Al20  1  0.50000000  0.00000000  0.50000000  1
  Al  Al21  1  0.50000000  0.50000000  0.50000000  1
  Al  Al22  1  0.50000000  0.50000000  0.00000000  1
  Al  Al23  1  0.00000000  0.50000000  0.50000000  1
  Cl  Cl24  1  0.12500000  0.12500000  0.12500000  1
  Cl  Cl25  1  0.87500000  0.87500000  0.87500000  1
  F  F26  1  0.53756945  0.53756945  0.10689835  1
  F  F27  1  0.14278325  0.14278325  0.40048620  1
  F  F28  1  0.53756945  0.10689835  0.53756945  1
  F  F29  1  0.46243055  0.46243055  0.89310165  1
  F  F30  1  0.59951380  0.85721675  0.18605270  1
  F  F31  1  0.10689835  0.53756945  0.53756945  1
  F  F32  1  0.46243055  0.89310165  0.68203726  1
  F  F33  1  0.53756945  0.31796274  0.53756945  1
  F  F34  1  0.37500000  0.37500000  0.37500000  1
  F  F35  1  0.40048620  0.14278325  0.14278325  1
  F  F36  1  0.14278325  0.81394730  0.14278325  1
  F  F37  1  0.31796274  0.53756945  0.53756945  1
  F  F38  1  0.46243055  0.68203726  0.89310165  1
  F  F39  1  0.59951380  0.85721675  0.85721675  1
  F  F40  1  0.85721675  0.18605270  0.59951380  1
  F  F41  1  0.85721675  0.18605270  0.85721675  1
  F  F42  1  0.89310165  0.68203726  0.46243055  1
  F  F43  1  0.18605270  0.59951380  0.85721675  1
  F  F44  1  0.46243055  0.89310165  0.46243055  1
  F  F45  1  0.68203726  0.46243055  0.46243055  1
  F  F46  1  0.81394730  0.14278325  0.14278325  1
  F  F47  1  0.62500000  0.62500000  0.62500000  1
  F  F48  1  0.68203726  0.46243055  0.89310165  1
  F  F49  1  0.53756945  0.53756945  0.31796274  1
  F  F50  1  0.53756945  0.10689835  0.31796274  1
  F  F51  1  0.81394730  0.14278325  0.40048620  1
  F  F52  1  0.10689835  0.31796274  0.53756945  1
  F  F53  1  0.14278325  0.14278325  0.81394730  1
  F  F54  1  0.81394730  0.40048620  0.14278325  1
  F  F55  1  0.85721675  0.59951380  0.18605270  1
  F  F56  1  0.89310165  0.46243055  0.46243055  1
  F  F57  1  0.40048620  0.14278325  0.81394730  1
  F  F58  1  0.85721675  0.59951380  0.85721675  1
  F  F59  1  0.14278325  0.81394730  0.40048620  1
  F  F60  1  0.85721675  0.85721675  0.18605270  1
  F  F61  1  0.31796274  0.10689835  0.53756945  1
  F  F62  1  0.89310165  0.46243055  0.68203726  1
  F  F63  1  0.46243055  0.46243055  0.68203726  1
  F  F64  1  0.14278325  0.40048620  0.14278325  1
  F  F65  1  0.18605270  0.85721675  0.59951380  1
  F  F66  1  0.85721675  0.85721675  0.59951380  1
  F  F67  1  0.53756945  0.31796274  0.10689835  1
  F  F68  1  0.59951380  0.18605270  0.85721675  1
  F  F69  1  0.46243055  0.68203726  0.46243055  1
  F  F70  1  0.68203726  0.89310165  0.46243055  1
  F  F71  1  0.31796274  0.53756945  0.10689835  1
  F  F72  1  0.40048620  0.81394730  0.14278325  1
  F  F73  1  0.18605270  0.85721675  0.85721675  1
  F  F74  1  0.10689835  0.53756945  0.31796274  1
  F  F75  1  0.14278325  0.40048620  0.81394730  1
