# generated using pymatgen
data_Yb3B5O12
_symmetry_space_group_name_H-M   'P 1'
_cell_length_a   4.79943160
_cell_length_b   12.59407979
_cell_length_c   12.72959821
_cell_angle_alpha   90.00000000
_cell_angle_beta   90.00000000
_cell_angle_gamma   90.00000000
_symmetry_Int_Tables_number   1
_chemical_formula_structural   Yb3B5O12
_chemical_formula_sum   'Yb12 B20 O48'
_cell_volume   769.43323814
_cell_formula_units_Z   4
loop_
 _symmetry_equiv_pos_site_id
 _symmetry_equiv_pos_as_xyz
  1  'x, y, z'
loop_
 _atom_site_type_symbol
 _atom_site_label
 _atom_site_symmetry_multiplicity
 _atom_site_fract_x
 _atom_site_fract_y
 _atom_site_fract_z
 _atom_site_occupancy
  Yb  Yb0  1  0.00373432  0.30504966  0.63804846  1
  Yb  Yb1  1  0.99626568  0.69495034  0.36195154  1
  Yb  Yb2  1  0.00373432  0.30504966  0.36195154  1
  Yb  Yb3  1  0.00373432  0.19495034  0.86195154  1
  Yb  Yb4  1  0.00000000  0.00000000  0.36101241  1
  Yb  Yb5  1  0.99626568  0.80504966  0.13804846  1
  Yb  Yb6  1  0.00000000  0.50000000  0.86101241  1
  Yb  Yb7  1  0.99626568  0.80504966  0.86195154  1
  Yb  Yb8  1  0.00000000  0.50000000  0.13898759  1
  Yb  Yb9  1  0.99626568  0.69495034  0.63804846  1
  Yb  Yb10  1  0.00373432  0.19495034  0.13804846  1
  Yb  Yb11  1  0.00000000  0.00000000  0.63898759  1
  B  B12  1  0.54733131  0.62431321  0.50000000  1
  B  B13  1  0.50000000  0.50000000  0.33816700  1
  B  B14  1  0.45266869  0.12431321  0.00000000  1
  B  B15  1  0.52822878  0.15189776  0.29692608  1
  B  B16  1  0.50000000  0.00000000  0.83816700  1
  B  B17  1  0.54733131  0.87568679  0.00000000  1
  B  B18  1  0.52822878  0.34810224  0.79692608  1
  B  B19  1  0.47504315  0.34109652  0.00000000  1
  B  B20  1  0.47177122  0.65189776  0.79692608  1
  B  B21  1  0.47504315  0.15890348  0.50000000  1
  B  B22  1  0.50000000  0.00000000  0.16183300  1
  B  B23  1  0.52495685  0.65890348  0.00000000  1
  B  B24  1  0.52822878  0.15189776  0.70307392  1
  B  B25  1  0.52822878  0.34810224  0.20307392  1
  B  B26  1  0.45266869  0.37568679  0.50000000  1
  B  B27  1  0.52495685  0.84109652  0.50000000  1
  B  B28  1  0.47177122  0.84810224  0.29692608  1
  B  B29  1  0.50000000  0.50000000  0.66183300  1
  B  B30  1  0.47177122  0.65189776  0.20307392  1
  B  B31  1  0.47177122  0.84810224  0.70307392  1
  O  O32  1  0.34871476  0.75000000  0.25000000  1
  O  O33  1  0.33181101  0.42981300  0.59411441  1
  O  O34  1  0.66818899  0.92981300  0.90588559  1
  O  O35  1  0.33181101  0.42981300  0.40588559  1
  O  O36  1  0.32480771  0.23596760  0.00000000  1
  O  O37  1  0.67562209  0.43343325  0.73192783  1
  O  O38  1  0.32437791  0.93343325  0.23192783  1
  O  O39  1  0.66818899  0.57018700  0.40588559  1
  O  O40  1  0.76764610  0.84998699  0.70325942  1
  O  O41  1  0.67519229  0.76403240  0.00000000  1
  O  O42  1  0.74498320  0.57963862  0.00000000  1
  O  O43  1  0.25613197  0.63751539  0.50000000  1
  O  O44  1  0.74386803  0.36248461  0.50000000  1
  O  O45  1  0.65506358  0.14534063  0.59494130  1
  O  O46  1  0.67562209  0.06656675  0.76807217  1
  O  O47  1  0.23235390  0.15001301  0.70325942  1
  O  O48  1  0.76764610  0.84998699  0.29674058  1
  O  O49  1  0.76764610  0.65001301  0.20325942  1
  O  O50  1  0.65506358  0.35465937  0.09494130  1
  O  O51  1  0.32480771  0.26403240  0.50000000  1
  O  O52  1  0.74386803  0.13751539  0.00000000  1
  O  O53  1  0.25613197  0.86248461  0.00000000  1
  O  O54  1  0.34493642  0.85465937  0.40505870  1
  O  O55  1  0.74498320  0.92036138  0.50000000  1
  O  O56  1  0.25501680  0.42036138  0.00000000  1
  O  O57  1  0.67519229  0.73596760  0.50000000  1
  O  O58  1  0.34493642  0.64534063  0.90505870  1
  O  O59  1  0.66818899  0.92981300  0.09411441  1
  O  O60  1  0.34493642  0.64534063  0.09494130  1
  O  O61  1  0.66818899  0.57018700  0.59411441  1
  O  O62  1  0.65128524  0.25000000  0.25000000  1
  O  O63  1  0.23235390  0.15001301  0.29674058  1
  O  O64  1  0.32437791  0.56656675  0.73192783  1
  O  O65  1  0.33181101  0.07018700  0.90588559  1
  O  O66  1  0.23235390  0.34998699  0.20325942  1
  O  O67  1  0.67562209  0.43343325  0.26807217  1
  O  O68  1  0.33181101  0.07018700  0.09411441  1
  O  O69  1  0.34871476  0.75000000  0.75000000  1
  O  O70  1  0.32437791  0.56656675  0.26807217  1
  O  O71  1  0.65506358  0.14534063  0.40505870  1
  O  O72  1  0.25501680  0.07963862  0.50000000  1
  O  O73  1  0.76764610  0.65001301  0.79674058  1
  O  O74  1  0.23235390  0.34998699  0.79674058  1
  O  O75  1  0.67562209  0.06656675  0.23192783  1
  O  O76  1  0.32437791  0.93343325  0.76807217  1
  O  O77  1  0.34493642  0.85465937  0.59494130  1
  O  O78  1  0.65128524  0.25000000  0.75000000  1
  O  O79  1  0.65506358  0.35465937  0.90505870  1
