# generated using pymatgen
data_SiO2
_symmetry_space_group_name_H-M   'P 1'
_cell_length_a   5.20295765
_cell_length_b   13.24241838
_cell_length_c   13.24241791
_cell_angle_alpha   100.67034194
_cell_angle_beta   90.00000000
_cell_angle_gamma   90.00000000
_symmetry_Int_Tables_number   1
_chemical_formula_structural   SiO2
_chemical_formula_sum   'Si16 O32'
_cell_volume   896.62267480
_cell_formula_units_Z   16
loop_
 _symmetry_equiv_pos_site_id
 _symmetry_equiv_pos_as_xyz
  1  'x, y, z'
loop_
 _atom_site_type_symbol
 _atom_site_label
 _atom_site_symmetry_multiplicity
 _atom_site_fract_x
 _atom_site_fract_y
 _atom_site_fract_z
 _atom_site_occupancy
  Si  Si0  1  0.46678092  0.73985454  0.89217795  1
  Si  Si1  1  0.46678092  0.26014546  0.10782205  1
  Si  Si2  1  0.46865982  0.49933392  0.12243242  1
  Si  Si3  1  0.97151342  0.37117941  0.81349164  1
  Si  Si4  1  0.02848658  0.81349164  0.37117941  1
  Si  Si5  1  0.96557565  0.78686209  0.02895719  1
  Si  Si6  1  0.03442435  0.02895719  0.78686209  1
  Si  Si7  1  0.03442435  0.97104281  0.21313791  1
  Si  Si8  1  0.97151342  0.62882059  0.18650836  1
  Si  Si9  1  0.02848658  0.18650836  0.62882059  1
  Si  Si10  1  0.46865982  0.50066608  0.87756758  1
  Si  Si11  1  0.53134018  0.12243242  0.49933392  1
  Si  Si12  1  0.53134018  0.87756758  0.50066608  1
  Si  Si13  1  0.53321908  0.10782205  0.26014546  1
  Si  Si14  1  0.53321908  0.89217795  0.73985454  1
  Si  Si15  1  0.96557565  0.21313791  0.97104281  1
  O  O16  1  0.50000000  0.20908111  0.20908111  1
  O  O17  1  0.81832316  0.06080618  0.23154751  1
  O  O18  1  0.00000000  0.70093304  0.29906696  1
  O  O19  1  0.19474670  0.54216379  0.17056658  1
  O  O20  1  0.18167684  0.23154751  0.06080618  1
  O  O21  1  0.31948034  0.97892266  0.78362543  1
  O  O22  1  0.50370304  0.61668678  0.85686510  1
  O  O23  1  0.00000000  0.10051139  0.89948861  1
  O  O24  1  1.00390366  0.90291207  0.30260533  1
  O  O25  1  0.68051966  0.78362543  0.97892266  1
  O  O26  1  0.18167684  0.76845249  0.93919382  1
  O  O27  1  0.00000000  0.29906696  0.70093304  1
  O  O28  1  0.69480146  0.57208039  0.18024760  1
  O  O29  1  0.50000000  0.79091889  0.79091889  1
  O  O30  1  0.81832316  0.93919382  0.76845249  1
  O  O31  1  0.19474670  0.45783621  0.82943342  1
  O  O32  1  0.50370304  0.38331322  0.14313490  1
  O  O33  1  0.31948034  0.02107734  0.21637457  1
  O  O34  1  0.30519854  0.81975240  0.42791961  1
  O  O35  1  -0.00390366  0.69739467  0.09708793  1
  O  O36  1  0.68051966  0.21637457  0.02107734  1
  O  O37  1  1.00390366  0.09708793  0.69739467  1
  O  O38  1  -0.00390366  0.30260533  0.90291207  1
  O  O39  1  0.47762049  0.50000000  0.00000000  1
  O  O40  1  0.49629696  0.85686510  0.61668678  1
  O  O41  1  0.80525330  0.17056658  0.54216379  1
  O  O42  1  0.30519854  0.18024760  0.57208039  1
  O  O43  1  0.00000000  0.89948861  0.10051139  1
  O  O44  1  0.49629696  0.14313490  0.38331322  1
  O  O45  1  0.69480146  0.42791961  0.81975240  1
  O  O46  1  0.80525330  0.82943342  0.45783621  1
  O  O47  1  0.52237951  0.00000000  0.50000000  1
