# generated using pymatgen
data_KLaPdO3
_symmetry_space_group_name_H-M   'P 1'
_cell_length_a   4.00962291
_cell_length_b   7.05747417
_cell_length_c   7.62269975
_cell_angle_alpha   104.79756698
_cell_angle_beta   90.00000000
_cell_angle_gamma   106.50322170
_symmetry_Int_Tables_number   1
_chemical_formula_structural   KLaPdO3
_chemical_formula_sum   'K2 La2 Pd2 O6'
_cell_volume   199.34675111
_cell_formula_units_Z   2
loop_
 _symmetry_equiv_pos_site_id
 _symmetry_equiv_pos_as_xyz
  1  'x, y, z'
loop_
 _atom_site_type_symbol
 _atom_site_label
 _atom_site_symmetry_multiplicity
 _atom_site_fract_x
 _atom_site_fract_y
 _atom_site_fract_z
 _atom_site_occupancy
  K  K0  1  0.64286397  0.28572794  0.56552680  1
  K  K1  1  0.35713603  0.71427206  0.43447320  1
  La  La2  1  0.34962792  0.69925585  0.91699827  1
  La  La3  1  0.65037208  0.30074415  0.08300173  1
  Pd  Pd4  1  0.99307470  0.98614941  0.22848850  1
  Pd  Pd5  1  0.00692530  0.01385059  0.77151150  1
  O  O6  1  0.15135686  0.30271372  0.28357051  1
  O  O7  1  0.16771042  0.33542083  0.86416861  1
  O  O8  1  0.49293237  0.98586474  0.18942399  1
  O  O9  1  0.83228958  0.66457917  0.13583139  1
  O  O10  1  0.50706763  0.01413526  0.81057601  1
  O  O11  1  0.84864314  0.69728628  0.71642949  1
