# generated using pymatgen
data_W10O29
_symmetry_space_group_name_H-M   'P 1'
_cell_length_a   3.85744189
_cell_length_b   12.27990126
_cell_length_c   23.96328873
_cell_angle_alpha   94.68257042
_cell_angle_beta   90.00000000
_cell_angle_gamma   90.00000000
_symmetry_Int_Tables_number   1
_chemical_formula_structural   W10O29
_chemical_formula_sum   'W20 O58'
_cell_volume   1131.32843733
_cell_formula_units_Z   2
loop_
 _symmetry_equiv_pos_site_id
 _symmetry_equiv_pos_as_xyz
  1  'x, y, z'
loop_
 _atom_site_type_symbol
 _atom_site_label
 _atom_site_symmetry_multiplicity
 _atom_site_fract_x
 _atom_site_fract_y
 _atom_site_fract_z
 _atom_site_occupancy
  W  W0  1  0.50000000  0.73516557  0.48721656  1
  W  W1  1  0.50000000  0.26483443  0.51278344  1
  W  W2  1  0.50000000  0.02627843  0.43231440  1
  W  W3  1  0.50000000  0.97372157  0.56768560  1
  W  W4  1  0.50000000  0.32533455  0.38224407  1
  W  W5  1  0.50000000  0.67466545  0.61775593  1
  W  W6  1  0.50000000  0.61415499  0.33099501  1
  W  W7  1  0.50000000  0.38584501  0.66900499  1
  W  W8  1  0.50000000  0.90107536  0.27775184  1
  W  W9  1  0.50000000  0.09892464  0.72224816  1
  W  W10  1  0.50000000  0.19235050  0.22866632  1
  W  W11  1  0.50000000  0.80764950  0.77133368  1
  W  W12  1  0.50000000  0.48330551  0.17798781  1
  W  W13  1  0.50000000  0.51669449  0.82201219  1
  W  W14  1  0.50000000  0.77241195  0.12530153  1
  W  W15  1  0.50000000  0.22758805  0.87469847  1
  W  W16  1  0.50000000  0.06395284  0.07582918  1
  W  W17  1  0.50000000  0.93604716  0.92417082  1
  W  W18  1  0.50000000  0.35527214  0.02617784  1
  W  W19  1  0.50000000  0.64472786  0.97382216  1
  O  O20  1  0.50000000  0.10063748  0.51828290  1
  O  O21  1  0.50000000  0.89936252  0.48171710  1
  O  O22  1  0.50000000  0.38016841  0.46750884  1
  O  O23  1  0.50000000  0.61983159  0.53249116  1
  O  O24  1  0.50000000  0.67486923  0.41483080  1
  O  O25  1  0.50000000  0.32513077  0.58516920  1
  O  O26  1  0.50000000  0.96511610  0.36079241  1
  O  O27  1  0.50000000  0.03488390  0.63920759  1
  O  O28  1  0.50000000  0.18790973  0.42694239  1
  O  O29  1  0.50000000  0.81209027  0.57305761  1
  O  O30  1  0.50000000  0.46785510  0.36248156  1
  O  O31  1  0.50000000  0.53214490  0.63751844  1
  O  O32  1  0.50000000  0.75925995  0.31084618  1
  O  O33  1  0.50000000  0.24074005  0.68915382  1
  O  O34  1  0.50000000  0.25065541  0.31268663  1
  O  O35  1  0.50000000  0.74934459  0.68731337  1
  O  O36  1  0.50000000  0.54938180  0.25898468  1
  O  O37  1  0.50000000  0.45061820  0.74101532  1
  O  O38  1  0.50000000  0.83618749  0.20582401  1
  O  O39  1  0.50000000  0.16381251  0.79417599  1
  O  O40  1  0.00000000  0.64467112  0.97352929  1
  O  O41  1  0.00000000  0.35532888  0.02647071  1
  O  O42  1  0.00000000  0.93561820  0.92222963  1
  O  O43  1  0.00000000  0.06438180  0.07777037  1
  O  O44  1  0.00000000  0.22709376  0.87142934  1
  O  O45  1  0.00000000  0.77290624  0.12857066  1
  O  O46  1  0.00000000  0.51707710  0.81820354  1
  O  O47  1  0.00000000  0.48292290  0.18179646  1
  O  O48  1  0.00000000  0.80671640  0.76624242  1
  O  O49  1  0.00000000  0.19328360  0.23375758  1
  O  O50  1  0.00000000  0.09761210  0.71687021  1
  O  O51  1  0.00000000  0.90238790  0.28312979  1
  O  O52  1  0.00000000  0.38605359  0.66311093  1
  O  O53  1  0.00000000  0.61394641  0.33688907  1
  O  O54  1  0.00000000  0.67710493  0.61262169  1
  O  O55  1  0.00000000  0.32289507  0.38737831  1
  O  O56  1  0.00000000  0.97128148  0.56343999  1
  O  O57  1  0.00000000  0.02871852  0.43656001  1
  O  O58  1  0.00000000  0.25414425  0.51217178  1
  O  O59  1  0.00000000  0.74585575  0.48782822  1
  O  O60  1  0.50000000  0.00000000  0.00000000  1
  O  O61  1  0.50000000  0.50000000  0.00000000  1
  O  O62  1  0.50000000  0.79057665  0.94828359  1
  O  O63  1  0.50000000  0.20942335  0.05171641  1
  O  O64  1  0.50000000  0.29080060  0.94894604  1
  O  O65  1  0.50000000  0.70919940  0.05105396  1
  O  O66  1  0.50000000  0.58175245  0.89567399  1
  O  O67  1  0.50000000  0.41824755  0.10432601  1
  O  O68  1  0.50000000  0.86989480  0.84462594  1
  O  O69  1  0.50000000  0.13010520  0.15537406  1
  O  O70  1  0.50000000  0.08113441  0.89680484  1
  O  O71  1  0.50000000  0.91886559  0.10319516  1
  O  O72  1  0.50000000  0.37238384  0.84538460  1
  O  O73  1  0.50000000  0.62761616  0.15461540  1
  O  O74  1  0.50000000  0.66115050  0.79106371  1
  O  O75  1  0.50000000  0.33884950  0.20893629  1
  O  O76  1  0.50000000  0.95302504  0.74229462  1
  O  O77  1  0.50000000  0.04697496  0.25770538  1
