# generated using pymatgen
data_CuAg5As3O11
_symmetry_space_group_name_H-M   'P 1'
_cell_length_a   5.99100339
_cell_length_b   9.14941141
_cell_length_c   10.54016176
_cell_angle_alpha   96.92508093
_cell_angle_beta   91.22713971
_cell_angle_gamma   92.10421369
_symmetry_Int_Tables_number   1
_chemical_formula_structural   CuAg5As3O11
_chemical_formula_sum   'Cu2 Ag10 As6 O22'
_cell_volume   572.95392579
_cell_formula_units_Z   2
loop_
 _symmetry_equiv_pos_site_id
 _symmetry_equiv_pos_as_xyz
  1  'x, y, z'
loop_
 _atom_site_type_symbol
 _atom_site_label
 _atom_site_symmetry_multiplicity
 _atom_site_fract_x
 _atom_site_fract_y
 _atom_site_fract_z
 _atom_site_occupancy
  Cu  Cu0  1  0.50000000  0.00000000  0.50000000  1
  Cu  Cu1  1  0.00000000  0.00000000  0.00000000  1
  Ag  Ag2  1  0.79168249  0.32330552  0.65557115  1
  Ag  Ag3  1  0.71126955  0.34111209  0.31045109  1
  Ag  Ag4  1  0.45024016  0.99094128  0.83171934  1
  Ag  Ag5  1  0.74572205  0.67621018  0.16837342  1
  Ag  Ag6  1  0.74687704  0.64562689  0.86985479  1
  Ag  Ag7  1  0.20831751  0.67669448  0.34442885  1
  Ag  Ag8  1  0.28873045  0.65888791  0.68954891  1
  Ag  Ag9  1  0.54975984  0.00905872  0.16828066  1
  Ag  Ag10  1  0.25312296  0.35437311  0.13014521  1
  Ag  Ag11  1  0.25427795  0.32378982  0.83162658  1
  As  As12  1  0.72829784  0.68264061  0.52276534  1
  As  As13  1  0.25509437  0.70461121  0.01215938  1
  As  As14  1  0.95452093  0.96585670  0.69073326  1
  As  As15  1  0.04547907  0.03414330  0.30926674  1
  As  As16  1  0.27170216  0.31735939  0.47723466  1
  As  As17  1  0.74490563  0.29538879  0.98784062  1
  O  O18  1  0.35163960  0.61000574  0.13300100  1
  O  O19  1  0.50474738  0.21034412  0.48113469  1
  O  O20  1  0.32199360  0.43101542  0.36386776  1
  O  O21  1  0.49525262  0.78965588  0.51886531  1
  O  O22  1  0.96619089  0.18822677  0.92901670  1
  O  O23  1  0.71776345  0.05449497  0.65066029  1
  O  O24  1  0.28223655  0.94550503  0.34933971  1
  O  O25  1  0.03118036  0.19715183  0.42363752  1
  O  O26  1  0.47376669  0.82126300  0.97554704  1
  O  O27  1  0.03380911  0.81177323  0.07098330  1
  O  O28  1  0.15844497  0.58843259  0.87993018  1
  O  O29  1  0.52623331  0.17873700  0.02445296  1
  O  O30  1  0.82001480  0.60025266  0.38123048  1
  O  O31  1  0.20449063  0.05449646  0.67501585  1
  O  O32  1  0.96881964  0.80284817  0.57636248  1
  O  O33  1  0.84155503  0.41156741  0.12006982  1
  O  O34  1  0.92444459  0.89153332  0.83293824  1
  O  O35  1  0.17998520  0.39974734  0.61876952  1
  O  O36  1  0.64836040  0.38999426  0.86699900  1
  O  O37  1  0.67800640  0.56898458  0.63613224  1
  O  O38  1  0.79550937  0.94550354  0.32498415  1
  O  O39  1  0.07555541  0.10846668  0.16706176  1
