# generated using pymatgen
data_Ba3In2Br2O5
_symmetry_space_group_name_H-M   'P 1'
_cell_length_a   4.32673562
_cell_length_b   4.32673541
_cell_length_c   13.60382176
_cell_angle_alpha   99.15039208
_cell_angle_beta   99.15039162
_cell_angle_gamma   90.00000087
_symmetry_Int_Tables_number   1
_chemical_formula_structural   Ba3In2Br2O5
_chemical_formula_sum   'Ba3 In2 Br2 O5'
_cell_volume   248.14817650
_cell_formula_units_Z   1
loop_
 _symmetry_equiv_pos_site_id
 _symmetry_equiv_pos_as_xyz
  1  'x, y, z'
loop_
 _atom_site_type_symbol
 _atom_site_label
 _atom_site_symmetry_multiplicity
 _atom_site_fract_x
 _atom_site_fract_y
 _atom_site_fract_z
 _atom_site_occupancy
  Ba  Ba0  1  0.65429509  0.65429509  0.30859018  1
  Ba  Ba1  1  0.34570491  0.34570491  0.69140982  1
  Ba  Ba2  1  0.50000000  0.50000000  0.00000000  1
  In  In3  1  0.92091561  0.92091561  0.84183122  1
  In  In4  1  0.07908439  0.07908439  0.15816878  1
  Br  Br5  1  0.79555210  0.79555210  0.59110420  1
  Br  Br6  1  0.20444790  0.20444790  0.40889580  1
  O  O7  1  0.91004341  0.41004341  0.82008682  1
  O  O8  1  0.58995659  0.08995659  0.17991318  1
  O  O9  1  0.41004341  0.91004341  0.82008682  1
  O  O10  1  0.08995659  0.58995659  0.17991318  1
  O  O11  1  0.00000000  0.00000000  0.00000000  1
