# generated using pymatgen
data_Na3Ce2C4O12F
_symmetry_space_group_name_H-M   'P 1'
_cell_length_a   5.11927724
_cell_length_b   5.11927763
_cell_length_c   22.92006801
_cell_angle_alpha   90.00000000
_cell_angle_beta   90.00000000
_cell_angle_gamma   119.99999748
_symmetry_Int_Tables_number   1
_chemical_formula_structural   Na3Ce2C4O12F
_chemical_formula_sum   'Na6 Ce4 C8 O24 F2'
_cell_volume   520.19224996
_cell_formula_units_Z   2
loop_
 _symmetry_equiv_pos_site_id
 _symmetry_equiv_pos_as_xyz
  1  'x, y, z'
loop_
 _atom_site_type_symbol
 _atom_site_label
 _atom_site_symmetry_multiplicity
 _atom_site_fract_x
 _atom_site_fract_y
 _atom_site_fract_z
 _atom_site_occupancy
  Na  Na0  1  0.66666700  0.33333300  0.97720337  1
  Na  Na1  1  0.66666700  0.33333300  0.52279663  1
  Na  Na2  1  0.33333300  0.66666700  0.47720337  1
  Na  Na3  1  0.33333300  0.66666700  0.02279663  1
  Na  Na4  1  -0.00000000  0.00000000  0.75000000  1
  Na  Na5  1  -0.00000000  0.00000000  0.25000000  1
  Ce  Ce6  1  0.33333300  0.66666700  0.64537884  1
  Ce  Ce7  1  0.66666700  0.33333300  0.35462116  1
  Ce  Ce8  1  0.33333300  0.66666700  0.85462116  1
  Ce  Ce9  1  0.66666700  0.33333300  0.14537884  1
  C  C10  1  -0.00000000  0.00000000  0.43671511  1
  C  C11  1  0.66666700  0.33333300  0.82316426  1
  C  C12  1  -0.00000000  0.00000000  0.93671511  1
  C  C13  1  -0.00000000  0.00000000  0.06328489  1
  C  C14  1  0.33333300  0.66666700  0.32316426  1
  C  C15  1  0.33333300  0.66666700  0.17683574  1
  C  C16  1  -0.00000000  0.00000000  0.56328489  1
  C  C17  1  0.66666700  0.33333300  0.67683574  1
  O  O18  1  0.29305214  0.14652607  0.06242446  1
  O  O19  1  0.81253323  0.18746677  0.67547689  1
  O  O20  1  0.14652607  0.85347393  0.93757554  1
  O  O21  1  0.70694786  0.85347393  0.56242446  1
  O  O22  1  0.85347393  0.70694786  0.06242446  1
  O  O23  1  0.14652607  0.29305214  0.56242446  1
  O  O24  1  0.62506647  0.81253323  0.32452311  1
  O  O25  1  0.18746677  0.81253323  0.17547689  1
  O  O26  1  0.14652607  0.85347393  0.56242446  1
  O  O27  1  0.37493353  0.18746677  0.82452311  1
  O  O28  1  0.81253323  0.62506647  0.82452311  1
  O  O29  1  0.85347393  0.14652607  0.06242446  1
  O  O30  1  0.18746677  0.37493353  0.32452311  1
  O  O31  1  0.18746677  0.81253323  0.32452311  1
  O  O32  1  0.37493353  0.18746677  0.67547689  1
  O  O33  1  0.18746677  0.37493353  0.17547689  1
  O  O34  1  0.81253323  0.62506647  0.67547689  1
  O  O35  1  0.85347393  0.70694786  0.43757554  1
  O  O36  1  0.29305214  0.14652607  0.43757554  1
  O  O37  1  0.85347393  0.14652607  0.43757554  1
  O  O38  1  0.70694786  0.85347393  0.93757554  1
  O  O39  1  0.14652607  0.29305214  0.93757554  1
  O  O40  1  0.62506647  0.81253323  0.17547689  1
  O  O41  1  0.81253323  0.18746677  0.82452311  1
  F  F42  1  0.66666700  0.33333300  0.25000000  1
  F  F43  1  0.33333300  0.66666700  0.75000000  1
