# generated using pymatgen
data_Cu(HO)2
_symmetry_space_group_name_H-M   'P 1'
_cell_length_a   5.38008157
_cell_length_b   5.59092030
_cell_length_c   5.40087773
_cell_angle_alpha   90.00000000
_cell_angle_beta   90.00000000
_cell_angle_gamma   31.42414050
_symmetry_Int_Tables_number   1
_chemical_formula_structural   Cu(HO)2
_chemical_formula_sum   'Cu2 H4 O4'
_cell_volume   84.69970351
_cell_formula_units_Z   2
loop_
 _symmetry_equiv_pos_site_id
 _symmetry_equiv_pos_as_xyz
  1  'x, y, z'
loop_
 _atom_site_type_symbol
 _atom_site_label
 _atom_site_symmetry_multiplicity
 _atom_site_fract_x
 _atom_site_fract_y
 _atom_site_fract_z
 _atom_site_occupancy
  Cu  Cu0  1  0.18920370  0.17732871  0.23126186  1
  Cu  Cu1  1  0.81079630  0.82267129  0.73126186  1
  H  H2  1  0.50133126  0.54029931  0.41907913  1
  H  H3  1  0.49866874  0.45970069  0.91907913  1
  H  H4  1  0.97681720  0.79716099  0.22246985  1
  H  H5  1  0.02318280  0.20283901  0.72246985  1
  O  O6  1  0.52680149  0.58462257  0.24865383  1
  O  O7  1  0.47319851  0.41537743  0.74865383  1
  O  O8  1  0.84019437  0.76440346  0.29706932  1
  O  O9  1  0.15980563  0.23559654  0.79706932  1
