# generated using pymatgen
data_TaP4S4Cl5
_symmetry_space_group_name_H-M   'P 1'
_cell_length_a   7.08650868
_cell_length_b   9.68681330
_cell_length_c   14.11726450
_cell_angle_alpha   101.23870533
_cell_angle_beta   93.10578531
_cell_angle_gamma   111.87100337
_symmetry_Int_Tables_number   1
_chemical_formula_structural   TaP4S4Cl5
_chemical_formula_sum   'Ta2 P8 S8 Cl10'
_cell_volume   873.49454212
_cell_formula_units_Z   2
loop_
 _symmetry_equiv_pos_site_id
 _symmetry_equiv_pos_as_xyz
  1  'x, y, z'
loop_
 _atom_site_type_symbol
 _atom_site_label
 _atom_site_symmetry_multiplicity
 _atom_site_fract_x
 _atom_site_fract_y
 _atom_site_fract_z
 _atom_site_occupancy
  Ta  Ta0  1  0.60525284  0.73684624  0.83191339  1
  Ta  Ta1  1  0.39474716  0.26315376  0.16808661  1
  P  P2  1  0.26669170  0.38475247  0.57524887  1
  P  P3  1  0.73330830  0.61524753  0.42475113  1
  P  P4  1  0.32140539  0.43990805  0.74872702  1
  P  P5  1  0.67859461  0.56009195  0.25127298  1
  P  P6  1  0.84375253  0.91683641  0.33548759  1
  P  P7  1  0.11375492  0.82345905  0.32968005  1
  P  P8  1  0.88624508  0.17654095  0.67031995  1
  P  P9  1  0.15624747  0.08316359  0.66451241  1
  S  S10  1  0.70215156  0.82835341  0.45195185  1
  S  S11  1  0.37890804  0.25269553  0.77762560  1
  S  S12  1  0.02166526  0.37571643  0.78512660  1
  S  S13  1  0.62109196  0.74730447  0.22237440  1
  S  S14  1  0.29784844  0.17164659  0.54804815  1
  S  S15  1  0.94185453  0.29322005  0.55537480  1
  S  S16  1  0.05814547  0.70677995  0.44462520  1
  S  S17  1  0.97833474  0.62428357  0.21487340  1
  Cl  Cl18  1  0.26499654  0.37784106  0.06544271  1
  Cl  Cl19  1  0.15918047  0.01702561  0.11562261  1
  Cl  Cl20  1  0.63512571  0.25225984  0.06375377  1
  Cl  Cl21  1  0.73500346  0.62215894  0.93455729  1
  Cl  Cl22  1  0.40595452  0.78100704  0.71110343  1
  Cl  Cl23  1  0.59404548  0.21899296  0.28889657  1
  Cl  Cl24  1  0.78093182  0.65767904  0.70985863  1
  Cl  Cl25  1  0.21906818  0.34232096  0.29014137  1
  Cl  Cl26  1  0.36487429  0.74774016  0.93624623  1
  Cl  Cl27  1  0.84081953  0.98297439  0.88437739  1
