# generated using pymatgen
data_Na2Zn(SiO3)2
_symmetry_space_group_name_H-M   'P 1'
_cell_length_a   5.74035683
_cell_length_b   5.74035692
_cell_length_c   10.04454840
_cell_angle_alpha   91.41035109
_cell_angle_beta   91.41035113
_cell_angle_gamma   114.09523599
_symmetry_Int_Tables_number   1
_chemical_formula_structural   Na2Zn(SiO3)2
_chemical_formula_sum   'Na4 Zn2 Si4 O12'
_cell_volume   301.83610550
_cell_formula_units_Z   2
loop_
 _symmetry_equiv_pos_site_id
 _symmetry_equiv_pos_as_xyz
  1  'x, y, z'
loop_
 _atom_site_type_symbol
 _atom_site_label
 _atom_site_symmetry_multiplicity
 _atom_site_fract_x
 _atom_site_fract_y
 _atom_site_fract_z
 _atom_site_occupancy
  Na  Na0  1  0.38464721  0.74332265  0.10366787  1
  Na  Na1  1  0.25667735  0.61535279  0.39633213  1
  Na  Na2  1  0.61535279  0.25667735  0.89633213  1
  Na  Na3  1  0.74332265  0.38464721  0.60366787  1
  Zn  Zn4  1  0.72356561  0.27643439  0.25000000  1
  Zn  Zn5  1  0.27643439  0.72356561  0.75000000  1
  Si  Si6  1  0.16034545  0.14180342  0.13787926  1
  Si  Si7  1  0.83965455  0.85819658  0.86212074  1
  Si  Si8  1  0.14180342  0.16034545  0.63787926  1
  Si  Si9  1  0.85819658  0.83965455  0.36212074  1
  O  O10  1  0.08480002  0.91519998  0.25000000  1
  O  O11  1  0.76901451  0.53758546  0.39088595  1
  O  O12  1  0.62943253  0.91739401  0.31138603  1
  O  O13  1  0.23098549  0.46241454  0.60911405  1
  O  O14  1  0.53758546  0.76901451  0.89088595  1
  O  O15  1  0.46241454  0.23098549  0.10911405  1
  O  O16  1  0.37056747  0.08260599  0.68861397  1
  O  O17  1  0.00000000  0.00000000  0.50000000  1
  O  O18  1  0.91739401  0.62943253  0.81138603  1
  O  O19  1  0.08260599  0.37056747  0.18861397  1
  O  O20  1  0.91519998  0.08480002  0.75000000  1
  O  O21  1  0.00000000  0.00000000  0.00000000  1
