# generated using pymatgen
data_Na3LiBe2F8
_symmetry_space_group_name_H-M   'P 1'
_cell_length_a   6.59964190
_cell_length_b   9.84780253
_cell_length_c   10.05712902
_cell_angle_alpha   90.00000000
_cell_angle_beta   93.76230610
_cell_angle_gamma   90.00000000
_symmetry_Int_Tables_number   1
_chemical_formula_structural   Na3LiBe2F8
_chemical_formula_sum   'Na12 Li4 Be8 F32'
_cell_volume   652.22395560
_cell_formula_units_Z   4
loop_
 _symmetry_equiv_pos_site_id
 _symmetry_equiv_pos_as_xyz
  1  'x, y, z'
loop_
 _atom_site_type_symbol
 _atom_site_label
 _atom_site_symmetry_multiplicity
 _atom_site_fract_x
 _atom_site_fract_y
 _atom_site_fract_z
 _atom_site_occupancy
  Na  Na0  1  0.64474006  0.78303992  0.36720342  1
  Na  Na1  1  0.83322453  0.07700260  0.60784719  1
  Na  Na2  1  0.35525994  0.28303992  0.13279658  1
  Na  Na3  1  0.16677547  0.57700260  0.89215281  1
  Na  Na4  1  0.35605150  0.61006580  0.57917752  1
  Na  Na5  1  0.64394850  0.38993420  0.42082248  1
  Na  Na6  1  0.35525994  0.21696008  0.63279658  1
  Na  Na7  1  0.64474006  0.71696008  0.86720342  1
  Na  Na8  1  0.83322453  0.42299740  0.10784719  1
  Na  Na9  1  0.35605150  0.88993420  0.07917752  1
  Na  Na10  1  0.16677547  0.92299740  0.39215281  1
  Na  Na11  1  0.64394850  0.11006580  0.92082248  1
  Li  Li12  1  0.04779256  0.87604354  0.80085033  1
  Li  Li13  1  0.04779256  0.62395646  0.30085033  1
  Li  Li14  1  0.95220744  0.12395646  0.19914967  1
  Li  Li15  1  0.95220744  0.37604354  0.69914967  1
  Be  Be16  1  0.62285024  0.41790407  0.83815936  1
  Be  Be17  1  0.62285024  0.08209593  0.33815936  1
  Be  Be18  1  0.10316767  0.16247963  0.91102262  1
  Be  Be19  1  0.37714976  0.91790407  0.66184064  1
  Be  Be20  1  0.89683233  0.83752037  0.08897738  1
  Be  Be21  1  0.37714976  0.58209593  0.16184064  1
  Be  Be22  1  0.89683233  0.66247963  0.58897738  1
  Be  Be23  1  0.10316767  0.33752037  0.41102262  1
  F  F24  1  0.85344109  0.77770501  0.69044449  1
  F  F25  1  0.32433609  0.81636305  0.77674425  1
  F  F26  1  0.30433726  0.09614878  0.97058078  1
  F  F27  1  0.30433726  0.40385122  0.47058078  1
  F  F28  1  0.95800907  0.05565472  0.83836728  1
  F  F29  1  0.00963413  0.72077819  0.46698477  1
  F  F30  1  0.53926956  0.47789466  0.21499955  1
  F  F31  1  0.53926956  0.02210534  0.71499955  1
  F  F32  1  0.69566274  0.90385122  0.02941922  1
  F  F33  1  0.00963413  0.77922181  0.96698477  1
  F  F34  1  0.67566391  0.31636305  0.72325575  1
  F  F35  1  0.99036587  0.22077819  0.03301523  1
  F  F36  1  0.32433609  0.68363695  0.27674425  1
  F  F37  1  0.95800907  0.44434528  0.33836728  1
  F  F38  1  0.82306722  0.49842887  0.88325001  1
  F  F39  1  0.82306722  0.00157113  0.38325001  1
  F  F40  1  0.56146749  0.33507326  0.96029994  1
  F  F41  1  0.67566391  0.18363695  0.22325575  1
  F  F42  1  0.43853251  0.83507326  0.53970006  1
  F  F43  1  0.04199093  0.55565472  0.66163272  1
  F  F44  1  0.56146749  0.16492674  0.46029994  1
  F  F45  1  0.46073044  0.52210534  0.78500045  1
  F  F46  1  0.17693278  0.99842887  0.61674999  1
  F  F47  1  0.17693278  0.50157113  0.11674999  1
  F  F48  1  0.43853251  0.66492674  0.03970006  1
  F  F49  1  0.85344109  0.72229499  0.19044449  1
  F  F50  1  0.46073044  0.97789466  0.28500045  1
  F  F51  1  0.69566274  0.59614878  0.52941922  1
  F  F52  1  0.14655891  0.22229499  0.30955551  1
  F  F53  1  0.14655891  0.27770501  0.80955551  1
  F  F54  1  0.99036587  0.27922181  0.53301523  1
  F  F55  1  0.04199093  0.94434528  0.16163272  1
