# generated using pymatgen
data_SiO2
_symmetry_space_group_name_H-M   'P 1'
_cell_length_a   5.10301971
_cell_length_b   14.02523998
_cell_length_c   17.65539026
_cell_angle_alpha   105.77856228
_cell_angle_beta   90.00000000
_cell_angle_gamma   90.00000000
_symmetry_Int_Tables_number   1
_chemical_formula_structural   SiO2
_chemical_formula_sum   'Si24 O48'
_cell_volume   1216.00200555
_cell_formula_units_Z   24
loop_
 _symmetry_equiv_pos_site_id
 _symmetry_equiv_pos_as_xyz
  1  'x, y, z'
loop_
 _atom_site_type_symbol
 _atom_site_label
 _atom_site_symmetry_multiplicity
 _atom_site_fract_x
 _atom_site_fract_y
 _atom_site_fract_z
 _atom_site_occupancy
  Si  Si0  1  0.63745350  0.01144152  0.30527066  1
  Si  Si1  1  0.80092875  0.81059511  0.84547834  1
  Si  Si2  1  0.71804624  0.69295597  0.16498896  1
  Si  Si3  1  0.90819302  0.49079712  0.69708552  1
  Si  Si4  1  0.30092875  0.18940489  0.65452166  1
  Si  Si5  1  0.13745350  0.98855848  0.19472934  1
  Si  Si6  1  0.28195376  0.30704403  0.83501104  1
  Si  Si7  1  0.09180698  0.50920288  0.30291448  1
  Si  Si8  1  0.68378321  0.26930568  0.08966245  1
  Si  Si9  1  0.18378321  0.73069432  0.41033755  1
  Si  Si10  1  0.59180698  0.49079712  0.19708552  1
  Si  Si11  1  0.81621679  0.26930568  0.58966245  1
  Si  Si12  1  0.78195376  0.69295597  0.66498896  1
  Si  Si13  1  0.29447353  0.76742426  0.59496689  1
  Si  Si14  1  0.31621679  0.73069432  0.91033755  1
  Si  Si15  1  0.69907125  0.81059511  0.34547834  1
  Si  Si16  1  0.70552647  0.23257574  0.40503311  1
  Si  Si17  1  0.20552647  0.76742426  0.09496689  1
  Si  Si18  1  0.79447353  0.23257574  0.90503311  1
  Si  Si19  1  0.86254650  0.01144152  0.80527066  1
  Si  Si20  1  0.21804624  0.30704403  0.33501104  1
  Si  Si21  1  0.36254650  0.98855848  0.69472934  1
  Si  Si22  1  0.19907125  0.18940489  0.15452166  1
  Si  Si23  1  0.40819302  0.50920288  0.80291448  1
  O  O24  1  0.14376258  0.61391341  0.36719287  1
  O  O25  1  0.01716462  0.75124333  0.63481655  1
  O  O26  1  0.21684528  0.25249648  0.74304772  1
  O  O27  1  0.08955582  0.77605934  0.86572358  1
  O  O28  1  0.70964153  0.50516476  0.77174517  1
  O  O29  1  0.69934811  0.92831017  0.35151552  1
  O  O30  1  0.20964153  0.49483524  0.72825483  1
  O  O31  1  0.61478430  0.11786621  0.37037732  1
  O  O32  1  0.73574406  0.25755014  0.49933663  1
  O  O33  1  0.98226740  0.69427527  0.11396124  1
  O  O34  1  0.85623742  0.38608659  0.63280713  1
  O  O35  1  0.86532547  0.57837144  0.65413153  1
  O  O36  1  0.01773260  0.30572473  0.88603876  1
  O  O37  1  0.29035847  0.49483524  0.22825483  1
  O  O38  1  0.63467453  0.57837144  0.15413153  1
  O  O39  1  0.26425594  0.74244986  0.50066337  1
  O  O40  1  0.98283538  0.24875667  0.36518345  1
  O  O41  1  0.63765673  0.01573536  0.74143640  1
  O  O42  1  0.79035847  0.50516476  0.27174517  1
  O  O43  1  0.41044418  0.77605934  0.36572358  1
  O  O44  1  0.19934811  0.07168983  0.14848448  1
  O  O45  1  0.78315472  0.74750352  0.25695228  1
  O  O46  1  0.51773260  0.69427527  0.61396124  1
  O  O47  1  0.80065189  0.92831017  0.85151552  1
  O  O48  1  0.48226740  0.30572473  0.38603876  1
  O  O49  1  0.91044418  0.22394066  0.13427642  1
  O  O50  1  0.76425594  0.25755014  0.99933663  1
  O  O51  1  0.13765673  0.98426464  0.75856360  1
  O  O52  1  0.35623742  0.61391341  0.86719287  1
  O  O53  1  0.58803651  0.79066683  0.90797670  1
  O  O54  1  0.36532547  0.42162856  0.84586847  1
  O  O55  1  0.51716462  0.24875667  0.86518345  1
  O  O56  1  0.11478430  0.88213379  0.12962268  1
  O  O57  1  0.91196349  0.79066683  0.40797670  1
  O  O58  1  0.48283538  0.75124333  0.13481655  1
  O  O59  1  0.38521570  0.88213379  0.62962268  1
  O  O60  1  0.30065189  0.07168983  0.64848448  1
  O  O61  1  0.58955582  0.22394066  0.63427642  1
  O  O62  1  0.88521570  0.11786621  0.87037732  1
  O  O63  1  0.13467453  0.42162856  0.34586847  1
  O  O64  1  0.08803651  0.20933317  0.59202330  1
  O  O65  1  0.71684528  0.74750352  0.75695228  1
  O  O66  1  0.23574406  0.74244986  0.00066337  1
  O  O67  1  0.41196349  0.20933317  0.09202330  1
  O  O68  1  0.64376258  0.38608659  0.13280713  1
  O  O69  1  0.28315472  0.25249648  0.24304772  1
  O  O70  1  0.36234327  0.98426464  0.25856360  1
  O  O71  1  0.86234327  0.01573536  0.24143640  1
