# generated using pymatgen
data_Na2CrF4
_symmetry_space_group_name_H-M   'P 1'
_cell_length_a   3.39901661
_cell_length_b   5.74554871
_cell_length_c   9.70230545
_cell_angle_alpha   90.00000000
_cell_angle_beta   90.00000000
_cell_angle_gamma   92.04124709
_symmetry_Int_Tables_number   1
_chemical_formula_structural   Na2CrF4
_chemical_formula_sum   'Na4 Cr2 F8'
_cell_volume   189.35817932
_cell_formula_units_Z   2
loop_
 _symmetry_equiv_pos_site_id
 _symmetry_equiv_pos_as_xyz
  1  'x, y, z'
loop_
 _atom_site_type_symbol
 _atom_site_label
 _atom_site_symmetry_multiplicity
 _atom_site_fract_x
 _atom_site_fract_y
 _atom_site_fract_z
 _atom_site_occupancy
  Na  Na0  1  0.48399979  0.57756621  0.81892146  1
  Na  Na1  1  0.51600021  0.92243379  0.31892146  1
  Na  Na2  1  0.48399979  0.07756621  0.68107854  1
  Na  Na3  1  0.51600021  0.42243379  0.18107854  1
  Cr  Cr4  1  0.00000000  0.00000000  0.00000000  1
  Cr  Cr5  1  0.00000000  0.50000000  0.50000000  1
  F  F6  1  0.99036487  0.36961900  0.69412829  1
  F  F7  1  0.00963513  0.13038100  0.19412829  1
  F  F8  1  0.00963513  0.63038100  0.30587171  1
  F  F9  1  0.99036487  0.86961900  0.80587171  1
  F  F10  1  0.43330356  0.24140324  0.95269261  1
  F  F11  1  0.56669644  0.25859676  0.45269261  1
  F  F12  1  0.43330356  0.74140324  0.54730739  1
  F  F13  1  0.56669644  0.75859676  0.04730739  1
