# generated using pymatgen
data_K5NaS4(ClO6)2
_symmetry_space_group_name_H-M   'P 1'
_cell_length_a   8.74199239
_cell_length_b   8.74199239
_cell_length_c   11.77411497
_cell_angle_alpha   90.00000000
_cell_angle_beta   90.00000000
_cell_angle_gamma   90.00000000
_symmetry_Int_Tables_number   1
_chemical_formula_structural   K5NaS4(ClO6)2
_chemical_formula_sum   'K10 Na2 S8 Cl4 O24'
_cell_volume   899.80648825
_cell_formula_units_Z   2
loop_
 _symmetry_equiv_pos_site_id
 _symmetry_equiv_pos_as_xyz
  1  'x, y, z'
loop_
 _atom_site_type_symbol
 _atom_site_label
 _atom_site_symmetry_multiplicity
 _atom_site_fract_x
 _atom_site_fract_y
 _atom_site_fract_z
 _atom_site_occupancy
  K  K0  1  -0.00000000  0.00000000  0.50000000  1
  K  K1  1  0.50000000  0.50000000  0.00000000  1
  K  K2  1  0.81158114  0.68841886  0.25000000  1
  K  K3  1  0.18841886  0.31158114  0.25000000  1
  K  K4  1  0.68841886  0.18841886  0.75000000  1
  K  K5  1  0.31158114  0.81158114  0.75000000  1
  K  K6  1  0.68841886  0.18841886  0.25000000  1
  K  K7  1  0.31158114  0.81158114  0.25000000  1
  K  K8  1  0.18841886  0.31158114  0.75000000  1
  K  K9  1  0.81158114  0.68841886  0.75000000  1
  Na  Na10  1  0.50000000  0.50000000  0.50000000  1
  Na  Na11  1  -0.00000000  0.00000000  0.00000000  1
  S  S12  1  0.57458346  0.90026436  0.50000000  1
  S  S13  1  0.42541654  0.09973564  0.50000000  1
  S  S14  1  0.92541654  0.40026436  0.00000000  1
  S  S15  1  0.07458346  0.59973564  0.00000000  1
  S  S16  1  0.90026436  0.42541654  0.50000000  1
  S  S17  1  0.09973564  0.57458346  0.50000000  1
  S  S18  1  0.40026436  0.07458346  0.00000000  1
  S  S19  1  0.59973564  0.92541654  0.00000000  1
  Cl  Cl20  1  0.50000000  0.50000000  0.26404007  1
  Cl  Cl21  1  -0.00000000  0.00000000  0.76404007  1
  Cl  Cl22  1  0.50000000  0.50000000  0.73595993  1
  Cl  Cl23  1  -0.00000000  0.00000000  0.23595993  1
  O  O24  1  0.77147793  0.53313520  0.50000000  1
  O  O25  1  0.22852207  0.46686480  0.50000000  1
  O  O26  1  0.72852207  0.03313520  0.00000000  1
  O  O27  1  0.27147793  0.96686480  0.00000000  1
  O  O28  1  0.53313520  0.22852207  0.50000000  1
  O  O29  1  0.46686480  0.77147793  0.50000000  1
  O  O30  1  0.03313520  0.27147793  0.00000000  1
  O  O31  1  0.96686480  0.72852207  0.00000000  1
  O  O32  1  0.08451705  0.66579405  0.39534075  1
  O  O33  1  0.91548295  0.33420595  0.39534075  1
  O  O34  1  0.41548295  0.16579405  0.89534075  1
  O  O35  1  0.58451705  0.83420595  0.89534075  1
  O  O36  1  0.66579405  0.91548295  0.39534075  1
  O  O37  1  0.33420595  0.08451705  0.39534075  1
  O  O38  1  0.16579405  0.58451705  0.89534075  1
  O  O39  1  0.83420595  0.41548295  0.89534075  1
  O  O40  1  0.91548295  0.33420595  0.60465925  1
  O  O41  1  0.08451705  0.66579405  0.60465925  1
  O  O42  1  0.58451705  0.83420595  0.10465925  1
  O  O43  1  0.41548295  0.16579405  0.10465925  1
  O  O44  1  0.33420595  0.08451705  0.60465925  1
  O  O45  1  0.66579405  0.91548295  0.60465925  1
  O  O46  1  0.83420595  0.41548295  0.10465925  1
  O  O47  1  0.16579405  0.58451705  0.10465925  1
