# generated using pymatgen
data_KBi6ClO9
_symmetry_space_group_name_H-M   'P 1'
_cell_length_a   15.09720780
_cell_length_b   15.09720766
_cell_length_c   15.09720738
_cell_angle_alpha   109.47122026
_cell_angle_beta   109.47122007
_cell_angle_gamma   109.47121937
_symmetry_Int_Tables_number   1
_chemical_formula_structural   KBi6ClO9
_chemical_formula_sum   'K8 Bi48 Cl8 O72'
_cell_volume   2648.91488213
_cell_formula_units_Z   8
loop_
 _symmetry_equiv_pos_site_id
 _symmetry_equiv_pos_as_xyz
  1  'x, y, z'
loop_
 _atom_site_type_symbol
 _atom_site_label
 _atom_site_symmetry_multiplicity
 _atom_site_fract_x
 _atom_site_fract_y
 _atom_site_fract_z
 _atom_site_occupancy
  K  K0  1  0.00000000  0.00000000  0.50000000  1
  K  K1  1  0.50000000  0.50000000  0.00000000  1
  K  K2  1  0.50000000  0.50000000  0.50000000  1
  K  K3  1  0.00000000  0.00000000  0.00000000  1
  K  K4  1  0.50000000  0.00000000  0.50000000  1
  K  K5  1  0.00000000  0.50000000  0.50000000  1
  K  K6  1  0.50000000  0.00000000  0.00000000  1
  K  K7  1  0.00000000  0.50000000  0.00000000  1
  Bi  Bi8  1  0.23605890  0.48605890  0.75000000  1
  Bi  Bi9  1  0.76394110  0.75000000  0.51394110  1
  Bi  Bi10  1  0.75000000  0.51394110  0.76394110  1
  Bi  Bi11  1  0.48605890  0.23605890  0.25000000  1
  Bi  Bi12  1  0.51907252  0.26907252  0.53814504  1
  Bi  Bi13  1  0.51907252  0.75000000  0.98092748  1
  Bi  Bi14  1  0.51394110  0.25000000  0.76394110  1
  Bi  Bi15  1  0.01907252  0.03814504  0.76907252  1
  Bi  Bi16  1  0.75000000  0.23605890  0.48605890  1
  Bi  Bi17  1  0.73605890  0.98605890  0.75000000  1
  Bi  Bi18  1  0.98092748  0.96185496  0.23092748  1
  Bi  Bi19  1  0.98092748  0.51907252  0.75000000  1
  Bi  Bi20  1  0.75000000  0.98092748  0.51907252  1
  Bi  Bi21  1  0.75000000  0.01394110  0.26394110  1
  Bi  Bi22  1  0.73092748  0.46185496  0.48092748  1
  Bi  Bi23  1  0.73092748  0.76907252  0.25000000  1
  Bi  Bi24  1  0.76907252  0.01907252  0.03814504  1
  Bi  Bi25  1  0.23092748  0.75000000  0.26907252  1
  Bi  Bi26  1  0.26394110  0.75000000  0.01394110  1
  Bi  Bi27  1  0.23092748  0.98092748  0.96185496  1
  Bi  Bi28  1  0.23605890  0.25000000  0.48605890  1
  Bi  Bi29  1  0.25000000  0.73092748  0.76907252  1
  Bi  Bi30  1  0.25000000  0.01907252  0.48092748  1
  Bi  Bi31  1  0.48092748  0.25000000  0.01907252  1
  Bi  Bi32  1  0.53814504  0.51907252  0.26907252  1
  Bi  Bi33  1  0.26394110  0.01394110  0.25000000  1
  Bi  Bi34  1  0.46185496  0.48092748  0.73092748  1
  Bi  Bi35  1  0.75000000  0.26907252  0.23092748  1
  Bi  Bi36  1  0.76394110  0.51394110  0.25000000  1
  Bi  Bi37  1  0.51394110  0.76394110  0.75000000  1
  Bi  Bi38  1  0.01907252  0.48092748  0.25000000  1
  Bi  Bi39  1  0.25000000  0.26394110  0.01394110  1
  Bi  Bi40  1  0.75000000  0.73605890  0.98605890  1
  Bi  Bi41  1  0.96185496  0.23092748  0.98092748  1
  Bi  Bi42  1  0.03814504  0.76907252  0.01907252  1
  Bi  Bi43  1  0.25000000  0.98605890  0.73605890  1
  Bi  Bi44  1  0.26907252  0.53814504  0.51907252  1
  Bi  Bi45  1  0.98605890  0.75000000  0.73605890  1
  Bi  Bi46  1  0.01394110  0.26394110  0.75000000  1
  Bi  Bi47  1  0.25000000  0.76394110  0.51394110  1
  Bi  Bi48  1  0.76907252  0.25000000  0.73092748  1
  Bi  Bi49  1  0.98605890  0.73605890  0.25000000  1
  Bi  Bi50  1  0.26907252  0.23092748  0.75000000  1
  Bi  Bi51  1  0.48092748  0.73092748  0.46185496  1
  Bi  Bi52  1  0.25000000  0.48605890  0.23605890  1
  Bi  Bi53  1  0.73605890  0.25000000  0.98605890  1
  Bi  Bi54  1  0.48605890  0.75000000  0.23605890  1
  Bi  Bi55  1  0.01394110  0.25000000  0.26394110  1
  Cl  Cl56  1  0.25000000  0.25000000  0.25000000  1
  Cl  Cl57  1  0.25000000  0.50000000  0.00000000  1
  Cl  Cl58  1  0.50000000  0.00000000  0.25000000  1
  Cl  Cl59  1  0.75000000  0.75000000  0.75000000  1
  Cl  Cl60  1  0.00000000  0.75000000  0.50000000  1
  Cl  Cl61  1  0.50000000  0.00000000  0.75000000  1
  Cl  Cl62  1  0.00000000  0.25000000  0.50000000  1
  Cl  Cl63  1  0.75000000  0.50000000  0.00000000  1
  O  O64  1  0.14390460  0.89390460  0.78780920  1
  O  O65  1  0.64390460  0.28780920  0.39390460  1
  O  O66  1  0.34766487  0.28733805  0.93754825  1
  O  O67  1  0.21266195  0.15233513  0.56245175  1
  O  O68  1  0.93754825  0.08988337  0.65021020  1
  O  O69  1  0.08988337  0.93967317  0.15233513  1
  O  O70  1  0.84766487  0.91011663  0.06032683  1
  O  O71  1  0.58988337  0.65233513  0.43967317  1
  O  O72  1  0.06245175  0.65233513  0.71266195  1
  O  O73  1  0.39390460  0.64390460  0.28780920  1
  O  O74  1  0.65233513  0.71266195  0.06245175  1
  O  O75  1  0.91011663  0.06032683  0.84766487  1
  O  O76  1  0.15233513  0.56245175  0.21266195  1
  O  O77  1  0.28733805  0.84978980  0.93967317  1
  O  O78  1  0.60609540  0.35609540  0.71219080  1
  O  O79  1  0.78780920  0.14390460  0.89390460  1
  O  O80  1  0.78733805  0.43967317  0.34978980  1
  O  O81  1  0.15021020  0.58988337  0.43754825  1
  O  O82  1  0.43754825  0.15021020  0.58988337  1
  O  O83  1  0.34978980  0.78733805  0.43967317  1
  O  O84  1  0.15021020  0.06032683  0.71266195  1
  O  O85  1  0.06245175  0.91011663  0.34978980  1
  O  O86  1  0.15233513  0.08988337  0.93967317  1
  O  O87  1  0.65021020  0.93754825  0.08988337  1
  O  O88  1  0.43967317  0.34978980  0.78733805  1
  O  O89  1  0.43967317  0.58988337  0.65233513  1
  O  O90  1  0.84766487  0.43754825  0.78733805  1
  O  O91  1  0.06032683  0.71266195  0.15021020  1
  O  O92  1  0.71266195  0.06245175  0.65233513  1
  O  O93  1  0.64390460  0.85609540  0.25000000  1
  O  O94  1  0.65233513  0.43967317  0.58988337  1
  O  O95  1  0.93967317  0.15233513  0.08988337  1
  O  O96  1  0.35609540  0.71219080  0.60609540  1
  O  O97  1  0.71219080  0.60609540  0.35609540  1
  O  O98  1  0.93754825  0.34766487  0.28733805  1
  O  O99  1  0.10609540  0.39390460  0.25000000  1
  O  O100  1  0.65021020  0.21266195  0.56032683  1
  O  O101  1  0.28733805  0.93754825  0.34766487  1
  O  O102  1  0.93967317  0.28733805  0.84978980  1
  O  O103  1  0.56245175  0.21266195  0.15233513  1
  O  O104  1  0.43754825  0.78733805  0.84766487  1
  O  O105  1  0.71266195  0.15021020  0.06032683  1
  O  O106  1  0.41011663  0.34766487  0.56032683  1
  O  O107  1  0.25000000  0.64390460  0.85609540  1
  O  O108  1  0.84978980  0.41011663  0.56245175  1
  O  O109  1  0.34766487  0.56032683  0.41011663  1
  O  O110  1  0.56245175  0.84978980  0.41011663  1
  O  O111  1  0.25000000  0.10609540  0.39390460  1
  O  O112  1  0.28780920  0.39390460  0.64390460  1
  O  O113  1  0.56032683  0.65021020  0.21266195  1
  O  O114  1  0.21219080  0.85609540  0.10609540  1
  O  O115  1  0.89390460  0.60609540  0.75000000  1
  O  O116  1  0.89390460  0.78780920  0.14390460  1
  O  O117  1  0.56032683  0.41011663  0.34766487  1
  O  O118  1  0.60609540  0.75000000  0.89390460  1
  O  O119  1  0.91011663  0.34978980  0.06245175  1
  O  O120  1  0.10609540  0.21219080  0.85609540  1
  O  O121  1  0.35609540  0.14390460  0.75000000  1
  O  O122  1  0.39390460  0.25000000  0.10609540  1
  O  O123  1  0.75000000  0.35609540  0.14390460  1
  O  O124  1  0.34978980  0.06245175  0.91011663  1
  O  O125  1  0.84978980  0.93967317  0.28733805  1
  O  O126  1  0.08988337  0.65021020  0.93754825  1
  O  O127  1  0.41011663  0.56245175  0.84978980  1
  O  O128  1  0.78733805  0.84766487  0.43754825  1
  O  O129  1  0.21266195  0.56032683  0.65021020  1
  O  O130  1  0.75000000  0.89390460  0.60609540  1
  O  O131  1  0.58988337  0.43754825  0.15021020  1
  O  O132  1  0.14390460  0.75000000  0.35609540  1
  O  O133  1  0.06032683  0.84766487  0.91011663  1
  O  O134  1  0.85609540  0.25000000  0.64390460  1
  O  O135  1  0.85609540  0.10609540  0.21219080  1
