# generated using pymatgen
data_H6N2O
_symmetry_space_group_name_H-M   'P 1'
_cell_length_a   4.97087937
_cell_length_b   4.97087974
_cell_length_c   10.73742758
_cell_angle_alpha   90.00000000
_cell_angle_beta   90.00000000
_cell_angle_gamma   119.99999759
_symmetry_Int_Tables_number   1
_chemical_formula_structural   H6N2O
_chemical_formula_sum   'H18 N6 O3'
_cell_volume   229.77214080
_cell_formula_units_Z   3
loop_
 _symmetry_equiv_pos_site_id
 _symmetry_equiv_pos_as_xyz
  1  'x, y, z'
loop_
 _atom_site_type_symbol
 _atom_site_label
 _atom_site_symmetry_multiplicity
 _atom_site_fract_x
 _atom_site_fract_y
 _atom_site_fract_z
 _atom_site_occupancy
  H  H0  1  0.80489113  0.72152772  0.74705277  1
  H  H1  1  0.08349629  0.27849612  0.91960191  1
  H  H2  1  0.40648365  0.61125374  0.93307294  1
  H  H3  1  0.44098968  0.90788854  0.76663804  1
  H  H4  1  0.53313069  0.09228108  0.90016813  1
  H  H5  1  0.79502840  0.38871329  0.73360259  1
  H  H6  1  0.46689886  0.55901032  0.43330504  1
  H  H7  1  0.91663559  0.19510887  0.41371977  1
  H  H8  1  0.59368489  0.20497160  0.40026859  1
  H  H9  1  0.19499883  0.91650371  0.58626891  1
  H  H10  1  0.20477009  0.59351635  0.59973994  1
  H  H11  1  0.55914939  0.46686931  0.56683513  1
  H  H12  1  0.72150388  0.80500117  0.25293491  1
  H  H13  1  0.90771892  0.44085061  0.23350113  1
  H  H14  1  0.27847228  0.08336441  0.08038577  1
  H  H15  1  0.61128671  0.40631511  0.06693559  1
  H  H16  1  0.38874626  0.79522991  0.26640694  1
  H  H17  1  0.09211146  0.53310114  0.09997204  1
  N  N18  1  0.74890556  0.16545718  0.35060319  1
  N  N19  1  0.41655162  0.25109444  0.01726919  1
  N  N20  1  0.83454282  0.58344838  0.68393619  1
  N  N21  1  0.25118233  0.41650446  0.98273177  1
  N  N22  1  0.16532213  0.74881767  0.64939777  1
  N  N23  1  0.58349554  0.83467787  0.31606477  1
  O  O24  1  0.61015908  0.00011957  0.83338866  1
  O  O25  1  0.38996049  0.38984092  0.50005466  1
  O  O26  1  0.99988043  0.61003951  0.16672166  1
