# generated using pymatgen
data_SiO2
_symmetry_space_group_name_H-M   'P 1'
_cell_length_a   8.46793624
_cell_length_b   13.32336904
_cell_length_c   13.32336967
_cell_angle_alpha   66.38684493
_cell_angle_beta   71.47096790
_cell_angle_gamma   71.47097196
_symmetry_Int_Tables_number   1
_chemical_formula_structural   SiO2
_chemical_formula_sum   'Si24 O48'
_cell_volume   1274.12825271
_cell_formula_units_Z   24
loop_
 _symmetry_equiv_pos_site_id
 _symmetry_equiv_pos_as_xyz
  1  'x, y, z'
loop_
 _atom_site_type_symbol
 _atom_site_label
 _atom_site_symmetry_multiplicity
 _atom_site_fract_x
 _atom_site_fract_y
 _atom_site_fract_z
 _atom_site_occupancy
  Si  Si0  1  0.75337354  0.62566861  0.49457200  1
  Si  Si1  1  0.51111924  0.23184087  0.12320942  1
  Si  Si2  1  0.30615429  0.76209976  0.26209976  1
  Si  Si3  1  0.68388851  0.37955173  0.87955173  1
  Si  Si4  1  0.24662646  0.00542800  0.87433139  1
  Si  Si5  1  0.12638585  0.62566861  0.49457200  1
  Si  Si6  1  0.33035381  0.23790024  0.73790024  1
  Si  Si7  1  0.94299196  0.62044827  0.12044827  1
  Si  Si8  1  0.51111924  0.62320942  0.73184087  1
  Si  Si9  1  0.13383048  0.62320942  0.73184087  1
  Si  Si10  1  0.66964619  0.76209976  0.26209976  1
  Si  Si11  1  0.24662646  0.37433139  0.50542800  1
  Si  Si12  1  0.86616952  0.76815913  0.87679058  1
  Si  Si13  1  0.31611149  0.62044827  0.12044827  1
  Si  Si14  1  0.87361415  0.37433139  0.50542800  1
  Si  Si15  1  0.13383048  0.23184087  0.12320942  1
  Si  Si16  1  0.48888076  0.37679058  0.26815913  1
  Si  Si17  1  0.05700804  0.37955173  0.87955173  1
  Si  Si18  1  0.12638585  0.99457200  0.12566861  1
  Si  Si19  1  0.75337354  0.99457200  0.12566861  1
  Si  Si20  1  0.69384571  0.23790024  0.73790024  1
  Si  Si21  1  0.48888076  0.76815913  0.87679058  1
  Si  Si22  1  0.86616952  0.37679058  0.26815913  1
  Si  Si23  1  0.87361415  0.00542800  0.87433139  1
  O  O24  1  0.76924253  0.28335152  0.60327877  1
  O  O25  1  0.23075747  0.71664848  0.39672123  1
  O  O26  1  0.50000000  0.28116021  0.21883979  1
  O  O27  1  0.09255856  0.64270185  0.61376379  1
  O  O28  1  0.51363619  0.73636381  0.23636381  1
  O  O29  1  0.14857706  0.60142294  0.10142294  1
  O  O30  1  0.88795746  0.50052092  0.17977448  1
  O  O31  1  0.34412717  0.10327877  0.78335152  1
  O  O32  1  0.67226373  0.36510285  0.29036969  1
  O  O33  1  0.34902420  0.35729815  0.38623621  1
  O  O34  1  0.11204254  0.49947908  0.82022552  1
  O  O35  1  0.67226373  0.79036969  0.86510285  1
  O  O36  1  0.94511887  0.64509304  0.46466922  1
  O  O37  1  0.34412717  0.28335152  0.60327877  1
  O  O38  1  0.34902420  0.88623621  0.85729815  1
  O  O39  1  0.94511887  0.96466922  0.14509304  1
  O  O40  1  0.76924253  0.10327877  0.78335152  1
  O  O41  1  0.50000000  0.71883979  0.78116021  1
  O  O42  1  0.00000000  0.28116021  0.21883979  1
  O  O43  1  0.90744144  0.88623621  0.85729815  1
  O  O44  1  0.56825287  0.49947908  0.82022552  1
  O  O45  1  0.65587283  0.71664848  0.39672123  1
  O  O46  1  0.74759106  0.30077251  0.80077251  1
  O  O47  1  0.23922134  0.50000000  0.50000000  1
  O  O48  1  0.65587283  0.89672123  0.21664848  1
  O  O49  1  0.05488113  0.35490696  0.53533078  1
  O  O50  1  0.85142294  0.39857706  0.89857706  1
  O  O51  1  0.76077866  0.00000000  1.00000000  1
  O  O52  1  0.23922134  1.00000000  0.00000000  1
  O  O53  1  0.25240894  0.69922749  0.19922749  1
  O  O54  1  0.15086392  0.30077251  0.80077251  1
  O  O55  1  0.23075747  0.89672123  0.21664848  1
  O  O56  1  0.65097580  0.64270185  0.61376379  1
  O  O57  1  0.88795746  0.67977448  1.00052092  1
  O  O58  1  0.76077866  0.50000000  0.50000000  1
  O  O59  1  0.32773627  0.63489715  0.70963031  1
  O  O60  1  0.32773627  0.20963031  0.13489715  1
  O  O61  1  0.05488113  0.03533078  0.85490696  1
  O  O62  1  0.48636381  0.26363619  0.76363619  1
  O  O63  1  0.90744144  0.35729815  0.38623621  1
  O  O64  1  0.11204254  0.32022552  -0.00052092  1
  O  O65  1  0.65097580  0.11376379  0.14270185  1
  O  O66  1  0.09255856  0.11376379  0.14270185  1
  O  O67  1  1.00000000  0.71883979  0.78116021  1
  O  O68  1  0.84913608  0.69922749  0.19922749  1
  O  O69  1  0.43174713  0.67977448  1.00052092  1
  O  O70  1  0.43174713  0.50052092  0.17977448  1
  O  O71  1  0.56825287  0.32022552  -0.00052092  1
