# generated using pymatgen
data_Ba2Sc2B4O11
_symmetry_space_group_name_H-M   'P 1'
_cell_length_a   6.42403915
_cell_length_b   9.37710490
_cell_length_c   9.37710481
_cell_angle_alpha   60.59909835
_cell_angle_beta   81.30785527
_cell_angle_gamma   81.30785201
_symmetry_Int_Tables_number   1
_chemical_formula_structural   Ba2Sc2B4O11
_chemical_formula_sum   'Ba4 Sc4 B8 O22'
_cell_volume   484.51783744
_cell_formula_units_Z   2
loop_
 _symmetry_equiv_pos_site_id
 _symmetry_equiv_pos_as_xyz
  1  'x, y, z'
loop_
 _atom_site_type_symbol
 _atom_site_label
 _atom_site_symmetry_multiplicity
 _atom_site_fract_x
 _atom_site_fract_y
 _atom_site_fract_z
 _atom_site_occupancy
  Ba  Ba0  1  0.57520033  0.80344170  0.47165480  1
  Ba  Ba1  1  0.07520033  0.47165480  0.80344170  1
  Ba  Ba2  1  0.92479967  0.52834520  0.19655830  1
  Ba  Ba3  1  0.42479967  0.19655830  0.52834520  1
  Sc  Sc4  1  0.50000000  0.00000000  0.00000000  1
  Sc  Sc5  1  0.00000000  0.00000000  0.50000000  1
  Sc  Sc6  1  0.50000000  0.50000000  0.00000000  1
  Sc  Sc7  1  0.00000000  0.00000000  0.00000000  1
  B  B8  1  0.41180824  0.61993352  0.27876007  1
  B  B9  1  0.08819176  0.72123993  0.38006648  1
  B  B10  1  0.25499111  0.83124878  0.82904136  1
  B  B11  1  0.74500889  0.16875122  0.17095864  1
  B  B12  1  0.24500889  0.17095864  0.16875122  1
  B  B13  1  0.75499111  0.82904136  0.83124878  1
  B  B14  1  0.58819176  0.38006648  0.72123993  1
  B  B15  1  0.91180824  0.27876007  0.61993352  1
  O  O16  1  0.50233628  0.23406781  0.78587132  1
  O  O17  1  0.26538328  0.07092995  0.33331816  1
  O  O18  1  0.20583079  0.10192380  0.07242536  1
  O  O19  1  0.26341359  0.33669512  0.09514915  1
  O  O20  1  0.52131161  0.50181804  0.76247540  1
  O  O21  1  0.23658641  0.90485085  0.66330488  1
  O  O22  1  0.76538328  0.33331816  0.07092995  1
  O  O23  1  0.29416921  0.92757464  0.89807620  1
  O  O24  1  0.73658641  0.66330488  0.90485085  1
  O  O25  1  0.25000000  0.58574671  0.41425329  1
  O  O26  1  0.47868839  0.49818196  0.23752460  1
  O  O27  1  0.79416921  0.89807620  0.92757464  1
  O  O28  1  0.75000000  0.41425329  0.58574671  1
  O  O29  1  0.97868839  0.23752460  0.49818196  1
  O  O30  1  0.70583079  0.07242536  0.10192380  1
  O  O31  1  0.23461672  0.66668184  0.92907005  1
  O  O32  1  0.99766372  0.21412868  0.76593219  1
  O  O33  1  0.49766372  0.76593219  0.21412868  1
  O  O34  1  0.00233628  0.78587132  0.23406781  1
  O  O35  1  0.76341359  0.09514915  0.33669512  1
  O  O36  1  0.02131161  0.76247540  0.50181804  1
  O  O37  1  0.73461672  0.92907005  0.66668184  1
