# generated using pymatgen
data_Dy(PO3)3
_symmetry_space_group_name_H-M   'P 1'
_cell_length_a   6.91756936
_cell_length_b   8.00741809
_cell_length_c   8.96010716
_cell_angle_alpha   74.20984818
_cell_angle_beta   67.29288905
_cell_angle_gamma   64.40877779
_symmetry_Int_Tables_number   1
_chemical_formula_structural   Dy(PO3)3
_chemical_formula_sum   'Dy2 P6 O18'
_cell_volume   409.60690446
_cell_formula_units_Z   2
loop_
 _symmetry_equiv_pos_site_id
 _symmetry_equiv_pos_as_xyz
  1  'x, y, z'
loop_
 _atom_site_type_symbol
 _atom_site_label
 _atom_site_symmetry_multiplicity
 _atom_site_fract_x
 _atom_site_fract_y
 _atom_site_fract_z
 _atom_site_occupancy
  Dy  Dy0  1  0.20601699  0.35068465  0.75438564  1
  Dy  Dy1  1  0.68891272  0.85068465  0.25438564  1
  P  P2  1  0.18652170  0.82939553  0.59588381  1
  P  P3  1  0.62282078  0.60704632  0.98754780  1
  P  P4  1  0.19461508  0.89228655  0.92108561  1
  P  P5  1  0.38819896  0.32939553  0.09588381  1
  P  P6  1  0.78258510  0.10704632  0.48754780  1
  P  P7  1  0.99201275  0.39228655  0.42108561  1
  O  O8  1  0.18838562  0.40136031  0.25581996  1
  O  O9  1  0.35126464  0.89504342  0.45232640  1
  O  O10  1  0.93355036  0.94379746  0.59001098  1
  O  O11  1  0.44839138  0.74008063  0.88892155  1
  O  O12  1  0.52126418  0.12567653  0.12581016  1
  O  O13  1  0.30136555  0.39504342  0.95232640  1
  O  O14  1  0.84330371  0.52202935  0.86324748  1
  O  O15  1  0.80765524  0.58151303  0.41883742  1
  O  O16  1  0.22724912  0.62567653  0.62581016  1
  O  O17  1  0.03459477  0.81974943  0.06341498  1
  O  O18  1  0.61661547  0.70963679  0.10760822  1
  O  O19  1  0.77141946  0.02202935  0.36324748  1
  O  O20  1  0.19199431  0.08151303  0.91883742  1
  O  O21  1  0.56613952  0.20963679  0.60760822  1
  O  O22  1  0.15443411  0.90136031  0.75581996  1
  O  O23  1  0.08224082  0.31974943  0.56341498  1
  O  O24  1  0.92260643  0.24008063  0.38892155  1
  O  O25  1  0.53264120  0.44379746  0.09001098  1
