# generated using pymatgen
data_V2Se2O9
_symmetry_space_group_name_H-M   'P 1'
_cell_length_a   8.18169287
_cell_length_b   8.85931971
_cell_length_c   10.52711630
_cell_angle_alpha   90.00000000
_cell_angle_beta   90.00000000
_cell_angle_gamma   102.11786626
_symmetry_Int_Tables_number   1
_chemical_formula_structural   V2Se2O9
_chemical_formula_sum   'V8 Se8 O36'
_cell_volume   746.04753766
_cell_formula_units_Z   4
loop_
 _symmetry_equiv_pos_site_id
 _symmetry_equiv_pos_as_xyz
  1  'x, y, z'
loop_
 _atom_site_type_symbol
 _atom_site_label
 _atom_site_symmetry_multiplicity
 _atom_site_fract_x
 _atom_site_fract_y
 _atom_site_fract_z
 _atom_site_occupancy
  V  V0  1  0.84507303  0.71756254  0.53178282  1
  V  V1  1  0.65492697  0.78243746  0.03178282  1
  V  V2  1  0.15492697  0.28243746  0.46821718  1
  V  V3  1  0.34507303  0.21756254  0.96821718  1
  V  V4  1  0.77345543  0.29212056  0.60422955  1
  V  V5  1  0.72654457  0.20787944  0.10422955  1
  V  V6  1  0.22654457  0.70787944  0.39577045  1
  V  V7  1  0.27345543  0.79212056  0.89577045  1
  Se  Se8  1  0.88898829  0.63801082  0.83685331  1
  Se  Se9  1  0.61101171  0.86198918  0.33685331  1
  Se  Se10  1  0.11101171  0.36198918  0.16314669  1
  Se  Se11  1  0.38898829  0.13801082  0.66314669  1
  Se  Se12  1  0.44056166  0.62840778  0.65460014  1
  Se  Se13  1  0.05943834  0.87159222  0.15460014  1
  Se  Se14  1  0.55943834  0.37159222  0.34539986  1
  Se  Se15  1  0.94056166  0.12840778  0.84539986  1
  O  O16  1  0.93520660  0.88217950  0.58821291  1
  O  O17  1  0.56479340  0.61782050  0.08821291  1
  O  O18  1  0.06479340  0.11782050  0.41178709  1
  O  O19  1  0.43520660  0.38217950  0.91178709  1
  O  O20  1  0.83482252  0.58181450  0.67823529  1
  O  O21  1  0.66517748  0.91818550  0.17823529  1
  O  O22  1  0.16517748  0.41818550  0.32176471  1
  O  O23  1  0.33482252  0.08181450  0.82176471  1
  O  O24  1  0.60477294  0.73707545  0.57284807  1
  O  O25  1  0.89522706  0.76292455  0.07284807  1
  O  O26  1  0.39522706  0.26292455  0.42715193  1
  O  O27  1  0.10477294  0.23707545  0.92715193  1
  O  O28  1  0.77151323  0.76386559  0.36108297  1
  O  O29  1  0.72848677  0.73613441  0.86108297  1
  O  O30  1  0.22848677  0.23613441  0.63891703  1
  O  O31  1  0.27151323  0.26386559  0.13891703  1
  O  O32  1  0.01230971  0.65104145  0.45603187  1
  O  O33  1  0.48769029  0.84895855  0.95603187  1
  O  O34  1  0.98769029  0.34895855  0.54396813  1
  O  O35  1  0.51230971  0.15104145  0.04396813  1
  O  O36  1  0.70355580  0.42092148  0.47015441  1
  O  O37  1  0.79644420  0.07907852  0.97015441  1
  O  O38  1  0.29644420  0.57907852  0.52984559  1
  O  O39  1  0.20355580  0.92092148  0.02984559  1
  O  O40  1  0.55483825  0.29270613  0.68605177  1
  O  O41  1  0.94516175  0.20729387  0.18605177  1
  O  O42  1  0.44516175  0.70729387  0.31394823  1
  O  O43  1  0.05483825  0.79270613  0.81394823  1
  O  O44  1  0.86085167  0.27555558  0.77404875  1
  O  O45  1  0.63914833  0.22444442  0.27404875  1
  O  O46  1  0.13914833  0.72444442  0.22595125  1
  O  O47  1  0.36085167  0.77555558  0.72595125  1
  O  O48  1  0.72069791  0.11780722  0.55161342  1
  O  O49  1  0.77930209  0.38219278  0.05161342  1
  O  O50  1  0.27930209  0.88219278  0.44838658  1
  O  O51  1  0.22069791  0.61780722  0.94838658  1
