# generated using pymatgen
data_Li5Mn2CoO8
_symmetry_space_group_name_H-M   'P 1'
_cell_length_a   3.00557780
_cell_length_b   5.04525625
_cell_length_c   9.81337779
_cell_angle_alpha   77.66329313
_cell_angle_beta   92.34338990
_cell_angle_gamma   92.40096345
_symmetry_Int_Tables_number   1
_chemical_formula_structural   Li5Mn2CoO8
_chemical_formula_sum   'Li5 Mn2 Co1 O8'
_cell_volume   145.16761406
_cell_formula_units_Z   1
loop_
 _symmetry_equiv_pos_site_id
 _symmetry_equiv_pos_as_xyz
  1  'x, y, z'
loop_
 _atom_site_type_symbol
 _atom_site_label
 _atom_site_symmetry_multiplicity
 _atom_site_fract_x
 _atom_site_fract_y
 _atom_site_fract_z
 _atom_site_occupancy
  Li  Li0  1  0.00332061  0.23585844  0.26619226  1
  Li  Li1  1  0.50634259  0.25273606  0.73469389  1
  Li  Li2  1  0.49365741  0.74726394  0.26530611  1
  Li  Li3  1  0.99667939  0.76414156  0.73380774  1
  Li  Li4  1  0.50000000  0.00000000  0.50000000  1
  Mn  Mn5  1  -0.00000000  0.00000000  -0.00000000  1
  Mn  Mn6  1  0.50000000  0.50000000  -0.00000000  1
  Co  Co7  1  -0.00000000  0.50000000  0.50000000  1
  O  O8  1  0.46609567  0.13395706  0.11888984  1
  O  O9  1  0.99311878  0.16961056  0.61172485  1
  O  O10  1  0.97290931  0.63225297  0.11366370  1
  O  O11  1  0.51443688  0.61343769  0.60939073  1
  O  O12  1  0.48556312  0.38656231  0.39060927  1
  O  O13  1  0.02709069  0.36774703  0.88633630  1
  O  O14  1  0.00688122  0.83038944  0.38827515  1
  O  O15  1  0.53390433  0.86604294  0.88111016  1
