# generated using pymatgen
data_K2LaNb5O15
_symmetry_space_group_name_H-M   'P 1'
_cell_length_a   3.97715728
_cell_length_b   12.80774979
_cell_length_c   12.80774979
_cell_angle_alpha   90.00000000
_cell_angle_beta   90.00000000
_cell_angle_gamma   90.00000000
_symmetry_Int_Tables_number   1
_chemical_formula_structural   K2LaNb5O15
_chemical_formula_sum   'K4 La2 Nb10 O30'
_cell_volume   652.40673424
_cell_formula_units_Z   2
loop_
 _symmetry_equiv_pos_site_id
 _symmetry_equiv_pos_as_xyz
  1  'x, y, z'
loop_
 _atom_site_type_symbol
 _atom_site_label
 _atom_site_symmetry_multiplicity
 _atom_site_fract_x
 _atom_site_fract_y
 _atom_site_fract_z
 _atom_site_occupancy
  K  K0  1  0.50000000  0.17111820  0.67111820  1
  K  K1  1  0.50000000  0.82888180  0.32888180  1
  K  K2  1  0.50000000  0.67111820  0.82888180  1
  K  K3  1  0.50000000  0.32888180  0.17111820  1
  La  La4  1  0.50000000  0.50000000  0.50000000  1
  La  La5  1  0.50000000  0.00000000  0.00000000  1
  Nb  Nb6  1  0.00000000  0.42432819  0.71404267  1
  Nb  Nb7  1  0.00000000  0.28595733  0.42432819  1
  Nb  Nb8  1  0.00000000  0.50000000  0.00000000  1
  Nb  Nb9  1  0.00000000  0.71404267  0.57567181  1
  Nb  Nb10  1  0.00000000  0.92432819  0.78595733  1
  Nb  Nb11  1  0.00000000  0.07567181  0.21404267  1
  Nb  Nb12  1  0.00000000  0.21404267  0.92432819  1
  Nb  Nb13  1  0.00000000  0.57567181  0.28595733  1
  Nb  Nb14  1  0.00000000  0.78595733  0.07567181  1
  Nb  Nb15  1  0.00000000  0.00000000  0.50000000  1
  O  O16  1  0.00000000  0.56104193  0.63277532  1
  O  O17  1  0.00000000  0.06104193  0.86722468  1
  O  O18  1  0.50000000  0.30713097  0.42317091  1
  O  O19  1  0.00000000  0.36722468  0.56104193  1
  O  O20  1  0.00000000  0.71508124  0.21508124  1
  O  O21  1  0.00000000  0.15711161  0.50160158  1
  O  O22  1  0.00000000  0.49839842  0.15711161  1
  O  O23  1  0.00000000  0.00160158  0.65711161  1
  O  O24  1  0.00000000  0.21508124  0.28491876  1
  O  O25  1  0.00000000  0.50160158  0.84288839  1
  O  O26  1  0.00000000  0.99839842  0.34288839  1
  O  O27  1  0.00000000  0.93895807  0.13277532  1
  O  O28  1  0.00000000  0.43895807  0.36722468  1
  O  O29  1  0.50000000  0.07682909  0.19286903  1
  O  O30  1  0.00000000  0.78491876  0.71508124  1
  O  O31  1  0.00000000  0.65711161  0.99839842  1
  O  O32  1  0.50000000  0.69286903  0.57682909  1
  O  O33  1  0.50000000  0.42317091  0.69286903  1
  O  O34  1  0.50000000  0.50000000  0.00000000  1
  O  O35  1  0.00000000  0.13277532  0.06104193  1
  O  O36  1  0.50000000  0.80713097  0.07682909  1
  O  O37  1  0.50000000  0.19286903  0.92317091  1
  O  O38  1  0.50000000  0.57682909  0.30713097  1
  O  O39  1  0.00000000  0.63277532  0.43895807  1
  O  O40  1  0.00000000  0.34288839  0.00160158  1
  O  O41  1  0.00000000  0.28491876  0.78491876  1
  O  O42  1  0.50000000  0.92317091  0.80713097  1
  O  O43  1  0.00000000  0.86722468  0.93895807  1
  O  O44  1  0.50000000  0.00000000  0.50000000  1
  O  O45  1  0.00000000  0.84288839  0.49839842  1
