# generated using pymatgen
data_Ti6O11
_symmetry_space_group_name_H-M   'P 1'
_cell_length_a   3.76115687
_cell_length_b   5.34422947
_cell_length_c   21.22273243
_cell_angle_alpha   93.34173943
_cell_angle_beta   90.00000000
_cell_angle_gamma   110.60293121
_symmetry_Int_Tables_number   1
_chemical_formula_structural   Ti6O11
_chemical_formula_sum   'Ti12 O22'
_cell_volume   398.52834106
_cell_formula_units_Z   2
loop_
 _symmetry_equiv_pos_site_id
 _symmetry_equiv_pos_as_xyz
  1  'x, y, z'
loop_
 _atom_site_type_symbol
 _atom_site_label
 _atom_site_symmetry_multiplicity
 _atom_site_fract_x
 _atom_site_fract_y
 _atom_site_fract_z
 _atom_site_occupancy
  Ti  Ti0  1  0.96963640  0.93927280  0.35362384  1
  Ti  Ti1  1  0.13751714  0.27503427  0.47614155  1
  Ti  Ti2  1  0.86248286  0.72496573  0.52385845  1
  Ti  Ti3  1  0.21014495  0.42028990  0.11432871  1
  Ti  Ti4  1  0.09925515  0.19851030  0.79249864  1
  Ti  Ti5  1  0.06824917  0.13649835  0.93986003  1
  Ti  Ti6  1  0.93175083  0.86350165  0.06013997  1
  Ti  Ti7  1  0.03036360  0.06072720  0.64637616  1
  Ti  Ti8  1  0.78985505  0.57971010  0.88567129  1
  Ti  Ti9  1  0.90074485  0.80148970  0.20750136  1
  Ti  Ti10  1  0.23449213  0.46898427  0.30089910  1
  Ti  Ti11  1  0.76550787  0.53101573  0.69910090  1
  O  O12  1  0.67007039  0.34014078  0.79382557  1
  O  O13  1  0.23886058  0.47772116  0.87707474  1
  O  O14  1  0.42297664  0.84595328  0.34472677  1
  O  O15  1  0.38573356  0.77146712  0.06703067  1
  O  O16  1  0.61426644  0.22853288  0.93296933  1
  O  O17  1  0.84122812  0.68245625  0.61890308  1
  O  O18  1  0.32992961  0.65985922  0.20617443  1
  O  O19  1  0.88586567  0.77173133  0.96700047  1
  O  O20  1  0.15877188  0.31754375  0.38109692  1
  O  O21  1  0.11413433  0.22826867  0.03299953  1
  O  O22  1  0.78349883  0.56699766  0.29098870  1
  O  O23  1  0.32335623  0.64671247  0.51939815  1
  O  O24  1  0.21650117  0.43300234  0.70901130  1
  O  O25  1  0.94954837  0.89909673  0.44361143  1
  O  O26  1  0.76113942  0.52227884  0.12292526  1
  O  O27  1  0.94791819  0.89583638  0.73268819  1
  O  O28  1  0.05208181  0.10416362  0.26731181  1
  O  O29  1  0.67664377  0.35328753  0.48060185  1
  O  O30  1  0.05045163  0.10090327  0.55638857  1
  O  O31  1  0.96533401  0.93066802  0.85390440  1
  O  O32  1  0.57702336  0.15404672  0.65527323  1
  O  O33  1  0.03466599  0.06933198  0.14609560  1
