# generated using pymatgen
data_CuSeO3
_symmetry_space_group_name_H-M   'P 1'
_cell_length_a   4.81313673
_cell_length_b   8.92620797
_cell_length_c   10.73572026
_cell_angle_alpha   66.47381530
_cell_angle_beta   88.81145190
_cell_angle_gamma   90.25826275
_symmetry_Int_Tables_number   1
_chemical_formula_structural   CuSeO3
_chemical_formula_sum   'Cu6 Se6 O18'
_cell_volume   422.76800376
_cell_formula_units_Z   6
loop_
 _symmetry_equiv_pos_site_id
 _symmetry_equiv_pos_as_xyz
  1  'x, y, z'
loop_
 _atom_site_type_symbol
 _atom_site_label
 _atom_site_symmetry_multiplicity
 _atom_site_fract_x
 _atom_site_fract_y
 _atom_site_fract_z
 _atom_site_occupancy
  Cu  Cu0  1  0.53116350  0.00797918  0.74346491  1
  Cu  Cu1  1  0.96934573  0.35392951  0.66501590  1
  Cu  Cu2  1  0.00000000  0.00000000  0.00000000  1
  Cu  Cu3  1  0.46883650  0.99202082  0.25653509  1
  Cu  Cu4  1  0.00000000  0.00000000  0.50000000  1
  Cu  Cu5  1  0.03065427  0.64607049  0.33498410  1
  Se  Se6  1  0.42175676  0.30318030  0.87878320  1
  Se  Se7  1  0.45223796  0.27346845  0.47879460  1
  Se  Se8  1  0.57824324  0.69681970  0.12121680  1
  Se  Se9  1  0.01781496  0.75397367  0.82931257  1
  Se  Se10  1  0.54776204  0.72653155  0.52120540  1
  Se  Se11  1  0.98218504  0.24602633  0.17068743  1
  O  O12  1  0.87682130  0.92555786  0.85310363  1
  O  O13  1  0.29944091  0.07669663  0.57831041  1
  O  O14  1  0.27686711  0.44281976  0.73222584  1
  O  O15  1  0.63269690  0.21191238  0.17009643  1
  O  O16  1  0.06247875  0.19626272  0.33903974  1
  O  O17  1  0.68954587  0.22317998  0.61704274  1
  O  O18  1  0.36730310  0.78808762  0.82990357  1
  O  O19  1  0.77230266  0.30855400  0.83885885  1
  O  O20  1  0.70055909  0.92330337  0.42168959  1
  O  O21  1  0.30906075  0.11602980  0.87560680  1
  O  O22  1  0.20822321  0.39929441  0.50029089  1
  O  O23  1  0.79177679  0.60070559  0.49970911  1
  O  O24  1  0.22769734  0.69144600  0.16114115  1
  O  O25  1  0.69093925  0.88397020  0.12439320  1
  O  O26  1  0.31045413  0.77682002  0.38295726  1
  O  O27  1  0.12317870  0.07444214  0.14689637  1
  O  O28  1  0.72313289  0.55718024  0.26777416  1
  O  O29  1  0.93752125  0.80373728  0.66096026  1
