# generated using pymatgen
data_Li9Al3P8O29
_symmetry_space_group_name_H-M   'P 1'
_cell_length_a   9.67060319
_cell_length_b   9.67060353
_cell_length_c   13.64591837
_cell_angle_alpha   90.00000000
_cell_angle_beta   90.00000000
_cell_angle_gamma   119.99999888
_symmetry_Int_Tables_number   1
_chemical_formula_structural   Li9Al3P8O29
_chemical_formula_sum   'Li18 Al6 P16 O58'
_cell_volume   1105.19916375
_cell_formula_units_Z   2
loop_
 _symmetry_equiv_pos_site_id
 _symmetry_equiv_pos_as_xyz
  1  'x, y, z'
loop_
 _atom_site_type_symbol
 _atom_site_label
 _atom_site_symmetry_multiplicity
 _atom_site_fract_x
 _atom_site_fract_y
 _atom_site_fract_z
 _atom_site_occupancy
  Li  Li0  1  0.89882621  0.23712056  0.06423083  1
  Li  Li1  1  0.33333300  0.66666700  0.11872009  1
  Li  Li2  1  0.23712056  0.33829435  0.93576917  1
  Li  Li3  1  0.33333300  0.66666700  0.61872009  1
  Li  Li4  1  0.10117379  0.33829435  0.43576917  1
  Li  Li5  1  0.23712056  0.89882621  0.43576917  1
  Li  Li6  1  0.33829435  0.10117379  0.06423083  1
  Li  Li7  1  0.33829435  0.23712056  0.56423083  1
  Li  Li8  1  0.66666700  0.33333300  0.38127991  1
  Li  Li9  1  0.89882621  0.66170565  0.56423083  1
  Li  Li10  1  0.66666700  0.33333300  0.88127991  1
  Li  Li11  1  0.66170565  0.76287944  0.43576917  1
  Li  Li12  1  0.00000000  0.00000000  0.50000000  1
  Li  Li13  1  0.76287944  0.10117379  0.56423083  1
  Li  Li14  1  0.10117379  0.76287944  0.93576917  1
  Li  Li15  1  0.76287944  0.66170565  0.06423083  1
  Li  Li16  1  0.00000000  0.00000000  0.00000000  1
  Li  Li17  1  0.66170565  0.89882621  0.93576917  1
  Al  Al18  1  0.56547881  0.00000000  0.75000000  1
  Al  Al19  1  0.43452119  0.43452119  0.75000000  1
  Al  Al20  1  0.56547881  0.56547881  0.25000000  1
  Al  Al21  1  1.00000000  0.43452119  0.25000000  1
  Al  Al22  1  0.43452119  0.00000000  0.25000000  1
  Al  Al23  1  0.00000000  0.56547881  0.75000000  1
  P  P24  1  0.31847340  0.09210227  0.84273329  1
  P  P25  1  0.90789773  0.22637113  0.84273329  1
  P  P26  1  0.31847340  0.22637113  0.34273329  1
  P  P27  1  0.22637113  0.90789773  0.65726671  1
  P  P28  1  0.90789773  0.68152660  0.34273329  1
  P  P29  1  0.33333300  0.66666700  0.87061706  1
  P  P30  1  0.66666700  0.33333300  0.12938294  1
  P  P31  1  0.68152660  0.90789773  0.15726671  1
  P  P32  1  0.33333300  0.66666700  0.37061706  1
  P  P33  1  0.77362887  0.09210227  0.34273329  1
  P  P34  1  0.68152660  0.77362887  0.65726671  1
  P  P35  1  0.09210227  0.31847340  0.65726671  1
  P  P36  1  0.66666700  0.33333300  0.62938294  1
  P  P37  1  0.22637113  0.31847340  0.15726671  1
  P  P38  1  0.09210227  0.77362887  0.15726671  1
  P  P39  1  0.77362887  0.68152660  0.84273329  1
  O  O40  1  0.74059579  0.66201729  0.34067401  1
  O  O41  1  0.62139526  0.10259001  0.33013700  1
  O  O42  1  0.92142150  0.25940421  0.34067401  1
  O  O43  1  0.33798271  0.07857850  0.34067401  1
  O  O44  1  0.22540726  0.99853329  0.56632215  1
  O  O45  1  0.00146671  0.77459274  0.06632215  1
  O  O46  1  0.32914952  0.81634524  0.33196097  1
  O  O47  1  0.00146671  0.22687397  0.56632215  1
  O  O48  1  0.20785799  0.20785799  0.25000000  1
  O  O49  1  0.66666700  0.33333300  0.51802981  1
  O  O50  1  0.22687397  0.00146671  0.93367785  1
  O  O51  1  0.48719572  0.67085048  0.33196097  1
  O  O52  1  0.00000000  0.79214201  0.25000000  1
  O  O53  1  0.99853329  0.77312603  0.43367785  1
  O  O54  1  0.89740999  0.51880524  0.33013700  1
  O  O55  1  0.10259001  0.62139526  0.16986300  1
  O  O56  1  0.67085048  0.48719572  0.16803903  1
  O  O57  1  0.07857850  0.74059579  0.65932599  1
  O  O58  1  0.51280428  0.18365476  0.16803903  1
  O  O59  1  0.81634524  0.48719572  0.66803903  1
  O  O60  1  0.51880524  0.89740999  0.16986300  1
  O  O61  1  0.48719572  0.81634524  0.83196097  1
  O  O62  1  0.22540726  0.22687397  0.06632215  1
  O  O63  1  0.77312603  0.77459274  0.56632215  1
  O  O64  1  0.74059579  0.07857850  0.84067401  1
  O  O65  1  0.25940421  0.33798271  0.65932599  1
  O  O66  1  0.48119476  0.37860474  0.33013700  1
  O  O67  1  0.37860474  0.48119476  0.16986300  1
  O  O68  1  0.66201729  0.74059579  0.15932599  1
  O  O69  1  0.33333300  0.66666700  0.48197019  1
  O  O70  1  0.77312603  0.99853329  0.06632215  1
  O  O71  1  0.51880524  0.62139526  0.66986300  1
  O  O72  1  0.18365476  0.67085048  0.83196097  1
  O  O73  1  0.51280428  0.32914952  0.66803903  1
  O  O74  1  0.25940421  0.92142150  0.15932599  1
  O  O75  1  0.99853329  0.22540726  0.93367785  1
  O  O76  1  0.77459274  0.00146671  0.43367785  1
  O  O77  1  0.22687397  0.22540726  0.43367785  1
  O  O78  1  0.33333300  0.66666700  0.98197019  1
  O  O79  1  0.92142150  0.66201729  0.84067401  1
  O  O80  1  0.79214201  0.00000000  0.25000000  1
  O  O81  1  0.81634524  0.32914952  0.16803903  1
  O  O82  1  0.66201729  0.92142150  0.65932599  1
  O  O83  1  0.20785799  0.00000000  0.75000000  1
  O  O84  1  0.89740999  0.37860474  0.83013700  1
  O  O85  1  0.77459274  0.77312603  0.93367785  1
  O  O86  1  0.07857850  0.33798271  0.15932599  1
  O  O87  1  0.33798271  0.25940421  0.84067401  1
  O  O88  1  0.62139526  0.51880524  0.83013700  1
  O  O89  1  0.37860474  0.89740999  0.66986300  1
  O  O90  1  0.67085048  0.18365476  0.66803903  1
  O  O91  1  0.48119476  0.10259001  0.83013700  1
  O  O92  1  0.79214201  0.79214201  0.75000000  1
  O  O93  1  0.18365476  0.51280428  0.33196097  1
  O  O94  1  0.32914952  0.51280428  0.83196097  1
  O  O95  1  1.00000000  0.20785799  0.75000000  1
  O  O96  1  0.66666700  0.33333300  0.01802981  1
  O  O97  1  0.10259001  0.48119476  0.66986300  1
