# generated using pymatgen
data_SiO2
_symmetry_space_group_name_H-M   'P 1'
_cell_length_a   7.65326082
_cell_length_b   7.65326056
_cell_length_c   7.65326129
_cell_angle_alpha   110.71237139
_cell_angle_beta   110.71237066
_cell_angle_gamma   110.71236176
_symmetry_Int_Tables_number   1
_chemical_formula_structural   SiO2
_chemical_formula_sum   'Si6 O12'
_cell_volume   328.26620742
_cell_formula_units_Z   6
loop_
 _symmetry_equiv_pos_site_id
 _symmetry_equiv_pos_as_xyz
  1  'x, y, z'
loop_
 _atom_site_type_symbol
 _atom_site_label
 _atom_site_symmetry_multiplicity
 _atom_site_fract_x
 _atom_site_fract_y
 _atom_site_fract_z
 _atom_site_occupancy
  Si  Si0  1  0.21448493  0.72973933  0.94310139  1
  Si  Si1  1  0.72973933  0.94310139  0.21448493  1
  Si  Si2  1  0.78551507  0.27026067  0.05689861  1
  Si  Si3  1  0.27026067  0.05689861  0.78551507  1
  Si  Si4  1  0.94310139  0.21448493  0.72973933  1
  Si  Si5  1  0.05689861  0.78551507  0.27026067  1
  O  O6  1  0.53698552  0.22354550  0.97058930  1
  O  O7  1  0.83512732  0.15714651  0.19676694  1
  O  O8  1  0.02941070  0.46301448  0.77645450  1
  O  O9  1  0.46301448  0.77645450  0.02941070  1
  O  O10  1  0.80323306  0.16487268  0.84285349  1
  O  O11  1  0.84285349  0.80323306  0.16487268  1
  O  O12  1  0.15714651  0.19676694  0.83512732  1
  O  O13  1  0.16487268  0.84285349  0.80323306  1
  O  O14  1  0.19676694  0.83512732  0.15714651  1
  O  O15  1  0.77645450  0.02941070  0.46301448  1
  O  O16  1  0.22354550  0.97058930  0.53698552  1
  O  O17  1  0.97058930  0.53698552  0.22354550  1
