# generated using pymatgen
data_Ba3Y(BO2)9
_symmetry_space_group_name_H-M   'P 1'
_cell_length_a   7.28584401
_cell_length_b   7.28584410
_cell_length_c   17.43704506
_cell_angle_alpha   90.00000000
_cell_angle_beta   90.00000000
_cell_angle_gamma   119.99999961
_symmetry_Int_Tables_number   1
_chemical_formula_structural   Ba3Y(BO2)9
_chemical_formula_sum   'Ba6 Y2 B18 O36'
_cell_volume   801.61025757
_cell_formula_units_Z   2
loop_
 _symmetry_equiv_pos_site_id
 _symmetry_equiv_pos_as_xyz
  1  'x, y, z'
loop_
 _atom_site_type_symbol
 _atom_site_label
 _atom_site_symmetry_multiplicity
 _atom_site_fract_x
 _atom_site_fract_y
 _atom_site_fract_z
 _atom_site_occupancy
  Ba  Ba0  1  0.66666700  0.33333300  0.36762596  1
  Ba  Ba1  1  0.00000000  0.00000000  0.25000000  1
  Ba  Ba2  1  0.33333300  0.66666700  0.63237404  1
  Ba  Ba3  1  0.33333300  0.66666700  0.86762596  1
  Ba  Ba4  1  0.00000000  0.00000000  0.75000000  1
  Ba  Ba5  1  0.66666700  0.33333300  0.13237404  1
  Y  Y6  1  0.00000000  0.00000000  0.00000000  1
  Y  Y7  1  0.00000000  0.00000000  0.50000000  1
  B  B8  1  0.44999683  0.28447483  0.91812709  1
  B  B9  1  0.28447483  0.83447801  0.41812709  1
  B  B10  1  0.71552517  0.16552199  0.58187291  1
  B  B11  1  0.55000317  0.71552517  0.08187291  1
  B  B12  1  0.62164818  0.50425634  0.75000000  1
  B  B13  1  0.49574366  0.11739184  0.75000000  1
  B  B14  1  0.83447801  0.55000317  0.91812709  1
  B  B15  1  0.83447801  0.55000317  0.58187291  1
  B  B16  1  0.16552199  0.44999683  0.08187291  1
  B  B17  1  0.28447483  0.83447801  0.08187291  1
  B  B18  1  0.16552199  0.44999683  0.41812709  1
  B  B19  1  0.55000317  0.71552517  0.41812709  1
  B  B20  1  0.37835182  0.49574366  0.25000000  1
  B  B21  1  0.88260816  0.37835182  0.75000000  1
  B  B22  1  0.44999683  0.28447483  0.58187291  1
  B  B23  1  0.71552517  0.16552199  0.91812709  1
  B  B24  1  0.11739184  0.62164818  0.25000000  1
  B  B25  1  0.50425634  0.88260816  0.25000000  1
  O  O26  1  0.25054573  0.24518926  0.58099145  1
  O  O27  1  0.49610681  0.87646342  0.41804689  1
  O  O28  1  0.49610681  0.87646342  0.08195311  1
  O  O29  1  0.99464353  0.74945427  0.58099145  1
  O  O30  1  0.75481074  0.00535647  0.91900855  1
  O  O31  1  0.24518926  0.99464353  0.41900855  1
  O  O32  1  0.33346326  0.91985165  0.75000000  1
  O  O33  1  0.00535647  0.25054573  0.08099145  1
  O  O34  1  0.38035661  0.50389319  0.41804689  1
  O  O35  1  0.16766115  0.45822190  0.25000000  1
  O  O36  1  0.50389319  0.12353658  0.91804689  1
  O  O37  1  0.41361162  0.33346326  0.25000000  1
  O  O38  1  0.75481074  0.00535647  0.58099145  1
  O  O39  1  0.08014835  0.41361162  0.75000000  1
  O  O40  1  0.24518926  0.99464353  0.08099145  1
  O  O41  1  0.87646342  0.38035661  0.91804689  1
  O  O42  1  0.61964339  0.49610681  0.91804689  1
  O  O43  1  0.00535647  0.25054573  0.41900855  1
  O  O44  1  0.29056076  0.83233885  0.25000000  1
  O  O45  1  0.54177810  0.70943924  0.25000000  1
  O  O46  1  0.74945427  0.75481074  0.08099145  1
  O  O47  1  0.91985165  0.58638838  0.25000000  1
  O  O48  1  0.61964339  0.49610681  0.58195311  1
  O  O49  1  0.87646342  0.38035661  0.58195311  1
  O  O50  1  0.83233885  0.54177810  0.75000000  1
  O  O51  1  0.50389319  0.12353658  0.58195311  1
  O  O52  1  0.66653674  0.08014835  0.25000000  1
  O  O53  1  0.74945427  0.75481074  0.41900855  1
  O  O54  1  0.12353658  0.61964339  0.41804689  1
  O  O55  1  0.70943924  0.16766115  0.75000000  1
  O  O56  1  0.45822190  0.29056076  0.75000000  1
  O  O57  1  0.38035661  0.50389319  0.08195311  1
  O  O58  1  0.99464353  0.74945427  0.91900855  1
  O  O59  1  0.58638838  0.66653674  0.75000000  1
  O  O60  1  0.12353658  0.61964339  0.08195311  1
  O  O61  1  0.25054573  0.24518926  0.91900855  1
