# generated using pymatgen
data_SrBe2(BO3)2
_symmetry_space_group_name_H-M   'P 1'
_cell_length_a   4.53049265
_cell_length_b   9.33814519
_cell_length_c   11.68972827
_cell_angle_alpha   111.87195692
_cell_angle_beta   90.00000000
_cell_angle_gamma   90.00000000
_symmetry_Int_Tables_number   1
_chemical_formula_structural   SrBe2(BO3)2
_chemical_formula_sum   'Sr4 Be8 B8 O24'
_cell_volume   458.95192443
_cell_formula_units_Z   4
loop_
 _symmetry_equiv_pos_site_id
 _symmetry_equiv_pos_as_xyz
  1  'x, y, z'
loop_
 _atom_site_type_symbol
 _atom_site_label
 _atom_site_symmetry_multiplicity
 _atom_site_fract_x
 _atom_site_fract_y
 _atom_site_fract_z
 _atom_site_occupancy
  Sr  Sr0  1  0.47274902  0.92501409  0.15460878  1
  Sr  Sr1  1  0.02725098  0.42501409  0.65460878  1
  Sr  Sr2  1  0.52725098  0.07498591  0.84539122  1
  Sr  Sr3  1  0.97274902  0.57498591  0.34539122  1
  Be  Be4  1  0.43879683  0.28392086  0.19284129  1
  Be  Be5  1  0.56120317  0.71607914  0.80715871  1
  Be  Be6  1  0.40304093  0.87476530  0.45278323  1
  Be  Be7  1  0.90304093  0.62523470  0.04721677  1
  Be  Be8  1  0.06120317  0.78392086  0.69284129  1
  Be  Be9  1  0.59695907  0.12523470  0.54721677  1
  Be  Be10  1  0.93879683  0.21607914  0.30715871  1
  Be  Be11  1  0.09695907  0.37476530  0.95278323  1
  B  B12  1  0.56157466  0.45112515  0.85576832  1
  B  B13  1  0.90821108  0.20622347  0.07608376  1
  B  B14  1  0.09178892  0.79377653  0.92391624  1
  B  B15  1  0.43842534  0.54887485  0.14423168  1
  B  B16  1  0.93842534  0.95112515  0.35576832  1
  B  B17  1  0.59178892  0.70622347  0.57608376  1
  B  B18  1  0.40821108  0.29377653  0.42391624  1
  B  B19  1  0.06157466  0.04887485  0.64423168  1
  O  O20  1  0.00848706  0.04008683  0.28849722  1
  O  O21  1  0.91812667  0.75861112  0.81781383  1
  O  O22  1  0.99151294  0.95991317  0.71150278  1
  O  O23  1  0.49151294  0.54008683  0.78849722  1
  O  O24  1  0.58187333  0.25861112  0.31781383  1
  O  O25  1  0.66338507  0.97336126  0.41377322  1
  O  O26  1  0.12778180  0.83819626  0.35951304  1
  O  O27  1  0.87221820  0.16180374  0.64048696  1
  O  O28  1  0.12095088  0.34294700  0.42010817  1
  O  O29  1  0.37221820  0.33819626  0.85951304  1
  O  O30  1  0.48877602  0.71672696  0.46930772  1
  O  O31  1  0.16338507  0.52663874  0.08622678  1
  O  O32  1  0.33661493  0.02663874  0.58622678  1
  O  O33  1  0.51122398  0.28327304  0.53069228  1
  O  O34  1  0.01122398  0.21672696  0.96930772  1
  O  O35  1  0.08187333  0.24138888  0.18218617  1
  O  O36  1  0.50848706  0.45991317  0.21150278  1
  O  O37  1  0.87904912  0.65705300  0.57989183  1
  O  O38  1  0.41812667  0.74138888  0.68218617  1
  O  O39  1  0.62778180  0.66180374  0.14048696  1
  O  O40  1  0.98877602  0.78327304  0.03069228  1
  O  O41  1  0.37904912  0.84294700  0.92010817  1
  O  O42  1  0.83661493  0.47336126  0.91377322  1
  O  O43  1  0.62095088  0.15705300  0.07989183  1
