# generated using pymatgen
data_YSiNO2
_symmetry_space_group_name_H-M   'P 1'
_cell_length_a   7.05467953
_cell_length_b   7.08987832
_cell_length_c   9.20397013
_cell_angle_alpha   90.00000000
_cell_angle_beta   90.00000000
_cell_angle_gamma   119.83590597
_symmetry_Int_Tables_number   1
_chemical_formula_structural   YSiNO2
_chemical_formula_sum   'Y6 Si6 N6 O12'
_cell_volume   399.33524887
_cell_formula_units_Z   6
loop_
 _symmetry_equiv_pos_site_id
 _symmetry_equiv_pos_as_xyz
  1  'x, y, z'
loop_
 _atom_site_type_symbol
 _atom_site_label
 _atom_site_symmetry_multiplicity
 _atom_site_fract_x
 _atom_site_fract_y
 _atom_site_fract_z
 _atom_site_occupancy
  Y  Y0  1  0.17499479  0.34998957  0.50000000  1
  Y  Y1  1  0.82500521  0.65001043  0.00000000  1
  Y  Y2  1  0.17499479  0.34998957  0.00000000  1
  Y  Y3  1  0.82500521  0.65001043  0.50000000  1
  Y  Y4  1  0.50000000  0.00000000  0.50000000  1
  Y  Y5  1  0.50000000  0.00000000  0.00000000  1
  Si  Si6  1  0.40934730  0.24445938  0.75000000  1
  Si  Si7  1  0.83511208  0.24445938  0.25000000  1
  Si  Si8  1  0.91642365  0.00000000  0.75000000  1
  Si  Si9  1  0.59065270  0.75554062  0.25000000  1
  Si  Si10  1  0.08357635  0.00000000  0.25000000  1
  Si  Si11  1  0.16488792  0.75554062  0.75000000  1
  N  N12  1  0.59813938  0.00000000  0.25000000  1
  N  N13  1  0.07387456  0.23726704  0.25000000  1
  N  N14  1  0.83660752  0.76273296  0.25000000  1
  N  N15  1  0.16339248  0.23726704  0.75000000  1
  N  N16  1  0.40186062  0.00000000  0.75000000  1
  N  N17  1  0.92612544  0.76273296  0.75000000  1
  O  O18  1  0.52565796  0.35979874  0.90571219  1
  O  O19  1  0.83414078  0.35979874  0.09428781  1
  O  O20  1  0.83414078  0.35979874  0.40571219  1
  O  O21  1  0.16585922  0.64020126  0.90571219  1
  O  O22  1  0.80338781  0.00000000  0.59142443  1
  O  O23  1  0.47434204  0.64020126  0.09428781  1
  O  O24  1  0.47434204  0.64020126  0.40571219  1
  O  O25  1  0.19661219  0.00000000  0.40857557  1
  O  O26  1  0.19661219  0.00000000  0.09142443  1
  O  O27  1  0.80338781  0.00000000  0.90857557  1
  O  O28  1  0.16585922  0.64020126  0.59428781  1
  O  O29  1  0.52565796  0.35979874  0.59428781  1
