# generated using pymatgen
data_PH3PbCO3
_symmetry_space_group_name_H-M   'P 1'
_cell_length_a   12.15862604
_cell_length_b   12.15862637
_cell_length_c   12.15862619
_cell_angle_alpha   116.39981705
_cell_angle_beta   116.39981785
_cell_angle_gamma   116.39981462
_symmetry_Int_Tables_number   1
_chemical_formula_structural   PH3PbCO3
_chemical_formula_sum   'P6 H18 Pb6 C6 O18'
_cell_volume   864.08017816
_cell_formula_units_Z   6
loop_
 _symmetry_equiv_pos_site_id
 _symmetry_equiv_pos_as_xyz
  1  'x, y, z'
loop_
 _atom_site_type_symbol
 _atom_site_label
 _atom_site_symmetry_multiplicity
 _atom_site_fract_x
 _atom_site_fract_y
 _atom_site_fract_z
 _atom_site_occupancy
  P  P0  1  0.27154992  0.12371498  0.61310410  1
  P  P1  1  0.12371498  0.61310410  0.27154992  1
  P  P2  1  0.38689590  0.72845008  0.87628502  1
  P  P3  1  0.87628502  0.38689590  0.72845008  1
  P  P4  1  0.72845008  0.87628502  0.38689590  1
  P  P5  1  0.61310410  0.27154992  0.12371498  1
  H  H6  1  0.86013034  0.97997620  0.67784492  1
  H  H7  1  0.37062459  0.02983414  0.05182680  1
  H  H8  1  0.97016586  0.94817320  0.62937541  1
  H  H9  1  0.28335413  0.27083596  0.52776381  1
  H  H10  1  0.67784492  0.86013034  0.97997620  1
  H  H11  1  0.02983414  0.05182680  0.37062459  1
  H  H12  1  0.05182680  0.37062459  0.02983414  1
  H  H13  1  0.94817320  0.62937541  0.97016586  1
  H  H14  1  0.97997620  0.67784492  0.86013034  1
  H  H15  1  0.72916404  0.47223619  0.71664587  1
  H  H16  1  0.71664587  0.72916404  0.47223619  1
  H  H17  1  0.32215508  0.13986966  0.02002380  1
  H  H18  1  0.52776381  0.28335413  0.27083596  1
  H  H19  1  0.13986966  0.02002380  0.32215508  1
  H  H20  1  0.27083596  0.52776381  0.28335413  1
  H  H21  1  0.02002380  0.32215508  0.13986966  1
  H  H22  1  0.47223619  0.71664587  0.72916404  1
  H  H23  1  0.62937541  0.97016586  0.94817320  1
  Pb  Pb24  1  0.58316694  0.10671467  0.74340110  1
  Pb  Pb25  1  0.74340110  0.58316694  0.10671467  1
  Pb  Pb26  1  0.10671467  0.74340110  0.58316694  1
  Pb  Pb27  1  0.89328533  0.25659890  0.41683306  1
  Pb  Pb28  1  0.25659890  0.41683306  0.89328533  1
  Pb  Pb29  1  0.41683306  0.89328533  0.25659890  1
  C  C30  1  0.88470798  0.55875095  0.82871306  1
  C  C31  1  0.44124905  0.17128694  0.11529202  1
  C  C32  1  0.82871306  0.88470798  0.55875095  1
  C  C33  1  0.55875095  0.82871306  0.88470798  1
  C  C34  1  0.11529202  0.44124905  0.17128694  1
  C  C35  1  0.17128694  0.11529202  0.44124905  1
  O  O36  1  0.70004551  0.46603289  0.20653750  1
  O  O37  1  0.20653750  0.70004551  0.46603289  1
  O  O38  1  0.51028294  0.89868104  0.09371510  1
  O  O39  1  0.79658401  0.34512743  0.28520750  1
  O  O40  1  0.09371510  0.51028294  0.89868104  1
  O  O41  1  0.65487257  0.71479250  0.20341599  1
  O  O42  1  0.89868104  0.09371510  0.51028294  1
  O  O43  1  0.34512743  0.28520750  0.79658401  1
  O  O44  1  0.71479250  0.20341599  0.65487257  1
  O  O45  1  0.90628490  0.48971706  0.10131896  1
  O  O46  1  0.79346250  0.29995449  0.53396711  1
  O  O47  1  0.28520750  0.79658401  0.34512743  1
  O  O48  1  0.48971706  0.10131896  0.90628490  1
  O  O49  1  0.53396711  0.79346250  0.29995449  1
  O  O50  1  0.46603289  0.20653750  0.70004551  1
  O  O51  1  0.29995449  0.53396711  0.79346250  1
  O  O52  1  0.20341599  0.65487257  0.71479250  1
  O  O53  1  0.10131896  0.90628490  0.48971706  1
