# generated using pymatgen
data_Fe4H14O13
_symmetry_space_group_name_H-M   'P 1'
_cell_length_a   6.71244064
_cell_length_b   6.75158357
_cell_length_c   6.75312286
_cell_angle_alpha   108.18254684
_cell_angle_beta   110.26324081
_cell_angle_gamma   110.80895636
_symmetry_Int_Tables_number   1
_chemical_formula_structural   Fe4H14O13
_chemical_formula_sum   'Fe4 H14 O13'
_cell_volume   233.01754848
_cell_formula_units_Z   1
loop_
 _symmetry_equiv_pos_site_id
 _symmetry_equiv_pos_as_xyz
  1  'x, y, z'
loop_
 _atom_site_type_symbol
 _atom_site_label
 _atom_site_symmetry_multiplicity
 _atom_site_fract_x
 _atom_site_fract_y
 _atom_site_fract_z
 _atom_site_occupancy
  Fe  Fe0  1  0.00000000  0.00000000  0.50000000  1
  Fe  Fe1  1  0.00000000  0.50000000  0.00000000  1
  Fe  Fe2  1  0.50000000  0.00000000  0.00000000  1
  Fe  Fe3  1  0.50000000  0.50000000  0.50000000  1
  H  H4  1  0.73928641  0.18164282  0.55507219  1
  H  H5  1  0.26071359  0.81835718  0.44492781  1
  H  H6  1  0.61849252  0.94249566  0.68122102  1
  H  H7  1  0.38150748  0.05750434  0.31877898  1
  H  H8  1  0.54205551  0.67506637  0.23279622  1
  H  H9  1  0.26234626  0.54967167  0.83325792  1
  H  H10  1  0.73765374  0.45032833  0.16674208  1
  H  H11  1  0.45794449  0.32493363  0.76720378  1
  H  H12  1  0.18751322  0.13923818  0.94769287  1
  H  H13  1  0.95206700  0.75835342  0.80223508  1
  H  H14  1  0.81248678  0.86076182  0.05230713  1
  H  H15  1  0.04793300  0.24164658  0.19776492  1
  H  H16  1  0.83284572  0.39313054  0.45559751  1
  H  H17  1  0.16715428  0.60686946  0.54440249  1
  O  O18  1  0.86353305  0.17981318  0.68699472  1
  O  O19  1  0.13646695  0.82018682  0.31300528  1
  O  O20  1  0.48134640  0.81624612  0.68092638  1
  O  O21  1  0.51865360  0.18375388  0.31907362  1
  O  O22  1  0.67482599  0.68661169  0.37070743  1
  O  O23  1  0.30964803  0.67794664  0.99148193  1
  O  O24  1  0.69035197  0.32205336  0.00851807  1
  O  O25  1  0.32517401  0.31338831  0.62929257  1
  O  O26  1  0.17888292  0.00558897  0.82094207  1
  O  O27  1  0.82010945  0.63615245  0.81034737  1
  O  O28  1  0.82111708  0.99441103  0.17905793  1
  O  O29  1  0.17989055  0.36384755  0.18965263  1
  O  O30  1  0.00000000  0.50000000  0.50000000  1
