# generated using pymatgen
data_Na8Hf(MoO4)6
_symmetry_space_group_name_H-M   'P 1'
_cell_length_a   9.91196928
_cell_length_b   11.35783378
_cell_length_c   11.70560378
_cell_angle_alpha   90.00000000
_cell_angle_beta   90.00000000
_cell_angle_gamma   111.55715560
_symmetry_Int_Tables_number   1
_chemical_formula_structural   Na8Hf(MoO4)6
_chemical_formula_sum   'Na16 Hf2 Mo12 O48'
_cell_volume   1225.62122544
_cell_formula_units_Z   2
loop_
 _symmetry_equiv_pos_site_id
 _symmetry_equiv_pos_as_xyz
  1  'x, y, z'
loop_
 _atom_site_type_symbol
 _atom_site_label
 _atom_site_symmetry_multiplicity
 _atom_site_fract_x
 _atom_site_fract_y
 _atom_site_fract_z
 _atom_site_occupancy
  Na  Na0  1  0.87669101  0.71071142  0.56728154  1
  Na  Na1  1  0.68677204  0.10088018  0.21809011  1
  Na  Na2  1  0.31322796  0.89911982  0.78190989  1
  Na  Na3  1  0.62330899  0.78928858  0.06728154  1
  Na  Na4  1  0.29537832  0.62746993  0.96280506  1
  Na  Na5  1  0.18677204  0.60088018  0.28190989  1
  Na  Na6  1  0.79537832  0.12746993  0.53719494  1
  Na  Na7  1  0.41460781  0.18948988  0.31554969  1
  Na  Na8  1  0.70462168  0.37253007  0.03719494  1
  Na  Na9  1  0.81322796  0.39911982  0.71809011  1
  Na  Na10  1  0.58539219  0.81051012  0.68445031  1
  Na  Na11  1  0.12330899  0.28928858  0.43271846  1
  Na  Na12  1  0.20462168  0.87253007  0.46280506  1
  Na  Na13  1  0.37669101  0.21071142  0.93271846  1
  Na  Na14  1  0.91460781  0.68948988  0.18445031  1
  Na  Na15  1  0.08539219  0.31051012  0.81554969  1
  Hf  Hf16  1  0.50000000  0.50000000  0.50000000  1
  Hf  Hf17  1  0.00000000  0.00000000  0.00000000  1
  Mo  Mo18  1  0.45273612  0.17979689  0.60925287  1
  Mo  Mo19  1  0.51664142  0.50661545  0.81393013  1
  Mo  Mo20  1  0.98335858  0.99338455  0.31393013  1
  Mo  Mo21  1  0.01664142  0.00661545  0.68606987  1
  Mo  Mo22  1  0.95273612  0.67979689  0.89074713  1
  Mo  Mo23  1  0.80549760  0.41161367  0.39647519  1
  Mo  Mo24  1  0.19450240  0.58838633  0.60352481  1
  Mo  Mo25  1  0.48335858  0.49338455  0.18606987  1
  Mo  Mo26  1  0.69450240  0.08838633  0.89647519  1
  Mo  Mo27  1  0.30549760  0.91161367  0.10352481  1
  Mo  Mo28  1  0.54726388  0.82020311  0.39074713  1
  Mo  Mo29  1  0.04726388  0.32020311  0.10925287  1
  O  O30  1  0.41071162  0.31825097  0.56020727  1
  O  O31  1  0.35560590  0.77301820  0.38202576  1
  O  O32  1  0.38261084  0.58991337  0.15095869  1
  O  O33  1  0.91545752  0.34961634  0.47872546  1
  O  O34  1  0.11738916  0.91008663  0.65095869  1
  O  O35  1  0.91864482  0.52218095  0.29704604  1
  O  O36  1  0.08454248  0.65038366  0.52127454  1
  O  O37  1  0.14439410  0.72698180  0.88202576  1
  O  O38  1  0.63008634  0.87720625  0.25609317  1
  O  O39  1  0.33241160  0.40660780  0.82855726  1
  O  O40  1  0.83241160  0.90660780  0.67144274  1
  O  O41  1  0.79111828  0.00864145  0.98874299  1
  O  O42  1  0.44873276  0.42871567  0.33506208  1
  O  O43  1  0.88261084  0.08991337  0.34904131  1
  O  O44  1  0.36991366  0.12279375  0.74390683  1
  O  O45  1  0.13008634  0.37720625  0.24390683  1
  O  O46  1  0.94873276  0.92871567  0.16493792  1
  O  O47  1  0.45194254  0.36309062  0.09098775  1
  O  O48  1  0.85560590  0.27301820  0.11797424  1
  O  O49  1  0.20888172  0.99135855  0.01125701  1
  O  O50  1  0.88883463  0.56397702  0.99897726  1
  O  O51  1  0.61116537  0.93602298  0.49897726  1
  O  O52  1  0.11116537  0.43602298  0.00102274  1
  O  O53  1  0.08928838  0.18174903  0.06020727  1
  O  O54  1  0.58928838  0.68174903  0.43979273  1
  O  O55  1  0.04805746  0.13690938  0.59098775  1
  O  O56  1  0.64439410  0.22698180  0.61797424  1
  O  O57  1  0.95194254  0.86309062  0.40901225  1
  O  O58  1  0.86991366  0.62279375  0.75609317  1
  O  O59  1  0.38883463  0.06397702  0.50102274  1
  O  O60  1  0.29111828  0.50864145  0.51125701  1
  O  O61  1  0.05126724  0.07128433  0.83506208  1
  O  O62  1  0.61738916  0.41008663  0.84904131  1
  O  O63  1  0.58454248  0.15038366  0.97872546  1
  O  O64  1  0.41545752  0.84961634  0.02127454  1
  O  O65  1  0.82775658  0.21559474  0.82231219  1
  O  O66  1  0.08135518  0.47781905  0.70295396  1
  O  O67  1  0.67224342  0.28440526  0.32231219  1
  O  O68  1  0.54805746  0.63690938  0.90901225  1
  O  O69  1  0.91071162  0.81825097  0.93979273  1
  O  O70  1  0.66758840  0.59339220  0.17144274  1
  O  O71  1  0.55126724  0.57128433  0.66493792  1
  O  O72  1  0.41864482  0.02218095  0.20295396  1
  O  O73  1  0.32775658  0.71559474  0.67768781  1
  O  O74  1  0.70888172  0.49135855  0.48874299  1
  O  O75  1  0.58135518  0.97781905  0.79704604  1
  O  O76  1  0.16758840  0.09339220  0.32855726  1
  O  O77  1  0.17224342  0.78440526  0.17768781  1
