# generated using pymatgen
data_Ho3Se4O12F
_symmetry_space_group_name_H-M   'P 1'
_cell_length_a   10.43498743
_cell_length_b   10.43498732
_cell_length_c   6.84493173
_cell_angle_alpha   90.00000000
_cell_angle_beta   90.00000000
_cell_angle_gamma   120.00000031
_symmetry_Int_Tables_number   1
_chemical_formula_structural   Ho3Se4O12F
_chemical_formula_sum   'Ho6 Se8 O24 F2'
_cell_volume   645.48121414
_cell_formula_units_Z   2
loop_
 _symmetry_equiv_pos_site_id
 _symmetry_equiv_pos_as_xyz
  1  'x, y, z'
loop_
 _atom_site_type_symbol
 _atom_site_label
 _atom_site_symmetry_multiplicity
 _atom_site_fract_x
 _atom_site_fract_y
 _atom_site_fract_z
 _atom_site_occupancy
  Ho  Ho0  1  0.07574666  0.53787333  0.20266622  1
  Ho  Ho1  1  0.46212667  0.92425334  0.20266622  1
  Ho  Ho2  1  0.53787333  0.07574666  0.70266622  1
  Ho  Ho3  1  0.92425334  0.46212667  0.70266622  1
  Ho  Ho4  1  0.46212667  0.53787333  0.20266622  1
  Ho  Ho5  1  0.53787333  0.46212667  0.70266622  1
  Se  Se6  1  0.30950039  0.15475019  0.93562281  1
  Se  Se7  1  0.84524981  0.15475019  0.93562281  1
  Se  Se8  1  0.33333300  0.66666700  0.76825236  1
  Se  Se9  1  0.84524981  0.69049961  0.93562281  1
  Se  Se10  1  0.69049961  0.84524981  0.43562281  1
  Se  Se11  1  0.66666700  0.33333300  0.26825236  1
  Se  Se12  1  0.15475019  0.84524981  0.43562281  1
  Se  Se13  1  0.15475019  0.30950039  0.43562281  1
  O  O14  1  0.33664514  0.41697148  0.50556229  1
  O  O15  1  0.91967366  0.33664514  0.00556229  1
  O  O16  1  0.41939798  0.83879596  0.88186625  1
  O  O17  1  0.33664514  0.91967366  0.50556229  1
  O  O18  1  0.63574992  0.81787496  0.19469107  1
  O  O19  1  0.41939798  0.58060202  0.88186625  1
  O  O20  1  0.18212504  0.81787496  0.19469107  1
  O  O21  1  0.66335486  0.58302852  0.00556229  1
  O  O22  1  0.83879596  0.41939798  0.38186625  1
  O  O23  1  0.41697148  0.33664514  0.00556229  1
  O  O24  1  0.36425008  0.18212504  0.69469107  1
  O  O25  1  0.58060202  0.41939798  0.38186625  1
  O  O26  1  0.66335486  0.08032634  0.00556229  1
  O  O27  1  0.58060202  0.16120404  0.38186625  1
  O  O28  1  0.81787496  0.63574992  0.69469107  1
  O  O29  1  0.58302852  0.91967366  0.50556229  1
  O  O30  1  0.81787496  0.18212504  0.69469107  1
  O  O31  1  0.08032634  0.41697148  0.50556229  1
  O  O32  1  0.16120404  0.58060202  0.88186625  1
  O  O33  1  0.18212504  0.36425008  0.19469107  1
  O  O34  1  0.91967366  0.58302852  0.00556229  1
  O  O35  1  0.08032634  0.66335486  0.50556229  1
  O  O36  1  0.41697148  0.08032634  0.00556229  1
  O  O37  1  0.58302852  0.66335486  0.50556229  1
  F  F38  1  0.66666700  0.33333300  0.74880489  1
  F  F39  1  0.33333300  0.66666700  0.24880489  1
