# generated using pymatgen
data_BaDy2MnO5
_symmetry_space_group_name_H-M   'P 1'
_cell_length_a   5.80415323
_cell_length_b   7.21398547
_cell_length_c   12.51656468
_cell_angle_alpha   90.00000000
_cell_angle_beta   90.00000000
_cell_angle_gamma   90.00000000
_symmetry_Int_Tables_number   1
_chemical_formula_structural   BaDy2MnO5
_chemical_formula_sum   'Ba4 Dy8 Mn4 O20'
_cell_volume   524.08204433
_cell_formula_units_Z   4
loop_
 _symmetry_equiv_pos_site_id
 _symmetry_equiv_pos_as_xyz
  1  'x, y, z'
loop_
 _atom_site_type_symbol
 _atom_site_label
 _atom_site_symmetry_multiplicity
 _atom_site_fract_x
 _atom_site_fract_y
 _atom_site_fract_z
 _atom_site_occupancy
  Ba  Ba0  1  0.25000000  0.91860432  0.89900334  1
  Ba  Ba1  1  0.75000000  0.08139568  0.10099666  1
  Ba  Ba2  1  0.75000000  0.41860432  0.60099666  1
  Ba  Ba3  1  0.25000000  0.58139568  0.39900334  1
  Dy  Dy4  1  0.25000000  0.12300939  0.29332985  1
  Dy  Dy5  1  0.75000000  0.87699061  0.70667015  1
  Dy  Dy6  1  0.75000000  0.62300939  0.20667015  1
  Dy  Dy7  1  0.25000000  0.37699061  0.79332985  1
  Dy  Dy8  1  0.25000000  0.40012446  0.07404626  1
  Dy  Dy9  1  0.75000000  0.59987554  0.92595374  1
  Dy  Dy10  1  0.75000000  0.90012446  0.42595374  1
  Dy  Dy11  1  0.25000000  0.09987554  0.57404626  1
  Mn  Mn12  1  0.25000000  0.69198274  0.65202551  1
  Mn  Mn13  1  0.75000000  0.30801726  0.34797449  1
  Mn  Mn14  1  0.75000000  0.19198274  0.84797449  1
  Mn  Mn15  1  0.25000000  0.80801726  0.15202551  1
  O  O16  1  0.00167579  0.16224776  0.43470743  1
  O  O17  1  0.50167579  0.83775224  0.56529257  1
  O  O18  1  0.99832421  0.66224776  0.06529257  1
  O  O19  1  0.49832421  0.33775224  0.93470743  1
  O  O20  1  0.99832421  0.83775224  0.56529257  1
  O  O21  1  0.49832421  0.16224776  0.43470743  1
  O  O22  1  0.00167579  0.33775224  0.93470743  1
  O  O23  1  0.50167579  0.66224776  0.06529257  1
  O  O24  1  0.49882225  0.36169031  0.22409448  1
  O  O25  1  0.99882225  0.63830969  0.77590552  1
  O  O26  1  0.50117775  0.86169031  0.27590552  1
  O  O27  1  0.00117775  0.13830969  0.72409448  1
  O  O28  1  0.50117775  0.63830969  0.77590552  1
  O  O29  1  0.00117775  0.36169031  0.22409448  1
  O  O30  1  0.49882225  0.13830969  0.72409448  1
  O  O31  1  0.99882225  0.86169031  0.27590552  1
  O  O32  1  0.25000000  0.07933770  0.10101068  1
  O  O33  1  0.75000000  0.92066230  0.89898932  1
  O  O34  1  0.75000000  0.57933770  0.39898932  1
  O  O35  1  0.25000000  0.42066230  0.60101068  1
