# generated using pymatgen
data_Te7(OF5)6
_symmetry_space_group_name_H-M   'P 1'
_cell_length_a   10.77061411
_cell_length_b   10.77061395
_cell_length_c   10.77061440
_cell_angle_alpha   50.12094322
_cell_angle_beta   50.12094392
_cell_angle_gamma   50.12094515
_symmetry_Int_Tables_number   1
_chemical_formula_structural   Te7(OF5)6
_chemical_formula_sum   'Te7 O6 F30'
_cell_volume   677.33135510
_cell_formula_units_Z   1
loop_
 _symmetry_equiv_pos_site_id
 _symmetry_equiv_pos_as_xyz
  1  'x, y, z'
loop_
 _atom_site_type_symbol
 _atom_site_label
 _atom_site_symmetry_multiplicity
 _atom_site_fract_x
 _atom_site_fract_y
 _atom_site_fract_z
 _atom_site_occupancy
  Te  Te0  1  0.60830024  0.91904611  0.23210596  1
  Te  Te1  1  0.08095389  0.76789404  0.39169976  1
  Te  Te2  1  0.91904611  0.23210596  0.60830024  1
  Te  Te3  1  0.76789404  0.39169976  0.08095389  1
  Te  Te4  1  0.00000000  0.00000000  0.00000000  1
  Te  Te5  1  0.39169976  0.08095389  0.76789404  1
  Te  Te6  1  0.23210596  0.60830024  0.91904611  1
  O  O7  1  0.24341665  0.94995012  0.92362897  1
  O  O8  1  0.05004988  0.07637103  0.75658335  1
  O  O9  1  0.92362897  0.24341665  0.94995012  1
  O  O10  1  0.07637103  0.75658335  0.05004988  1
  O  O11  1  0.94995012  0.92362897  0.24341665  1
  O  O12  1  0.75658335  0.05004988  0.07637103  1
  F  F13  1  0.63327255  0.54117700  0.94710928  1
  F  F14  1  0.47906117  0.08922456  0.09071625  1
  F  F15  1  0.94710928  0.63327255  0.54117700  1
  F  F16  1  0.62094609  0.54141558  0.19820886  1
  F  F17  1  0.36672745  0.45882300  0.05289072  1
  F  F18  1  0.09071625  0.47906117  0.08922456  1
  F  F19  1  0.45882300  0.05289072  0.36672745  1
  F  F20  1  0.54141558  0.19820886  0.62094609  1
  F  F21  1  0.74745093  0.37824095  0.73317780  1
  F  F22  1  0.08922456  0.09071625  0.47906117  1
  F  F23  1  0.52093883  0.91077544  0.90928375  1
  F  F24  1  0.05289072  0.36672745  0.45882300  1
  F  F25  1  0.37905391  0.45858442  0.80179114  1
  F  F26  1  0.45858442  0.80179114  0.37905391  1
  F  F27  1  0.80179114  0.37905391  0.45858442  1
  F  F28  1  0.37824095  0.73317780  0.74745093  1
  F  F29  1  0.25254907  0.62175905  0.26682220  1
  F  F30  1  0.26682220  0.25254907  0.62175905  1
  F  F31  1  0.09893485  0.75026482  0.78496345  1
  F  F32  1  0.75026482  0.78496345  0.09893485  1
  F  F33  1  0.21503655  0.90106515  0.24973518  1
  F  F34  1  0.91077544  0.90928375  0.52093883  1
  F  F35  1  0.24973518  0.21503655  0.90106515  1
  F  F36  1  0.19820886  0.62094609  0.54141558  1
  F  F37  1  0.90106515  0.24973518  0.21503655  1
  F  F38  1  0.90928375  0.52093883  0.91077544  1
  F  F39  1  0.54117700  0.94710928  0.63327255  1
  F  F40  1  0.62175905  0.26682220  0.25254907  1
  F  F41  1  0.78496345  0.09893485  0.75026482  1
  F  F42  1  0.73317780  0.74745093  0.37824095  1
