# generated using pymatgen
data_Cr2AgBiO8
_symmetry_space_group_name_H-M   'P 1'
_cell_length_a   5.13969733
_cell_length_b   5.13969681
_cell_length_c   6.94071021
_cell_angle_alpha   111.73148475
_cell_angle_beta   111.73148257
_cell_angle_gamma   90.00000193
_symmetry_Int_Tables_number   1
_chemical_formula_structural   Cr2AgBiO8
_chemical_formula_sum   'Cr2 Ag1 Bi1 O8'
_cell_volume   156.20436284
_cell_formula_units_Z   1
loop_
 _symmetry_equiv_pos_site_id
 _symmetry_equiv_pos_as_xyz
  1  'x, y, z'
loop_
 _atom_site_type_symbol
 _atom_site_label
 _atom_site_symmetry_multiplicity
 _atom_site_fract_x
 _atom_site_fract_y
 _atom_site_fract_z
 _atom_site_occupancy
  Cr  Cr0  1  0.25000000  0.75000000  0.50000000  1
  Cr  Cr1  1  0.00000000  0.00000000  0.00000000  1
  Ag  Ag2  1  0.75000000  0.25000000  0.50000000  1
  Bi  Bi3  1  0.50000000  0.50000000  0.00000000  1
  O  O4  1  0.92905755  0.54799019  0.33973894  1
  O  O5  1  0.32023684  0.20546555  0.15033220  1
  O  O6  1  0.20825124  0.07094245  0.66026106  1
  O  O7  1  0.45200981  0.58931861  0.66026106  1
  O  O8  1  0.79453445  0.16990463  0.84966780  1
  O  O9  1  0.41068139  0.79174876  0.33973894  1
  O  O10  1  0.05513335  0.67976316  0.84966780  1
  O  O11  1  0.83009537  0.94486665  0.15033220  1
