# generated using pymatgen
data_AlFeF5
_symmetry_space_group_name_H-M   'P 1'
_cell_length_a   3.60811363
_cell_length_b   5.25089073
_cell_length_c   5.25089024
_cell_angle_alpha   73.95176310
_cell_angle_beta   69.90538528
_cell_angle_gamma   69.90537144
_symmetry_Int_Tables_number   1
_chemical_formula_structural   AlFeF5
_chemical_formula_sum   'Al1 Fe1 F5'
_cell_volume   86.31256895
_cell_formula_units_Z   1
loop_
 _symmetry_equiv_pos_site_id
 _symmetry_equiv_pos_as_xyz
  1  'x, y, z'
loop_
 _atom_site_type_symbol
 _atom_site_label
 _atom_site_symmetry_multiplicity
 _atom_site_fract_x
 _atom_site_fract_y
 _atom_site_fract_z
 _atom_site_occupancy
  Al  Al0  1  0.50000000  0.50000000  0.50000000  1
  Fe  Fe1  1  0.00000000  0.00000000  0.00000000  1
  F  F2  1  0.50000000  0.79203009  0.20796991  1
  F  F3  1  0.50000000  0.20796991  0.79203009  1
  F  F4  1  0.73894902  0.26105098  0.26105098  1
  F  F5  1  0.26105098  0.73894902  0.73894902  1
  F  F6  1  0.00000000  0.50000000  0.50000000  1
