# generated using pymatgen
data_Ag3F8
_symmetry_space_group_name_H-M   'P 1'
_cell_length_a   5.23278420
_cell_length_b   5.57565381
_cell_length_c   11.40149332
_cell_angle_alpha   90.00000000
_cell_angle_beta   90.00000000
_cell_angle_gamma   96.95877237
_symmetry_Int_Tables_number   1
_chemical_formula_structural   Ag3F8
_chemical_formula_sum   'Ag6 F16'
_cell_volume   330.20171783
_cell_formula_units_Z   2
loop_
 _symmetry_equiv_pos_site_id
 _symmetry_equiv_pos_as_xyz
  1  'x, y, z'
loop_
 _atom_site_type_symbol
 _atom_site_label
 _atom_site_symmetry_multiplicity
 _atom_site_fract_x
 _atom_site_fract_y
 _atom_site_fract_z
 _atom_site_occupancy
  Ag  Ag0  1  0.27064081  0.02523133  0.68392296  1
  Ag  Ag1  1  0.72935919  0.97476867  0.31607704  1
  Ag  Ag2  1  0.22935919  0.47476867  0.18392296  1
  Ag  Ag3  1  0.77064081  0.52523133  0.81607704  1
  Ag  Ag4  1  0.50000000  0.00000000  0.00000000  1
  Ag  Ag5  1  0.00000000  0.50000000  0.50000000  1
  F  F6  1  0.21651527  0.17325689  0.08761520  1
  F  F7  1  0.21406991  0.75978977  0.28256613  1
  F  F8  1  0.78348473  0.82674311  0.91238480  1
  F  F9  1  0.71651527  0.67325689  0.41238480  1
  F  F10  1  0.75504160  0.16645813  0.46512192  1
  F  F11  1  0.79952240  0.71468404  0.67084826  1
  F  F12  1  0.20047760  0.28531596  0.32915174  1
  F  F13  1  0.78593009  0.24021023  0.71743387  1
  F  F14  1  0.29952240  0.21468404  0.82915174  1
  F  F15  1  0.71406991  0.25978977  0.21743387  1
  F  F16  1  0.74495840  0.33354187  0.96512192  1
  F  F17  1  0.24495840  0.83354187  0.53487808  1
  F  F18  1  0.28593009  0.74021023  0.78256613  1
  F  F19  1  0.25504160  0.66645813  0.03487808  1
  F  F20  1  0.28348473  0.32674311  0.58761520  1
  F  F21  1  0.70047760  0.78531596  0.17084826  1
