# generated using pymatgen
data_CrBiO3
_symmetry_space_group_name_H-M   'P 1'
_cell_length_a   5.46381369
_cell_length_b   5.67445166
_cell_length_c   7.83542075
_cell_angle_alpha   90.00005228
_cell_angle_beta   89.99940983
_cell_angle_gamma   89.99991687
_symmetry_Int_Tables_number   1
_chemical_formula_structural   CrBiO3
_chemical_formula_sum   'Cr4 Bi4 O12'
_cell_volume   242.93053409
_cell_formula_units_Z   4
loop_
 _symmetry_equiv_pos_site_id
 _symmetry_equiv_pos_as_xyz
  1  'x, y, z'
loop_
 _atom_site_type_symbol
 _atom_site_label
 _atom_site_symmetry_multiplicity
 _atom_site_fract_x
 _atom_site_fract_y
 _atom_site_fract_z
 _atom_site_occupancy
  Cr  Cr0  1  0.00000000  0.50000000  0.50000000  1
  Cr  Cr1  1  0.50000000  0.00000000  0.00000000  1
  Cr  Cr2  1  0.00000000  0.50000000  0.00000000  1
  Cr  Cr3  1  0.50000000  0.00000000  0.50000000  1
  Bi  Bi4  1  0.00991546  0.94705557  0.74999930  1
  Bi  Bi5  1  0.99008454  0.05294443  0.25000070  1
  Bi  Bi6  1  0.50991527  0.55294460  0.24999938  1
  Bi  Bi7  1  0.49008473  0.44705540  0.75000062  1
  O  O8  1  0.90843498  0.52637834  0.74999120  1
  O  O9  1  0.40843302  0.97362055  0.24999055  1
  O  O10  1  0.09156502  0.47362166  0.25000880  1
  O  O11  1  0.59156698  0.02637945  0.75000945  1
  O  O12  1  0.80180815  0.79808106  0.45567024  1
  O  O13  1  0.69819292  0.29808196  0.04433125  1
  O  O14  1  0.69821044  0.29809381  0.45566096  1
  O  O15  1  0.30178956  0.70190619  0.54433904  1
  O  O16  1  0.80179032  0.79809214  0.04433862  1
  O  O17  1  0.19819185  0.20191894  0.54432976  1
  O  O18  1  0.19820968  0.20190786  0.95566138  1
  O  O19  1  0.30180708  0.70191804  0.95566875  1
