# generated using pymatgen
data_Sm10S14O
_symmetry_space_group_name_H-M   'P 1'
_cell_length_a   14.49911225
_cell_length_b   14.49911207
_cell_length_c   14.49911250
_cell_angle_alpha   93.68752016
_cell_angle_beta   117.89433755
_cell_angle_gamma   117.89433537
_symmetry_Int_Tables_number   1
_chemical_formula_structural   Sm10S14O
_chemical_formula_sum   'Sm40 S56 O4'
_cell_volume   2218.93360283
_cell_formula_units_Z   4
loop_
 _symmetry_equiv_pos_site_id
 _symmetry_equiv_pos_as_xyz
  1  'x, y, z'
loop_
 _atom_site_type_symbol
 _atom_site_label
 _atom_site_symmetry_multiplicity
 _atom_site_fract_x
 _atom_site_fract_y
 _atom_site_fract_z
 _atom_site_occupancy
  Sm  Sm0  1  0.25000000  0.01009347  0.48990653  1
  Sm  Sm1  1  0.39976222  0.91923254  0.07412211  1
  Sm  Sm2  1  0.87539189  0.07427527  0.18592054  1
  Sm  Sm3  1  0.65488954  0.67435976  0.57412220  1
  Sm  Sm4  1  0.34511046  0.32564024  0.42587780  1
  Sm  Sm5  1  0.02018688  0.76009344  0.01009345  1
  Sm  Sm6  1  0.65488943  0.48052958  0.08076745  1
  Sm  Sm7  1  0.37539190  0.18947150  0.80111660  1
  Sm  Sm8  1  0.89976222  0.57412211  0.41923254  1
  Sm  Sm9  1  0.97981312  0.23990656  0.98990655  1
  Sm  Sm10  1  0.25000000  0.73990656  0.76009344  1
  Sm  Sm11  1  0.11164524  0.42572470  0.30111664  1
  Sm  Sm12  1  0.10023755  0.17435963  0.51947030  1
  Sm  Sm13  1  0.11164526  0.18592039  0.81052857  1
  Sm  Sm14  1  0.87539190  0.30111660  0.68947150  1
  Sm  Sm15  1  0.12460810  0.69888340  0.31052850  1
  Sm  Sm16  1  0.60023778  0.08076746  0.92587789  1
  Sm  Sm17  1  0.75000000  0.26009344  0.23990656  1
  Sm  Sm18  1  0.37539189  0.68592054  0.57427527  1
  Sm  Sm19  1  0.88835476  0.57427530  0.69888336  1
  Sm  Sm20  1  0.61164524  0.80111664  0.92572470  1
  Sm  Sm21  1  0.12460811  0.92572473  0.81407946  1
  Sm  Sm22  1  0.15488943  0.58076745  0.98052958  1
  Sm  Sm23  1  0.89976245  0.82564037  0.48052970  1
  Sm  Sm24  1  0.15488954  0.07412220  0.17435976  1
  Sm  Sm25  1  0.61164526  0.31052857  0.68592039  1
  Sm  Sm26  1  0.52018688  0.51009345  0.26009344  1
  Sm  Sm27  1  0.38835474  0.68947143  0.31407961  1
  Sm  Sm28  1  0.10023778  0.42587789  0.58076746  1
  Sm  Sm29  1  0.34511057  0.51947042  0.91923255  1
  Sm  Sm30  1  0.84511057  0.41923255  0.01947042  1
  Sm  Sm31  1  0.62460811  0.31407946  0.42572473  1
  Sm  Sm32  1  0.62460810  0.81052850  0.19888340  1
  Sm  Sm33  1  0.60023755  0.01947030  0.67435963  1
  Sm  Sm34  1  0.88835474  0.81407961  0.18947143  1
  Sm  Sm35  1  0.47981312  0.48990655  0.73990656  1
  Sm  Sm36  1  0.75000000  0.98990653  0.51009347  1
  Sm  Sm37  1  0.39976245  0.98052970  0.32564037  1
  Sm  Sm38  1  0.38835476  0.19888336  0.07427530  1
  Sm  Sm39  1  0.84511046  0.92587780  0.82564024  1
  S  S40  1  0.09244095  0.47114009  0.11327594  1
  S  S41  1  0.59244125  0.47916503  0.62130089  1
  S  S42  1  0.85786429  0.97916531  0.38672403  1
  S  S43  1  0.90755905  0.52885991  0.88672406  1
  S  S44  1  0.10848462  0.36663565  0.89880431  1
  S  S45  1  0.40755875  0.52083497  0.37869911  1
  S  S46  1  0.77113555  0.02033817  0.93762970  1
  S  S47  1  0.85786401  0.37869926  0.47114026  1
  S  S48  1  0.85148305  0.24999988  0.10148330  1
  S  S49  1  0.64851660  0.74999983  0.39851671  1
  S  S50  1  0.46783075  0.86663541  0.75815070  1
  S  S51  1  0.89151538  0.63336435  0.10119569  1
  S  S52  1  0.72886439  0.66649414  0.24920263  1
  S  S53  1  0.60848511  0.70968042  0.74184948  1
  S  S54  1  0.53216925  0.13336459  0.24184930  1
  S  S55  1  0.35148305  0.60148330  0.74999988  1
  S  S56  1  0.09244125  0.12130089  0.97916503  1
  S  S57  1  0.89151489  0.75815052  0.79031958  1
  S  S58  1  0.46783155  0.10119568  0.70968056  1
  S  S59  1  0.64213599  0.02885974  0.12130074  1
  S  S60  1  0.35148340  0.25000017  0.60148329  1
  S  S61  1  0.27113561  0.33350586  0.75079737  1
  S  S62  1  0.58270851  0.24920267  0.02033812  1
  S  S63  1  0.14213599  0.62130074  0.52885974  1
  S  S64  1  0.96783075  0.25815070  0.36663541  1
  S  S65  1  0.14213571  0.02083469  0.61327597  1
  S  S66  1  0.08270851  0.52033812  0.74920267  1
  S  S67  1  0.39151538  0.60119569  0.13336435  1
  S  S68  1  0.91729149  0.47966188  0.25079733  1
  S  S69  1  0.72886445  0.56237030  0.47966183  1
  S  S70  1  0.39151489  0.29031958  0.25815052  1
  S  S71  1  0.22886439  0.74920263  0.16649414  1
  S  S72  1  0.40755905  0.38672406  0.02885991  1
  S  S73  1  0.96783155  0.20968056  0.60119568  1
  S  S74  1  0.35786401  0.97114026  0.87869926  1
  S  S75  1  0.08270839  0.06237016  0.33350587  1
  S  S76  1  0.14851695  0.75000012  0.89851670  1
  S  S77  1  0.03216845  0.79031944  0.39880432  1
  S  S78  1  0.58270839  0.83350587  0.56237016  1
  S  S79  1  0.77113561  0.25079737  0.83350586  1
  S  S80  1  0.60848462  0.39880431  0.86663565  1
  S  S81  1  0.91729161  0.93762984  0.66649413  1
  S  S82  1  0.85148340  0.10148329  0.75000017  1
  S  S83  1  0.64851695  0.39851670  0.25000012  1
  S  S84  1  0.35786429  0.88672403  0.47916531  1
  S  S85  1  0.03216925  0.74184930  0.63336459  1
  S  S86  1  0.64213571  0.11327597  0.52083469  1
  S  S87  1  0.27113555  0.43762970  0.52033817  1
  S  S88  1  0.90755875  0.87869911  0.02083497  1
  S  S89  1  0.59244095  0.61327594  0.97114009  1
  S  S90  1  0.14851660  0.89851671  0.24999983  1
  S  S91  1  0.41729161  0.16649413  0.43762984  1
  S  S92  1  0.22886445  0.97966183  0.06237030  1
  S  S93  1  0.41729149  0.75079733  0.97966188  1
  S  S94  1  0.10848511  0.24184948  0.20968042  1
  S  S95  1  0.53216845  0.89880432  0.29031944  1
  O  O96  1  0.75000036  0.87500019  0.12500023  1
  O  O97  1  0.74999964  0.37499977  0.62499981  1
  O  O98  1  0.24999964  0.12499981  0.87499977  1
  O  O99  1  0.25000036  0.62500023  0.37500019  1
