# generated using pymatgen
data_TeI4
_symmetry_space_group_name_H-M   'P 1'
_cell_length_a   12.41065568
_cell_length_b   14.01372532
_cell_length_c   14.01372589
_cell_angle_alpha   78.68226549
_cell_angle_beta   63.70015462
_cell_angle_gamma   63.70015494
_symmetry_Int_Tables_number   1
_chemical_formula_structural   TeI4
_chemical_formula_sum   'Te8 I32'
_cell_volume   1958.80202873
_cell_formula_units_Z   8
loop_
 _symmetry_equiv_pos_site_id
 _symmetry_equiv_pos_as_xyz
  1  'x, y, z'
loop_
 _atom_site_type_symbol
 _atom_site_label
 _atom_site_symmetry_multiplicity
 _atom_site_fract_x
 _atom_site_fract_y
 _atom_site_fract_z
 _atom_site_occupancy
  Te  Te0  1  0.26639269  0.88752686  0.11242619  1
  Te  Te1  1  0.12121584  0.61248978  0.11248978  1
  Te  Te2  1  0.87878416  0.38751022  0.88751022  1
  Te  Te3  1  0.26639269  0.61242619  0.38752686  1
  Te  Te4  1  0.84601406  0.88760635  0.38760635  1
  Te  Te5  1  0.73360731  0.11247314  0.88757381  1
  Te  Te6  1  0.73360731  0.38757381  0.61247314  1
  Te  Te7  1  0.15398594  0.11239365  0.61239365  1
  I  I8  1  0.86186507  0.88979497  0.87608251  1
  I  I9  1  0.63441240  0.87461176  0.37461176  1
  I  I10  1  0.13813493  0.62391749  0.61020503  1
  I  I11  1  0.50897574  0.12546043  0.87464280  1
  I  I12  1  0.23785351  0.62400162  0.88980750  1
  I  I13  1  0.24843873  0.12392557  0.38973606  1
  I  I14  1  0.36934227  0.62813779  0.12813779  1
  I  I15  1  0.49102426  0.62535720  0.37453957  1
  I  I16  1  0.11633236  0.37460065  0.87460065  1
  I  I17  1  0.23785351  0.38980750  0.12400162  1
  I  I18  1  0.50897574  0.37464280  0.62546043  1
  I  I19  1  0.24843873  0.88973606  0.62392557  1
  I  I20  1  0.00251694  0.62829258  0.37184826  1
  I  I21  1  0.87429079  0.12826810  0.62826810  1
  I  I22  1  0.62762906  0.61026021  0.62388579  1
  I  I23  1  0.37237094  0.38973979  0.37611421  1
  I  I24  1  0.49102426  0.87453957  0.12535720  1
  I  I25  1  0.37237094  0.87611421  0.88973979  1
  I  I26  1  0.13813493  0.11020503  0.12391749  1
  I  I27  1  0.75156127  0.87607443  0.61026394  1
  I  I28  1  0.76214649  0.37599838  0.11019250  1
  I  I29  1  0.99748306  0.37170742  0.62815174  1
  I  I30  1  0.12570921  0.87173190  0.37173190  1
  I  I31  1  0.76214649  0.61019250  0.87599838  1
  I  I32  1  0.00251694  0.87184826  0.12829258  1
  I  I33  1  0.75156127  0.11026394  0.37607443  1
  I  I34  1  0.99748306  0.12815174  0.87170742  1
  I  I35  1  0.86186507  0.37608251  0.38979497  1
  I  I36  1  0.63065773  0.37186221  0.87186221  1
  I  I37  1  0.88366764  0.62539935  0.12539935  1
  I  I38  1  0.62762906  0.12388579  0.11026021  1
  I  I39  1  0.36558760  0.12538824  0.62538824  1
