# generated using pymatgen
data_GdWClO4
_symmetry_space_group_name_H-M   'P 1'
_cell_length_a   6.42922468
_cell_length_b   6.42922468
_cell_length_c   7.04449188
_cell_angle_alpha   75.84008406
_cell_angle_beta   75.84008406
_cell_angle_gamma   70.84627695
_symmetry_Int_Tables_number   1
_chemical_formula_structural   GdWClO4
_chemical_formula_sum   'Gd2 W2 Cl2 O8'
_cell_volume   262.37737855
_cell_formula_units_Z   2
loop_
 _symmetry_equiv_pos_site_id
 _symmetry_equiv_pos_as_xyz
  1  'x, y, z'
loop_
 _atom_site_type_symbol
 _atom_site_label
 _atom_site_symmetry_multiplicity
 _atom_site_fract_x
 _atom_site_fract_y
 _atom_site_fract_z
 _atom_site_occupancy
  Gd  Gd0  1  0.77788270  0.77788270  0.11902401  1
  Gd  Gd1  1  0.22211730  0.22211730  0.88097599  1
  W  W2  1  0.63665447  0.63665447  0.73413325  1
  W  W3  1  0.36334553  0.36334553  0.26586675  1
  Cl  Cl4  1  0.98851642  0.98851642  0.77053384  1
  Cl  Cl5  1  0.01148358  0.01148358  0.22946616  1
  O  O6  1  0.70389900  0.70389900  0.46762363  1
  O  O7  1  0.29610100  0.29610100  0.53237637  1
  O  O8  1  0.54368707  0.54368707  0.19670930  1
  O  O9  1  0.45631293  0.45631293  0.80329070  1
  O  O10  1  0.11122516  0.49103050  0.15464639  1
  O  O11  1  0.49103050  0.11122516  0.15464639  1
  O  O12  1  0.88877484  0.50896950  0.84535361  1
  O  O13  1  0.50896950  0.88877484  0.84535361  1
