# generated using pymatgen
data_BaMo2(PO4)4
_symmetry_space_group_name_H-M   'P 1'
_cell_length_a   6.54752041
_cell_length_b   7.92238386
_cell_length_c   12.60619000
_cell_angle_alpha   90.00000000
_cell_angle_beta   90.00000000
_cell_angle_gamma   100.11041450
_symmetry_Int_Tables_number   1
_chemical_formula_structural   BaMo2(PO4)4
_chemical_formula_sum   'Ba2 Mo4 P8 O32'
_cell_volume   643.75356202
_cell_formula_units_Z   2
loop_
 _symmetry_equiv_pos_site_id
 _symmetry_equiv_pos_as_xyz
  1  'x, y, z'
loop_
 _atom_site_type_symbol
 _atom_site_label
 _atom_site_symmetry_multiplicity
 _atom_site_fract_x
 _atom_site_fract_y
 _atom_site_fract_z
 _atom_site_occupancy
  Ba  Ba0  1  0.50000000  0.50000000  0.00000000  1
  Ba  Ba1  1  0.00000000  0.00000000  0.50000000  1
  Mo  Mo2  1  0.79658885  0.33720081  0.68950668  1
  Mo  Mo3  1  0.20341115  0.66279919  0.31049332  1
  Mo  Mo4  1  0.29658885  0.83720081  0.81049332  1
  Mo  Mo5  1  0.70341115  0.16279919  0.18950668  1
  P  P6  1  0.69087480  0.56382604  0.30683559  1
  P  P7  1  0.59515579  0.25109261  0.44339629  1
  P  P8  1  0.90484421  0.24890739  0.94339629  1
  P  P9  1  0.09515579  0.75109261  0.05660371  1
  P  P10  1  0.40484421  0.74890739  0.55660371  1
  P  P11  1  0.19087480  0.06382604  0.19316441  1
  P  P12  1  0.30912520  0.43617396  0.69316441  1
  P  P13  1  0.80912520  0.93617396  0.80683559  1
  O  O14  1  0.62757732  0.80760458  0.53156421  1
  O  O15  1  0.12757732  0.30760458  0.96843579  1
  O  O16  1  0.78646624  0.05972235  0.71612298  1
  O  O17  1  0.11044210  0.30573346  0.67133563  1
  O  O18  1  0.81159081  0.34540297  0.85268240  1
  O  O19  1  0.63590307  0.45251194  0.41266516  1
  O  O20  1  0.36409693  0.54748806  0.58733484  1
  O  O21  1  0.13421837  0.45260842  0.34363479  1
  O  O22  1  0.51316915  0.66337639  0.28954239  1
  O  O23  1  0.63421837  0.95260842  0.15636521  1
  O  O24  1  0.18840919  0.65459703  0.14731760  1
  O  O25  1  0.36578163  0.04739158  0.84363479  1
  O  O26  1  0.21353376  0.94027765  0.28387702  1
  O  O27  1  0.75191972  0.25708435  0.03742493  1
  O  O28  1  0.37242268  0.19239542  0.46843579  1
  O  O29  1  0.48683085  0.33662361  0.71045761  1
  O  O30  1  0.86578163  0.54739158  0.65636521  1
  O  O31  1  0.38955790  0.19426654  0.17133563  1
  O  O32  1  0.74808028  0.24291565  0.53742493  1
  O  O33  1  0.86409693  0.04748806  0.91266516  1
  O  O34  1  0.13590307  0.95251194  0.08733484  1
  O  O35  1  0.71353376  0.44027765  0.21612298  1
  O  O36  1  0.98683085  0.83662361  0.78954239  1
  O  O37  1  0.88955790  0.69426654  0.32866437  1
  O  O38  1  0.87242268  0.69239542  0.03156421  1
  O  O39  1  0.25191972  0.75708435  0.46257507  1
  O  O40  1  0.24808028  0.74291565  0.96257507  1
  O  O41  1  0.31159081  0.84540297  0.64731760  1
  O  O42  1  0.01316915  0.16337639  0.21045761  1
  O  O43  1  0.61044210  0.80573346  0.82866437  1
  O  O44  1  0.68840919  0.15459703  0.35268240  1
  O  O45  1  0.28646624  0.55972235  0.78387702  1
