# generated using pymatgen
data_Nd2Fe23B3
_symmetry_space_group_name_H-M   'P 1'
_cell_length_a   12.19019125
_cell_length_b   12.19019107
_cell_length_c   12.19019113
_cell_angle_alpha   109.47122072
_cell_angle_beta   109.47122043
_cell_angle_gamma   109.47122114
_symmetry_Int_Tables_number   1
_chemical_formula_structural   Nd2Fe23B3
_chemical_formula_sum   'Nd8 Fe92 B12'
_cell_volume   1394.47153685
_cell_formula_units_Z   4
loop_
 _symmetry_equiv_pos_site_id
 _symmetry_equiv_pos_as_xyz
  1  'x, y, z'
loop_
 _atom_site_type_symbol
 _atom_site_label
 _atom_site_symmetry_multiplicity
 _atom_site_fract_x
 _atom_site_fract_y
 _atom_site_fract_z
 _atom_site_occupancy
  Nd  Nd0  1  0.50000000  0.00000000  0.38490425  1
  Nd  Nd1  1  0.61509575  0.61509575  0.61509575  1
  Nd  Nd2  1  0.50000000  0.00000000  0.88490425  1
  Nd  Nd3  1  0.88490425  0.50000000  1.00000000  1
  Nd  Nd4  1  0.00000000  0.88490425  0.50000000  1
  Nd  Nd5  1  0.38490425  0.50000000  1.00000000  1
  Nd  Nd6  1  0.00000000  0.38490425  0.50000000  1
  Nd  Nd7  1  0.11509575  0.11509575  0.11509575  1
  Fe  Fe8  1  0.44421259  0.74875985  0.93881444  1
  Fe  Fe9  1  0.25124015  0.69005459  0.69545274  1
  Fe  Fe10  1  0.83010465  0.58010465  0.25000000  1
  Fe  Fe11  1  0.13714217  0.50000000  0.00000000  1
  Fe  Fe12  1  0.80454726  0.49460185  0.55578741  1
  Fe  Fe13  1  0.67689524  0.95332323  0.09615202  1
  Fe  Fe14  1  1.00000000  0.13714217  0.50000000  1
  Fe  Fe15  1  0.06118556  0.00539815  0.80994541  1
  Fe  Fe16  1  0.91925677  0.27642798  0.82310476  1
  Fe  Fe17  1  0.19134298  0.56725348  0.82959090  1
  Fe  Fe18  1  0.09615202  0.67689524  0.95332323  1
  Fe  Fe19  1  0.75000000  0.08010465  0.33010465  1
  Fe  Fe20  1  0.33010465  0.75000000  0.08010465  1
  Fe  Fe21  1  1.00000000  0.63714217  0.50000000  1
  Fe  Fe22  1  0.80865702  0.87591050  0.63824792  1
  Fe  Fe23  1  0.56725348  0.82959090  0.19134298  1
  Fe  Fe24  1  0.87591050  0.63824792  0.80865702  1
  Fe  Fe25  1  0.37591050  0.30865702  0.13824792  1
  Fe  Fe26  1  0.74875985  0.93881444  0.44421259  1
  Fe  Fe27  1  0.72357202  0.04667677  0.64282879  1
  Fe  Fe28  1  0.25000000  0.83010465  0.58010465  1
  Fe  Fe29  1  0.36285783  0.36285783  0.36285783  1
  Fe  Fe30  1  0.55578741  0.80454726  0.49460185  1
  Fe  Fe31  1  0.32310476  0.77642798  0.41925677  1
  Fe  Fe32  1  0.85717121  0.90384798  0.08074323  1
  Fe  Fe33  1  0.62408950  0.43274652  0.76233742  1
  Fe  Fe34  1  0.63714217  0.50000000  0.00000000  1
  Fe  Fe35  1  0.69005459  0.69545274  0.25124015  1
  Fe  Fe36  1  0.24875985  0.94421259  0.43881444  1
  Fe  Fe37  1  0.16989535  0.25000000  0.41989535  1
  Fe  Fe38  1  0.12408950  0.26233742  0.93274652  1
  Fe  Fe39  1  0.49460185  0.55578741  0.80454726  1
  Fe  Fe40  1  0.75124015  0.19545274  0.19005459  1
  Fe  Fe41  1  0.43881444  0.24875985  0.94421259  1
  Fe  Fe42  1  0.82959090  0.19134298  0.56725348  1
  Fe  Fe43  1  0.90384798  0.08074323  0.85717121  1
  Fe  Fe44  1  0.86285783  0.86285783  0.86285783  1
  Fe  Fe45  1  0.54667677  0.22357202  0.14282879  1
  Fe  Fe46  1  0.23766258  0.36175208  0.67040910  1
  Fe  Fe47  1  0.41925677  0.32310476  0.77642798  1
  Fe  Fe48  1  0.69545274  0.25124015  0.69005459  1
  Fe  Fe49  1  0.86175208  0.73766258  0.17040910  1
  Fe  Fe50  1  0.45332323  0.17689524  0.59615202  1
  Fe  Fe51  1  0.30454726  0.05578741  0.99460185  1
  Fe  Fe52  1  0.06725348  0.69134298  0.32959090  1
  Fe  Fe53  1  0.94421259  0.43881444  0.24875985  1
  Fe  Fe54  1  0.19005459  0.75124015  0.19545274  1
  Fe  Fe55  1  0.59615202  0.45332323  0.17689524  1
  Fe  Fe56  1  0.50000000  0.00000000  0.13714217  1
  Fe  Fe57  1  0.95332323  0.09615202  0.67689524  1
  Fe  Fe58  1  0.41989535  0.16989535  0.25000000  1
  Fe  Fe59  1  0.91989535  0.75000000  0.66989535  1
  Fe  Fe60  1  0.08074323  0.85717121  0.90384798  1
  Fe  Fe61  1  0.63824792  0.80865702  0.87591050  1
  Fe  Fe62  1  0.58010465  0.25000000  0.83010465  1
  Fe  Fe63  1  0.93274652  0.12408950  0.26233742  1
  Fe  Fe64  1  0.75000000  0.66989535  0.91989535  1
  Fe  Fe65  1  0.56118556  0.30994541  0.50539815  1
  Fe  Fe66  1  0.14282879  0.54667677  0.22357202  1
  Fe  Fe67  1  0.22357202  0.14282879  0.54667677  1
  Fe  Fe68  1  0.30994541  0.50539815  0.56118556  1
  Fe  Fe69  1  0.76233742  0.62408950  0.43274652  1
  Fe  Fe70  1  0.50539815  0.56118556  0.30994541  1
  Fe  Fe71  1  0.17689524  0.59615202  0.45332323  1
  Fe  Fe72  1  0.35717121  0.58074323  0.40384798  1
  Fe  Fe73  1  0.80994541  0.06118556  0.00539815  1
  Fe  Fe74  1  0.19545274  0.19005459  0.75124015  1
  Fe  Fe75  1  0.08010465  0.33010465  0.75000000  1
  Fe  Fe76  1  0.67040910  0.23766258  0.36175208  1
  Fe  Fe77  1  0.82310476  0.91925677  0.27642798  1
  Fe  Fe78  1  0.30865702  0.13824792  0.37591050  1
  Fe  Fe79  1  0.00539815  0.80994541  0.06118556  1
  Fe  Fe80  1  0.66989535  0.91989535  0.75000000  1
  Fe  Fe81  1  0.05578741  0.99460185  0.30454726  1
  Fe  Fe82  1  0.58074323  0.40384798  0.35717121  1
  Fe  Fe83  1  0.13824792  0.37591050  0.30865702  1
  Fe  Fe84  1  0.73766258  0.17040910  0.86175208  1
  Fe  Fe85  1  0.27642798  0.82310476  0.91925677  1
  Fe  Fe86  1  0.93881444  0.44421259  0.74875985  1
  Fe  Fe87  1  0.50000000  0.00000000  0.63714217  1
  Fe  Fe88  1  0.32959090  0.06725348  0.69134298  1
  Fe  Fe89  1  0.17040910  0.86175208  0.73766258  1
  Fe  Fe90  1  0.04667677  0.64282879  0.72357202  1
  Fe  Fe91  1  0.43274652  0.76233742  0.62408950  1
  Fe  Fe92  1  0.36175208  0.67040910  0.23766258  1
  Fe  Fe93  1  0.40384798  0.35717121  0.58074323  1
  Fe  Fe94  1  0.77642798  0.41925677  0.32310476  1
  Fe  Fe95  1  0.99460185  0.30454726  0.05578741  1
  Fe  Fe96  1  0.26233742  0.93274652  0.12408950  1
  Fe  Fe97  1  0.69134298  0.32959090  0.06725348  1
  Fe  Fe98  1  0.64282879  0.72357202  0.04667677  1
  Fe  Fe99  1  0.25000000  0.41989535  0.16989535  1
  B  B100  1  0.18695867  0.93695867  0.25000000  1
  B  B101  1  0.06304133  0.81304133  0.25000000  1
  B  B102  1  0.31304133  0.56304133  0.75000000  1
  B  B103  1  0.75000000  0.31304133  0.56304133  1
  B  B104  1  0.43695867  0.68695867  0.75000000  1
  B  B105  1  0.68695867  0.75000000  0.43695867  1
  B  B106  1  0.56304133  0.75000000  0.31304133  1
  B  B107  1  0.25000000  0.06304133  0.81304133  1
  B  B108  1  0.25000000  0.18695867  0.93695867  1
  B  B109  1  0.75000000  0.43695867  0.68695867  1
  B  B110  1  0.93695867  0.25000000  0.18695867  1
  B  B111  1  0.81304133  0.25000000  0.06304133  1
