# generated using pymatgen
data_Eu3Fe5O12
_symmetry_space_group_name_H-M   'P 1'
_cell_length_a   11.01295286
_cell_length_b   11.01295197
_cell_length_c   11.01295236
_cell_angle_alpha   109.47122134
_cell_angle_beta   109.47121971
_cell_angle_gamma   109.47122321
_symmetry_Int_Tables_number   1
_chemical_formula_structural   Eu3Fe5O12
_chemical_formula_sum   'Eu12 Fe20 O48'
_cell_volume   1028.22789739
_cell_formula_units_Z   4
loop_
 _symmetry_equiv_pos_site_id
 _symmetry_equiv_pos_as_xyz
  1  'x, y, z'
loop_
 _atom_site_type_symbol
 _atom_site_label
 _atom_site_symmetry_multiplicity
 _atom_site_fract_x
 _atom_site_fract_y
 _atom_site_fract_z
 _atom_site_occupancy
  Eu  Eu0  1  0.75000000  0.62500000  0.87500000  1
  Eu  Eu1  1  0.37500000  0.75000000  0.12500000  1
  Eu  Eu2  1  0.87500000  0.62500000  0.25000000  1
  Eu  Eu3  1  0.37500000  0.12500000  0.25000000  1
  Eu  Eu4  1  0.12500000  0.25000000  0.37500000  1
  Eu  Eu5  1  0.62500000  0.87500000  0.75000000  1
  Eu  Eu6  1  0.25000000  0.87500000  0.62500000  1
  Eu  Eu7  1  0.75000000  0.12500000  0.37500000  1
  Eu  Eu8  1  0.25000000  0.37500000  0.12500000  1
  Eu  Eu9  1  0.62500000  0.25000000  0.87500000  1
  Eu  Eu10  1  0.87500000  0.75000000  0.62500000  1
  Eu  Eu11  1  0.12500000  0.37500000  0.75000000  1
  Fe  Fe12  1  0.12500000  0.87500000  0.25000000  1
  Fe  Fe13  1  0.12500000  0.75000000  0.87500000  1
  Fe  Fe14  1  0.87500000  0.12500000  0.75000000  1
  Fe  Fe15  1  0.50000000  0.00000000  0.50000000  1
  Fe  Fe16  1  0.00000000  0.00000000  0.50000000  1
  Fe  Fe17  1  0.50000000  0.50000000  0.50000000  1
  Fe  Fe18  1  0.00000000  0.00000000  0.00000000  1
  Fe  Fe19  1  0.75000000  0.37500000  0.62500000  1
  Fe  Fe20  1  0.37500000  0.62500000  0.75000000  1
  Fe  Fe21  1  0.25000000  0.62500000  0.37500000  1
  Fe  Fe22  1  0.00000000  0.50000000  0.50000000  1
  Fe  Fe23  1  0.62500000  0.75000000  0.37500000  1
  Fe  Fe24  1  0.37500000  0.25000000  0.62500000  1
  Fe  Fe25  1  0.87500000  0.25000000  0.12500000  1
  Fe  Fe26  1  0.50000000  0.50000000  0.00000000  1
  Fe  Fe27  1  0.62500000  0.37500000  0.25000000  1
  Fe  Fe28  1  0.25000000  0.12500000  0.87500000  1
  Fe  Fe29  1  0.50000000  0.00000000  0.00000000  1
  Fe  Fe30  1  0.75000000  0.87500000  0.12500000  1
  Fe  Fe31  1  0.00000000  0.50000000  0.00000000  1
  O  O32  1  0.82198189  0.52495638  0.40407073  1
  O  O33  1  0.37911435  0.29702451  0.47504362  1
  O  O34  1  0.90407073  0.37911435  0.58208883  1
  O  O35  1  0.40407073  0.82198189  0.52495638  1
  O  O36  1  0.59592927  0.17801811  0.47504362  1
  O  O37  1  0.70297549  0.67801811  0.08208883  1
  O  O38  1  0.09592927  0.97504362  0.67801811  1
  O  O39  1  0.29702451  0.32198189  0.91791117  1
  O  O40  1  0.12088565  0.02495638  0.20297549  1
  O  O41  1  0.40407073  0.08208883  0.87911435  1
  O  O42  1  0.67801811  0.08208883  0.70297549  1
  O  O43  1  0.62088565  0.70297549  0.52495638  1
  O  O44  1  0.52495638  0.62088565  0.70297549  1
  O  O45  1  0.52495638  0.40407073  0.82198189  1
  O  O46  1  0.32198189  0.90407073  0.02495638  1
  O  O47  1  0.02495638  0.20297549  0.12088565  1
  O  O48  1  0.12088565  0.59592927  0.91791117  1
  O  O49  1  0.58208883  0.17801811  0.20297549  1
  O  O50  1  0.47504362  0.37911435  0.29702451  1
  O  O51  1  0.37911435  0.58208883  0.90407073  1
  O  O52  1  0.87911435  0.40407073  0.08208883  1
  O  O53  1  0.47504362  0.59592927  0.17801811  1
  O  O54  1  0.67801811  0.09592927  0.97504362  1
  O  O55  1  0.17801811  0.20297549  0.58208883  1
  O  O56  1  0.97504362  0.79702451  0.87911435  1
  O  O57  1  0.59592927  0.91791117  0.12088565  1
  O  O58  1  0.08208883  0.87911435  0.40407073  1
  O  O59  1  0.87911435  0.97504362  0.79702451  1
  O  O60  1  0.32198189  0.91791117  0.29702451  1
  O  O61  1  0.91791117  0.12088565  0.59592927  1
  O  O62  1  0.08208883  0.70297549  0.67801811  1
  O  O63  1  0.79702451  0.41791117  0.82198189  1
  O  O64  1  0.09592927  0.62088565  0.41791117  1
  O  O65  1  0.58208883  0.90407073  0.37911435  1
  O  O66  1  0.82198189  0.79702451  0.41791117  1
  O  O67  1  0.41791117  0.82198189  0.79702451  1
  O  O68  1  0.97504362  0.67801811  0.09592927  1
  O  O69  1  0.70297549  0.52495638  0.62088565  1
  O  O70  1  0.62088565  0.41791117  0.09592927  1
  O  O71  1  0.91791117  0.29702451  0.32198189  1
  O  O72  1  0.20297549  0.12088565  0.02495638  1
  O  O73  1  0.02495638  0.32198189  0.90407073  1
  O  O74  1  0.29702451  0.47504362  0.37911435  1
  O  O75  1  0.20297549  0.58208883  0.17801811  1
  O  O76  1  0.90407073  0.02495638  0.32198189  1
  O  O77  1  0.79702451  0.87911435  0.97504362  1
  O  O78  1  0.17801811  0.47504362  0.59592927  1
  O  O79  1  0.41791117  0.09592927  0.62088565  1
