# generated using pymatgen
data_Na2Fe3(PO4)3
_symmetry_space_group_name_H-M   'P 1'
_cell_length_a   6.61310828
_cell_length_b   8.69317438
_cell_length_c   9.32447990
_cell_angle_alpha   75.20670356
_cell_angle_beta   63.45881386
_cell_angle_gamma   73.65423528
_symmetry_Int_Tables_number   1
_chemical_formula_structural   Na2Fe3(PO4)3
_chemical_formula_sum   'Na4 Fe6 P6 O24'
_cell_volume   454.90529024
_cell_formula_units_Z   2
loop_
 _symmetry_equiv_pos_site_id
 _symmetry_equiv_pos_as_xyz
  1  'x, y, z'
loop_
 _atom_site_type_symbol
 _atom_site_label
 _atom_site_symmetry_multiplicity
 _atom_site_fract_x
 _atom_site_fract_y
 _atom_site_fract_z
 _atom_site_occupancy
  Na  Na0  1  0.26575659  0.98424341  0.48424341  1
  Na  Na1  1  0.73424341  0.01575659  0.51575659  1
  Na  Na2  1  0.50000000  0.50000000  0.00000000  1
  Na  Na3  1  0.00000000  0.50000000  0.00000000  1
  Fe  Fe4  1  0.74414760  0.94370343  0.88062783  1
  Fe  Fe5  1  0.56847986  0.61937217  0.55629657  1
  Fe  Fe6  1  0.25585240  0.05629657  0.11937217  1
  Fe  Fe7  1  0.01968882  0.73031118  0.23031118  1
  Fe  Fe8  1  0.98031118  0.26968882  0.76968882  1
  Fe  Fe9  1  0.43152014  0.38062783  0.44370343  1
  P  P10  1  0.72447416  0.12505224  0.15815146  1
  P  P11  1  0.99232213  0.65815146  0.62505224  1
  P  P12  1  0.45882267  0.29117733  0.79117733  1
  P  P13  1  0.00767787  0.34184854  0.37494776  1
  P  P14  1  0.54117733  0.70882267  0.20882267  1
  P  P15  1  0.27552584  0.87494776  0.84184854  1
  O  O16  1  0.26077577  0.60490244  0.54415705  1
  O  O17  1  0.28556920  0.26350012  0.96922848  1
  O  O18  1  0.89628650  0.52817707  0.77101545  1
  O  O19  1  0.40983527  0.95584295  0.89509756  1
  O  O20  1  0.80452099  0.27101545  0.02817707  1
  O  O21  1  0.10845854  0.32279424  0.50396472  1
  O  O22  1  0.51829780  0.53077152  0.23649988  1
  O  O23  1  0.93367218  0.82964952  0.67227403  1
  O  O24  1  0.89154146  0.67720576  0.49603528  1
  O  O25  1  0.36000349  0.26180462  0.67818330  1
  O  O26  1  0.93521750  0.99603528  0.17720576  1
  O  O27  1  0.43559473  0.82772597  0.67035048  1
  O  O28  1  0.10371350  0.47182293  0.22898455  1
  O  O29  1  0.59016473  0.04415705  0.10490244  1
  O  O30  1  0.71443080  0.73649988  0.03077152  1
  O  O31  1  0.06478250  0.00396472  0.82279424  1
  O  O32  1  0.48170220  0.46922848  0.76350012  1
  O  O33  1  0.73922423  0.39509756  0.45584295  1
  O  O34  1  0.56440527  0.17227403  0.32964952  1
  O  O35  1  0.63999651  0.73819538  0.32181670  1
  O  O36  1  0.06632782  0.17035048  0.32772597  1
  O  O37  1  0.70000759  0.17818330  0.76180462  1
  O  O38  1  0.29999241  0.82181670  0.23819538  1
  O  O39  1  0.19547901  0.72898455  0.97182293  1
