# generated using pymatgen
data_Zr(MoO4)2
_symmetry_space_group_name_H-M   'P 1'
_cell_length_a   5.06389880
_cell_length_b   6.20857408
_cell_length_c   6.20857481
_cell_angle_alpha   60.59131501
_cell_angle_beta   99.27101057
_cell_angle_gamma   99.27100520
_symmetry_Int_Tables_number   1
_chemical_formula_structural   Zr(MoO4)2
_chemical_formula_sum   'Zr1 Mo2 O8'
_cell_volume   167.05593409
_cell_formula_units_Z   1
loop_
 _symmetry_equiv_pos_site_id
 _symmetry_equiv_pos_as_xyz
  1  'x, y, z'
loop_
 _atom_site_type_symbol
 _atom_site_label
 _atom_site_symmetry_multiplicity
 _atom_site_fract_x
 _atom_site_fract_y
 _atom_site_fract_z
 _atom_site_occupancy
  Zr  Zr0  1  0.00000000  0.00000000  0.00000000  1
  Mo  Mo1  1  0.86654908  0.32064137  0.32064136  1
  Mo  Mo2  1  0.13345092  0.67935863  0.67935864  1
  O  O3  1  0.77775751  0.64207742  0.14755018  1
  O  O4  1  0.22224250  0.85244982  0.35792258  1
  O  O5  1  0.22224249  0.35792258  0.85244982  1
  O  O6  1  0.23263689  0.85294202  0.85294202  1
  O  O7  1  0.76736311  0.14705798  0.14705798  1
  O  O8  1  0.21196692  0.34816578  0.34816578  1
  O  O9  1  0.78803308  0.65183422  0.65183422  1
  O  O10  1  0.77775750  0.14755018  0.64207742  1
