# generated using pymatgen
data_K6Sn25
_symmetry_space_group_name_H-M   'P 1'
_cell_length_a   16.61228090
_cell_length_b   16.61228090
_cell_length_c   16.61228090
_cell_angle_alpha   90.00000000
_cell_angle_beta   90.00000000
_cell_angle_gamma   90.00000000
_symmetry_Int_Tables_number   1
_chemical_formula_structural   K6Sn25
_chemical_formula_sum   'K24 Sn100'
_cell_volume   4584.45588713
_cell_formula_units_Z   4
loop_
 _symmetry_equiv_pos_site_id
 _symmetry_equiv_pos_as_xyz
  1  'x, y, z'
loop_
 _atom_site_type_symbol
 _atom_site_label
 _atom_site_symmetry_multiplicity
 _atom_site_fract_x
 _atom_site_fract_y
 _atom_site_fract_z
 _atom_site_occupancy
  K  K0  1  0.62500000  0.18965197  0.06034803  1
  K  K1  1  0.06034803  0.62500000  0.18965197  1
  K  K2  1  0.87500000  0.81034803  0.56034803  1
  K  K3  1  0.81034803  0.56034803  0.87500000  1
  K  K4  1  0.18965197  0.06034803  0.62500000  1
  K  K5  1  0.12500000  0.87500000  0.37500000  1
  K  K6  1  0.19038614  0.69038614  0.80961386  1
  K  K7  1  0.44038614  0.55961386  0.05961386  1
  K  K8  1  0.05961386  0.44038614  0.55961386  1
  K  K9  1  0.37500000  0.12500000  0.87500000  1
  K  K10  1  0.43965197  0.37500000  0.68965197  1
  K  K11  1  0.37500000  0.68965197  0.43965197  1
  K  K12  1  0.55961386  0.05961386  0.44038614  1
  K  K13  1  0.93965197  0.12500000  0.31034803  1
  K  K14  1  0.94038614  0.94038614  0.94038614  1
  K  K15  1  0.87500000  0.37500000  0.12500000  1
  K  K16  1  0.80961386  0.19038614  0.69038614  1
  K  K17  1  0.56034803  0.87500000  0.81034803  1
  K  K18  1  0.69038614  0.80961386  0.19038614  1
  K  K19  1  0.62500000  0.62500000  0.62500000  1
  K  K20  1  0.68965197  0.43965197  0.37500000  1
  K  K21  1  0.30961386  0.30961386  0.30961386  1
  K  K22  1  0.31034803  0.93965197  0.12500000  1
  K  K23  1  0.12500000  0.31034803  0.93965197  1
  Sn  Sn24  1  0.21979504  0.28020496  0.71979504  1
  Sn  Sn25  1  0.29402745  0.54629088  0.24756824  1
  Sn  Sn26  1  0.79629088  0.04402745  0.50243176  1
  Sn  Sn27  1  0.53020496  0.96979504  0.03020496  1
  Sn  Sn28  1  0.76084606  0.93274151  0.37439513  1
  Sn  Sn29  1  0.33919206  0.90214964  0.83328887  1
  Sn  Sn30  1  0.16080794  0.09785036  0.33328887  1
  Sn  Sn31  1  0.28020496  0.71979504  0.21979504  1
  Sn  Sn32  1  0.91671113  0.15214964  0.08919206  1
  Sn  Sn33  1  0.71979504  0.21979504  0.28020496  1
  Sn  Sn34  1  0.87500000  0.17024402  0.92024402  1
  Sn  Sn35  1  0.08919206  0.91671113  0.15214964  1
  Sn  Sn36  1  0.83919206  0.59785036  0.16671113  1
  Sn  Sn37  1  0.20370912  0.54402745  0.99756824  1
  Sn  Sn38  1  0.84785036  0.58919206  0.58328887  1
  Sn  Sn39  1  0.65214964  0.41080794  0.08328887  1
  Sn  Sn40  1  0.54629088  0.24756824  0.29402745  1
  Sn  Sn41  1  0.37500000  0.32975598  0.07975598  1
  Sn  Sn42  1  0.17559882  0.17559882  0.17559882  1
  Sn  Sn43  1  0.74756824  0.20597255  0.45370912  1
  Sn  Sn44  1  0.00243176  0.70370912  0.95597255  1
  Sn  Sn45  1  0.42024402  0.62500000  0.82975598  1
  Sn  Sn46  1  0.68274151  0.98915394  0.62439513  1
  Sn  Sn47  1  0.40214964  0.66671113  0.66080794  1
  Sn  Sn48  1  0.62439513  0.68274151  0.98915394  1
  Sn  Sn49  1  0.04629088  0.25243176  0.70597255  1
  Sn  Sn50  1  0.49756824  0.29629088  0.45597255  1
  Sn  Sn51  1  0.90214964  0.83328887  0.33919206  1
  Sn  Sn52  1  0.23915394  0.43274151  0.12560487  1
  Sn  Sn53  1  0.03020496  0.53020496  0.96979504  1
  Sn  Sn54  1  0.07975598  0.37500000  0.32975598  1
  Sn  Sn55  1  0.25243176  0.70597255  0.04629088  1
  Sn  Sn56  1  0.45370912  0.74756824  0.20597255  1
  Sn  Sn57  1  0.01084606  0.12439513  0.81725849  1
  Sn  Sn58  1  0.95370912  0.75243176  0.79402745  1
  Sn  Sn59  1  0.75243176  0.79402745  0.95370912  1
  Sn  Sn60  1  0.51084606  0.37560487  0.18274151  1
  Sn  Sn61  1  0.34785036  0.91080794  0.41671113  1
  Sn  Sn62  1  0.41671113  0.34785036  0.91080794  1
  Sn  Sn63  1  0.24756824  0.29402745  0.54629088  1
  Sn  Sn64  1  0.26084606  0.56725849  0.62560487  1
  Sn  Sn65  1  0.92024402  0.87500000  0.17024402  1
  Sn  Sn66  1  0.87560487  0.31725849  0.48915394  1
  Sn  Sn67  1  0.08328887  0.65214964  0.41080794  1
  Sn  Sn68  1  0.56725849  0.62560487  0.26084606  1
  Sn  Sn69  1  0.83328887  0.33919206  0.90214964  1
  Sn  Sn70  1  0.17024402  0.92024402  0.87500000  1
  Sn  Sn71  1  0.16671113  0.83919206  0.59785036  1
  Sn  Sn72  1  0.07440118  0.07440118  0.07440118  1
  Sn  Sn73  1  0.37560487  0.18274151  0.51084606  1
  Sn  Sn74  1  0.18274151  0.51084606  0.37560487  1
  Sn  Sn75  1  0.57440118  0.42559882  0.92559882  1
  Sn  Sn76  1  0.70370912  0.95597255  0.00243176  1
  Sn  Sn77  1  0.42559882  0.92559882  0.57440118  1
  Sn  Sn78  1  0.46979504  0.46979504  0.46979504  1
  Sn  Sn79  1  0.95597255  0.00243176  0.70370912  1
  Sn  Sn80  1  0.12500000  0.67024402  0.57975598  1
  Sn  Sn81  1  0.57975598  0.12500000  0.67024402  1
  Sn  Sn82  1  0.70597255  0.04629088  0.25243176  1
  Sn  Sn83  1  0.91080794  0.41671113  0.34785036  1
  Sn  Sn84  1  0.99756824  0.20370912  0.54402745  1
  Sn  Sn85  1  0.82975598  0.42024402  0.62500000  1
  Sn  Sn86  1  0.67024402  0.57975598  0.12500000  1
  Sn  Sn87  1  0.93274151  0.37439513  0.76084606  1
  Sn  Sn88  1  0.54402745  0.99756824  0.20370912  1
  Sn  Sn89  1  0.87439513  0.73915394  0.06725849  1
  Sn  Sn90  1  0.48915394  0.87560487  0.31725849  1
  Sn  Sn91  1  0.12560487  0.23915394  0.43274151  1
  Sn  Sn92  1  0.62560487  0.26084606  0.56725849  1
  Sn  Sn93  1  0.66080794  0.40214964  0.66671113  1
  Sn  Sn94  1  0.04402745  0.50243176  0.79629088  1
  Sn  Sn95  1  0.67559882  0.32440118  0.82440118  1
  Sn  Sn96  1  0.92559882  0.57440118  0.42559882  1
  Sn  Sn97  1  0.73915394  0.06725849  0.87439513  1
  Sn  Sn98  1  0.66671113  0.66080794  0.40214964  1
  Sn  Sn99  1  0.78020496  0.78020496  0.78020496  1
  Sn  Sn100  1  0.45597255  0.49756824  0.29629088  1
  Sn  Sn101  1  0.15214964  0.08919206  0.91671113  1
  Sn  Sn102  1  0.82440118  0.67559882  0.32440118  1
  Sn  Sn103  1  0.58919206  0.58328887  0.84785036  1
  Sn  Sn104  1  0.37439513  0.76084606  0.93274151  1
  Sn  Sn105  1  0.09785036  0.33328887  0.16080794  1
  Sn  Sn106  1  0.59785036  0.16671113  0.83919206  1
  Sn  Sn107  1  0.96979504  0.03020496  0.53020496  1
  Sn  Sn108  1  0.32975598  0.07975598  0.37500000  1
  Sn  Sn109  1  0.50243176  0.79629088  0.04402745  1
  Sn  Sn110  1  0.41080794  0.08328887  0.65214964  1
  Sn  Sn111  1  0.58328887  0.84785036  0.58919206  1
  Sn  Sn112  1  0.43274151  0.12560487  0.23915394  1
  Sn  Sn113  1  0.98915394  0.62439513  0.68274151  1
  Sn  Sn114  1  0.31725849  0.48915394  0.87560487  1
  Sn  Sn115  1  0.29629088  0.45597255  0.49756824  1
  Sn  Sn116  1  0.32440118  0.82440118  0.67559882  1
  Sn  Sn117  1  0.12439513  0.81725849  0.01084606  1
  Sn  Sn118  1  0.79402745  0.95370912  0.75243176  1
  Sn  Sn119  1  0.33328887  0.16080794  0.09785036  1
  Sn  Sn120  1  0.06725849  0.87439513  0.73915394  1
  Sn  Sn121  1  0.62500000  0.82975598  0.42024402  1
  Sn  Sn122  1  0.81725849  0.01084606  0.12439513  1
  Sn  Sn123  1  0.20597255  0.45370912  0.74756824  1
