# generated using pymatgen
data_Ga(BiBr)4
_symmetry_space_group_name_H-M   'P 1'
_cell_length_a   10.56218628
_cell_length_b   14.18828599
_cell_length_c   19.01542036
_cell_angle_alpha   90.00000000
_cell_angle_beta   90.00000000
_cell_angle_gamma   90.00000000
_symmetry_Int_Tables_number   1
_chemical_formula_structural   Ga(BiBr)4
_chemical_formula_sum   'Ga8 Bi32 Br32'
_cell_volume   2849.63795744
_cell_formula_units_Z   8
loop_
 _symmetry_equiv_pos_site_id
 _symmetry_equiv_pos_as_xyz
  1  'x, y, z'
loop_
 _atom_site_type_symbol
 _atom_site_label
 _atom_site_symmetry_multiplicity
 _atom_site_fract_x
 _atom_site_fract_y
 _atom_site_fract_z
 _atom_site_occupancy
  Ga  Ga0  1  0.47830214  0.79714672  0.17494692  1
  Ga  Ga1  1  0.99391170  0.98486829  0.00186328  1
  Ga  Ga2  1  0.49391170  0.48486829  0.49813672  1
  Ga  Ga3  1  0.97830214  0.29714672  0.32505308  1
  Ga  Ga4  1  0.02169786  0.79714672  0.67494692  1
  Ga  Ga5  1  0.50608830  0.98486829  0.50186328  1
  Ga  Ga6  1  0.52169786  0.29714672  0.82505308  1
  Ga  Ga7  1  0.00608830  0.48486829  0.99813672  1
  Bi  Bi8  1  0.04198681  0.37012753  0.56779929  1
  Bi  Bi9  1  0.03763075  0.72709510  0.20307436  1
  Bi  Bi10  1  0.61248336  0.08612051  0.17905729  1
  Bi  Bi11  1  0.70938612  0.24773055  0.08378102  1
  Bi  Bi12  1  0.29061388  0.74773055  0.91621898  1
  Bi  Bi13  1  0.45801319  0.37012753  0.06779929  1
  Bi  Bi14  1  0.46236925  0.72709510  0.70307436  1
  Bi  Bi15  1  0.88751664  0.08612051  0.67905729  1
  Bi  Bi16  1  0.95801319  0.87012753  0.43220071  1
  Bi  Bi17  1  0.66148999  0.85410900  0.78407170  1
  Bi  Bi18  1  0.53763075  0.22709510  0.29692564  1
  Bi  Bi19  1  0.63657244  0.38810618  0.20134896  1
  Bi  Bi20  1  0.36342756  0.88810618  0.79865104  1
  Bi  Bi21  1  0.13657244  0.88810618  0.29865104  1
  Bi  Bi22  1  0.11248336  0.58612051  0.32094271  1
  Bi  Bi23  1  0.94119982  0.65277096  0.44841843  1
  Bi  Bi24  1  0.44119982  0.15277096  0.05158157  1
  Bi  Bi25  1  0.79061388  0.24773055  0.58378102  1
  Bi  Bi26  1  0.17760441  0.13768487  0.69979922  1
  Bi  Bi27  1  0.16148999  0.35410900  0.71592830  1
  Bi  Bi28  1  0.32239559  0.13768487  0.19979922  1
  Bi  Bi29  1  0.54198681  0.87012753  0.93220071  1
  Bi  Bi30  1  0.96236925  0.22709510  0.79692564  1
  Bi  Bi31  1  0.86342756  0.38810618  0.70134896  1
  Bi  Bi32  1  0.55880018  0.65277096  0.94841843  1
  Bi  Bi33  1  0.33851001  0.35410900  0.21592830  1
  Bi  Bi34  1  0.83851001  0.85410900  0.28407170  1
  Bi  Bi35  1  0.20938612  0.74773055  0.41621898  1
  Bi  Bi36  1  0.38751664  0.58612051  0.82094271  1
  Bi  Bi37  1  0.05880018  0.15277096  0.55158157  1
  Bi  Bi38  1  0.82239559  0.63768487  0.30020078  1
  Bi  Bi39  1  0.67760441  0.63768487  0.80020078  1
  Br  Br40  1  0.83102158  0.81768406  0.61090634  1
  Br  Br41  1  0.68777666  0.37610602  0.88415813  1
  Br  Br42  1  0.81413833  0.05129712  0.94483563  1
  Br  Br43  1  0.68586167  0.05129712  0.44483563  1
  Br  Br44  1  0.66897842  0.81768406  0.11090634  1
  Br  Br45  1  0.93974901  0.13439547  0.31370049  1
  Br  Br46  1  -0.00316843  0.04096109  0.11933202  1
  Br  Br47  1  0.49840296  0.36488822  0.71142783  1
  Br  Br48  1  0.51989572  0.81881911  0.49901702  1
  Br  Br49  1  0.33102158  0.31768406  0.88909366  1
  Br  Br50  1  0.06025099  0.63439547  0.68629951  1
  Br  Br51  1  0.43974901  0.63439547  0.18629951  1
  Br  Br52  1  0.48010428  0.31881911  0.50098298  1
  Br  Br53  1  0.18777666  0.87610602  0.61584187  1
  Br  Br54  1  0.49683157  0.54096109  0.38066798  1
  Br  Br55  1  0.18586167  0.55129712  0.05516437  1
  Br  Br56  1  0.81222334  0.37610602  0.38415813  1
  Br  Br57  1  0.98010428  0.81881911  0.99901702  1
  Br  Br58  1  0.67936505  0.53511921  0.55842365  1
  Br  Br59  1  0.99840296  0.86488822  0.78857217  1
  Br  Br60  1  0.82063495  0.53511921  0.05842365  1
  Br  Br61  1  1.00316843  0.54096109  0.88066798  1
  Br  Br62  1  0.16897842  0.31768406  0.38909366  1
  Br  Br63  1  0.56025099  0.13439547  0.81370049  1
  Br  Br64  1  0.50316843  0.04096109  0.61933202  1
  Br  Br65  1  0.32063495  0.03511921  0.44157635  1
  Br  Br66  1  0.01989572  0.31881911  0.00098298  1
  Br  Br67  1  0.50159704  0.86488822  0.28857217  1
  Br  Br68  1  0.17936505  0.03511921  0.94157635  1
  Br  Br69  1  0.31413833  0.55129712  0.55516437  1
  Br  Br70  1  0.31222334  0.87610602  0.11584187  1
  Br  Br71  1  0.00159704  0.36488822  0.21142783  1
