# generated using pymatgen
data_Ba19Li44
_symmetry_space_group_name_H-M   'P 1'
_cell_length_a   16.22708676
_cell_length_b   16.22708647
_cell_length_c   19.76448592
_cell_angle_alpha   114.23695507
_cell_angle_beta   114.23695460
_cell_angle_gamma   89.99999847
_symmetry_Int_Tables_number   1
_chemical_formula_structural   Ba19Li44
_chemical_formula_sum   'Ba38 Li88'
_cell_volume   4237.50899511
_cell_formula_units_Z   2
loop_
 _symmetry_equiv_pos_site_id
 _symmetry_equiv_pos_as_xyz
  1  'x, y, z'
loop_
 _atom_site_type_symbol
 _atom_site_label
 _atom_site_symmetry_multiplicity
 _atom_site_fract_x
 _atom_site_fract_y
 _atom_site_fract_z
 _atom_site_occupancy
  Ba  Ba0  1  0.67389931  0.18054165  0.64954157  1
  Ba  Ba1  1  0.63498484  0.95047901  0.10054173  1
  Ba  Ba2  1  0.24649397  0.94206517  0.50155317  1
  Ba  Ba3  1  0.90422188  0.90422188  0.80844377  1
  Ba  Ba4  1  0.05793483  0.74494080  0.49844683  1
  Ba  Ba5  1  0.15422188  0.65422188  0.30844377  1
  Ba  Ba6  1  0.44051200  0.75350603  0.49844683  1
  Ba  Ba7  1  0.09577812  0.09577812  0.19155623  1
  Ba  Ba8  1  0.93514957  0.64395736  0.09529513  1
  Ba  Ba9  1  0.19206517  0.99649397  0.00155317  1
  Ba  Ba10  1  0.35604264  0.83985444  0.90470487  1
  Ba  Ba11  1  0.71899991  0.72564226  0.14954157  1
  Ba  Ba12  1  0.81945835  0.02435774  0.35045843  1
  Ba  Ba13  1  0.99494080  0.80793483  0.99844683  1
  Ba  Ba14  1  0.97564226  0.46899991  0.64954157  1
  Ba  Ba15  1  0.25505920  0.55948800  0.50155317  1
  Ba  Ba16  1  0.08985444  0.10604264  0.40470487  1
  Ba  Ba17  1  0.61501516  0.59993728  0.39945827  1
  Ba  Ba18  1  0.20047901  0.38498484  0.60054173  1
  Ba  Ba19  1  0.43054165  0.42389931  0.14954157  1
  Ba  Ba20  1  0.70133777  0.91014556  0.59529513  1
  Ba  Ba21  1  0.46555689  0.15006272  0.10054173  1
  Ba  Ba22  1  0.57610069  0.28100009  0.85045843  1
  Ba  Ba23  1  0.16014556  0.45133777  0.09529513  1
  Ba  Ba24  1  0.40006272  0.21555689  0.60054173  1
  Ba  Ba25  1  0.78444311  0.79952099  0.39945827  1
  Ba  Ba26  1  0.04952099  0.53444311  0.89945827  1
  Ba  Ba27  1  0.50000000  0.50000000  0.00000000  1
  Ba  Ba28  1  0.84993728  0.36501516  0.89945827  1
  Ba  Ba29  1  0.27435774  0.56945835  0.85045843  1
  Ba  Ba30  1  0.00350603  0.19051200  0.99844683  1
  Ba  Ba31  1  0.34577812  0.84577812  0.69155623  1
  Ba  Ba32  1  0.54866223  0.06485043  0.90470487  1
  Ba  Ba33  1  0.31485043  0.29866223  0.40470487  1
  Ba  Ba34  1  0.80948800  0.00505920  0.00155317  1
  Ba  Ba35  1  0.75000000  0.25000000  0.50000000  1
  Ba  Ba36  1  0.89395736  0.68514957  0.59529513  1
  Ba  Ba37  1  0.53100009  0.32610069  0.35045843  1
  Li  Li38  1  0.97888987  0.83678922  0.32462005  1
  Li  Li39  1  0.74978932  0.46919753  0.06419272  1
  Li  Li40  1  0.29260940  0.04657067  0.86196953  1
  Li  Li41  1  0.67112543  0.37500000  0.25000000  1
  Li  Li42  1  0.15966048  0.99391720  0.68005824  1
  Li  Li43  1  0.06539886  0.31936013  0.36196953  1
  Li  Li44  1  0.84499519  0.06440340  0.56419272  1
  Li  Li45  1  0.08678922  0.72888987  0.82462005  1
  Li  Li46  1  0.36639120  0.64884879  0.26072343  1
  Li  Li47  1  0.35566778  0.10115121  0.23927657  1
  Li  Li48  1  0.57887457  0.87500000  0.25000000  1
  Li  Li49  1  0.24391720  0.90966048  0.18005824  1
  Li  Li50  1  0.45852266  0.46839859  0.78650519  1
  Li  Li51  1  0.00608280  0.47960224  0.31994176  1
  Li  Li52  1  0.84333806  0.54493262  0.36457920  1
  Li  Li53  1  0.59237052  0.61946182  0.81205568  1
  Li  Li54  1  0.38053818  0.78031484  0.18794432  1
  Li  Li55  1  0.01418434  0.98987363  0.51853744  1
  Li  Li56  1  0.18460114  0.70739060  0.13803047  1
  Li  Li57  1  0.63827097  0.00618278  0.43205515  1
  Li  Li58  1  0.79493262  0.59333806  0.86457920  1
  Li  Li59  1  0.45621582  0.74381722  0.06794485  1
  Li  Li60  1  0.86946182  0.34237052  0.31205568  1
  Li  Li61  1  0.89884879  0.11639120  0.76072343  1
  Li  Li62  1  0.31440340  0.59499519  0.06419272  1
  Li  Li63  1  0.73783083  0.09573018  0.82462005  1
  Li  Li64  1  0.68063987  0.70342933  0.63803047  1
  Li  Li65  1  0.56936013  0.81539886  0.86196953  1
  Li  Li66  1  0.09033952  0.06385896  0.81994176  1
  Li  Li67  1  0.65762948  0.55740614  0.68794432  1
  Li  Li68  1  0.29657067  0.04260940  0.36196953  1
  Li  Li69  1  0.99381722  0.20621582  0.56794485  1
  Li  Li70  1  0.18035342  0.15666194  0.63542080  1
  Li  Li71  1  0.11475194  0.87500000  0.25000000  1
  Li  Li72  1  0.53080247  0.68559660  0.93580728  1
  Li  Li73  1  0.86187464  0.64433222  0.76072343  1
  Li  Li74  1  0.03031484  0.13053818  0.68794432  1
  Li  Li75  1  0.93559660  0.28080247  0.43580728  1
  Li  Li76  1  0.51216917  0.02111013  0.67537995  1
  Li  Li77  1  0.56810660  0.07798253  0.28650519  1
  Li  Li78  1  0.06964658  0.27124114  0.86457920  1
  Li  Li79  1  0.72875886  0.20506738  0.13542080  1
  Li  Li80  1  0.95342933  0.43063987  0.13803047  1
  Li  Li81  1  0.40500481  0.25021068  0.93580728  1
  Li  Li82  1  0.88360880  0.13812536  0.23927657  1
  Li  Li83  1  0.13524806  0.37500000  0.25000000  1
  Li  Li84  1  0.79378418  0.42587237  0.43205515  1
  Li  Li85  1  0.67587237  0.54378418  0.93205515  1
  Li  Li86  1  0.74564690  0.76012637  0.98146256  1
  Li  Li87  1  0.45506738  0.47875886  0.63542080  1
  Li  Li88  1  0.21968516  0.19259386  0.81205568  1
  Li  Li89  1  0.52039776  0.68614104  0.68005824  1
  Li  Li90  1  0.80740614  0.40762948  0.18794432  1
  Li  Li91  1  0.68189340  0.54147734  0.21349481  1
  Li  Li92  1  0.90426982  0.91321078  0.17537995  1
  Li  Li93  1  0.38812536  0.63360880  0.73927657  1
  Li  Li94  1  0.12500000  0.86475194  0.75000000  1
  Li  Li95  1  0.71919753  0.49978932  0.56419272  1
  Li  Li96  1  0.25618278  0.38827097  0.93205515  1
  Li  Li97  1  0.95739060  0.93460114  0.63803047  1
  Li  Li98  1  0.40666194  0.93035342  0.13542080  1
  Li  Li99  1  0.50435310  0.52866381  0.51853744  1
  Li  Li100  1  0.52124114  0.81964658  0.36457920  1
  Li  Li101  1  0.35115121  0.10566778  0.73927657  1
  Li  Li102  1  0.12500000  0.32887457  0.75000000  1
  Li  Li103  1  0.62500000  0.42112543  0.75000000  1
  Li  Li104  1  0.92201747  0.28160141  0.71349481  1
  Li  Li105  1  0.50021068  0.15500481  0.43580728  1
  Li  Li106  1  0.44259386  0.96968516  0.31205568  1
  Li  Li107  1  0.32798253  0.31810660  0.78650519  1
  Li  Li108  1  0.57412763  0.36172903  0.56794485  1
  Li  Li109  1  0.23987363  0.76418434  0.01853744  1
  Li  Li110  1  0.71839859  0.20852266  0.28650519  1
  Li  Li111  1  0.47133619  0.98581566  0.48146256  1
  Li  Li112  1  0.72960224  0.75608280  0.81994176  1
  Li  Li113  1  0.34573018  0.48783083  0.32462005  1
  Li  Li114  1  0.79147734  0.43189340  0.71349481  1
  Li  Li115  1  0.16321078  0.65426982  0.67537995  1
  Li  Li116  1  0.77866381  0.25435310  0.01853744  1
  Li  Li117  1  0.61172903  0.32412763  0.06794485  1
  Li  Li118  1  0.01012637  0.49564690  0.48146256  1
  Li  Li119  1  0.93614104  0.27039776  0.18005824  1
  Li  Li120  1  0.53160141  0.67201747  0.21349481  1
  Li  Li121  1  0.23581566  0.22133619  0.98146256  1
  Li  Li122  1  0.89433222  0.61187464  0.26072343  1
  Li  Li123  1  0.31385896  0.84033952  0.31994176  1
  Li  Li124  1  0.62500000  0.88524806  0.75000000  1
  Li  Li125  1  0.27111013  0.26216917  0.17537995  1
