# generated using pymatgen
data_V3(H3O5)2
_symmetry_space_group_name_H-M   'P 1'
_cell_length_a   8.97776404
_cell_length_b   8.95689442
_cell_length_c   6.01036321
_cell_angle_alpha   89.00339456
_cell_angle_beta   90.00000000
_cell_angle_gamma   90.00000000
_symmetry_Int_Tables_number   1
_chemical_formula_structural   V3(H3O5)2
_chemical_formula_sum   'V6 H12 O20'
_cell_volume   483.23753198
_cell_formula_units_Z   2
loop_
 _symmetry_equiv_pos_site_id
 _symmetry_equiv_pos_as_xyz
  1  'x, y, z'
loop_
 _atom_site_type_symbol
 _atom_site_label
 _atom_site_symmetry_multiplicity
 _atom_site_fract_x
 _atom_site_fract_y
 _atom_site_fract_z
 _atom_site_occupancy
  V  V0  1  0.50216009  0.50790626  0.25748335  1
  V  V1  1  0.99783991  0.00790626  0.25748335  1
  V  V2  1  0.36625243  0.14390007  0.27495600  1
  V  V3  1  0.64237625  0.86515524  0.27119977  1
  V  V4  1  0.13374757  0.64390007  0.27495600  1
  V  V5  1  0.85762375  0.36515524  0.27119977  1
  H  H6  1  0.45756798  0.45649912  0.65534048  1
  H  H7  1  0.04243202  0.95649912  0.65534048  1
  H  H8  1  0.38908488  0.06369165  0.66153616  1
  H  H9  1  0.11091512  0.56369165  0.66153616  1
  H  H10  1  0.27299914  0.85543681  0.87904756  1
  H  H11  1  0.43181158  0.80915210  0.80620758  1
  H  H12  1  0.70380671  0.07042537  0.77941883  1
  H  H13  1  0.70518417  0.23669416  0.71373046  1
  H  H14  1  0.06818842  0.30915210  0.80620758  1
  H  H15  1  0.22700086  0.35543681  0.87904756  1
  H  H16  1  0.79619329  0.57042537  0.77941883  1
  H  H17  1  0.79481583  0.73669416  0.71373046  1
  O  O18  1  0.51828437  0.51600627  0.55167524  1
  O  O19  1  0.98171563  0.01600627  0.55167524  1
  O  O20  1  0.40813606  0.32154287  0.17068282  1
  O  O21  1  0.57625802  0.69618685  0.16080484  1
  O  O22  1  0.09186394  0.82154287  0.17068282  1
  O  O23  1  0.92374198  0.19618685  0.16080484  1
  O  O24  1  0.30590067  0.58918057  0.17634271  1
  O  O25  1  0.68523313  0.42351115  0.16270745  1
  O  O26  1  0.81476687  0.92351115  0.16270745  1
  O  O27  1  0.19409933  0.08918057  0.17634271  1
  O  O28  1  0.36154301  0.15291386  0.56590480  1
  O  O29  1  0.65785154  0.84779653  0.54175418  1
  O  O30  1  0.13845699  0.65291386  0.56590480  1
  O  O31  1  0.84214846  0.34779653  0.54175418  1
  O  O32  1  0.50029850  0.00947790  0.21000445  1
  O  O33  1  0.99970150  0.50947790  0.21000445  1
  O  O34  1  0.35233602  0.88089561  0.77444974  1
  O  O35  1  0.64495676  0.16082960  0.79298957  1
  O  O36  1  0.14766398  0.38089561  0.77444974  1
  O  O37  1  0.85504324  0.66082960  0.79298957  1
