# generated using pymatgen
data_Sm3CuSnSe7
_symmetry_space_group_name_H-M   'P 1'
_cell_length_a   10.49406565
_cell_length_b   10.49406554
_cell_length_c   6.37931981
_cell_angle_alpha   90.00000000
_cell_angle_beta   90.00000000
_cell_angle_gamma   120.00000034
_symmetry_Int_Tables_number   1
_chemical_formula_structural   Sm3CuSnSe7
_chemical_formula_sum   'Sm6 Cu2 Sn2 Se14'
_cell_volume   608.40469118
_cell_formula_units_Z   2
loop_
 _symmetry_equiv_pos_site_id
 _symmetry_equiv_pos_as_xyz
  1  'x, y, z'
loop_
 _atom_site_type_symbol
 _atom_site_label
 _atom_site_symmetry_multiplicity
 _atom_site_fract_x
 _atom_site_fract_y
 _atom_site_fract_z
 _atom_site_occupancy
  Sm  Sm0  1  0.21435847  0.35606381  0.94147352  1
  Sm  Sm1  1  0.14170534  0.78564153  0.94147352  1
  Sm  Sm2  1  0.64393619  0.85829466  0.94147352  1
  Sm  Sm3  1  0.78564153  0.64393619  0.44147352  1
  Sm  Sm4  1  0.35606381  0.14170534  0.44147352  1
  Sm  Sm5  1  0.85829466  0.21435847  0.44147352  1
  Cu  Cu6  1  0.00000000  0.00000000  0.00126966  1
  Cu  Cu7  1  0.00000000  0.00000000  0.50126966  1
  Sn  Sn8  1  0.33333300  0.66666700  0.36701422  1
  Sn  Sn9  1  0.66666700  0.33333300  0.86701422  1
  Se  Se10  1  0.73965761  0.89334942  0.48716798  1
  Se  Se11  1  0.43330064  0.91857991  0.18969811  1
  Se  Se12  1  0.91857991  0.48527927  0.68969811  1
  Se  Se13  1  0.51472073  0.43330064  0.68969811  1
  Se  Se14  1  0.89334942  0.15369182  0.98716798  1
  Se  Se15  1  0.56669936  0.08142009  0.68969811  1
  Se  Se16  1  0.10665058  0.84630818  0.48716798  1
  Se  Se17  1  0.33333300  0.66666700  0.76399728  1
  Se  Se18  1  0.26034239  0.10665058  0.98716798  1
  Se  Se19  1  0.48527927  0.56669936  0.18969811  1
  Se  Se20  1  0.08142009  0.51472073  0.18969811  1
  Se  Se21  1  0.66666700  0.33333300  0.26399728  1
  Se  Se22  1  0.15369182  0.26034239  0.48716798  1
  Se  Se23  1  0.84630818  0.73965761  0.98716798  1
