# generated using pymatgen
data_TaP4(SCl)5
_symmetry_space_group_name_H-M   'P 1'
_cell_length_a   7.30235508
_cell_length_b   13.89255113
_cell_length_c   18.50617461
_cell_angle_alpha   90.00000000
_cell_angle_beta   99.42142978
_cell_angle_gamma   90.00000000
_symmetry_Int_Tables_number   1
_chemical_formula_structural   TaP4(SCl)5
_chemical_formula_sum   'Ta4 P16 S20 Cl20'
_cell_volume   1852.09620024
_cell_formula_units_Z   4
loop_
 _symmetry_equiv_pos_site_id
 _symmetry_equiv_pos_as_xyz
  1  'x, y, z'
loop_
 _atom_site_type_symbol
 _atom_site_label
 _atom_site_symmetry_multiplicity
 _atom_site_fract_x
 _atom_site_fract_y
 _atom_site_fract_z
 _atom_site_occupancy
  Ta  Ta0  1  0.19800656  0.30598744  0.46979936  1
  Ta  Ta1  1  0.30199344  0.80598744  0.03020064  1
  Ta  Ta2  1  0.80199344  0.69401256  0.53020064  1
  Ta  Ta3  1  0.69800656  0.19401256  0.96979936  1
  P  P4  1  0.79753697  0.05263642  0.70211682  1
  P  P5  1  0.08091093  0.14040147  0.38585944  1
  P  P6  1  0.47249119  0.67230695  0.23969530  1
  P  P7  1  0.97249119  0.82769305  0.73969530  1
  P  P8  1  0.41908907  0.64040147  0.11414056  1
  P  P9  1  0.52750881  0.32769305  0.76030470  1
  P  P10  1  0.72512518  0.00766459  0.30862794  1
  P  P11  1  0.02750881  0.17230695  0.26030470  1
  P  P12  1  0.58091093  0.35959853  0.88585944  1
  P  P13  1  0.20246303  0.94736358  0.29788318  1
  P  P14  1  0.70246303  0.55263642  0.79788318  1
  P  P15  1  0.77487482  0.50766459  0.19137206  1
  P  P16  1  0.27487482  0.99233541  0.69137206  1
  P  P17  1  0.29753697  0.44736358  0.20211682  1
  P  P18  1  0.91908907  0.85959853  0.61414056  1
  P  P19  1  0.22512518  0.49233541  0.80862794  1
  S  S20  1  0.42338599  0.60059895  0.79437525  1
  S  S21  1  0.30182176  0.56522330  0.27610709  1
  S  S22  1  0.67167751  0.58376191  0.09273520  1
  S  S23  1  0.27619818  0.02763367  0.39732525  1
  S  S24  1  0.22380182  0.52763367  0.10267475  1
  S  S25  1  0.25057967  0.37777368  0.73446771  1
  S  S26  1  0.32832249  0.41623809  0.90726480  1
  S  S27  1  0.72380182  0.97236633  0.60267475  1
  S  S28  1  0.75057967  0.12222632  0.23446771  1
  S  S29  1  0.77619818  0.47236633  0.89732525  1
  S  S30  1  0.92338599  0.89940105  0.29437525  1
  S  S31  1  0.57661401  0.39940105  0.20562475  1
  S  S32  1  0.17167751  0.91623809  0.59273520  1
  S  S33  1  0.82832249  0.08376191  0.40726480  1
  S  S34  1  0.69817824  0.43477670  0.72389291  1
  S  S35  1  0.80182176  0.93477670  0.77610709  1
  S  S36  1  0.74942033  0.62222632  0.26553229  1
  S  S37  1  0.24942033  0.87777368  0.76553229  1
  S  S38  1  0.07661401  0.10059895  0.70562475  1
  S  S39  1  0.19817824  0.06522330  0.22389291  1
  Cl  Cl40  1  0.91705520  0.20137307  0.89029541  1
  Cl  Cl41  1  0.11879555  0.69744633  0.95237374  1
  Cl  Cl42  1  0.98567853  0.37471075  0.37473787  1
  Cl  Cl43  1  0.61879555  0.80255367  0.45237374  1
  Cl  Cl44  1  0.70536851  0.55522319  0.47075643  1
  Cl  Cl45  1  0.38120445  0.19744633  0.54762626  1
  Cl  Cl46  1  0.29463149  0.44477681  0.52924357  1
  Cl  Cl47  1  0.88120445  0.30255367  0.04762626  1
  Cl  Cl48  1  0.20536851  0.94477681  0.97075643  1
  Cl  Cl49  1  0.48567853  0.12528925  0.87473787  1
  Cl  Cl50  1  0.51432147  0.87471075  0.12526213  1
  Cl  Cl51  1  0.05033575  0.73002410  0.47008762  1
  Cl  Cl52  1  0.79463149  0.05522319  0.02924357  1
  Cl  Cl53  1  0.41705520  0.29862693  0.39029541  1
  Cl  Cl54  1  0.08294480  0.79862693  0.10970459  1
  Cl  Cl55  1  0.94966425  0.26997590  0.52991238  1
  Cl  Cl56  1  0.01432147  0.62528925  0.62526213  1
  Cl  Cl57  1  0.55033575  0.76997590  0.97008762  1
  Cl  Cl58  1  0.58294480  0.70137307  0.60970459  1
  Cl  Cl59  1  0.44966425  0.23002410  0.02991238  1
