# generated using pymatgen
data_K6CoMo5O19
_symmetry_space_group_name_H-M   'P 1'
_cell_length_a   8.26714749
_cell_length_b   10.56189820
_cell_length_c   24.68714110
_cell_angle_alpha   90.00000000
_cell_angle_beta   91.11665405
_cell_angle_gamma   90.00000000
_symmetry_Int_Tables_number   1
_chemical_formula_structural   K6CoMo5O19
_chemical_formula_sum   'K24 Co4 Mo20 O76'
_cell_volume   2155.19205668
_cell_formula_units_Z   4
loop_
 _symmetry_equiv_pos_site_id
 _symmetry_equiv_pos_as_xyz
  1  'x, y, z'
loop_
 _atom_site_type_symbol
 _atom_site_label
 _atom_site_symmetry_multiplicity
 _atom_site_fract_x
 _atom_site_fract_y
 _atom_site_fract_z
 _atom_site_occupancy
  K  K0  1  0.86388711  0.00023268  0.06664082  1
  K  K1  1  0.69925051  0.43606334  0.69611061  1
  K  K2  1  0.98089726  0.74424965  0.19458590  1
  K  K3  1  0.30074949  0.56393666  0.30388939  1
  K  K4  1  0.85850302  0.35387823  0.95415677  1
  K  K5  1  0.99197133  0.74172135  0.68776813  1
  K  K6  1  0.63611289  0.50023268  0.43335918  1
  K  K7  1  0.80074949  0.93606334  0.80388939  1
  K  K8  1  0.13905987  0.59765765  0.84081853  1
  K  K9  1  0.51910274  0.24424965  0.30541410  1
  K  K10  1  0.36094013  0.09765765  0.65918147  1
  K  K11  1  0.49197133  0.75827865  0.18776813  1
  K  K12  1  0.35850302  0.14612177  0.45415677  1
  K  K13  1  0.00802867  0.25827865  0.31223187  1
  K  K14  1  0.13611289  0.99976732  0.93335918  1
  K  K15  1  0.63905987  0.90234235  0.34081853  1
  K  K16  1  0.19925051  0.06393666  0.19611061  1
  K  K17  1  0.14149698  0.64612177  0.04584323  1
  K  K18  1  0.50802867  0.24172135  0.81223187  1
  K  K19  1  0.36388711  0.49976732  0.56664082  1
  K  K20  1  0.01910274  0.25575035  0.80541410  1
  K  K21  1  0.48089726  0.75575035  0.69458590  1
  K  K22  1  0.86094013  0.40234235  0.15918147  1
  K  K23  1  0.64149698  0.85387823  0.54584323  1
  Co  Co24  1  0.46624075  0.74999410  0.94103542  1
  Co  Co25  1  0.53375925  0.25000590  0.05896458  1
  Co  Co26  1  0.96624075  0.75000590  0.44103542  1
  Co  Co27  1  0.03375925  0.24999410  0.55896458  1
  Mo  Mo28  1  0.64615169  0.24119263  0.55846014  1
  Mo  Mo29  1  0.79535908  0.59707522  0.31268510  1
  Mo  Mo30  1  0.29535908  0.90292478  0.81268510  1
  Mo  Mo31  1  0.62599362  0.06933043  0.93342546  1
  Mo  Mo32  1  0.70464092  0.09707522  0.18731490  1
  Mo  Mo33  1  0.37400638  0.93066957  0.06657454  1
  Mo  Mo34  1  0.16440213  0.91766206  0.32504839  1
  Mo  Mo35  1  0.87400638  0.56933043  0.56657454  1
  Mo  Mo36  1  0.14615169  0.25880737  0.05846014  1
  Mo  Mo37  1  0.85384831  0.74119263  0.94153986  1
  Mo  Mo38  1  0.20464092  0.40292478  0.68731490  1
  Mo  Mo39  1  0.85975267  0.09091792  0.43966478  1
  Mo  Mo40  1  0.66440213  0.58233794  0.82504839  1
  Mo  Mo41  1  0.64024733  0.59091792  0.06033522  1
  Mo  Mo42  1  0.33559787  0.41766206  0.17495161  1
  Mo  Mo43  1  0.35384831  0.75880737  0.44153986  1
  Mo  Mo44  1  0.14024733  0.90908208  0.56033522  1
  Mo  Mo45  1  0.35975267  0.40908208  0.93966478  1
  Mo  Mo46  1  0.12599362  0.43066957  0.43342546  1
  Mo  Mo47  1  0.83559787  0.08233794  0.67495161  1
  O  O48  1  0.44209612  0.69588233  0.38204407  1
  O  O49  1  0.56731344  0.90098255  0.09508237  1
  O  O50  1  0.72600923  0.62800029  0.61213443  1
  O  O51  1  0.97234082  0.52877135  0.28360781  1
  O  O52  1  0.70245906  0.13441316  0.39297754  1
  O  O53  1  0.34644841  0.57881291  0.95008540  1
  O  O54  1  0.52765918  0.02877135  0.21639219  1
  O  O55  1  0.64922919  0.14746968  0.99882192  1
  O  O56  1  0.47559804  0.51665443  0.80517300  1
  O  O57  1  0.45116788  0.62539713  0.08857752  1
  O  O58  1  0.84950452  0.17148073  0.60979727  1
  O  O59  1  0.78156685  0.21380712  0.23400676  1
  O  O60  1  0.54883212  0.37460287  0.91142248  1
  O  O61  1  0.95116788  0.87460287  0.58857752  1
  O  O62  1  0.95083890  0.59272238  0.94748049  1
  O  O63  1  0.16104472  0.31961523  0.62360677  1
  O  O64  1  0.35077081  0.85253032  0.00117808  1
  O  O65  1  0.33895528  0.81961523  0.87639323  1
  O  O66  1  0.54916110  0.09272238  0.55251951  1
  O  O67  1  0.55790388  0.30411767  0.61795593  1
  O  O68  1  0.05790388  0.19588233  0.11795593  1
  O  O69  1  0.22437031  0.81388093  0.27115702  1
  O  O70  1  0.44996820  0.66942468  0.49423504  1
  O  O71  1  0.65774513  0.67993872  0.99583341  1
  O  O72  1  0.71843315  0.71380712  0.26599324  1
  O  O73  1  0.15401954  0.60332277  0.43901316  1
  O  O74  1  0.72437031  0.68611907  0.77115702  1
  O  O75  1  0.15049548  0.82851927  0.39020273  1
  O  O76  1  0.64406648  0.47882024  0.32305493  1
  O  O77  1  0.85593352  0.97882024  0.17694507  1
  O  O78  1  0.02765918  0.47122865  0.71639219  1
  O  O79  1  0.15774513  0.82006128  0.49583341  1
  O  O80  1  0.14406648  0.02117976  0.82305493  1
  O  O81  1  0.34225487  0.32006128  0.00416659  1
  O  O82  1  0.15355159  0.07881291  0.54991460  1
  O  O83  1  0.04916110  0.40727762  0.05251951  1
  O  O84  1  0.81141292  0.45905054  0.82862811  1
  O  O85  1  0.27399077  0.37199971  0.38786557  1
  O  O86  1  0.20245906  0.36558684  0.89297754  1
  O  O87  1  0.14922919  0.35253032  0.49882192  1
  O  O88  1  0.85077081  0.64746968  0.50117808  1
  O  O89  1  0.27562969  0.31388093  0.22884298  1
  O  O90  1  0.83895528  0.68038477  0.37639323  1
  O  O91  1  0.34598046  0.10332277  0.06098684  1
  O  O92  1  0.31141292  0.04094946  0.32862811  1
  O  O93  1  0.94209612  0.80411767  0.88204407  1
  O  O94  1  0.43268656  0.09901745  0.90491763  1
  O  O95  1  0.47234082  0.97122865  0.78360781  1
  O  O96  1  0.79754094  0.63441316  0.10702246  1
  O  O97  1  0.22600923  0.87199971  0.11213443  1
  O  O98  1  0.35593352  0.52117976  0.67694507  1
  O  O99  1  0.21843315  0.78619288  0.76599324  1
  O  O100  1  0.84644841  0.92118709  0.45008540  1
  O  O101  1  0.77562969  0.18611907  0.72884298  1
  O  O102  1  0.04883212  0.12539713  0.41142248  1
  O  O103  1  0.68858708  0.95905054  0.67137189  1
  O  O104  1  0.65401954  0.89667723  0.93901316  1
  O  O105  1  0.65049548  0.67148073  0.89020273  1
  O  O106  1  0.28156685  0.28619288  0.73400676  1
  O  O107  1  0.93268656  0.40098255  0.40491763  1
  O  O108  1  0.29754094  0.86558684  0.60702246  1
  O  O109  1  0.65355159  0.42118709  0.04991460  1
  O  O110  1  0.52440196  0.48334557  0.19482700  1
  O  O111  1  0.77399077  0.12800029  0.88786557  1
  O  O112  1  0.97559804  0.98334557  0.30517300  1
  O  O113  1  0.94996820  0.83057532  0.99423504  1
  O  O114  1  0.02440196  0.01665443  0.69482700  1
  O  O115  1  0.84598046  0.39667723  0.56098684  1
  O  O116  1  0.05003180  0.16942468  0.00576496  1
  O  O117  1  0.66104472  0.18038477  0.12360677  1
  O  O118  1  0.06731344  0.59901745  0.59508237  1
  O  O119  1  0.45083890  0.90727762  0.44748049  1
  O  O120  1  0.34950452  0.32851927  0.10979727  1
  O  O121  1  0.84225487  0.17993872  0.50416659  1
  O  O122  1  0.55003180  0.33057532  0.50576496  1
  O  O123  1  0.18858708  0.54094946  0.17137189  1
