# generated using pymatgen
data_Er2Co7
_symmetry_space_group_name_H-M   'P 1'
_cell_length_a   12.35086032
_cell_length_b   12.35086012
_cell_length_c   12.35085967
_cell_angle_alpha   23.06778163
_cell_angle_beta   23.06778366
_cell_angle_gamma   23.06778350
_symmetry_Int_Tables_number   1
_chemical_formula_structural   Er2Co7
_chemical_formula_sum   'Er4 Co14'
_cell_volume   253.87464158
_cell_formula_units_Z   2
loop_
 _symmetry_equiv_pos_site_id
 _symmetry_equiv_pos_as_xyz
  1  'x, y, z'
loop_
 _atom_site_type_symbol
 _atom_site_label
 _atom_site_symmetry_multiplicity
 _atom_site_fract_x
 _atom_site_fract_y
 _atom_site_fract_z
 _atom_site_occupancy
  Er  Er0  1  0.94853237  0.94853237  0.94853237  1
  Er  Er1  1  0.14806365  0.14806365  0.14806365  1
  Er  Er2  1  0.05146763  0.05146763  0.05146763  1
  Er  Er3  1  0.85193635  0.85193635  0.85193635  1
  Co  Co4  1  0.61120967  0.61120967  0.61120967  1
  Co  Co5  1  0.38879033  0.38879033  0.38879033  1
  Co  Co6  1  0.10808527  0.61027406  0.61027406  1
  Co  Co7  1  0.38972594  0.38972594  0.89191473  1
  Co  Co8  1  0.61027406  0.61027406  0.10808527  1
  Co  Co9  1  0.61027406  0.10808527  0.61027406  1
  Co  Co10  1  0.38972594  0.89191473  0.38972594  1
  Co  Co11  1  0.50000000  0.00000000  0.50000000  1
  Co  Co12  1  0.72156237  0.72156237  0.72156237  1
  Co  Co13  1  0.50000000  0.50000000  0.50000000  1
  Co  Co14  1  0.89191473  0.38972594  0.38972594  1
  Co  Co15  1  0.00000000  0.50000000  0.50000000  1
  Co  Co16  1  0.27843763  0.27843763  0.27843763  1
  Co  Co17  1  0.50000000  0.50000000  0.00000000  1
