# generated using pymatgen
data_EuGeS3
_symmetry_space_group_name_H-M   'P 1'
_cell_length_a   8.47160628
_cell_length_b   8.54365348
_cell_length_c   11.86104645
_cell_angle_alpha   68.77826553
_cell_angle_beta   88.81129696
_cell_angle_gamma   75.17237084
_symmetry_Int_Tables_number   1
_chemical_formula_structural   EuGeS3
_chemical_formula_sum   'Eu6 Ge6 S18'
_cell_volume   771.15312687
_cell_formula_units_Z   6
loop_
 _symmetry_equiv_pos_site_id
 _symmetry_equiv_pos_as_xyz
  1  'x, y, z'
loop_
 _atom_site_type_symbol
 _atom_site_label
 _atom_site_symmetry_multiplicity
 _atom_site_fract_x
 _atom_site_fract_y
 _atom_site_fract_z
 _atom_site_occupancy
  Eu  Eu0  1  0.24613733  0.76106984  0.49977652  1
  Eu  Eu1  1  0.42624887  0.24051220  0.81483755  1
  Eu  Eu2  1  0.75386267  0.23893016  0.50022348  1
  Eu  Eu3  1  0.89153529  0.12074465  0.13700592  1
  Eu  Eu4  1  0.10846471  0.87925535  0.86299408  1
  Eu  Eu5  1  0.57375113  0.75948780  0.18516245  1
  Ge  Ge6  1  0.90515772  0.35487836  0.80408446  1
  Ge  Ge7  1  0.23079157  0.25389066  0.47065221  1
  Ge  Ge8  1  0.09484228  0.64512164  0.19591554  1
  Ge  Ge9  1  0.76920843  0.74610934  0.52934779  1
  Ge  Ge10  1  0.55282776  0.70567270  0.81345391  1
  Ge  Ge11  1  0.44717224  0.29432730  0.18654609  1
  S  S12  1  0.60764624  0.63351550  0.45751042  1
  S  S13  1  0.78182995  0.50048971  0.92176175  1
  S  S14  1  0.00490280  0.46120700  0.35944723  1
  S  S15  1  0.35035896  0.61290379  0.76633724  1
  S  S16  1  0.88317211  0.94052845  0.40427850  1
  S  S17  1  0.11934758  0.18052845  0.93060351  1
  S  S18  1  0.63957366  0.89294969  0.64630199  1
  S  S19  1  0.99509720  0.53879300  0.64055277  1
  S  S20  1  0.36042634  0.10705031  0.35369801  1
  S  S21  1  0.88065242  0.81947155  0.06939649  1
  S  S22  1  0.39235376  0.36648450  0.54248958  1
  S  S23  1  0.77356798  0.18496958  0.76429680  1
  S  S24  1  0.45147218  0.86379483  0.92323118  1
  S  S25  1  0.54852782  0.13620517  0.07676882  1
  S  S26  1  0.21817005  0.49951029  0.07823825  1
  S  S27  1  0.22643202  0.81503042  0.23570320  1
  S  S28  1  0.11682789  0.05947155  0.59572150  1
  S  S29  1  0.64964104  0.38709621  0.23366276  1
