# generated using pymatgen
data_KMnVO4
_symmetry_space_group_name_H-M   'P 1'
_cell_length_a   5.72077912
_cell_length_b   12.29527030
_cell_length_c   24.30114740
_cell_angle_alpha   103.61301125
_cell_angle_beta   90.00000000
_cell_angle_gamma   90.00000000
_symmetry_Int_Tables_number   1
_chemical_formula_structural   KMnVO4
_chemical_formula_sum   'K16 Mn16 V16 O64'
_cell_volume   1661.28830700
_cell_formula_units_Z   16
loop_
 _symmetry_equiv_pos_site_id
 _symmetry_equiv_pos_as_xyz
  1  'x, y, z'
loop_
 _atom_site_type_symbol
 _atom_site_label
 _atom_site_symmetry_multiplicity
 _atom_site_fract_x
 _atom_site_fract_y
 _atom_site_fract_z
 _atom_site_occupancy
  K  K0  1  0.21411033  0.44126019  0.81291115  1
  K  K1  1  0.71601955  0.80678129  0.93553928  1
  K  K2  1  0.73044147  0.37705208  0.69488293  1
  K  K3  1  0.78398045  0.30678129  0.43553928  1
  K  K4  1  0.23044147  0.12294792  0.80511707  1
  K  K5  1  0.72763481  0.73423249  0.68493209  1
  K  K6  1  0.78588967  0.55873981  0.18708885  1
  K  K7  1  0.77236519  0.23423249  0.18493209  1
  K  K8  1  0.21601955  0.69321871  0.56446072  1
  K  K9  1  0.22763481  0.76576751  0.81506791  1
  K  K10  1  0.28398045  0.19321871  0.06446072  1
  K  K11  1  0.26955853  0.62294792  0.30511707  1
  K  K12  1  0.71411033  0.05873981  0.68708885  1
  K  K13  1  0.27236519  0.26576751  0.31506791  1
  K  K14  1  0.76955853  0.87705208  0.19488293  1
  K  K15  1  0.28588967  0.94126019  0.31291115  1
  Mn  Mn16  1  0.76420855  0.44058203  0.31849210  1
  Mn  Mn17  1  0.25748521  0.38603386  0.56062696  1
  Mn  Mn18  1  0.23579145  0.55941797  0.68150790  1
  Mn  Mn19  1  0.74225993  0.67615554  0.05837483  1
  Mn  Mn20  1  0.75774007  0.17615554  0.55837483  1
  Mn  Mn21  1  0.25774007  0.32384446  0.94162517  1
  Mn  Mn22  1  0.72307385  0.49985590  0.92277387  1
  Mn  Mn23  1  0.24251479  0.88603386  0.06062696  1
  Mn  Mn24  1  0.77692615  -0.00014410  0.42277387  1
  Mn  Mn25  1  0.22307385  1.00014410  0.57722613  1
  Mn  Mn26  1  0.75748521  0.11396614  0.93937304  1
  Mn  Mn27  1  0.26420855  0.05941797  0.18150790  1
  Mn  Mn28  1  0.74251479  0.61396614  0.43937304  1
  Mn  Mn29  1  0.27692615  0.50014410  0.07722613  1
  Mn  Mn30  1  0.24225993  0.82384446  0.44162517  1
  Mn  Mn31  1  0.73579145  0.94058203  0.81849210  1
  V  V32  1  0.72948377  0.86470285  0.53602569  1
  V  V33  1  0.27296419  0.38563322  0.20891736  1
  V  V34  1  0.24496550  0.23381440  0.65248163  1
  V  V35  1  0.22948377  0.63529715  0.96397431  1
  V  V36  1  0.77051623  0.36470285  0.03602569  1
  V  V37  1  0.75503450  0.76618560  0.34751837  1
  V  V38  1  0.22703581  0.88563322  0.70891736  1
  V  V39  1  0.77315011  0.99422869  0.07012340  1
  V  V40  1  0.74496550  0.26618560  0.84751837  1
  V  V41  1  0.77296419  0.11436678  0.29108264  1
  V  V42  1  0.72703581  0.61436678  0.79108264  1
  V  V43  1  0.27315011  0.50577131  0.42987660  1
  V  V44  1  0.72684989  0.49422869  0.57012340  1
  V  V45  1  0.25503450  0.73381440  0.15248163  1
  V  V46  1  0.22684989  0.00577131  0.92987660  1
  V  V47  1  0.27051623  0.13529715  0.46397431  1
  O  O48  1  0.50597714  0.01449638  0.10726106  1
  O  O49  1  0.74899517  0.31261851  0.09376576  1
  O  O50  1  0.25053280  0.45503861  0.49006517  1
  O  O51  1  0.25100483  0.68738149  0.90623424  1
  O  O52  1  0.77828795  0.26040639  0.31165835  1
  O  O53  1  0.18515107  0.72582177  0.21879953  1
  O  O54  1  0.24946720  0.95503861  0.99006517  1
  O  O55  1  0.04598734  0.80387755  0.36463941  1
  O  O56  1  0.61320612  0.27539226  0.98020856  1
  O  O57  1  0.71610138  0.62590157  0.35179411  1
  O  O58  1  0.07551293  0.38069673  0.02147308  1
  O  O59  1  0.49402286  0.98550362  0.89273894  1
  O  O60  1  0.01981843  0.06871569  0.24990040  1
  O  O61  1  0.84932844  0.85015932  0.05388756  1
  O  O62  1  0.75053280  0.04496139  0.00993483  1
  O  O63  1  0.72171205  0.76040639  0.81165835  1
  O  O64  1  0.49847713  0.44088069  0.38614638  1
  O  O65  1  0.26638377  0.44405445  0.15034815  1
  O  O66  1  0.54598734  0.69612245  0.13536059  1
  O  O67  1  0.21610138  0.87409843  0.14820589  1
  O  O68  1  0.43645671  0.14239136  0.60400117  1
  O  O69  1  0.81484893  0.27417823  0.78120047  1
  O  O70  1  0.75100483  0.81261851  0.59376576  1
  O  O71  1  0.95401266  0.19612245  0.63536059  1
  O  O72  1  0.68515107  0.77417823  0.28120047  1
  O  O73  1  0.45401266  0.30387755  0.86463941  1
  O  O74  1  0.06354329  0.64239136  0.10400117  1
  O  O75  1  0.73361623  0.55594555  0.84965185  1
  O  O76  1  0.37242070  0.50358230  0.94889696  1
  O  O77  1  0.56354329  0.85760864  0.39599883  1
  O  O78  1  0.22171205  0.73959361  0.68834165  1
  O  O79  1  0.15067156  0.14984068  0.94611244  1
  O  O80  1  0.11320612  0.22460774  0.51979144  1
  O  O81  1  0.00152287  0.94088069  0.88614638  1
  O  O82  1  0.87242070  0.99641770  0.55110304  1
  O  O83  1  0.23361623  0.94405445  0.65034815  1
  O  O84  1  0.98018157  0.93128431  0.75009960  1
  O  O85  1  0.47002953  0.92930199  0.75242431  1
  O  O86  1  0.38679388  0.72460774  0.01979144  1
  O  O87  1  0.57551293  0.11930327  0.47852692  1
  O  O88  1  0.99847713  0.05911931  0.11385362  1
  O  O89  1  0.02997047  0.42930199  0.25242431  1
  O  O90  1  0.74946720  0.54496139  0.50993483  1
  O  O91  1  0.76638377  0.05594555  0.34965185  1
  O  O92  1  0.62757930  0.49641770  0.05110304  1
  O  O93  1  0.12757930  0.00358230  0.44889696  1
  O  O94  1  0.93645671  0.35760864  0.89599883  1
  O  O95  1  0.92448707  0.61930327  0.97852692  1
  O  O96  1  0.78389862  0.12590157  0.85179411  1
  O  O97  1  0.48018157  0.56871569  0.74990040  1
  O  O98  1  0.65067156  0.35015932  0.55388756  1
  O  O99  1  0.42448707  0.88069673  0.52147308  1
  O  O100  1  0.88679388  0.77539226  0.48020856  1
  O  O101  1  0.34932844  0.64984068  0.44611244  1
  O  O102  1  0.99402286  0.51449638  0.60726106  1
  O  O103  1  0.50152287  0.55911931  0.61385362  1
  O  O104  1  0.52997047  0.07069801  0.24757569  1
  O  O105  1  0.24899517  0.18738149  0.40623424  1
  O  O106  1  0.00597714  0.48550362  0.39273894  1
  O  O107  1  0.27828795  0.23959361  0.18834165  1
  O  O108  1  0.28389862  0.37409843  0.64820589  1
  O  O109  1  0.31484893  0.22582177  0.71879953  1
  O  O110  1  0.51981843  0.43128431  0.25009960  1
  O  O111  1  0.97002953  0.57069801  0.74757569  1
