# generated using pymatgen
data_V4(P2O7)3
_symmetry_space_group_name_H-M   'P 1'
_cell_length_a   7.63083960
_cell_length_b   9.73022648
_cell_length_c   21.78863042
_cell_angle_alpha   90.00000000
_cell_angle_beta   90.00000000
_cell_angle_gamma   90.00000000
_symmetry_Int_Tables_number   1
_chemical_formula_structural   V4(P2O7)3
_chemical_formula_sum   'V16 P24 O84'
_cell_volume   1617.80139737
_cell_formula_units_Z   4
loop_
 _symmetry_equiv_pos_site_id
 _symmetry_equiv_pos_as_xyz
  1  'x, y, z'
loop_
 _atom_site_type_symbol
 _atom_site_label
 _atom_site_symmetry_multiplicity
 _atom_site_fract_x
 _atom_site_fract_y
 _atom_site_fract_z
 _atom_site_occupancy
  V  V0  1  0.55362096  0.76062202  0.49636004  1
  V  V1  1  0.44637904  0.23937798  0.50363996  1
  V  V2  1  0.55333062  0.22067384  0.75645161  1
  V  V3  1  0.94637904  0.76062202  0.49636004  1
  V  V4  1  0.05333062  0.72067384  0.74354839  1
  V  V5  1  0.05362096  0.26062202  0.00363996  1
  V  V6  1  0.44666938  0.77932616  0.24354839  1
  V  V7  1  0.44637904  0.26062202  0.00363996  1
  V  V8  1  0.55333062  0.27932616  0.25645161  1
  V  V9  1  0.05362096  0.23937798  0.50363996  1
  V  V10  1  0.55362096  0.73937798  0.99636004  1
  V  V11  1  0.05333062  0.77932616  0.24354839  1
  V  V12  1  0.94637904  0.73937798  0.99636004  1
  V  V13  1  0.44666938  0.72067384  0.74354839  1
  V  V14  1  0.94666938  0.27932616  0.25645161  1
  V  V15  1  0.94666938  0.22067384  0.75645161  1
  P  P16  1  0.75000000  0.46766763  0.54777267  1
  P  P17  1  0.25000000  0.44657238  0.80066574  1
  P  P18  1  0.25000000  0.53233237  0.45222733  1
  P  P19  1  0.25000000  0.97111158  0.43873763  1
  P  P20  1  0.75000000  0.49847489  0.68918159  1
  P  P21  1  0.25000000  0.50152511  0.31081841  1
  P  P22  1  0.75000000  0.00152511  0.18918159  1
  P  P23  1  0.75000000  0.55342762  0.19933426  1
  P  P24  1  0.75000000  0.94657238  0.69933426  1
  P  P25  1  0.25000000  0.66727597  0.10934459  1
  P  P26  1  0.25000000  0.34272252  0.14175283  1
  P  P27  1  0.75000000  0.16727597  0.39065541  1
  P  P28  1  0.25000000  0.99847489  0.81081841  1
  P  P29  1  0.75000000  0.84272252  0.35824717  1
  P  P30  1  0.75000000  0.33272403  0.89065541  1
  P  P31  1  0.75000000  0.47111158  0.06126237  1
  P  P32  1  0.25000000  0.05342762  0.30066574  1
  P  P33  1  0.25000000  0.15727748  0.64175283  1
  P  P34  1  0.75000000  0.03233237  0.04777267  1
  P  P35  1  0.75000000  0.65727748  0.85824717  1
  P  P36  1  0.25000000  0.52888842  0.93873763  1
  P  P37  1  0.25000000  0.96766763  0.95222733  1
  P  P38  1  0.75000000  0.02888842  0.56126237  1
  P  P39  1  0.25000000  0.83272403  0.60934459  1
  O  O40  1  0.41826863  0.60701248  0.94703997  1
  O  O41  1  0.91876713  0.19720731  0.42601275  1
  O  O42  1  0.58117356  0.92261938  0.19960689  1
  O  O43  1  0.41882644  0.42261938  0.30039311  1
  O  O44  1  0.58117356  0.57738062  0.69960689  1
  O  O45  1  0.41876713  0.69720731  0.07398725  1
  O  O46  1  0.58123287  0.19720731  0.42601275  1
  O  O47  1  0.75000000  0.04731522  0.11960731  1
  O  O48  1  0.25000000  0.26729637  0.07781142  1
  O  O49  1  0.91746013  0.39808064  0.52729832  1
  O  O50  1  0.75000000  0.60553776  0.02275924  1
  O  O51  1  0.25000000  0.58947578  0.76885099  1
  O  O52  1  0.75000000  0.35643262  0.72180267  1
  O  O53  1  0.41746013  0.89808064  0.97270168  1
  O  O54  1  0.91752048  0.69084687  0.82307139  1
  O  O55  1  0.41746013  0.60191936  0.47270168  1
  O  O56  1  0.08117356  0.07738062  0.80039311  1
  O  O57  1  0.75000000  0.45268478  0.61960731  1
  O  O58  1  0.08253987  0.89808064  0.97270168  1
  O  O59  1  0.41917570  0.37413425  0.78620974  1
  O  O60  1  0.91746013  0.10191936  0.02729832  1
  O  O61  1  0.41752048  0.30915313  0.17692861  1
  O  O62  1  0.08082430  0.12586575  0.28620974  1
  O  O63  1  0.75000000  0.41052422  0.23114901  1
  O  O64  1  0.08253987  0.60191936  0.47270168  1
  O  O65  1  0.25000000  0.54731522  0.38039269  1
  O  O66  1  0.25000000  0.75025709  0.67087023  1
  O  O67  1  0.58082430  0.62586575  0.21379026  1
  O  O68  1  0.58123287  0.30279269  0.92601275  1
  O  O69  1  0.25000000  0.02812242  0.37109580  1
  O  O70  1  0.25000000  0.47187758  0.87109580  1
  O  O71  1  0.41917570  0.12586575  0.28620974  1
  O  O72  1  0.75000000  0.00629018  0.37254391  1
  O  O73  1  0.25000000  0.95268478  0.88039269  1
  O  O74  1  0.75000000  0.87688934  0.03134875  1
  O  O75  1  0.75000000  0.52812242  0.12890420  1
  O  O76  1  0.58247952  0.69084687  0.82307139  1
  O  O77  1  0.91826863  0.39298752  0.05296003  1
  O  O78  1  0.75000000  0.62311066  0.53134875  1
  O  O79  1  0.75000000  0.73270363  0.92218858  1
  O  O80  1  0.75000000  0.97187758  0.62890420  1
  O  O81  1  0.91882644  0.57738062  0.69960689  1
  O  O82  1  0.08082430  0.37413425  0.78620974  1
  O  O83  1  0.08117356  0.42261938  0.30039311  1
  O  O84  1  0.91876713  0.30279269  0.92601275  1
  O  O85  1  0.91826863  0.10701248  0.55296003  1
  O  O86  1  0.58253987  0.39808064  0.52729832  1
  O  O87  1  0.25000000  0.99370982  0.62745709  1
  O  O88  1  0.41882644  0.07738062  0.80039311  1
  O  O89  1  0.41826863  0.89298752  0.44703997  1
  O  O90  1  0.75000000  0.24974291  0.32912977  1
  O  O91  1  0.25000000  0.85643262  0.77819733  1
  O  O92  1  0.58082430  0.87413425  0.71379026  1
  O  O93  1  0.25000000  0.50629018  0.12745609  1
  O  O94  1  0.25000000  0.64356738  0.27819733  1
  O  O95  1  0.25000000  0.12311066  0.96865125  1
  O  O96  1  0.91917570  0.87413425  0.71379026  1
  O  O97  1  0.75000000  0.25025709  0.82912977  1
  O  O98  1  0.58247952  0.80915313  0.32307139  1
  O  O99  1  0.25000000  0.10553776  0.47724076  1
  O  O100  1  0.75000000  0.14356738  0.22180267  1
  O  O101  1  0.08123287  0.80279269  0.57398725  1
  O  O102  1  0.08173137  0.89298752  0.44703997  1
  O  O103  1  0.08247952  0.19084687  0.67692861  1
  O  O104  1  0.08247952  0.30915313  0.17692861  1
  O  O105  1  0.25000000  0.74974291  0.17087023  1
  O  O106  1  0.08173137  0.60701248  0.94703997  1
  O  O107  1  0.58253987  0.10191936  0.02729832  1
  O  O108  1  0.25000000  0.91052422  0.26885099  1
  O  O109  1  0.75000000  0.49370982  0.87254291  1
  O  O110  1  0.58173137  0.10701248  0.55296003  1
  O  O111  1  0.75000000  0.08947578  0.73114901  1
  O  O112  1  0.25000000  0.39446224  0.97724076  1
  O  O113  1  0.91917570  0.62586575  0.21379026  1
  O  O114  1  0.25000000  0.23270363  0.57781142  1
  O  O115  1  0.58173137  0.39298752  0.05296003  1
  O  O116  1  0.91752048  0.80915313  0.32307139  1
  O  O117  1  0.75000000  0.89446224  0.52275924  1
  O  O118  1  0.75000000  0.76729637  0.42218858  1
  O  O119  1  0.41752048  0.19084687  0.67692861  1
  O  O120  1  0.41876713  0.80279269  0.57398725  1
  O  O121  1  0.08123287  0.69720731  0.07398725  1
  O  O122  1  0.25000000  0.37688934  0.46865125  1
  O  O123  1  0.91882644  0.92261938  0.19960689  1
