# generated using pymatgen
data_YCu3Se2ClO8
_symmetry_space_group_name_H-M   'P 1'
_cell_length_a   6.37011635
_cell_length_b   7.06369664
_cell_length_c   9.56992157
_cell_angle_alpha   90.00000000
_cell_angle_beta   90.00000000
_cell_angle_gamma   90.00000000
_symmetry_Int_Tables_number   1
_chemical_formula_structural   YCu3Se2ClO8
_chemical_formula_sum   'Y2 Cu6 Se4 Cl2 O16'
_cell_volume   430.61364063
_cell_formula_units_Z   2
loop_
 _symmetry_equiv_pos_site_id
 _symmetry_equiv_pos_as_xyz
  1  'x, y, z'
loop_
 _atom_site_type_symbol
 _atom_site_label
 _atom_site_symmetry_multiplicity
 _atom_site_fract_x
 _atom_site_fract_y
 _atom_site_fract_z
 _atom_site_occupancy
  Y  Y0  1  0.25000000  0.26588741  0.25000000  1
  Y  Y1  1  0.75000000  0.73411259  0.75000000  1
  Cu  Cu2  1  0.50000000  0.00000000  0.00000000  1
  Cu  Cu3  1  0.50000000  0.00000000  0.50000000  1
  Cu  Cu4  1  0.00000000  0.00000000  0.00000000  1
  Cu  Cu5  1  0.75000000  0.20518811  0.75000000  1
  Cu  Cu6  1  0.25000000  0.79481189  0.25000000  1
  Cu  Cu7  1  0.00000000  0.00000000  0.50000000  1
  Se  Se8  1  0.75000000  0.40993851  0.06037347  1
  Se  Se9  1  0.25000000  0.59006149  0.93962653  1
  Se  Se10  1  0.75000000  0.40993851  0.43962653  1
  Se  Se11  1  0.25000000  0.59006149  0.56037347  1
  Cl  Cl12  1  0.25000000  0.14849183  0.75000000  1
  Cl  Cl13  1  0.75000000  0.85150817  0.25000000  1
  O  O14  1  0.25000000  0.99699691  0.11187132  1
  O  O15  1  0.25000000  0.57400486  0.12052498  1
  O  O16  1  0.75000000  0.42599514  0.62052498  1
  O  O17  1  0.53731915  0.26065907  0.08800647  1
  O  O18  1  0.46268085  0.73934093  0.58800647  1
  O  O19  1  0.03731915  0.73934093  0.58800647  1
  O  O20  1  0.75000000  0.00300309  0.88812868  1
  O  O21  1  0.96268085  0.26065907  0.08800647  1
  O  O22  1  0.96268085  0.26065907  0.41199353  1
  O  O23  1  0.03731915  0.73934093  0.91199353  1
  O  O24  1  0.25000000  0.99699691  0.38812868  1
  O  O25  1  0.75000000  0.00300309  0.61187132  1
  O  O26  1  0.46268085  0.73934093  0.91199353  1
  O  O27  1  0.53731915  0.26065907  0.41199353  1
  O  O28  1  0.75000000  0.42599514  0.87947502  1
  O  O29  1  0.25000000  0.57400486  0.37947502  1
