# generated using pymatgen
data_Na2Li(H2N)3
_symmetry_space_group_name_H-M   'P 1'
_cell_length_a   6.36093587
_cell_length_b   6.36093587
_cell_length_c   11.29906673
_cell_angle_alpha   90.00000000
_cell_angle_beta   90.00000000
_cell_angle_gamma   90.00000000
_symmetry_Int_Tables_number   1
_chemical_formula_structural   Na2Li(H2N)3
_chemical_formula_sum   'Na8 Li4 H24 N12'
_cell_volume   457.17724660
_cell_formula_units_Z   4
loop_
 _symmetry_equiv_pos_site_id
 _symmetry_equiv_pos_as_xyz
  1  'x, y, z'
loop_
 _atom_site_type_symbol
 _atom_site_label
 _atom_site_symmetry_multiplicity
 _atom_site_fract_x
 _atom_site_fract_y
 _atom_site_fract_z
 _atom_site_occupancy
  Na  Na0  1  0.00000000  0.50000000  0.63801872  1
  Na  Na1  1  0.50000000  0.00000000  0.86198128  1
  Na  Na2  1  0.50000000  0.50000000  0.75000000  1
  Na  Na3  1  0.50000000  0.00000000  0.13801872  1
  Na  Na4  1  0.00000000  0.00000000  0.00000000  1
  Na  Na5  1  0.00000000  0.50000000  0.36198128  1
  Na  Na6  1  0.00000000  0.00000000  0.50000000  1
  Na  Na7  1  0.50000000  0.50000000  0.25000000  1
  Li  Li8  1  0.64634914  0.64466491  0.00000000  1
  Li  Li9  1  0.35365086  0.35533509  0.00000000  1
  Li  Li10  1  0.35533509  0.64634914  0.50000000  1
  Li  Li11  1  0.64466491  0.35365086  0.50000000  1
  H  H12  1  0.16751050  0.16535195  0.77891446  1
  H  H13  1  0.34668573  0.92238806  0.36494400  1
  H  H14  1  0.16535195  0.83248950  0.27891446  1
  H  H15  1  0.65331427  0.07761194  0.36494400  1
  H  H16  1  0.83248950  0.83464805  0.77891446  1
  H  H17  1  0.65331427  0.07761194  0.63505600  1
  H  H18  1  0.24753751  0.69688198  0.92820576  1
  H  H19  1  0.30311802  0.24753751  0.42820576  1
  H  H20  1  0.92238806  0.65331427  0.86494400  1
  H  H21  1  0.83464805  0.16751050  0.72108554  1
  H  H22  1  0.75246249  0.30311802  0.92820576  1
  H  H23  1  0.83248950  0.83464805  0.22108554  1
  H  H24  1  0.07761194  0.34668573  0.86494400  1
  H  H25  1  0.92238806  0.65331427  0.13505600  1
  H  H26  1  0.75246249  0.30311802  0.07179424  1
  H  H27  1  0.69688198  0.75246249  0.57179424  1
  H  H28  1  0.34668573  0.92238806  0.63505600  1
  H  H29  1  0.16751050  0.16535195  0.22108554  1
  H  H30  1  0.69688198  0.75246249  0.42820576  1
  H  H31  1  0.16535195  0.83248950  0.72108554  1
  H  H32  1  0.83464805  0.16751050  0.27891446  1
  H  H33  1  0.30311802  0.24753751  0.57179424  1
  H  H34  1  0.24753751  0.69688198  0.07179424  1
  H  H35  1  0.07761194  0.34668573  0.13505600  1
  N  N36  1  0.21435932  0.27031518  0.15723544  1
  N  N37  1  0.72968482  0.21435932  0.65723544  1
  N  N38  1  0.21435932  0.27031518  0.84276456  1
  N  N39  1  0.78564068  0.72968482  0.84276456  1
  N  N40  1  0.72968482  0.21435932  0.34276456  1
  N  N41  1  0.27031518  0.78564068  0.65723544  1
  N  N42  1  0.78564068  0.72968482  0.15723544  1
  N  N43  1  0.65792579  0.27410790  0.00000000  1
  N  N44  1  0.27410790  0.34207421  0.50000000  1
  N  N45  1  0.72589210  0.65792579  0.50000000  1
  N  N46  1  0.34207421  0.72589210  0.00000000  1
  N  N47  1  0.27031518  0.78564068  0.34276456  1
