# generated using pymatgen
data_MgTe2O5
_symmetry_space_group_name_H-M   'P 1'
_cell_length_a   6.04403610
_cell_length_b   7.39787069
_cell_length_c   10.83451833
_cell_angle_alpha   90.00000000
_cell_angle_beta   90.00000000
_cell_angle_gamma   90.00000000
_symmetry_Int_Tables_number   1
_chemical_formula_structural   MgTe2O5
_chemical_formula_sum   'Mg4 Te8 O20'
_cell_volume   484.44379115
_cell_formula_units_Z   4
loop_
 _symmetry_equiv_pos_site_id
 _symmetry_equiv_pos_as_xyz
  1  'x, y, z'
loop_
 _atom_site_type_symbol
 _atom_site_label
 _atom_site_symmetry_multiplicity
 _atom_site_fract_x
 _atom_site_fract_y
 _atom_site_fract_z
 _atom_site_occupancy
  O  O0  1  0.25000000  0.50000000  0.56010288  1
  O  O1  1  0.75000000  0.00000000  0.93989712  1
  O  O2  1  0.75000000  0.50000000  0.43989712  1
  O  O3  1  0.25000000  0.00000000  0.06010288  1
  O  O4  1  0.55073737  0.35337437  0.93493203  1
  O  O5  1  0.05073737  0.14662563  0.56506797  1
  O  O6  1  0.44926263  0.85337437  0.56506797  1
  O  O7  1  0.94926263  0.64662563  0.93493203  1
  O  O8  1  0.44926263  0.64662563  0.06506797  1
  O  O9  1  0.94926263  0.85337437  0.43493203  1
  O  O10  1  0.55073737  0.14662563  0.43493203  1
  O  O11  1  0.05073737  0.35337437  0.06506797  1
  O  O12  1  0.18643192  0.19130144  0.29403556  1
  O  O13  1  0.68643192  0.30869856  0.20596444  1
  O  O14  1  0.81356808  0.69130144  0.20596444  1
  O  O15  1  0.31356808  0.80869856  0.29403556  1
  O  O16  1  0.81356808  0.80869856  0.70596444  1
  O  O17  1  0.31356808  0.69130144  0.79403556  1
  O  O18  1  0.18643192  0.30869856  0.79403556  1
  O  O19  1  0.68643192  0.19130144  0.70596444  1
  Mg  Mg20  1  0.25000000  0.00000000  0.44115233  1
  Mg  Mg21  1  0.75000000  0.50000000  0.05884767  1
  Mg  Mg22  1  0.75000000  0.00000000  0.55884767  1
  Mg  Mg23  1  0.25000000  0.50000000  0.94115233  1
  Te  Te24  1  0.48946832  0.86309349  0.15352259  1
  Te  Te25  1  0.98946832  0.63690651  0.34647741  1
  Te  Te26  1  0.51053168  0.36309349  0.34647741  1
  Te  Te27  1  0.01053168  0.13690651  0.15352259  1
  Te  Te28  1  0.98946832  0.86309349  0.84647741  1
  Te  Te29  1  0.48946832  0.63690651  0.65352259  1
  Te  Te30  1  0.01053168  0.36309349  0.65352259  1
  Te  Te31  1  0.51053168  0.13690651  0.84647741  1
