# generated using pymatgen
data_Cs3Mo15Se17
_symmetry_space_group_name_H-M   'P 1'
_cell_length_a   9.84690463
_cell_length_b   9.84690418
_cell_length_c   21.11587777
_cell_angle_alpha   90.00000000
_cell_angle_beta   90.00000000
_cell_angle_gamma   120.00000153
_symmetry_Int_Tables_number   1
_chemical_formula_structural   Cs3Mo15Se17
_chemical_formula_sum   'Cs6 Mo30 Se34'
_cell_volume   1773.12440666
_cell_formula_units_Z   2
loop_
 _symmetry_equiv_pos_site_id
 _symmetry_equiv_pos_as_xyz
  1  'x, y, z'
loop_
 _atom_site_type_symbol
 _atom_site_label
 _atom_site_symmetry_multiplicity
 _atom_site_fract_x
 _atom_site_fract_y
 _atom_site_fract_z
 _atom_site_occupancy
  Cs  Cs0  1  0.00000000  0.00000000  0.13759135  1
  Cs  Cs1  1  0.00000000  0.00000000  0.63759135  1
  Cs  Cs2  1  0.00000000  0.00000000  0.36240865  1
  Cs  Cs3  1  0.00000000  0.00000000  0.86240865  1
  Cs  Cs4  1  0.66666700  0.33333300  0.75000000  1
  Cs  Cs5  1  0.33333300  0.66666700  0.25000000  1
  Mo  Mo6  1  0.64469774  0.16664367  0.03415924  1
  Mo  Mo7  1  0.35530226  0.83335633  0.53415924  1
  Mo  Mo8  1  0.64704179  0.16804521  0.25000000  1
  Mo  Mo9  1  0.50095195  0.18545809  0.35733582  1
  Mo  Mo10  1  0.47805407  0.64469774  0.53415924  1
  Mo  Mo11  1  0.35295821  0.83195479  0.75000000  1
  Mo  Mo12  1  0.47899658  0.64704179  0.75000000  1
  Mo  Mo13  1  0.16664367  0.52194593  0.53415924  1
  Mo  Mo14  1  0.50095195  0.18545809  0.14266418  1
  Mo  Mo15  1  0.68450615  0.49904805  0.35733582  1
  Mo  Mo16  1  0.52194593  0.35530226  0.03415924  1
  Mo  Mo17  1  0.31549385  0.50095195  0.64266418  1
  Mo  Mo18  1  0.18545809  0.68450615  0.85733582  1
  Mo  Mo19  1  0.49904805  0.81454191  0.64266418  1
  Mo  Mo20  1  0.68450615  0.49904805  0.14266418  1
  Mo  Mo21  1  0.16804521  0.52100342  0.75000000  1
  Mo  Mo22  1  0.49904805  0.81454191  0.85733582  1
  Mo  Mo23  1  0.18545809  0.68450615  0.64266418  1
  Mo  Mo24  1  0.31549385  0.50095195  0.85733582  1
  Mo  Mo25  1  0.81454191  0.31549385  0.35733582  1
  Mo  Mo26  1  0.16664367  0.52194593  0.96584076  1
  Mo  Mo27  1  0.83335633  0.47805407  0.03415924  1
  Mo  Mo28  1  0.52194593  0.35530226  0.46584076  1
  Mo  Mo29  1  0.52100342  0.35295821  0.25000000  1
  Mo  Mo30  1  0.64469774  0.16664367  0.46584076  1
  Mo  Mo31  1  0.83335633  0.47805407  0.46584076  1
  Mo  Mo32  1  0.47805407  0.64469774  0.96584076  1
  Mo  Mo33  1  0.35530226  0.83335633  0.96584076  1
  Mo  Mo34  1  0.81454191  0.31549385  0.14266418  1
  Mo  Mo35  1  0.83195479  0.47899658  0.25000000  1
  Se  Se36  1  0.98965370  0.61907306  0.14176409  1
  Se  Se37  1  0.38092694  0.37058065  0.14176409  1
  Se  Se38  1  0.65820194  0.95341936  0.54179647  1
  Se  Se39  1  0.29270845  0.33906912  0.75000000  1
  Se  Se40  1  0.95341936  0.29521741  0.45820353  1
  Se  Se41  1  0.37058065  0.98965370  0.64176409  1
  Se  Se42  1  0.38092694  0.37058065  0.35823591  1
  Se  Se43  1  0.04658064  0.70478259  0.95820353  1
  Se  Se44  1  0.04658064  0.70478259  0.54179647  1
  Se  Se45  1  0.01034630  0.38092694  0.85823591  1
  Se  Se46  1  0.70729155  0.66093088  0.25000000  1
  Se  Se47  1  0.34179806  0.04658064  0.04179647  1
  Se  Se48  1  0.33333300  0.66666700  0.06183066  1
  Se  Se49  1  0.95363934  0.29270845  0.25000000  1
  Se  Se50  1  0.33333300  0.66666700  0.43816934  1
  Se  Se51  1  0.61907306  0.62941935  0.85823591  1
  Se  Se52  1  0.29521741  0.34179806  0.54179647  1
  Se  Se53  1  0.62941935  0.01034630  0.35823591  1
  Se  Se54  1  0.70478259  0.65820194  0.45820353  1
  Se  Se55  1  0.04636066  0.70729155  0.75000000  1
  Se  Se56  1  0.01034630  0.38092694  0.64176409  1
  Se  Se57  1  0.33906912  0.04636066  0.25000000  1
  Se  Se58  1  0.62941935  0.01034630  0.14176409  1
  Se  Se59  1  0.70478259  0.65820194  0.04179647  1
  Se  Se60  1  0.37058065  0.98965370  0.85823591  1
  Se  Se61  1  0.66093088  0.95363934  0.75000000  1
  Se  Se62  1  0.34179806  0.04658064  0.45820353  1
  Se  Se63  1  0.98965370  0.61907306  0.35823591  1
  Se  Se64  1  0.65820194  0.95341936  0.95820353  1
  Se  Se65  1  0.66666700  0.33333300  0.56183066  1
  Se  Se66  1  0.66666700  0.33333300  0.93816934  1
  Se  Se67  1  0.29521741  0.34179806  0.95820353  1
  Se  Se68  1  0.95341936  0.29521741  0.04179647  1
  Se  Se69  1  0.61907306  0.62941935  0.64176409  1
