# generated using pymatgen
data_Mn7(PbO5)3
_symmetry_space_group_name_H-M   'P 1'
_cell_length_a   10.25478498
_cell_length_b   10.25478542
_cell_length_c   13.89429924
_cell_angle_alpha   90.00000000
_cell_angle_beta   90.00000000
_cell_angle_gamma   119.99999858
_symmetry_Int_Tables_number   1
_chemical_formula_structural   Mn7(PbO5)3
_chemical_formula_sum   'Mn28 Pb12 O60'
_cell_volume   1265.37841434
_cell_formula_units_Z   4
loop_
 _symmetry_equiv_pos_site_id
 _symmetry_equiv_pos_as_xyz
  1  'x, y, z'
loop_
 _atom_site_type_symbol
 _atom_site_label
 _atom_site_symmetry_multiplicity
 _atom_site_fract_x
 _atom_site_fract_y
 _atom_site_fract_z
 _atom_site_occupancy
  Mn  Mn0  1  0.33333300  0.66666700  0.14640631  1
  Mn  Mn1  1  0.83288191  0.16711809  0.50000000  1
  Mn  Mn2  1  0.50000000  0.00000000  0.00000000  1
  Mn  Mn3  1  0.83288191  0.66576382  0.50000000  1
  Mn  Mn4  1  0.33333300  0.66666700  0.35359369  1
  Mn  Mn5  1  0.33333300  0.66666700  0.85359369  1
  Mn  Mn6  1  0.33333300  0.66666700  0.64640631  1
  Mn  Mn7  1  0.66576382  0.83288191  0.00000000  1
  Mn  Mn8  1  0.83288191  0.66576382  0.00000000  1
  Mn  Mn9  1  0.50000000  0.00000000  0.50000000  1
  Mn  Mn10  1  0.83288191  0.16711809  0.00000000  1
  Mn  Mn11  1  0.00000000  0.00000000  0.00000000  1
  Mn  Mn12  1  0.00000000  0.00000000  0.50000000  1
  Mn  Mn13  1  0.16711809  0.83288191  0.50000000  1
  Mn  Mn14  1  0.33423618  0.16711809  0.00000000  1
  Mn  Mn15  1  0.66666700  0.33333300  0.85359369  1
  Mn  Mn16  1  0.16711809  0.33423618  0.00000000  1
  Mn  Mn17  1  0.66576382  0.83288191  0.50000000  1
  Mn  Mn18  1  0.50000000  0.50000000  0.50000000  1
  Mn  Mn19  1  0.50000000  0.50000000  0.00000000  1
  Mn  Mn20  1  0.33423618  0.16711809  0.50000000  1
  Mn  Mn21  1  0.66666700  0.33333300  0.64640631  1
  Mn  Mn22  1  0.66666700  0.33333300  0.35359369  1
  Mn  Mn23  1  0.16711809  0.33423618  0.50000000  1
  Mn  Mn24  1  0.00000000  0.50000000  0.50000000  1
  Mn  Mn25  1  0.16711809  0.83288191  0.00000000  1
  Mn  Mn26  1  0.00000000  0.50000000  0.00000000  1
  Mn  Mn27  1  0.66666700  0.33333300  0.14640631  1
  Pb  Pb28  1  0.26933912  0.26933912  0.75000000  1
  Pb  Pb29  1  0.73066088  0.73066088  0.25000000  1
  Pb  Pb30  1  0.39018100  0.00000000  0.75000000  1
  Pb  Pb31  1  0.60981900  0.60981900  0.75000000  1
  Pb  Pb32  1  0.00000000  0.39018100  0.75000000  1
  Pb  Pb33  1  1.00000000  0.73066088  0.75000000  1
  Pb  Pb34  1  0.00000000  0.26933912  0.25000000  1
  Pb  Pb35  1  0.73066088  0.00000000  0.75000000  1
  Pb  Pb36  1  0.39018100  0.39018100  0.25000000  1
  Pb  Pb37  1  1.00000000  0.60981900  0.25000000  1
  Pb  Pb38  1  0.26933912  0.00000000  0.25000000  1
  Pb  Pb39  1  0.60981900  0.00000000  0.25000000  1
  O  O40  1  0.32846515  0.32846515  0.92647189  1
  O  O41  1  0.47780307  0.64843368  0.25000000  1
  O  O42  1  0.83612689  0.83612689  0.57149256  1
  O  O43  1  0.48656379  0.32961966  0.42316406  1
  O  O44  1  0.64843368  0.47780307  0.25000000  1
  O  O45  1  0.16387311  0.16387311  0.07149256  1
  O  O46  1  0.32961966  0.84305587  0.92316406  1
  O  O47  1  0.32846515  0.00000000  0.42647189  1
  O  O48  1  0.51343621  0.84305587  0.07683594  1
  O  O49  1  0.83612689  0.00000000  0.07149256  1
  O  O50  1  0.17063061  0.52219693  0.25000000  1
  O  O51  1  0.82936939  0.47780307  0.75000000  1
  O  O52  1  0.32846515  0.32846515  0.57352811  1
  O  O53  1  0.32961966  0.48656379  0.42316406  1
  O  O54  1  0.67153485  0.67153485  0.07352811  1
  O  O55  1  1.00000000  0.67153485  0.92647189  1
  O  O56  1  0.32961966  0.84305587  0.57683594  1
  O  O57  1  0.67153485  0.00000000  0.57352811  1
  O  O58  1  0.83612689  0.83612689  0.92850744  1
  O  O59  1  0.32961966  0.48656379  0.07683594  1
  O  O60  1  0.35156632  0.52219693  0.75000000  1
  O  O61  1  0.16387311  0.16387311  0.42850744  1
  O  O62  1  0.16387311  0.00000000  0.57149256  1
  O  O63  1  0.48656379  0.32961966  0.07683594  1
  O  O64  1  0.82936939  0.35156632  0.25000000  1
  O  O65  1  0.67153485  0.00000000  0.92647189  1
  O  O66  1  0.51343621  0.84305587  0.42316406  1
  O  O67  1  0.83612689  0.00000000  0.42850744  1
  O  O68  1  0.84305587  0.32961966  0.57683594  1
  O  O69  1  0.48656379  0.15694413  0.92316406  1
  O  O70  1  0.00000000  0.32846515  0.42647189  1
  O  O71  1  1.00000000  0.83612689  0.07149256  1
  O  O72  1  0.84305587  0.51343621  0.42316406  1
  O  O73  1  0.67038034  0.51343621  0.57683594  1
  O  O74  1  0.17063061  0.64843368  0.75000000  1
  O  O75  1  0.00000000  0.16387311  0.57149256  1
  O  O76  1  0.15694413  0.67038034  0.07683594  1
  O  O77  1  1.00000000  0.67153485  0.57352811  1
  O  O78  1  0.47780307  0.82936939  0.75000000  1
  O  O79  1  0.00000000  0.32846515  0.07352811  1
  O  O80  1  0.64843368  0.17063061  0.75000000  1
  O  O81  1  0.67038034  0.15694413  0.07683594  1
  O  O82  1  0.51343621  0.67038034  0.92316406  1
  O  O83  1  0.15694413  0.48656379  0.57683594  1
  O  O84  1  0.84305587  0.51343621  0.07683594  1
  O  O85  1  0.35156632  0.82936939  0.25000000  1
  O  O86  1  0.52219693  0.17063061  0.25000000  1
  O  O87  1  0.16387311  0.00000000  0.92850744  1
  O  O88  1  0.15694413  0.67038034  0.42316406  1
  O  O89  1  0.67153485  0.67153485  0.42647189  1
  O  O90  1  0.15694413  0.48656379  0.92316406  1
  O  O91  1  0.51343621  0.67038034  0.57683594  1
  O  O92  1  0.52219693  0.35156632  0.75000000  1
  O  O93  1  0.67038034  0.15694413  0.42316406  1
  O  O94  1  0.00000000  0.16387311  0.92850744  1
  O  O95  1  0.67038034  0.51343621  0.92316406  1
  O  O96  1  0.32846515  0.00000000  0.07352811  1
  O  O97  1  0.48656379  0.15694413  0.57683594  1
  O  O98  1  0.84305587  0.32961966  0.92316406  1
  O  O99  1  1.00000000  0.83612689  0.42850744  1
