# generated using pymatgen
data_CdI2
_symmetry_space_group_name_H-M   'P 1'
_cell_length_a   29.55172747
_cell_length_b   29.55172757
_cell_length_c   29.55172803
_cell_angle_alpha   8.43644127
_cell_angle_beta   8.43644007
_cell_angle_gamma   8.43644076
_symmetry_Int_Tables_number   1
_chemical_formula_structural   CdI2
_chemical_formula_sum   'Cd4 I8'
_cell_volume   481.94288553
_cell_formula_units_Z   4
loop_
 _symmetry_equiv_pos_site_id
 _symmetry_equiv_pos_as_xyz
  1  'x, y, z'
loop_
 _atom_site_type_symbol
 _atom_site_label
 _atom_site_symmetry_multiplicity
 _atom_site_fract_x
 _atom_site_fract_y
 _atom_site_fract_z
 _atom_site_occupancy
  Cd  Cd0  1  0.58333139  0.58333139  0.58333139  1
  Cd  Cd1  1  0.41666861  0.41666861  0.41666861  1
  Cd  Cd2  1  0.00000000  0.00000000  0.00000000  1
  Cd  Cd3  1  0.50000000  0.50000000  0.50000000  1
  I  I4  1  0.10281359  0.10281359  0.10281359  1
  I  I5  1  0.35281525  0.35281525  0.35281525  1
  I  I6  1  0.18614976  0.18614976  0.18614976  1
  I  I7  1  0.26948159  0.26948159  0.26948159  1
  I  I8  1  0.64718475  0.64718475  0.64718475  1
  I  I9  1  0.73051841  0.73051841  0.73051841  1
  I  I10  1  0.81385024  0.81385024  0.81385024  1
  I  I11  1  0.89718641  0.89718641  0.89718641  1
