# generated using pymatgen
data_Y3Co2
_symmetry_space_group_name_H-M   'P 1'
_cell_length_a   3.92541958
_cell_length_b   9.53116319
_cell_length_c   12.28017777
_cell_angle_alpha   90.00000000
_cell_angle_beta   90.00000000
_cell_angle_gamma   90.00000000
_symmetry_Int_Tables_number   1
_chemical_formula_structural   Y3Co2
_chemical_formula_sum   'Y12 Co8'
_cell_volume   459.44829442
_cell_formula_units_Z   4
loop_
 _symmetry_equiv_pos_site_id
 _symmetry_equiv_pos_as_xyz
  1  'x, y, z'
loop_
 _atom_site_type_symbol
 _atom_site_label
 _atom_site_symmetry_multiplicity
 _atom_site_fract_x
 _atom_site_fract_y
 _atom_site_fract_z
 _atom_site_occupancy
  Y  Y0  1  0.50000000  0.69597118  0.37310373  1
  Y  Y1  1  0.50000000  0.30402882  0.62689627  1
  Y  Y2  1  0.00000000  0.80402882  0.87310373  1
  Y  Y3  1  -0.00000000  0.19597118  0.12689627  1
  Y  Y4  1  0.50000000  0.87231472  0.11439338  1
  Y  Y5  1  0.50000000  0.12768528  0.88560662  1
  Y  Y6  1  -0.00000000  0.62768528  0.61439338  1
  Y  Y7  1  0.00000000  0.37231472  0.38560662  1
  Y  Y8  1  0.50000000  0.07058206  0.36503841  1
  Y  Y9  1  0.50000000  0.92941794  0.63496159  1
  Y  Y10  1  0.00000000  0.42941794  0.86503841  1
  Y  Y11  1  0.00000000  0.57058206  0.13496159  1
  Co  Co12  1  0.50000000  0.35968639  0.22993304  1
  Co  Co13  1  0.50000000  0.64031361  0.77006696  1
  Co  Co14  1  -0.00000000  0.14031361  0.72993304  1
  Co  Co15  1  -0.00000000  0.85968639  0.27006696  1
  Co  Co16  1  0.50000000  0.38341956  0.03807077  1
  Co  Co17  1  0.50000000  0.61658044  0.96192923  1
  Co  Co18  1  -0.00000000  0.11658044  0.53807077  1
  Co  Co19  1  -0.00000000  0.88341956  0.46192923  1
