# generated using pymatgen
data_BaH4O3
_symmetry_space_group_name_H-M   'P 1'
_cell_length_a   7.20690645
_cell_length_b   4.17621312
_cell_length_c   6.43950420
_cell_angle_alpha   90.68399163
_cell_angle_beta   109.36924878
_cell_angle_gamma   89.39181518
_symmetry_Int_Tables_number   1
_chemical_formula_structural   BaH4O3
_chemical_formula_sum   'Ba2 H8 O6'
_cell_volume   182.82620751
_cell_formula_units_Z   2
loop_
 _symmetry_equiv_pos_site_id
 _symmetry_equiv_pos_as_xyz
  1  'x, y, z'
loop_
 _atom_site_type_symbol
 _atom_site_label
 _atom_site_symmetry_multiplicity
 _atom_site_fract_x
 _atom_site_fract_y
 _atom_site_fract_z
 _atom_site_occupancy
  Ba  Ba0  1  0.28201276  0.25115297  0.13489170  1
  Ba  Ba1  1  0.72131587  0.74587145  0.85664202  1
  H  H2  1  0.06256549  0.75183620  0.35070292  1
  H  H3  1  0.93539394  0.24557227  0.64394317  1
  H  H4  1  0.16774235  0.75009331  0.76749264  1
  H  H5  1  0.83726657  0.24565950  0.22415790  1
  H  H6  1  0.66120215  0.55937373  0.31508267  1
  H  H7  1  0.66179233  0.94366347  0.31942095  1
  H  H8  1  0.34109943  0.05067856  0.65971371  1
  H  H9  1  0.34383188  0.43376359  0.67415494  1
  O  O10  1  0.62139084  0.75194896  0.38925595  1
  O  O11  1  0.38614700  0.24377699  0.59818629  1
  O  O12  1  0.06387200  0.75742115  0.20037576  1
  O  O13  1  0.93986407  0.23606346  0.79616174  1
  O  O14  1  0.31115205  0.73300787  0.81887872  1
  O  O15  1  0.69347927  0.24941252  0.17110192  1
