# generated using pymatgen
data_KTbF5
_symmetry_space_group_name_H-M   'P 1'
_cell_length_a   7.41633313
_cell_length_b   8.58148397
_cell_length_c   11.17768198
_cell_angle_alpha   79.05550283
_cell_angle_beta   75.67228476
_cell_angle_gamma   70.53431540
_symmetry_Int_Tables_number   1
_chemical_formula_structural   KTbF5
_chemical_formula_sum   'K6 Tb6 F30'
_cell_volume   645.35291700
_cell_formula_units_Z   6
loop_
 _symmetry_equiv_pos_site_id
 _symmetry_equiv_pos_as_xyz
  1  'x, y, z'
loop_
 _atom_site_type_symbol
 _atom_site_label
 _atom_site_symmetry_multiplicity
 _atom_site_fract_x
 _atom_site_fract_y
 _atom_site_fract_z
 _atom_site_occupancy
  Tb  Tb0  1  0.76077486  0.66588518  0.08543302  1
  Tb  Tb1  1  0.70516068  0.03689736  0.74208885  1
  Tb  Tb2  1  0.23922514  0.33411482  0.91456698  1
  Tb  Tb3  1  0.29483932  0.96310264  0.25791115  1
  Tb  Tb4  1  0.73108390  0.33334043  0.44100429  1
  Tb  Tb5  1  0.26891610  0.66665957  0.55899571  1
  K  K6  1  0.28195285  0.50159887  0.23648864  1
  K  K7  1  0.27725587  0.84844503  0.93431193  1
  K  K8  1  0.76550620  0.82218196  0.42646180  1
  K  K9  1  0.23449380  0.17781804  0.57353820  1
  K  K10  1  0.72274413  0.15155497  0.06568807  1
  K  K11  1  0.71804715  0.49840113  0.76351136  1
  F  F12  1  0.42554056  0.75128382  0.13677835  1
  F  F13  1  0.61785999  0.81586238  0.69195092  1
  F  F14  1  0.98166827  0.85279009  0.64494266  1
  F  F15  1  0.37207108  0.11123252  0.79470029  1
  F  F16  1  0.68529511  0.87164450  0.92759040  1
  F  F17  1  0.98297996  0.25664387  0.88032219  1
  F  F18  1  0.16262710  0.76366040  0.37383325  1
  F  F19  1  0.65937393  0.48722134  0.01405469  1
  F  F20  1  0.04052341  0.96365428  0.15463922  1
  F  F21  1  0.01702004  0.74335613  0.11967781  1
  F  F22  1  0.34062607  0.51277866  0.98594531  1
  F  F23  1  0.95947659  0.03634572  0.84536078  1
  F  F24  1  0.31470489  0.12835550  0.07240960  1
  F  F25  1  0.62644379  0.11434048  0.54946684  1
  F  F26  1  0.62792892  0.88876748  0.20529971  1
  F  F27  1  0.70751389  0.53434144  0.27835058  1
  F  F28  1  0.98041702  0.57871627  0.89860970  1
  F  F29  1  0.37355621  0.88565952  0.45053316  1
  F  F30  1  0.40012442  0.43579024  0.45872593  1
  F  F31  1  0.01958298  0.42128373  0.10139030  1
  F  F32  1  0.57445944  0.24871618  0.86322165  1
  F  F33  1  0.29248611  0.46565856  0.72164942  1
  F  F34  1  0.65208124  0.21010706  0.29362164  1
  F  F35  1  0.59987558  0.56420976  0.54127407  1
  F  F36  1  0.83737290  0.23633960  0.62616675  1
  F  F37  1  0.00404472  0.55496077  0.57115732  1
  F  F38  1  0.38214001  0.18413762  0.30804908  1
  F  F39  1  0.34791876  0.78989294  0.70637836  1
  F  F40  1  0.01833173  0.14720991  0.35505734  1
  F  F41  1  0.99595528  0.44503923  0.42884268  1
