# generated using pymatgen
data_RbFeF4
_symmetry_space_group_name_H-M   'P 1'
_cell_length_a   6.33239885
_cell_length_b   7.82044447
_cell_length_c   7.83888735
_cell_angle_alpha   90.00000000
_cell_angle_beta   90.00000000
_cell_angle_gamma   90.00000000
_symmetry_Int_Tables_number   1
_chemical_formula_structural   RbFeF4
_chemical_formula_sum   'Rb4 Fe4 F16'
_cell_volume   388.19873993
_cell_formula_units_Z   4
loop_
 _symmetry_equiv_pos_site_id
 _symmetry_equiv_pos_as_xyz
  1  'x, y, z'
loop_
 _atom_site_type_symbol
 _atom_site_label
 _atom_site_symmetry_multiplicity
 _atom_site_fract_x
 _atom_site_fract_y
 _atom_site_fract_z
 _atom_site_occupancy
  Rb  Rb0  1  0.45056352  0.50000000  0.00000000  1
  Rb  Rb1  1  0.50668179  0.00000000  0.00000000  1
  Rb  Rb2  1  0.49331821  0.50000000  0.50000000  1
  Rb  Rb3  1  0.54943648  0.00000000  0.50000000  1
  Fe  Fe4  1  0.00270004  0.73937517  0.74497952  1
  Fe  Fe5  1  0.00270004  0.26062483  0.25502048  1
  Fe  Fe6  1  0.99729996  0.76062483  0.24497952  1
  Fe  Fe7  1  0.99729996  0.23937517  0.75502048  1
  F  F8  1  0.07846983  0.51236061  0.26104095  1
  F  F9  1  0.06970615  0.75014202  0.99524397  1
  F  F10  1  0.92153017  0.01236061  0.23895905  1
  F  F11  1  0.71724842  0.68223465  0.78299222  1
  F  F12  1  0.06970615  0.24985798  0.00475603  1
  F  F13  1  0.29309215  0.77763668  0.70200042  1
  F  F14  1  0.71724842  0.31776535  0.21700778  1
  F  F15  1  0.93029385  0.74985798  0.49524397  1
  F  F16  1  0.70690785  0.27763668  0.79799958  1
  F  F17  1  0.92153017  0.98763939  0.76104095  1
  F  F18  1  0.29309215  0.22236332  0.29799958  1
  F  F19  1  0.07846983  0.48763939  0.73895905  1
  F  F20  1  0.28275158  0.18223465  0.71700778  1
  F  F21  1  0.93029385  0.25014202  0.50475603  1
  F  F22  1  0.70690785  0.72236332  0.20200042  1
  F  F23  1  0.28275158  0.81776535  0.28299222  1
