# generated using pymatgen
data_BaTbF6
_symmetry_space_group_name_H-M   'P 1'
_cell_length_a   7.55809258
_cell_length_b   8.88761456
_cell_length_c   8.74125983
_cell_angle_alpha   103.78346074
_cell_angle_beta   93.67980180
_cell_angle_gamma   114.36137703
_symmetry_Int_Tables_number   1
_chemical_formula_structural   BaTbF6
_chemical_formula_sum   'Ba4 Tb4 F24'
_cell_volume   510.66220164
_cell_formula_units_Z   4
loop_
 _symmetry_equiv_pos_site_id
 _symmetry_equiv_pos_as_xyz
  1  'x, y, z'
loop_
 _atom_site_type_symbol
 _atom_site_label
 _atom_site_symmetry_multiplicity
 _atom_site_fract_x
 _atom_site_fract_y
 _atom_site_fract_z
 _atom_site_occupancy
  Ba  Ba0  1  0.71093063  0.70215150  0.25269408  1
  Ba  Ba1  1  0.28906937  0.29784850  0.74730592  1
  Ba  Ba2  1  0.27967756  0.76027394  0.54195841  1
  Ba  Ba3  1  0.72032244  0.23972606  0.45804159  1
  Tb  Tb4  1  0.82891228  0.74042990  0.74440913  1
  Tb  Tb5  1  0.17108772  0.25957010  0.25559087  1
  Tb  Tb6  1  0.77344540  0.22508853  0.93074270  1
  Tb  Tb7  1  0.22655460  0.77491147  0.06925730  1
  F  F8  1  0.89973153  0.75881302  0.00583397  1
  F  F9  1  0.10026847  0.24118698  0.99416603  1
  F  F10  1  0.86576695  0.59881180  0.50409198  1
  F  F11  1  0.13423305  0.40118820  0.49590802  1
  F  F12  1  0.50000000  -0.00000000  -0.00000000  1
  F  F13  1  0.90952175  0.23192702  0.71490865  1
  F  F14  1  0.09047825  0.76807298  0.28509135  1
  F  F15  1  0.68565186  0.45836310  0.72840976  1
  F  F16  1  0.31434814  0.54163690  0.27159024  1
  F  F17  1  -0.00000000  0.50000000  -0.00000000  1
  F  F18  1  0.48228938  0.89345812  0.28424771  1
  F  F19  1  0.51771062  0.10654188  0.71575229  1
  F  F20  1  0.58508361  0.37220028  0.02134913  1
  F  F21  1  0.41491639  0.62779972  0.97865087  1
  F  F22  1  0.64814399  0.78464673  0.55668997  1
  F  F23  1  0.35185601  0.21535327  0.44331003  1
  F  F24  1  0.12556769  0.72489462  0.80395260  1
  F  F25  1  0.87443231  0.27510538  0.19604740  1
  F  F26  1  0.92622539  0.04835334  0.32335893  1
  F  F27  1  0.07377461  0.95164666  0.67664107  1
  F  F28  1  0.77119101  0.96677738  0.89330232  1
  F  F29  1  0.22880899  0.03322262  0.10669768  1
  F  F30  1  0.51757170  0.34839272  0.24942636  1
  F  F31  1  0.48242830  0.65160728  0.75057364  1
