# generated using pymatgen
data_RbBa2N15
_symmetry_space_group_name_H-M   'P 1'
_cell_length_a   5.70691429
_cell_length_b   8.79118393
_cell_length_c   11.87696475
_cell_angle_alpha   90.17963328
_cell_angle_beta   90.00000000
_cell_angle_gamma   90.00000000
_symmetry_Int_Tables_number   1
_chemical_formula_structural   RbBa2N15
_chemical_formula_sum   'Rb2 Ba4 N30'
_cell_volume   595.87072585
_cell_formula_units_Z   2
loop_
 _symmetry_equiv_pos_site_id
 _symmetry_equiv_pos_as_xyz
  1  'x, y, z'
loop_
 _atom_site_type_symbol
 _atom_site_label
 _atom_site_symmetry_multiplicity
 _atom_site_fract_x
 _atom_site_fract_y
 _atom_site_fract_z
 _atom_site_occupancy
  Rb  Rb0  1  0.42678179  0.25000000  0.25000000  1
  Rb  Rb1  1  0.57321821  0.75000000  0.75000000  1
  Ba  Ba2  1  0.00326345  0.76188496  0.44931866  1
  Ba  Ba3  1  0.99673655  0.23811504  0.55068134  1
  Ba  Ba4  1  0.99673655  0.26188496  0.94931866  1
  Ba  Ba5  1  0.00326345  0.73811504  0.05068134  1
  N  N6  1  0.87948219  0.41258524  0.17594419  1
  N  N7  1  0.94132422  0.06725308  0.23014487  1
  N  N8  1  0.49624495  0.75000000  0.25000000  1
  N  N9  1  0.32470613  0.47998975  0.05126511  1
  N  N10  1  0.29587636  0.25000000  0.75000000  1
  N  N11  1  0.05867578  0.93274692  0.76985513  1
  N  N12  1  0.28913090  0.75000000  0.25000000  1
  N  N13  1  0.12051781  0.58741476  0.82405581  1
  N  N14  1  0.49700787  0.63516886  0.50112939  1
  N  N15  1  0.99579101  0.54759401  0.63564533  1
  N  N16  1  0.67529387  0.97998975  0.55126511  1
  N  N17  1  0.32470613  0.02001025  0.44873489  1
  N  N18  1  0.50299213  0.13516886  0.00112939  1
  N  N19  1  0.67529387  0.52001025  0.94873489  1
  N  N20  1  0.71086910  0.25000000  0.75000000  1
  N  N21  1  0.94132422  0.43274692  0.26985513  1
  N  N22  1  0.05867578  0.56725308  0.73014487  1
  N  N23  1  0.50000000  0.50000000  0.50000000  1
  N  N24  1  0.87948219  0.08741476  0.32405581  1
  N  N25  1  0.12051781  0.91258524  0.67594419  1
  N  N26  1  0.70412364  0.75000000  0.25000000  1
  N  N27  1  0.50375505  0.25000000  0.75000000  1
  N  N28  1  0.99579101  0.95240599  0.86435467  1
  N  N29  1  0.50299213  0.36483114  0.49887061  1
  N  N30  1  0.00420899  0.04759401  0.13564533  1
  N  N31  1  0.50000000  0.50000000  0.00000000  1
  N  N32  1  0.00420899  0.45240599  0.36435467  1
  N  N33  1  0.50000000  0.00000000  0.50000000  1
  N  N34  1  0.49700787  0.86483114  0.99887061  1
  N  N35  1  0.50000000  0.00000000  0.00000000  1
