# generated using pymatgen
data_MnHO2
_symmetry_space_group_name_H-M   'P 1'
_cell_length_a   4.59410628
_cell_length_b   10.91946073
_cell_length_c   2.94852815
_cell_angle_alpha   90.00000000
_cell_angle_beta   90.00000000
_cell_angle_gamma   90.00000000
_symmetry_Int_Tables_number   1
_chemical_formula_structural   MnHO2
_chemical_formula_sum   'Mn4 H4 O8'
_cell_volume   147.91339559
_cell_formula_units_Z   4
loop_
 _symmetry_equiv_pos_site_id
 _symmetry_equiv_pos_as_xyz
  1  'x, y, z'
loop_
 _atom_site_type_symbol
 _atom_site_label
 _atom_site_symmetry_multiplicity
 _atom_site_fract_x
 _atom_site_fract_y
 _atom_site_fract_z
 _atom_site_occupancy
  Mn  Mn0  1  0.54242045  0.64067735  0.25000000  1
  Mn  Mn1  1  0.95757955  0.14067735  0.25000000  1
  Mn  Mn2  1  0.45757955  0.35932265  0.75000000  1
  Mn  Mn3  1  0.04242045  0.85932265  0.75000000  1
  H  H4  1  0.90954532  0.39642203  0.25000000  1
  H  H5  1  0.59045468  0.89642203  0.25000000  1
  H  H6  1  0.09045468  0.60357797  0.75000000  1
  H  H7  1  0.40954532  0.10357797  0.75000000  1
  O  O8  1  0.20335395  0.31432799  0.25000000  1
  O  O9  1  0.29664605  0.81432799  0.25000000  1
  O  O10  1  0.79664605  0.68567201  0.75000000  1
  O  O11  1  0.70335395  0.18567201  0.75000000  1
  O  O12  1  0.70161398  0.42997414  0.25000000  1
  O  O13  1  0.79838602  0.92997414  0.25000000  1
  O  O14  1  0.29838602  0.57002586  0.75000000  1
  O  O15  1  0.20161398  0.07002586  0.75000000  1
