# generated using pymatgen
data_BeH8(NF2)2
_symmetry_space_group_name_H-M   'P 1'
_cell_length_a   6.23690077
_cell_length_b   7.45975293
_cell_length_c   10.49908540
_cell_angle_alpha   90.00000000
_cell_angle_beta   90.00000000
_cell_angle_gamma   90.00000000
_symmetry_Int_Tables_number   1
_chemical_formula_structural   BeH8(NF2)2
_chemical_formula_sum   'Be4 H32 N8 F16'
_cell_volume   488.47770489
_cell_formula_units_Z   4
loop_
 _symmetry_equiv_pos_site_id
 _symmetry_equiv_pos_as_xyz
  1  'x, y, z'
loop_
 _atom_site_type_symbol
 _atom_site_label
 _atom_site_symmetry_multiplicity
 _atom_site_fract_x
 _atom_site_fract_y
 _atom_site_fract_z
 _atom_site_occupancy
  Be  Be0  1  0.75000000  0.74975878  0.58509810  1
  Be  Be1  1  0.25000000  0.25024122  0.41490190  1
  Be  Be2  1  0.75000000  0.24975878  0.91490190  1
  Be  Be3  1  0.25000000  0.75024122  0.08509810  1
  H  H4  1  0.38387980  0.16638717  0.03148862  1
  H  H5  1  0.61586778  0.61682806  0.17808868  1
  H  H6  1  0.75000000  0.42216765  0.13990495  1
  H  H7  1  0.11586778  0.38317194  0.82191132  1
  H  H8  1  0.88387980  0.83361283  0.96851138  1
  H  H9  1  0.75000000  0.38483088  0.66680654  1
  H  H10  1  0.25000000  0.07783235  0.63990495  1
  H  H11  1  0.25000000  0.49665380  0.70953717  1
  H  H12  1  0.25000000  0.99665380  0.79046283  1
  H  H13  1  0.75000000  0.66917671  0.88863380  1
  H  H14  1  0.75000000  0.00334620  0.20953717  1
  H  H15  1  0.61612020  0.83361283  0.96851138  1
  H  H16  1  0.75000000  0.50334620  0.29046283  1
  H  H17  1  0.75000000  0.92216765  0.36009505  1
  H  H18  1  0.25000000  0.57783235  0.86009505  1
  H  H19  1  0.88413222  0.61682806  0.17808868  1
  H  H20  1  0.25000000  0.61516912  0.33319346  1
  H  H21  1  0.75000000  0.88483088  0.83319346  1
  H  H22  1  0.25000000  0.33082329  0.11136620  1
  H  H23  1  0.11586778  0.88317194  0.67808868  1
  H  H24  1  0.61612020  0.33361283  0.53148862  1
  H  H25  1  0.25000000  0.11516912  0.16680654  1
  H  H26  1  0.61586778  0.11682806  0.32191132  1
  H  H27  1  0.38387980  0.66638717  0.46851138  1
  H  H28  1  0.11612020  0.66638717  0.46851138  1
  H  H29  1  0.88413222  0.11682806  0.32191132  1
  H  H30  1  0.25000000  0.83082329  0.38863380  1
  H  H31  1  0.88387980  0.33361283  0.53148862  1
  H  H32  1  0.75000000  0.16917671  0.61136620  1
  H  H33  1  0.11612020  0.16638717  0.03148862  1
  H  H34  1  0.38413222  0.38317194  0.82191132  1
  H  H35  1  0.38413222  0.88317194  0.67808868  1
  N  N36  1  0.25000000  0.46065184  0.80364865  1
  N  N37  1  0.25000000  0.19454181  0.08618460  1
  N  N38  1  0.75000000  0.03934816  0.30364865  1
  N  N39  1  0.25000000  0.69454181  0.41381540  1
  N  N40  1  0.25000000  0.96065184  0.69635135  1
  N  N41  1  0.75000000  0.80545819  0.91381540  1
  N  N42  1  0.75000000  0.53934816  0.19635135  1
  N  N43  1  0.75000000  0.30545819  0.58618460  1
  F  F44  1  0.25000000  0.26232037  0.56430195  1
  F  F45  1  0.75000000  0.94763203  0.63714068  1
  F  F46  1  0.96381602  0.66145991  0.63128937  1
  F  F47  1  0.03618398  0.83854009  0.13128937  1
  F  F48  1  0.75000000  0.44763203  0.86285932  1
  F  F49  1  0.03618398  0.33854009  0.36871063  1
  F  F50  1  0.53618398  0.66145991  0.63128937  1
  F  F51  1  0.25000000  0.05236797  0.36285932  1
  F  F52  1  0.75000000  0.23767963  0.06430195  1
  F  F53  1  0.25000000  0.76232037  0.93569805  1
  F  F54  1  0.46381602  0.83854009  0.13128937  1
  F  F55  1  0.46381602  0.33854009  0.36871063  1
  F  F56  1  0.25000000  0.55236797  0.13714068  1
  F  F57  1  0.53618398  0.16145991  0.86871063  1
  F  F58  1  0.96381602  0.16145991  0.86871063  1
  F  F59  1  0.75000000  0.73767963  0.43569805  1
