# generated using pymatgen
data_Cd(In2I3)2
_symmetry_space_group_name_H-M   'P 1'
_cell_length_a   9.15784903
_cell_length_b   9.15784903
_cell_length_c   10.00356044
_cell_angle_alpha   90.00000000
_cell_angle_beta   90.00000000
_cell_angle_gamma   90.00000000
_symmetry_Int_Tables_number   1
_chemical_formula_structural   Cd(In2I3)2
_chemical_formula_sum   'Cd2 In8 I12'
_cell_volume   838.96058913
_cell_formula_units_Z   2
loop_
 _symmetry_equiv_pos_site_id
 _symmetry_equiv_pos_as_xyz
  1  'x, y, z'
loop_
 _atom_site_type_symbol
 _atom_site_label
 _atom_site_symmetry_multiplicity
 _atom_site_fract_x
 _atom_site_fract_y
 _atom_site_fract_z
 _atom_site_occupancy
  Cd  Cd0  1  0.00000000  0.00000000  0.00000000  1
  Cd  Cd1  1  0.50000000  0.50000000  0.50000000  1
  In  In2  1  0.85692508  0.64307492  0.75000000  1
  In  In3  1  0.85692508  0.64307492  0.25000000  1
  In  In4  1  0.64307492  0.14307492  0.75000000  1
  In  In5  1  0.64307492  0.14307492  0.25000000  1
  In  In6  1  0.14307492  0.35692508  0.25000000  1
  In  In7  1  0.14307492  0.35692508  0.75000000  1
  In  In8  1  0.35692508  0.85692508  0.25000000  1
  In  In9  1  0.35692508  0.85692508  0.75000000  1
  I  I10  1  0.85083435  0.30642769  0.00000000  1
  I  I11  1  0.14916565  0.69357231  0.00000000  1
  I  I12  1  0.69357231  0.85083435  0.00000000  1
  I  I13  1  0.00000000  0.00000000  0.28843012  1
  I  I14  1  0.19357231  0.64916565  0.50000000  1
  I  I15  1  0.64916565  0.80642769  0.50000000  1
  I  I16  1  0.00000000  0.00000000  0.71156988  1
  I  I17  1  0.50000000  0.50000000  0.21156988  1
  I  I18  1  0.80642769  0.35083435  0.50000000  1
  I  I19  1  0.35083435  0.19357231  0.50000000  1
  I  I20  1  0.50000000  0.50000000  0.78843012  1
  I  I21  1  0.30642769  0.14916565  0.00000000  1
