# generated using pymatgen
data_Ba2CoC2(O3F)2
_symmetry_space_group_name_H-M   'P 1'
_cell_length_a   6.74940866
_cell_length_b   9.08833446
_cell_length_c   11.70411295
_cell_angle_alpha   90.00000000
_cell_angle_beta   90.00000000
_cell_angle_gamma   90.00000000
_symmetry_Int_Tables_number   1
_chemical_formula_structural   Ba2CoC2(O3F)2
_chemical_formula_sum   'Ba8 Co4 C8 O24 F8'
_cell_volume   717.94062670
_cell_formula_units_Z   4
loop_
 _symmetry_equiv_pos_site_id
 _symmetry_equiv_pos_as_xyz
  1  'x, y, z'
loop_
 _atom_site_type_symbol
 _atom_site_label
 _atom_site_symmetry_multiplicity
 _atom_site_fract_x
 _atom_site_fract_y
 _atom_site_fract_z
 _atom_site_occupancy
  Ba  Ba0  1  0.98542890  0.89140400  0.67492496  1
  Ba  Ba1  1  0.51457110  0.39140400  0.32507504  1
  Ba  Ba2  1  0.51457110  0.89140400  0.17492496  1
  Ba  Ba3  1  0.98542890  0.39140400  0.82507504  1
  Ba  Ba4  1  0.48542890  0.60859600  0.67492496  1
  Ba  Ba5  1  0.01457110  0.60859600  0.17492496  1
  Ba  Ba6  1  0.01457110  0.10859600  0.32507504  1
  Ba  Ba7  1  0.48542890  0.10859600  0.82507504  1
  Co  Co8  1  0.00000000  0.50000000  0.50000000  1
  Co  Co9  1  0.00000000  0.00000000  0.00000000  1
  Co  Co10  1  0.50000000  0.00000000  0.50000000  1
  Co  Co11  1  0.50000000  0.50000000  0.00000000  1
  C  C12  1  0.74785603  0.25977932  0.58783822  1
  C  C13  1  0.74785603  0.75977932  0.91216178  1
  C  C14  1  0.24785603  0.24022068  0.58783822  1
  C  C15  1  0.25214397  0.74022068  0.41216178  1
  C  C16  1  0.75214397  0.75977932  0.41216178  1
  C  C17  1  0.24785603  0.74022068  0.91216178  1
  C  C18  1  0.25214397  0.24022068  0.08783822  1
  C  C19  1  0.75214397  0.25977932  0.08783822  1
  O  O20  1  0.80390258  0.68741610  0.82346423  1
  O  O21  1  0.17400148  0.80433658  0.00161067  1
  O  O22  1  0.26560797  0.09580247  0.58698698  1
  O  O23  1  0.67400148  0.19566342  0.49838933  1
  O  O24  1  0.73439203  0.40419753  0.08698698  1
  O  O25  1  0.23439203  0.09580247  0.08698698  1
  O  O26  1  0.23439203  0.59580247  0.41301302  1
  O  O27  1  0.76560797  0.90419753  0.91301302  1
  O  O28  1  0.80390258  0.18741610  0.67653577  1
  O  O29  1  0.32599852  0.30433658  0.99838933  1
  O  O30  1  0.73439203  0.90419753  0.41301302  1
  O  O31  1  0.19609742  0.81258390  0.32346423  1
  O  O32  1  0.82599852  0.69566342  0.50161067  1
  O  O33  1  0.19609742  0.31258390  0.17653577  1
  O  O34  1  0.82599852  0.19566342  0.99838933  1
  O  O35  1  0.69609742  0.68741610  0.32346423  1
  O  O36  1  0.26560797  0.59580247  0.91301302  1
  O  O37  1  0.30390258  0.81258390  0.82346423  1
  O  O38  1  0.17400148  0.30433658  0.49838933  1
  O  O39  1  0.67400148  0.69566342  0.00161067  1
  O  O40  1  0.32599852  0.80433658  0.50161067  1
  O  O41  1  0.30390258  0.31258390  0.67653577  1
  O  O42  1  0.69609742  0.18741610  0.17653577  1
  O  O43  1  0.76560797  0.40419753  0.58698698  1
  F  F44  1  0.09416492  0.59164550  0.65575169  1
  F  F45  1  0.59416492  0.90835450  0.65575169  1
  F  F46  1  0.09416492  0.09164550  0.84424831  1
  F  F47  1  0.90583508  0.90835450  0.15575169  1
  F  F48  1  0.40583508  0.09164550  0.34424831  1
  F  F49  1  0.90583508  0.40835450  0.34424831  1
  F  F50  1  0.40583508  0.59164550  0.15575169  1
  F  F51  1  0.59416492  0.40835450  0.84424831  1
