# generated using pymatgen
data_Rb3H5Pd
_symmetry_space_group_name_H-M   'P 1'
_cell_length_a   7.82870401
_cell_length_b   7.82870401
_cell_length_c   6.10974234
_cell_angle_alpha   90.00000000
_cell_angle_beta   90.00000000
_cell_angle_gamma   90.00000000
_symmetry_Int_Tables_number   1
_chemical_formula_structural   Rb3H5Pd
_chemical_formula_sum   'Rb6 H10 Pd2'
_cell_volume   374.45759395
_cell_formula_units_Z   2
loop_
 _symmetry_equiv_pos_site_id
 _symmetry_equiv_pos_as_xyz
  1  'x, y, z'
loop_
 _atom_site_type_symbol
 _atom_site_label
 _atom_site_symmetry_multiplicity
 _atom_site_fract_x
 _atom_site_fract_y
 _atom_site_fract_z
 _atom_site_occupancy
  Rb  Rb0  1  0.50000000  0.50000000  0.00000000  1
  Rb  Rb1  1  0.00000000  0.00000000  0.00000000  1
  Rb  Rb2  1  0.68375822  0.18375822  0.50000000  1
  Rb  Rb3  1  0.31624178  0.81624178  0.50000000  1
  Rb  Rb4  1  0.81624178  0.68375822  0.50000000  1
  Rb  Rb5  1  0.18375822  0.31624178  0.50000000  1
  H  H6  1  0.50000000  0.50000000  0.50000000  1
  H  H7  1  0.00000000  0.00000000  0.50000000  1
  H  H8  1  0.10899904  0.60899904  0.81170038  1
  H  H9  1  0.89100096  0.39100096  0.81170038  1
  H  H10  1  0.39100096  0.10899904  0.81170038  1
  H  H11  1  0.60899904  0.89100096  0.81170038  1
  H  H12  1  0.89100096  0.39100096  0.18829962  1
  H  H13  1  0.10899904  0.60899904  0.18829962  1
  H  H14  1  0.60899904  0.89100096  0.18829962  1
  H  H15  1  0.39100096  0.10899904  0.18829962  1
  Pd  Pd16  1  0.00000000  0.50000000  0.00000000  1
  Pd  Pd17  1  0.50000000  0.00000000  0.00000000  1
