# generated using pymatgen
data_Na3VS3O
_symmetry_space_group_name_H-M   'P 1'
_cell_length_a   5.98567261
_cell_length_b   9.74948634
_cell_length_c   12.01236135
_cell_angle_alpha   90.00000000
_cell_angle_beta   90.00000000
_cell_angle_gamma   90.00000000
_symmetry_Int_Tables_number   1
_chemical_formula_structural   Na3VS3O
_chemical_formula_sum   'Na12 V4 S12 O4'
_cell_volume   701.00817435
_cell_formula_units_Z   4
loop_
 _symmetry_equiv_pos_site_id
 _symmetry_equiv_pos_as_xyz
  1  'x, y, z'
loop_
 _atom_site_type_symbol
 _atom_site_label
 _atom_site_symmetry_multiplicity
 _atom_site_fract_x
 _atom_site_fract_y
 _atom_site_fract_z
 _atom_site_occupancy
  Na  Na0  1  0.25028759  0.45542727  0.12994010  1
  Na  Na1  1  0.23889120  0.75000000  0.36826995  1
  Na  Na2  1  0.24971241  0.95542727  0.62994010  1
  Na  Na3  1  0.75028759  0.04457273  0.37005990  1
  Na  Na4  1  0.26110880  0.25000000  0.86826995  1
  Na  Na5  1  0.25028759  0.04457273  0.12994010  1
  Na  Na6  1  0.24971241  0.54457273  0.62994010  1
  Na  Na7  1  0.73889120  0.75000000  0.13173005  1
  Na  Na8  1  0.75028759  0.45542727  0.37005990  1
  Na  Na9  1  0.74971241  0.95542727  0.87005990  1
  Na  Na10  1  0.76110880  0.25000000  0.63173005  1
  Na  Na11  1  0.74971241  0.54457273  0.87005990  1
  V  V12  1  0.34298976  0.25000000  0.45306068  1
  V  V13  1  0.15701024  0.75000000  0.95306068  1
  V  V14  1  0.65701024  0.75000000  0.54693932  1
  V  V15  1  0.84298976  0.25000000  0.04693932  1
  S  S16  1  0.25427636  0.75000000  0.13071750  1
  S  S17  1  0.22832824  0.06069433  0.37362247  1
  S  S18  1  0.24572364  0.25000000  0.63071750  1
  S  S19  1  0.22832824  0.43930567  0.37362247  1
  S  S20  1  0.74572364  0.25000000  0.86928250  1
  S  S21  1  0.72832824  0.43930567  0.12637753  1
  S  S22  1  0.77167176  0.56069433  0.62637753  1
  S  S23  1  0.72832824  0.06069433  0.12637753  1
  S  S24  1  0.77167176  0.93930567  0.62637753  1
  S  S25  1  0.27167176  0.93930567  0.87362247  1
  S  S26  1  0.27167176  0.56069433  0.87362247  1
  S  S27  1  0.75427636  0.75000000  0.36928250  1
  O  O28  1  0.62658104  0.25000000  0.44851016  1
  O  O29  1  0.37341896  0.75000000  0.55148984  1
  O  O30  1  0.87341896  0.75000000  0.94851016  1
  O  O31  1  0.12658104  0.25000000  0.05148984  1
