# generated using pymatgen
data_Rb2CuCl3
_symmetry_space_group_name_H-M   'P 1'
_cell_length_a   4.26646298
_cell_length_b   12.68873775
_cell_length_c   13.12384199
_cell_angle_alpha   90.00000000
_cell_angle_beta   90.00000000
_cell_angle_gamma   90.00000000
_symmetry_Int_Tables_number   1
_chemical_formula_structural   Rb2CuCl3
_chemical_formula_sum   'Rb8 Cu4 Cl12'
_cell_volume   710.47270202
_cell_formula_units_Z   4
loop_
 _symmetry_equiv_pos_site_id
 _symmetry_equiv_pos_as_xyz
  1  'x, y, z'
loop_
 _atom_site_type_symbol
 _atom_site_label
 _atom_site_symmetry_multiplicity
 _atom_site_fract_x
 _atom_site_fract_y
 _atom_site_fract_z
 _atom_site_occupancy
  Rb  Rb0  1  0.75000000  0.32785262  0.97525150  1
  Rb  Rb1  1  0.25000000  0.17214738  0.47525150  1
  Rb  Rb2  1  0.75000000  0.82785262  0.52474850  1
  Rb  Rb3  1  0.25000000  0.51302646  0.67345010  1
  Rb  Rb4  1  0.75000000  0.98697354  0.17345010  1
  Rb  Rb5  1  0.25000000  0.67214738  0.02474850  1
  Rb  Rb6  1  0.75000000  0.48697354  0.32654990  1
  Rb  Rb7  1  0.25000000  0.01302646  0.82654990  1
  Cu  Cu8  1  0.75000000  0.24333195  0.69008341  1
  Cu  Cu9  1  0.25000000  0.75666805  0.30991659  1
  Cu  Cu10  1  0.75000000  0.74333195  0.80991659  1
  Cu  Cu11  1  0.25000000  0.25666805  0.19008341  1
  Cl  Cl12  1  0.25000000  0.93352499  0.35889247  1
  Cl  Cl13  1  0.75000000  0.36038715  0.55323521  1
  Cl  Cl14  1  0.25000000  0.63961285  0.44676479  1
  Cl  Cl15  1  0.25000000  0.77273899  0.72177336  1
  Cl  Cl16  1  0.25000000  0.43352499  0.14110753  1
  Cl  Cl17  1  0.75000000  0.86038715  0.94676479  1
  Cl  Cl18  1  0.75000000  0.06647501  0.64110753  1
  Cl  Cl19  1  0.25000000  0.27273899  0.77822664  1
  Cl  Cl20  1  0.75000000  0.72726101  0.22177336  1
  Cl  Cl21  1  0.75000000  0.22726101  0.27822664  1
  Cl  Cl22  1  0.25000000  0.13961285  0.05323521  1
  Cl  Cl23  1  0.75000000  0.56647501  0.85889247  1
