# generated using pymatgen
data_CsGeI3
_symmetry_space_group_name_H-M   'P 1'
_cell_length_a   8.66920513
_cell_length_b   5.98862825
_cell_length_c   6.25770572
_cell_angle_alpha   91.42320066
_cell_angle_beta   133.84282130
_cell_angle_gamma   87.94515178
_symmetry_Int_Tables_number   1
_chemical_formula_structural   CsGeI3
_chemical_formula_sum   'Cs1 Ge1 I3'
_cell_volume   234.16601492
_cell_formula_units_Z   1
loop_
 _symmetry_equiv_pos_site_id
 _symmetry_equiv_pos_as_xyz
  1  'x, y, z'
loop_
 _atom_site_type_symbol
 _atom_site_label
 _atom_site_symmetry_multiplicity
 _atom_site_fract_x
 _atom_site_fract_y
 _atom_site_fract_z
 _atom_site_occupancy
  Cs  Cs0  1  0.08465205  0.58376006  0.00000000  1
  Ge  Ge1  1  0.62904727  0.11646902  1.00000000  1
  I  I2  1  0.57020190  0.59201087  1.00000000  1
  I  I3  1  0.07119585  0.09788002  0.45029293  1
  I  I4  1  0.62090293  0.09788003  0.54970707  1
