# generated using pymatgen
data_LiAlSiO4
_symmetry_space_group_name_H-M   'P 1'
_cell_length_a   5.29720728
_cell_length_b   5.29720728
_cell_length_c   11.45030422
_cell_angle_alpha   90.00000000
_cell_angle_beta   90.00000000
_cell_angle_gamma   120.00000002
_symmetry_Int_Tables_number   1
_chemical_formula_structural   LiAlSiO4
_chemical_formula_sum   'Li3 Al3 Si3 O12'
_cell_volume   278.25411220
_cell_formula_units_Z   3
loop_
 _symmetry_equiv_pos_site_id
 _symmetry_equiv_pos_as_xyz
  1  'x, y, z'
loop_
 _atom_site_type_symbol
 _atom_site_label
 _atom_site_symmetry_multiplicity
 _atom_site_fract_x
 _atom_site_fract_y
 _atom_site_fract_z
 _atom_site_occupancy
  Li  Li0  1  0.00000000  0.00000000  0.00000000  1
  Li  Li1  1  0.00000000  0.00000000  0.66666667  1
  Li  Li2  1  0.00000000  0.00000000  0.33333333  1
  O  O3  1  0.40018371  0.20611882  0.58876047  1
  O  O4  1  0.20611882  0.80593511  0.92209380  1
  O  O5  1  0.19406489  0.40018371  0.25542713  1
  O  O6  1  0.59981629  0.79388118  0.58876047  1
  O  O7  1  0.80593511  0.20611882  0.41123953  1
  O  O8  1  0.79388118  0.59981629  0.74457287  1
  O  O9  1  0.20611882  0.40018371  0.74457287  1
  O  O10  1  0.59981629  0.80593511  0.07790620  1
  O  O11  1  0.40018371  0.19406489  0.07790620  1
  O  O12  1  0.80593511  0.59981629  0.25542713  1
  O  O13  1  0.19406489  0.79388118  0.41123953  1
  O  O14  1  0.79388118  0.19406489  0.92209380  1
  Al  Al15  1  0.50000000  0.00000000  0.50000000  1
  Al  Al16  1  0.00000000  0.50000000  0.83333333  1
  Al  Al17  1  0.50000000  0.50000000  0.16666667  1
  Si  Si18  1  0.50000000  0.50000000  0.66666667  1
  Si  Si19  1  0.00000000  0.50000000  0.33333333  1
  Si  Si20  1  0.50000000  0.00000000  0.00000000  1
