# generated using pymatgen
data_CeAlPd
_symmetry_space_group_name_H-M   'P 1'
_cell_length_a   4.24141310
_cell_length_b   7.17328120
_cell_length_c   28.69365485
_cell_angle_alpha   90.00000000
_cell_angle_beta   90.00000000
_cell_angle_gamma   90.00000000
_symmetry_Int_Tables_number   1
_chemical_formula_structural   CeAlPd
_chemical_formula_sum   'Ce14 Al14 Pd14'
_cell_volume   873.00011181
_cell_formula_units_Z   14
loop_
 _symmetry_equiv_pos_site_id
 _symmetry_equiv_pos_as_xyz
  1  'x, y, z'
loop_
 _atom_site_type_symbol
 _atom_site_label
 _atom_site_symmetry_multiplicity
 _atom_site_fract_x
 _atom_site_fract_y
 _atom_site_fract_z
 _atom_site_occupancy
  Ce  Ce0  1  0.25000000  0.51217446  0.34137870  1
  Ce  Ce1  1  0.25000000  0.14279013  0.25000000  1
  Ce  Ce2  1  0.75000000  0.99344679  0.87314383  1
  Ce  Ce3  1  0.25000000  0.00655321  0.37314383  1
  Ce  Ce4  1  0.25000000  0.51217446  0.15862130  1
  Ce  Ce5  1  0.75000000  0.85720987  0.75000000  1
  Ce  Ce6  1  0.25000000  0.00655321  0.12685617  1
  Ce  Ce7  1  0.75000000  0.35827027  0.96704850  1
  Ce  Ce8  1  0.75000000  0.48782554  0.84137870  1
  Ce  Ce9  1  0.75000000  0.48782554  0.65862130  1
  Ce  Ce10  1  0.25000000  0.64172973  0.03295150  1
  Ce  Ce11  1  0.75000000  0.35827027  0.53295150  1
  Ce  Ce12  1  0.25000000  0.64172973  0.46704850  1
  Ce  Ce13  1  0.75000000  0.99344679  0.62685617  1
  Al  Al14  1  0.75000000  0.98858899  0.03530467  1
  Al  Al15  1  0.25000000  0.01141101  0.53530467  1
  Al  Al16  1  0.75000000  0.33986213  0.41589814  1
  Al  Al17  1  0.75000000  0.48904483  0.25000000  1
  Al  Al18  1  0.25000000  0.51095517  0.75000000  1
  Al  Al19  1  0.75000000  0.33986213  0.08410186  1
  Al  Al20  1  0.25000000  0.66013787  0.91589814  1
  Al  Al21  1  0.25000000  0.16482826  0.69994547  1
  Al  Al22  1  0.25000000  0.16482826  0.80005453  1
  Al  Al23  1  0.75000000  0.98858899  0.46469533  1
  Al  Al24  1  0.75000000  0.83517174  0.30005453  1
  Al  Al25  1  0.25000000  0.01141101  0.96469533  1
  Al  Al26  1  0.25000000  0.66013787  0.58410186  1
  Al  Al27  1  0.75000000  0.83517174  0.19994547  1
  Pd  Pd28  1  0.25000000  0.20863116  0.04086432  1
  Pd  Pd29  1  0.75000000  0.72409534  0.10327846  1
  Pd  Pd30  1  0.25000000  0.27590466  0.89672154  1
  Pd  Pd31  1  0.75000000  0.79136884  0.54086432  1
  Pd  Pd32  1  0.25000000  0.77875523  0.82232332  1
  Pd  Pd33  1  0.75000000  0.22124477  0.32232332  1
  Pd  Pd34  1  0.25000000  0.77875523  0.67767668  1
  Pd  Pd35  1  0.75000000  0.22124477  0.17767668  1
  Pd  Pd36  1  0.75000000  0.79136884  0.95913568  1
  Pd  Pd37  1  0.75000000  0.72409534  0.39672154  1
  Pd  Pd38  1  0.25000000  0.20863116  0.45913568  1
  Pd  Pd39  1  0.25000000  0.27590466  0.60327846  1
  Pd  Pd40  1  0.25000000  0.72148581  0.25000000  1
  Pd  Pd41  1  0.75000000  0.27851419  0.75000000  1
