# generated using pymatgen
data_Er5Sb3
_symmetry_space_group_name_H-M   'P 1'
_cell_length_a   8.08300233
_cell_length_b   9.23633784
_cell_length_c   11.77972958
_cell_angle_alpha   90.00000000
_cell_angle_beta   90.00000000
_cell_angle_gamma   90.00000000
_symmetry_Int_Tables_number   1
_chemical_formula_structural   Er5Sb3
_chemical_formula_sum   'Er20 Sb12'
_cell_volume   879.44327968
_cell_formula_units_Z   4
loop_
 _symmetry_equiv_pos_site_id
 _symmetry_equiv_pos_as_xyz
  1  'x, y, z'
loop_
 _atom_site_type_symbol
 _atom_site_label
 _atom_site_symmetry_multiplicity
 _atom_site_fract_x
 _atom_site_fract_y
 _atom_site_fract_z
 _atom_site_occupancy
  Er  Er0  1  0.67345015  0.75000000  0.72781807  1
  Er  Er1  1  0.30865838  0.55770819  0.56685791  1
  Er  Er2  1  0.84613170  0.25000000  0.20916963  1
  Er  Er3  1  0.19134162  0.94229181  0.06685791  1
  Er  Er4  1  0.30865838  0.94229181  0.56685791  1
  Er  Er5  1  0.69134162  0.44229181  0.43314209  1
  Er  Er6  1  0.80865838  0.44229181  0.93314209  1
  Er  Er7  1  0.97490632  0.75000000  0.50416477  1
  Er  Er8  1  0.15386830  0.75000000  0.79083037  1
  Er  Er9  1  0.32654985  0.25000000  0.27218193  1
  Er  Er10  1  0.47490632  0.25000000  0.99583523  1
  Er  Er11  1  0.80865838  0.05770819  0.93314209  1
  Er  Er12  1  0.19134162  0.55770819  0.06685791  1
  Er  Er13  1  0.02509368  0.25000000  0.49583523  1
  Er  Er14  1  0.34613170  0.75000000  0.29083037  1
  Er  Er15  1  0.69134162  0.05770819  0.43314209  1
  Er  Er16  1  0.52509368  0.75000000  0.00416477  1
  Er  Er17  1  0.82654985  0.75000000  0.22781807  1
  Er  Er18  1  0.65386830  0.25000000  0.70916963  1
  Er  Er19  1  0.17345015  0.25000000  0.77218193  1
  Sb  Sb20  1  0.09488663  0.25000000  0.02268400  1
  Sb  Sb21  1  0.93425495  0.49064632  0.67337809  1
  Sb  Sb22  1  0.43425495  0.99064632  0.82662191  1
  Sb  Sb23  1  0.06574505  0.99064632  0.32662191  1
  Sb  Sb24  1  0.43425495  0.50935368  0.82662191  1
  Sb  Sb25  1  0.59488663  0.75000000  0.47731600  1
  Sb  Sb26  1  0.40511337  0.25000000  0.52268400  1
  Sb  Sb27  1  0.56574505  0.49064632  0.17337809  1
  Sb  Sb28  1  0.06574505  0.50935368  0.32662191  1
  Sb  Sb29  1  0.90511337  0.75000000  0.97731600  1
  Sb  Sb30  1  0.56574505  0.00935368  0.17337809  1
  Sb  Sb31  1  0.93425495  0.00935368  0.67337809  1
