# generated using pymatgen
data_Rb3MgH5
_symmetry_space_group_name_H-M   'P 1'
_cell_length_a   8.37660012
_cell_length_b   8.37660012
_cell_length_c   8.37660012
_cell_angle_alpha   122.76020053
_cell_angle_beta   122.76020053
_cell_angle_gamma   85.28218494
_symmetry_Int_Tables_number   1
_chemical_formula_structural   Rb3MgH5
_chemical_formula_sum   'Rb6 Mg2 H10'
_cell_volume   396.80485911
_cell_formula_units_Z   2
loop_
 _symmetry_equiv_pos_site_id
 _symmetry_equiv_pos_as_xyz
  1  'x, y, z'
loop_
 _atom_site_type_symbol
 _atom_site_label
 _atom_site_symmetry_multiplicity
 _atom_site_fract_x
 _atom_site_fract_y
 _atom_site_fract_z
 _atom_site_occupancy
  Rb  Rb0  1  0.18556111  0.68556111  0.87112222  1
  Rb  Rb1  1  0.81443889  0.31443889  0.12887778  1
  Rb  Rb2  1  0.68556111  0.81443889  0.50000000  1
  Rb  Rb3  1  0.31443889  0.18556111  0.50000000  1
  Rb  Rb4  1  0.25000000  0.25000000  0.00000000  1
  Rb  Rb5  1  0.75000000  0.75000000  0.00000000  1
  Mg  Mg6  1  0.25000000  0.75000000  0.50000000  1
  Mg  Mg7  1  0.75000000  0.25000000  0.50000000  1
  H  H8  1  0.47101217  0.97101217  0.75823991  1
  H  H9  1  0.21277227  0.71277227  0.24176009  1
  H  H10  1  0.97101217  0.21277227  0.50000000  1
  H  H11  1  0.71277227  0.47101217  0.50000000  1
  H  H12  1  0.52898783  0.02898783  0.24176009  1
  H  H13  1  0.78722773  0.28722773  0.75823991  1
  H  H14  1  0.02898783  0.78722773  0.50000000  1
  H  H15  1  0.28722773  0.52898783  0.50000000  1
  H  H16  1  0.50000000  0.50000000  0.00000000  1
  H  H17  1  0.00000000  0.00000000  0.00000000  1
