# generated using pymatgen
data_Zr2FeH5
_symmetry_space_group_name_H-M   'P 1'
_cell_length_a   6.92016567
_cell_length_b   6.92021954
_cell_length_c   5.65283359
_cell_angle_alpha   89.99995095
_cell_angle_beta   90.00029876
_cell_angle_gamma   90.00013901
_symmetry_Int_Tables_number   1
_chemical_formula_structural   Zr2FeH5
_chemical_formula_sum   'Zr8 Fe4 H20'
_cell_volume   270.70891912
_cell_formula_units_Z   4
loop_
 _symmetry_equiv_pos_site_id
 _symmetry_equiv_pos_as_xyz
  1  'x, y, z'
loop_
 _atom_site_type_symbol
 _atom_site_label
 _atom_site_symmetry_multiplicity
 _atom_site_fract_x
 _atom_site_fract_y
 _atom_site_fract_z
 _atom_site_occupancy
  Zr  Zr0  1  0.08823642  0.91167415  0.24990377  1
  Zr  Zr1  1  0.41177411  0.91165426  0.75009892  1
  Zr  Zr2  1  0.08823557  0.58833865  0.75008493  1
  Zr  Zr3  1  0.41176592  0.58832366  0.24989833  1
  Zr  Zr4  1  0.91165690  0.08823354  0.75009566  1
  Zr  Zr5  1  0.58832744  0.08823698  0.24990594  1
  Zr  Zr6  1  0.91167775  0.41175882  0.24990826  1
  Zr  Zr7  1  0.58834616  0.41176413  0.75009146  1
  Fe  Fe8  1  0.75000676  0.74998298  0.48768972  1
  Fe  Fe9  1  0.74999796  0.75000929  0.98757164  1
  Fe  Fe10  1  0.24998636  0.25000179  0.51261803  1
  Fe  Fe11  1  0.25000749  0.25001116  0.01251288  1
  H  H12  1  0.74999971  0.24999858  0.49994600  1
  H  H13  1  0.75000011  0.24999931  0.99997978  1
  H  H14  1  0.24999758  0.74999874  0.99997521  1
  H  H15  1  0.25000107  0.75000135  0.49994491  1
  H  H16  1  0.66725074  0.53663171  0.42708419  1
  H  H17  1  0.83279892  0.53652511  0.92704716  1
  H  H18  1  0.66719872  0.96347618  0.92704774  1
  H  H19  1  0.83275222  0.96337205  0.42708618  1
  H  H20  1  0.53652490  0.66720037  0.92704607  1
  H  H21  1  0.96336682  0.66724922  0.42708311  1
  H  H22  1  0.53662889  0.83275183  0.42708424  1
  H  H23  1  0.96347699  0.83280212  0.92705041  1
  H  H24  1  0.33283459  0.46359580  0.57293225  1
  H  H25  1  0.16723584  0.46341772  0.07287883  1
  H  H26  1  0.33276392  0.03659079  0.07287506  1
  H  H27  1  0.16715954  0.03640246  0.57293868  1
  H  H28  1  0.46341150  0.33276503  0.07287571  1
  H  H29  1  0.03640232  0.33283607  0.57293504  1
  H  H30  1  0.46359198  0.16716166  0.57293330  1
  H  H31  1  0.03658481  0.16723450  0.07287659  1
