# generated using pymatgen
data_Ce2(SeO3)3
_symmetry_space_group_name_H-M   'P 1'
_cell_length_a   7.11018551
_cell_length_b   8.49054942
_cell_length_c   14.35188022
_cell_angle_alpha   90.00000000
_cell_angle_beta   90.00000000
_cell_angle_gamma   90.00000000
_symmetry_Int_Tables_number   1
_chemical_formula_structural   Ce2(SeO3)3
_chemical_formula_sum   'Ce8 Se12 O36'
_cell_volume   866.41413164
_cell_formula_units_Z   4
loop_
 _symmetry_equiv_pos_site_id
 _symmetry_equiv_pos_as_xyz
  1  'x, y, z'
loop_
 _atom_site_type_symbol
 _atom_site_label
 _atom_site_symmetry_multiplicity
 _atom_site_fract_x
 _atom_site_fract_y
 _atom_site_fract_z
 _atom_site_occupancy
  Ce  Ce0  1  0.32026588  0.69843691  0.06337622  1
  Ce  Ce1  1  0.32026588  0.69843691  0.43662378  1
  Ce  Ce2  1  0.82026588  0.80156309  0.93662378  1
  Ce  Ce3  1  0.67973412  0.30156309  0.56337622  1
  Ce  Ce4  1  0.67973412  0.30156309  0.93662378  1
  Ce  Ce5  1  0.17973412  0.19843691  0.06337622  1
  Ce  Ce6  1  0.17973412  0.19843691  0.43662378  1
  Ce  Ce7  1  0.82026588  0.80156309  0.56337622  1
  Se  Se8  1  0.82051246  0.54701187  0.37405543  1
  Se  Se9  1  0.90867285  0.04568422  0.75000000  1
  Se  Se10  1  0.67948754  0.04701187  0.12594457  1
  Se  Se11  1  0.32051246  0.95298813  0.62594457  1
  Se  Se12  1  0.67948754  0.04701187  0.37405543  1
  Se  Se13  1  0.82051246  0.54701187  0.12594457  1
  Se  Se14  1  0.17948754  0.45298813  0.62594457  1
  Se  Se15  1  0.09132715  0.95431578  0.25000000  1
  Se  Se16  1  0.17948754  0.45298813  0.87405543  1
  Se  Se17  1  0.59132715  0.54568422  0.75000000  1
  Se  Se18  1  0.32051246  0.95298813  0.87405543  1
  Se  Se19  1  0.40867285  0.45431578  0.25000000  1
  O  O20  1  0.85210493  0.07280809  0.46003123  1
  O  O21  1  0.91114166  0.37916983  0.07717690  1
  O  O22  1  0.85210493  0.07280809  0.03996877  1
  O  O23  1  0.08885834  0.62083017  0.92282310  1
  O  O24  1  0.23950322  0.94209389  0.34618910  1
  O  O25  1  0.73950322  0.55790611  0.84618910  1
  O  O26  1  0.97011509  0.70011444  0.09667130  1
  O  O27  1  0.73950322  0.55790611  0.65381090  1
  O  O28  1  0.35210493  0.42719191  0.96003123  1
  O  O29  1  0.14789507  0.92719191  0.53996877  1
  O  O30  1  0.26049678  0.44209389  0.15381090  1
  O  O31  1  0.41114166  0.12083017  0.92282310  1
  O  O32  1  0.97011509  0.70011444  0.40332870  1
  O  O33  1  0.23950322  0.94209389  0.15381090  1
  O  O34  1  0.52988491  0.20011444  0.09667130  1
  O  O35  1  0.02988491  0.29988556  0.90332870  1
  O  O36  1  0.58885834  0.87916983  0.07717690  1
  O  O37  1  0.93535229  0.84407084  0.75000000  1
  O  O38  1  0.52988491  0.20011444  0.40332870  1
  O  O39  1  0.41114166  0.12083017  0.57717690  1
  O  O40  1  0.58885834  0.87916983  0.42282310  1
  O  O41  1  0.14789507  0.92719191  0.96003123  1
  O  O42  1  0.64789507  0.57280809  0.46003123  1
  O  O43  1  0.35210493  0.42719191  0.53996877  1
  O  O44  1  0.43535229  0.65592916  0.25000000  1
  O  O45  1  0.47011509  0.79988556  0.90332870  1
  O  O46  1  0.64789507  0.57280809  0.03996877  1
  O  O47  1  0.08885834  0.62083017  0.57717690  1
  O  O48  1  0.56464771  0.34407084  0.75000000  1
  O  O49  1  0.91114166  0.37916983  0.42282310  1
  O  O50  1  0.06464771  0.15592916  0.25000000  1
  O  O51  1  0.47011509  0.79988556  0.59667130  1
  O  O52  1  0.02988491  0.29988556  0.59667130  1
  O  O53  1  0.26049678  0.44209389  0.34618910  1
  O  O54  1  0.76049678  0.05790611  0.84618910  1
  O  O55  1  0.76049678  0.05790611  0.65381090  1
