# generated using pymatgen
data_NdAl3(BO3)4
_symmetry_space_group_name_H-M   'P 1'
_cell_length_a   5.97315813
_cell_length_b   5.97315813
_cell_length_c   11.25222445
_cell_angle_alpha   98.26778396
_cell_angle_beta   98.26778394
_cell_angle_gamma   104.29352338
_symmetry_Int_Tables_number   1
_chemical_formula_structural   NdAl3(BO3)4
_chemical_formula_sum   'Nd2 Al6 B8 O24'
_cell_volume   378.20326789
_cell_formula_units_Z   2
loop_
 _symmetry_equiv_pos_site_id
 _symmetry_equiv_pos_as_xyz
  1  'x, y, z'
loop_
 _atom_site_type_symbol
 _atom_site_label
 _atom_site_symmetry_multiplicity
 _atom_site_fract_x
 _atom_site_fract_y
 _atom_site_fract_z
 _atom_site_occupancy
  B  B0  1  0.22296634  0.28027674  0.50568420  1
  B  B1  1  0.71972326  0.77703366  0.99431580  1
  B  B2  1  0.77703366  0.71972326  0.49431580  1
  B  B3  1  0.28027674  0.22296634  0.00568420  1
  B  B4  1  0.12088351  0.49248217  0.27777398  1
  B  B5  1  0.50751783  0.87911649  0.22222602  1
  B  B6  1  0.87911649  0.50751783  0.72222602  1
  B  B7  1  0.49248217  0.12088351  0.77777398  1
  O  O8  1  0.35508404  0.26976359  0.75773116  1
  O  O9  1  0.73023641  0.64491596  0.74226884  1
  O  O10  1  0.64491596  0.73023641  0.24226884  1
  O  O11  1  0.26976359  0.35508404  0.25773116  1
  O  O12  1  0.69596749  0.17940437  0.86265774  1
  O  O13  1  0.82059563  0.30403251  0.63734226  1
  O  O14  1  0.30403251  0.82059563  0.13734226  1
  O  O15  1  0.17940437  0.69596749  0.36265774  1
  O  O16  1  0.19321517  0.99720070  0.93845878  1
  O  O17  1  0.00279930  0.80678483  0.56154122  1
  O  O18  1  0.80678483  0.00279930  0.06154122  1
  O  O19  1  0.99720070  0.19321517  0.43845878  1
  O  O20  1  0.49334443  0.69781730  0.92570961  1
  O  O21  1  0.30218270  0.50665557  0.57429039  1
  O  O22  1  0.50665557  0.30218270  0.07429039  1
  O  O23  1  0.69781730  0.49334443  0.42570961  1
  O  O24  1  0.13060760  0.36936622  0.99670295  1
  O  O25  1  0.63063378  0.86939240  0.50329705  1
  O  O26  1  0.86939240  0.63063378  0.00329705  1
  O  O27  1  0.36936622  0.13060760  0.49670295  1
  O  O28  1  0.42278426  0.89623179  0.70499311  1
  O  O29  1  0.10376821  0.57721574  0.79500689  1
  O  O30  1  0.57721574  0.10376821  0.29500689  1
  O  O31  1  0.89623179  0.42278426  0.20499311  1
  Al  Al32  1  0.58854309  0.41145691  0.25000000  1
  Al  Al33  1  0.41145691  0.58854309  0.75000000  1
  Al  Al34  1  0.19521911  0.69477991  0.97175582  1
  Al  Al35  1  0.30522009  0.80478089  0.52824418  1
  Al  Al36  1  0.80478089  0.30522009  0.02824418  1
  Al  Al37  1  0.69477991  0.19521911  0.47175582  1
  Nd  Nd38  1  0.03654812  0.96345188  0.25000000  1
  Nd  Nd39  1  0.96345188  0.03654812  0.75000000  1
