# generated using pymatgen
data_La2MgTiO6
_symmetry_space_group_name_H-M   'P 1'
_cell_length_a   5.58452009
_cell_length_b   5.65928959
_cell_length_c   7.92403458
_cell_angle_alpha   90.00000000
_cell_angle_beta   90.09524654
_cell_angle_gamma   90.00000000
_symmetry_Int_Tables_number   1
_chemical_formula_structural   La2MgTiO6
_chemical_formula_sum   'La4 Mg2 Ti2 O12'
_cell_volume   250.43414222
_cell_formula_units_Z   2
loop_
 _symmetry_equiv_pos_site_id
 _symmetry_equiv_pos_as_xyz
  1  'x, y, z'
loop_
 _atom_site_type_symbol
 _atom_site_label
 _atom_site_symmetry_multiplicity
 _atom_site_fract_x
 _atom_site_fract_y
 _atom_site_fract_z
 _atom_site_occupancy
  O  O0  1  0.91654747  0.52247172  0.74255846  1
  O  O1  1  0.58345253  0.02247172  0.75744154  1
  O  O2  1  0.08345253  0.47752828  0.25744154  1
  O  O3  1  0.41654747  0.97752828  0.24255846  1
  O  O4  1  0.70284414  0.28261367  0.04574967  1
  O  O5  1  0.79715586  0.78261367  0.45425033  1
  O  O6  1  0.29715586  0.71738633  0.95425033  1
  O  O7  1  0.20284414  0.21738633  0.54574967  1
  O  O8  1  0.21877166  0.20336687  0.95689489  1
  O  O9  1  0.28122834  0.70336687  0.54310511  1
  O  O10  1  0.78122834  0.79663313  0.04310511  1
  O  O11  1  0.71877166  0.29663313  0.45689489  1
  Mg  Mg12  1  0.00000000  0.50000000  0.00000000  1
  Mg  Mg13  1  0.50000000  0.00000000  0.50000000  1
  Ti  Ti14  1  0.50000000  0.00000000  0.00000000  1
  Ti  Ti15  1  0.00000000  0.50000000  0.50000000  1
  La  La16  1  0.49158695  0.46068366  0.74934030  1
  La  La17  1  0.00841305  0.96068366  0.75065970  1
  La  La18  1  0.50841305  0.53931634  0.25065970  1
  La  La19  1  0.99158695  0.03931634  0.24934030  1
