# generated using pymatgen
data_Li3V2(PO4)3
_symmetry_space_group_name_H-M   'P 1'
_cell_length_a   8.74219128
_cell_length_b   8.75510577
_cell_length_c   12.34261682
_cell_angle_alpha   90.45038657
_cell_angle_beta   90.00000000
_cell_angle_gamma   90.00000000
_symmetry_Int_Tables_number   1
_chemical_formula_structural   Li3V2(PO4)3
_chemical_formula_sum   'Li12 V8 P12 O48'
_cell_volume   944.66000823
_cell_formula_units_Z   4
loop_
 _symmetry_equiv_pos_site_id
 _symmetry_equiv_pos_as_xyz
  1  'x, y, z'
loop_
 _atom_site_type_symbol
 _atom_site_label
 _atom_site_symmetry_multiplicity
 _atom_site_fract_x
 _atom_site_fract_y
 _atom_site_fract_z
 _atom_site_occupancy
  Li  Li0  1  0.90351819  0.95063412  0.29280325  1
  Li  Li1  1  0.78515714  0.22662253  0.17500397  1
  Li  Li2  1  0.40351819  0.54936588  0.20719675  1
  Li  Li3  1  0.28515714  0.27337747  0.32499603  1
  Li  Li4  1  0.09648181  0.04936588  0.70719675  1
  Li  Li5  1  0.21484286  0.77337747  0.82499603  1
  Li  Li6  1  0.71484286  0.72662253  0.67500397  1
  Li  Li7  1  0.27153429  0.83119370  0.22080763  1
  Li  Li8  1  0.59648181  0.45063412  0.79280325  1
  Li  Li9  1  0.22846571  0.33119370  0.72080763  1
  Li  Li10  1  0.77153429  0.66880630  0.27919237  1
  Li  Li11  1  0.72846571  0.16880630  0.77919237  1
  V  V12  1  0.03731518  0.74415578  0.61175086  1
  V  V13  1  0.53731518  0.75584422  0.88824914  1
  V  V14  1  0.96268482  0.25584422  0.38824914  1
  V  V15  1  0.46926625  0.75552231  0.39227490  1
  V  V16  1  0.03073375  0.25552231  0.89227490  1
  V  V17  1  0.96926625  0.74447769  0.10772510  1
  V  V18  1  0.53073375  0.24447769  0.60772510  1
  V  V19  1  0.46268482  0.24415578  0.11175086  1
  P  P20  1  0.10561273  0.10681174  0.14584947  1
  P  P21  1  0.39438727  0.60681174  0.64584947  1
  P  P22  1  0.74668074  0.46450715  0.00352802  1
  P  P23  1  0.24668074  0.03549285  0.49647198  1
  P  P24  1  0.75331926  0.96450715  0.50352802  1
  P  P25  1  0.89438727  0.89318826  0.85415053  1
  P  P26  1  0.39182754  0.10439708  0.85327373  1
  P  P27  1  0.60817246  0.89560292  0.14672627  1
  P  P28  1  0.60561273  0.39318826  0.35415053  1
  P  P29  1  0.10817246  0.60439708  0.35327373  1
  P  P30  1  0.25331926  0.53549285  0.99647198  1
  P  P31  1  0.89182754  0.39560292  0.64672627  1
  O  O32  1  0.88781869  0.07101497  0.85572963  1
  O  O33  1  0.72387784  0.35065096  0.68115240  1
  O  O34  1  0.05232562  0.17163295  0.03888529  1
  O  O35  1  0.83550877  0.84061026  0.57070893  1
  O  O36  1  0.26496737  0.16592965  0.18233493  1
  O  O37  1  0.07820241  0.64450024  0.47030871  1
  O  O38  1  0.90405857  0.57031632  0.66809311  1
  O  O39  1  0.51754286  0.64938770  0.73360919  1
  O  O40  1  0.35032556  0.12019029  0.57934095  1
  O  O41  1  0.86568582  0.05517807  0.43091647  1
  O  O42  1  0.01754286  0.85061230  0.76639081  1
  O  O43  1  0.66991859  0.06677621  0.58702240  1
  O  O44  1  0.33008141  0.93322379  0.41297760  1
  O  O45  1  0.23503263  0.66592965  0.68233493  1
  O  O46  1  0.92179759  0.35549976  0.52969129  1
  O  O47  1  0.09594143  0.42968368  0.33190689  1
  O  O48  1  0.36568582  0.44482193  0.06908353  1
  O  O49  1  0.85032556  0.37980971  0.92065905  1
  O  O50  1  0.50583200  0.19555635  0.77932860  1
  O  O51  1  0.59594143  0.07031632  0.16809311  1
  O  O52  1  0.42179759  0.14450024  0.97030871  1
  O  O53  1  0.22387784  0.14934904  0.81884760  1
  O  O54  1  0.55232562  0.32836705  0.46111471  1
  O  O55  1  0.64967444  0.87980971  0.42065905  1
  O  O56  1  0.94767438  0.82836705  0.96111471  1
  O  O57  1  0.83008141  0.56677621  0.08702240  1
  O  O58  1  0.76496737  0.33407035  0.31766507  1
  O  O59  1  0.77612216  0.85065096  0.18115240  1
  O  O60  1  0.38781869  0.42898503  0.64427037  1
  O  O61  1  0.13431418  0.94482193  0.56908353  1
  O  O62  1  0.27612216  0.64934904  0.31884760  1
  O  O63  1  0.49416800  0.80444365  0.22067140  1
  O  O64  1  0.00583200  0.30444365  0.72067140  1
  O  O65  1  0.16449123  0.15938974  0.42929107  1
  O  O66  1  0.40405857  0.92968368  0.83190689  1
  O  O67  1  0.44767438  0.67163295  0.53888529  1
  O  O68  1  0.48245714  0.35061230  0.26639081  1
  O  O69  1  0.11218131  0.92898503  0.14427037  1
  O  O70  1  0.57820241  0.85549976  0.02969129  1
  O  O71  1  0.61218131  0.57101497  0.35572963  1
  O  O72  1  0.33550877  0.65938974  0.92929107  1
  O  O73  1  0.98245714  0.14938770  0.23360919  1
  O  O74  1  0.16991859  0.43322379  0.91297760  1
  O  O75  1  0.66449123  0.34061026  0.07070893  1
  O  O76  1  0.63431418  0.55517807  0.93091647  1
  O  O77  1  0.14967444  0.62019029  0.07934095  1
  O  O78  1  0.99416800  0.69555635  0.27932860  1
  O  O79  1  0.73503263  0.83407035  0.81766507  1
