# generated using pymatgen
data_SiO2
_symmetry_space_group_name_H-M   'P 1'
_cell_length_a   5.08500735
_cell_length_b   12.90981087
_cell_length_c   24.17684749
_cell_angle_alpha   76.91343629
_cell_angle_beta   84.00164521
_cell_angle_gamma   78.63914137
_symmetry_Int_Tables_number   1
_chemical_formula_structural   SiO2
_chemical_formula_sum   'Si28 O56'
_cell_volume   1512.63108270
_cell_formula_units_Z   28
loop_
 _symmetry_equiv_pos_site_id
 _symmetry_equiv_pos_as_xyz
  1  'x, y, z'
loop_
 _atom_site_type_symbol
 _atom_site_label
 _atom_site_symmetry_multiplicity
 _atom_site_fract_x
 _atom_site_fract_y
 _atom_site_fract_z
 _atom_site_occupancy
  Si  Si0  1  0.79695985  0.95539349  0.61907077  1
  Si  Si1  1  0.70363942  0.67998180  0.05238093  1
  Si  Si2  1  0.90383239  0.03485557  0.08667975  1
  Si  Si3  1  0.09745447  0.96523845  0.91330389  1
  Si  Si4  1  0.63109403  0.45586243  0.11928507  1
  Si  Si5  1  0.63756673  0.14075402  0.42797897  1
  Si  Si6  1  0.79269865  0.64144157  0.92694466  1
  Si  Si7  1  0.43717324  0.82061678  0.44710812  1
  Si  Si8  1  0.26962352  0.17386840  0.25493066  1
  Si  Si9  1  0.40911041  0.61313939  0.63833497  1
  Si  Si10  1  0.69849505  0.32663088  0.24571586  1
  Si  Si11  1  0.29665984  0.32015439  0.94731773  1
  Si  Si12  1  0.37149535  0.54409167  0.88096465  1
  Si  Si13  1  0.02694278  0.46362877  0.41408707  1
  Si  Si14  1  0.20915774  0.35841683  0.07302498  1
  Si  Si15  1  0.97579569  0.53549990  0.58653353  1
  Si  Si16  1  0.20237775  0.04470165  0.38154089  1
  Si  Si17  1  0.29917795  0.67487704  0.75488245  1
  Si  Si18  1  0.65970680  0.88830147  0.86158168  1
  Si  Si19  1  0.00178673  0.32390351  0.54128207  1
  Si  Si20  1  0.00047591  0.67530240  0.45917271  1
  Si  Si21  1  0.56360749  0.17955186  0.55349695  1
  Si  Si22  1  0.36092912  0.85945483  0.57251531  1
  Si  Si23  1  0.13351327  0.82430253  0.04039630  1
  Si  Si24  1  0.86588410  0.17574489  0.95963181  1
  Si  Si25  1  0.72724022  0.82613955  0.74537569  1
  Si  Si26  1  0.34074350  0.11154886  0.13872023  1
  Si  Si27  1  0.59176036  0.38697395  0.36240604  1
  O  O28  1  0.07083534  0.06752944  0.13194055  1
  O  O29  1  0.03195879  0.58540713  0.42056534  1
  O  O30  1  0.08274707  0.87946539  0.97385951  1
  O  O31  1  0.93339039  0.93035111  0.86821473  1
  O  O32  1  0.74268021  0.46279413  0.38903961  1
  O  O33  1  0.11153808  0.61356253  0.90970007  1
  O  O34  1  0.28184970  0.71989640  0.45175359  1
  O  O35  1  0.39472880  0.59037658  0.81275399  1
  O  O36  1  0.62686127  0.89550134  0.79464130  1
  O  O37  1  0.89057188  0.38631312  0.09059561  1
  O  O38  1  0.40663401  0.96493846  0.88774223  1
  O  O39  1  0.91696971  0.12156515  0.02634153  1
  O  O40  1  0.37148851  0.87072574  0.50410453  1
  O  O41  1  0.36343452  0.44251956  0.09199183  1
  O  O42  1  0.67151157  0.26289804  0.39689808  1
  O  O43  1  0.59485037  0.03639337  0.11224458  1
  O  O44  1  0.65878774  0.08266926  0.60736125  1
  O  O45  1  0.63164283  0.12984912  0.49627473  1
  O  O46  1  0.96733459  0.08643996  0.92081281  1
  O  O47  1  0.06826028  0.37775742  0.47468650  1
  O  O48  1  0.64030839  0.55671648  0.90815758  1
  O  O49  1  0.97634900  0.41364639  0.57978966  1
  O  O50  1  0.75796335  0.77535146  0.43853469  1
  O  O51  1  0.64901908  0.58361214  0.10618673  1
  O  O52  1  0.66846552  0.76394536  0.89575282  1
  O  O53  1  0.63627431  0.88667349  0.58955273  1
  O  O54  1  0.24180648  0.22274378  0.56190010  1
  O  O55  1  0.79757534  0.90988946  0.68733167  1
  O  O56  1  0.35224999  0.41634098  0.89327423  1
  O  O57  1  0.03013346  0.91327836  0.07929559  1
  O  O58  1  0.74618573  0.63040548  0.99521605  1
  O  O59  1  0.73054493  0.57111885  0.63088378  1
  O  O60  1  0.97363207  0.72345816  0.06064546  1
  O  O61  1  0.02638665  0.27660032  0.93934994  1
  O  O62  1  0.98934366  0.73422302  0.76445634  1
  O  O63  1  0.45286537  0.78072209  0.04801227  1
  O  O64  1  0.61085225  0.41274687  0.18785810  1
  O  O65  1  0.89159772  0.05624629  0.40775131  1
  O  O66  1  0.54728339  0.21929004  0.95121889  1
  O  O67  1  0.25622531  0.53627531  0.61298129  1
  O  O68  1  0.10526759  0.94410571  0.59173112  1
  O  O69  1  0.68430903  0.39453013  0.29542467  1
  O  O70  1  0.32867243  0.23593247  0.10468997  1
  O  O71  1  0.36009924  0.11430401  0.41126821  1
  O  O72  1  0.20869039  0.08908780  0.31315113  1
  O  O73  1  0.48742446  0.76695912  0.73529503  1
  O  O74  1  0.32284323  0.60577591  0.70546917  1
  O  O75  1  0.93669783  0.62045636  0.52561987  1
  O  O76  1  0.32768932  0.73695987  0.60349874  1
  O  O77  1  0.71794059  0.28040929  0.54935689  1
  O  O78  1  0.37089530  0.10455042  0.20578599  1
  O  O79  1  0.34182930  0.91744053  0.39324877  1
  O  O80  1  0.26958597  0.42853065  0.36891204  1
  O  O81  1  0.50010570  0.23833917  0.26415966  1
  O  O82  1  0.25699485  0.36937717  0.00470002  1
  O  O83  1  0.00245273  0.26241190  0.23606243  1
