# generated using pymatgen
data_Na2PH3O5
_symmetry_space_group_name_H-M   'P 1'
_cell_length_a   5.68489688
_cell_length_b   8.05236097
_cell_length_c   5.76766384
_cell_angle_alpha   104.26807964
_cell_angle_beta   101.68931313
_cell_angle_gamma   108.55602215
_symmetry_Int_Tables_number   1
_chemical_formula_structural   Na2PH3O5
_chemical_formula_sum   'Na4 P2 H6 O10'
_cell_volume   230.95160629
_cell_formula_units_Z   2
loop_
 _symmetry_equiv_pos_site_id
 _symmetry_equiv_pos_as_xyz
  1  'x, y, z'
loop_
 _atom_site_type_symbol
 _atom_site_label
 _atom_site_symmetry_multiplicity
 _atom_site_fract_x
 _atom_site_fract_y
 _atom_site_fract_z
 _atom_site_occupancy
  Na  Na0  1  0.51638729  0.21437297  0.66593879  1
  Na  Na1  1  0.48361271  0.78562703  0.33406121  1
  Na  Na2  1  0.73630360  0.43652523  0.27744160  1
  Na  Na3  1  0.26369640  0.56347477  0.72255840  1
  P  P4  1  0.87137706  0.70661910  0.91315311  1
  P  P5  1  0.12862294  0.29338090  0.08684689  1
  H  H6  1  0.74982589  0.93978819  0.86057016  1
  H  H7  1  0.25017411  0.06021181  0.13942984  1
  H  H8  1  0.80192032  0.11742742  0.28608750  1
  H  H9  1  0.19807968  0.88257258  0.71391250  1
  H  H10  1  0.94206304  0.15528336  0.57406075  1
  H  H11  1  0.05793696  0.84471664  0.42593925  1
  O  O12  1  0.80717018  0.52079406  0.71265909  1
  O  O13  1  0.19282982  0.47920594  0.28734091  1
  O  O14  1  0.16494731  0.83370950  0.98800279  1
  O  O15  1  0.83505269  0.16629050  0.01199721  1
  O  O16  1  0.78001433  0.68991144  0.14230149  1
  O  O17  1  0.21998567  0.31008856  0.85769851  1
  O  O18  1  0.70205167  0.80322118  0.76932238  1
  O  O19  1  0.29794833  0.19677882  0.23067762  1
  O  O20  1  0.76988065  0.09730584  0.44215250  1
  O  O21  1  0.23011935  0.90269416  0.55784750  1
