# generated using pymatgen
data_V2Ni(PO5)2
_symmetry_space_group_name_H-M   'P 1'
_cell_length_a   7.34600101
_cell_length_b   7.36663145
_cell_length_c   7.41946576
_cell_angle_alpha   118.97851889
_cell_angle_beta   90.00000000
_cell_angle_gamma   90.00000000
_symmetry_Int_Tables_number   1
_chemical_formula_structural   V2Ni(PO5)2
_chemical_formula_sum   'V4 Ni2 P4 O20'
_cell_volume   351.23843657
_cell_formula_units_Z   2
loop_
 _symmetry_equiv_pos_site_id
 _symmetry_equiv_pos_as_xyz
  1  'x, y, z'
loop_
 _atom_site_type_symbol
 _atom_site_label
 _atom_site_symmetry_multiplicity
 _atom_site_fract_x
 _atom_site_fract_y
 _atom_site_fract_z
 _atom_site_occupancy
  V  V0  1  0.27800100  0.30098574  0.03964729  1
  V  V1  1  0.77800100  0.19901426  0.46035271  1
  V  V2  1  0.72199900  0.69901426  0.96035271  1
  V  V3  1  0.22199900  0.80098574  0.53964729  1
  Ni  Ni4  1  0.00000000  0.00000000  0.00000000  1
  Ni  Ni5  1  0.50000000  0.50000000  0.50000000  1
  P  P6  1  0.62238773  0.00071662  0.75020049  1
  P  P7  1  0.87761227  0.50071662  0.25020049  1
  P  P8  1  0.12238773  0.49928338  0.74979951  1
  P  P9  1  0.37761227  0.99928338  0.24979951  1
  O  O10  1  0.24898614  0.58920394  0.64262480  1
  O  O11  1  0.99655114  0.68112086  0.90128658  1
  O  O12  1  0.74898614  0.91079606  0.85737520  1
  O  O13  1  0.49308312  0.82218813  0.09165274  1
  O  O14  1  0.75080197  0.57493348  0.13552500  1
  O  O15  1  0.50344886  0.18112086  0.40128658  1
  O  O16  1  0.99308312  0.67781187  0.40834726  1
  O  O17  1  0.34809652  0.50216507  0.26768995  1
  O  O18  1  0.65190348  0.49783493  0.73231005  1
  O  O19  1  0.75101386  0.41079606  0.35737520  1
  O  O20  1  0.25101386  0.08920394  0.14262480  1
  O  O21  1  0.15190348  0.00216507  0.76768995  1
  O  O22  1  0.74919803  0.07493348  0.63552500  1
  O  O23  1  0.49655114  0.81887914  0.59871342  1
  O  O24  1  0.24919803  0.42506652  0.86447500  1
  O  O25  1  0.25080197  0.92506652  0.36447500  1
  O  O26  1  0.50691688  0.17781187  0.90834726  1
  O  O27  1  0.84809652  0.99783493  0.23231005  1
  O  O28  1  0.00691688  0.32218813  0.59165274  1
  O  O29  1  0.00344886  0.31887914  0.09871342  1
