# generated using pymatgen
data_RbHO
_symmetry_space_group_name_H-M   'P 1'
_cell_length_a   4.20615151
_cell_length_b   4.27345323
_cell_length_c   6.14304326
_cell_angle_alpha   90.00000000
_cell_angle_beta   104.99038794
_cell_angle_gamma   90.00000000
_symmetry_Int_Tables_number   1
_chemical_formula_structural   RbHO
_chemical_formula_sum   'Rb2 H2 O2'
_cell_volume   106.66224845
_cell_formula_units_Z   2
loop_
 _symmetry_equiv_pos_site_id
 _symmetry_equiv_pos_as_xyz
  1  'x, y, z'
loop_
 _atom_site_type_symbol
 _atom_site_label
 _atom_site_symmetry_multiplicity
 _atom_site_fract_x
 _atom_site_fract_y
 _atom_site_fract_z
 _atom_site_occupancy
  Rb  Rb0  1  0.16986661  0.25000000  0.28795635  1
  Rb  Rb1  1  0.83013339  0.75000000  0.71204365  1
  H  H2  1  0.46292463  0.25000000  0.90778018  1
  H  H3  1  0.53707537  0.75000000  0.09221982  1
  O  O4  1  0.32225447  0.25000000  0.75479102  1
  O  O5  1  0.67774553  0.75000000  0.24520898  1
