# generated using pymatgen
data_La3Zn3Ge2SbO14
_symmetry_space_group_name_H-M   'P 1'
_cell_length_a   5.28652616
_cell_length_b   8.40304589
_cell_length_c   8.40304618
_cell_angle_alpha   60.62439961
_cell_angle_beta   89.93160621
_cell_angle_gamma   89.93159955
_symmetry_Int_Tables_number   1
_chemical_formula_structural   La3Zn3Ge2SbO14
_chemical_formula_sum   'La3 Zn3 Ge2 Sb1 O14'
_cell_volume   325.29123964
_cell_formula_units_Z   1
loop_
 _symmetry_equiv_pos_site_id
 _symmetry_equiv_pos_as_xyz
  1  'x, y, z'
loop_
 _atom_site_type_symbol
 _atom_site_label
 _atom_site_symmetry_multiplicity
 _atom_site_fract_x
 _atom_site_fract_y
 _atom_site_fract_z
 _atom_site_occupancy
  La  La0  1  0.99838691  0.41540196  0.00367145  1
  La  La1  1  0.00161309  0.99632855  0.58459804  1
  La  La2  1  1.00000000  0.57792143  0.42207857  1
  Zn  Zn3  1  0.49511663  0.75343472  0.00894877  1
  Zn  Zn4  1  0.50488337  0.99105123  0.24656528  1
  Zn  Zn5  1  0.50000000  0.23376447  0.76623553  1
  Ge  Ge6  1  0.55156763  0.65931815  0.67163412  1
  Ge  Ge7  1  0.44843237  0.32836588  0.34068185  1
  Sb  Sb8  1  0.00000000  0.99466801  0.00533199  1
  O  O9  1  0.70415523  0.46652831  0.67908780  1
  O  O10  1  0.77961116  0.07601592  0.78233354  1
  O  O11  1  0.21781516  0.66138476  0.66654824  1
  O  O12  1  0.70633640  0.84261161  0.48131947  1
  O  O13  1  0.78218484  0.33345176  0.33861524  1
  O  O14  1  0.22393208  0.85273691  0.22536878  1
  O  O15  1  0.29584477  0.32091220  0.53347169  1
  O  O16  1  0.78468524  0.13630334  0.09229291  1
  O  O17  1  0.30494097  0.13915613  0.33614165  1
  O  O18  1  0.69505903  0.66385835  0.86084387  1
  O  O19  1  0.22038884  0.21766646  0.92398408  1
  O  O20  1  0.29366360  0.51868053  0.15738839  1
  O  O21  1  0.21531476  0.90770709  0.86369666  1
  O  O22  1  0.77606792  0.77463122  0.14726309  1
