# generated using pymatgen
data_Rb2U2O7
_symmetry_space_group_name_H-M   'P 1'
_cell_length_a   7.53415601
_cell_length_b   15.07702412
_cell_length_c   21.90153939
_cell_angle_alpha   20.75403780
_cell_angle_beta   27.71056113
_cell_angle_gamma   31.02196886
_symmetry_Int_Tables_number   1
_chemical_formula_structural   Rb2U2O7
_chemical_formula_sum   'Rb4 U4 O14'
_cell_volume   403.49574913
_cell_formula_units_Z   2
loop_
 _symmetry_equiv_pos_site_id
 _symmetry_equiv_pos_as_xyz
  1  'x, y, z'
loop_
 _atom_site_type_symbol
 _atom_site_label
 _atom_site_symmetry_multiplicity
 _atom_site_fract_x
 _atom_site_fract_y
 _atom_site_fract_z
 _atom_site_occupancy
  Rb  Rb0  1  0.49449380  0.12930937  0.24190112  1
  Rb  Rb1  1  0.48239731  0.60726235  0.26444730  1
  Rb  Rb2  1  0.50550620  0.37069063  0.75809888  1
  Rb  Rb3  1  0.51760269  0.89273765  0.73555270  1
  U  U4  1  0.97031199  0.96620767  0.03031344  1
  U  U5  1  0.02968801  0.53379233  0.96968656  1
  U  U6  1  0.00000000  0.25000000  0.50000000  1
  U  U7  1  0.00000000  0.75000000  0.50000000  1
  O  O8  1  0.06976298  0.99717891  0.06336690  1
  O  O9  1  0.21194797  0.11769712  0.19176941  1
  O  O10  1  0.12036871  0.56116239  0.00845086  1
  O  O11  1  0.42236488  0.51159684  0.19184793  1
  O  O12  1  0.04249715  0.27825059  0.55494744  1
  O  O13  1  0.95750285  0.22174941  0.44505256  1
  O  O14  1  0.62499704  0.62972948  0.36538072  1
  O  O15  1  0.11186321  0.74319654  0.55513083  1
  O  O16  1  0.88813679  0.75680346  0.44486917  1
  O  O17  1  0.78805203  0.38230288  0.80823059  1
  O  O18  1  0.37500296  0.87027052  0.63461928  1
  O  O19  1  0.93023702  0.50282109  0.93663310  1
  O  O20  1  0.57763512  0.98840316  0.80815207  1
  O  O21  1  0.87963129  0.93883761  0.99154914  1
