# generated using pymatgen
data_Ba5Si3
_symmetry_space_group_name_H-M   'P 1'
_cell_length_a   8.49864985
_cell_length_b   8.49864985
_cell_length_c   16.64171548
_cell_angle_alpha   90.00000000
_cell_angle_beta   90.00000000
_cell_angle_gamma   90.00000000
_symmetry_Int_Tables_number   1
_chemical_formula_structural   Ba5Si3
_chemical_formula_sum   'Ba20 Si12'
_cell_volume   1201.98200396
_cell_formula_units_Z   4
loop_
 _symmetry_equiv_pos_site_id
 _symmetry_equiv_pos_as_xyz
  1  'x, y, z'
loop_
 _atom_site_type_symbol
 _atom_site_label
 _atom_site_symmetry_multiplicity
 _atom_site_fract_x
 _atom_site_fract_y
 _atom_site_fract_z
 _atom_site_occupancy
  Ba  Ba0  1  0.05877111  0.92028143  0.10701905  1
  Ba  Ba1  1  0.92028143  0.44122889  0.10701905  1
  Ba  Ba2  1  0.25000000  0.25000000  0.72674248  1
  Ba  Ba3  1  0.07971857  0.94122889  0.39298095  1
  Ba  Ba4  1  0.42028143  0.94122889  0.89298095  1
  Ba  Ba5  1  0.94122889  0.42028143  0.39298095  1
  Ba  Ba6  1  0.42028143  0.55877111  0.39298095  1
  Ba  Ba7  1  0.92028143  0.05877111  0.60701905  1
  Ba  Ba8  1  0.07971857  0.55877111  0.89298095  1
  Ba  Ba9  1  0.94122889  0.07971857  0.89298095  1
  Ba  Ba10  1  0.25000000  0.25000000  0.22674248  1
  Ba  Ba11  1  0.57971857  0.44122889  0.60701905  1
  Ba  Ba12  1  0.05877111  0.57971857  0.60701905  1
  Ba  Ba13  1  0.55877111  0.07971857  0.39298095  1
  Ba  Ba14  1  0.55877111  0.42028143  0.89298095  1
  Ba  Ba15  1  0.57971857  0.05877111  0.10701905  1
  Ba  Ba16  1  0.75000000  0.75000000  0.27325752  1
  Ba  Ba17  1  0.75000000  0.75000000  0.77325752  1
  Ba  Ba18  1  0.44122889  0.57971857  0.10701905  1
  Ba  Ba19  1  0.44122889  0.92028143  0.60701905  1
  Si  Si20  1  0.85112269  0.35112269  0.75000000  1
  Si  Si21  1  0.14887731  0.85112269  0.75000000  1
  Si  Si22  1  0.75000000  0.75000000  0.99011728  1
  Si  Si23  1  0.35112269  0.85112269  0.25000000  1
  Si  Si24  1  0.25000000  0.25000000  0.00988272  1
  Si  Si25  1  0.85112269  0.14887731  0.25000000  1
  Si  Si26  1  0.35112269  0.64887731  0.75000000  1
  Si  Si27  1  0.64887731  0.14887731  0.75000000  1
  Si  Si28  1  0.14887731  0.64887731  0.25000000  1
  Si  Si29  1  0.64887731  0.35112269  0.25000000  1
  Si  Si30  1  0.25000000  0.25000000  0.50988272  1
  Si  Si31  1  0.75000000  0.75000000  0.49011728  1
