# generated using pymatgen
data_NaPrS2
_symmetry_space_group_name_H-M   'P 1'
_cell_length_a   8.13573310
_cell_length_b   10.91931155
_cell_length_c   7.28293962
_cell_angle_alpha   28.94810362
_cell_angle_beta   56.04460741
_cell_angle_gamma   41.83424991
_symmetry_Int_Tables_number   1
_chemical_formula_structural   NaPrS2
_chemical_formula_sum   'Na2 Pr2 S4'
_cell_volume   199.92732252
_cell_formula_units_Z   2
loop_
 _symmetry_equiv_pos_site_id
 _symmetry_equiv_pos_as_xyz
  1  'x, y, z'
loop_
 _atom_site_type_symbol
 _atom_site_label
 _atom_site_symmetry_multiplicity
 _atom_site_fract_x
 _atom_site_fract_y
 _atom_site_fract_z
 _atom_site_occupancy
  Na  Na0  1  0.25000000  0.50000000  -0.00000000  1
  Na  Na1  1  0.50000000  -0.00000000  -0.00000000  1
  Pr  Pr2  1  0.00000000  -0.00000000  -0.00000000  1
  Pr  Pr3  1  0.75000000  0.50000000  -0.00000000  1
  S  S4  1  0.23675443  1.00000000  0.52649113  1
  S  S5  1  0.98675443  0.50000000  0.52649113  1
  S  S6  1  0.76324557  0.00000000  0.47350887  1
  S  S7  1  0.51324557  0.50000000  0.47350887  1
