# generated using pymatgen
data_Na12B26O45
_symmetry_space_group_name_H-M   'P 1'
_cell_length_a   9.64026865
_cell_length_b   10.74742573
_cell_length_c   18.32923563
_cell_angle_alpha   106.94742132
_cell_angle_beta   105.25088317
_cell_angle_gamma   90.05721963
_symmetry_Int_Tables_number   1
_chemical_formula_structural   Na12B26O45
_chemical_formula_sum   'Na24 B52 O90'
_cell_volume   1746.39292418
_cell_formula_units_Z   2
loop_
 _symmetry_equiv_pos_site_id
 _symmetry_equiv_pos_as_xyz
  1  'x, y, z'
loop_
 _atom_site_type_symbol
 _atom_site_label
 _atom_site_symmetry_multiplicity
 _atom_site_fract_x
 _atom_site_fract_y
 _atom_site_fract_z
 _atom_site_occupancy
  Na  Na0  1  0.38921230  0.31324184  0.91064099  1
  Na  Na1  1  0.71625548  0.32358820  0.75121290  1
  Na  Na2  1  0.58829795  0.83523885  0.40709697  1
  Na  Na3  1  0.30409053  0.19609885  0.39860067  1
  Na  Na4  1  0.03444231  0.82613444  0.75188145  1
  Na  Na5  1  0.81800890  0.33538484  0.40530312  1
  Na  Na6  1  0.69825033  0.79874454  0.60015521  1
  Na  Na7  1  0.03606843  0.22509726  0.91076398  1
  Na  Na8  1  0.50258860  0.30184408  0.25527321  1
  Na  Na9  1  0.96270277  0.30933649  0.08835550  1
  Na  Na10  1  0.49844057  0.04416285  0.74559985  1
  Na  Na11  1  0.47841357  0.90243966  0.08917091  1
  Na  Na12  1  0.27868676  0.57388862  0.24758505  1
  Na  Na13  1  0.09432012  0.69776114  0.40097135  1
  Na  Na14  1  0.52272556  0.80915740  0.91084998  1
  Na  Na15  1  0.74905663  0.79981816  0.25550172  1
  Na  Na16  1  0.87297615  0.72402426  0.91104879  1
  Na  Na17  1  0.90698728  0.29779103  0.60001109  1
  Na  Na18  1  0.24905861  0.54592099  0.74677421  1
  Na  Na19  1  0.96313826  0.07122239  0.24749657  1
  Na  Na20  1  0.40807736  0.42560204  0.59388520  1
  Na  Na21  1  0.18250168  0.92689378  0.59227782  1
  Na  Na22  1  0.60813000  0.40161724  0.09084491  1
  Na  Na23  1  0.12563200  0.81464175  0.08900070  1
  B  B24  1  0.92054370  0.01459020  0.04718603  1
  B  B25  1  0.60448722  0.22902899  0.54017248  1
  B  B26  1  0.79090524  0.85531886  0.08842099  1
  B  B27  1  0.56744254  0.03755673  0.30888336  1
  B  B28  1  0.43056928  0.16109216  0.60522003  1
  B  B29  1  0.10595254  0.43397560  0.53427498  1
  B  B30  1  0.58083212  0.58653143  0.76511276  1
  B  B31  1  0.89276971  0.89829404  0.46471513  1
  B  B32  1  0.68992419  0.79359138  0.77124344  1
  B  B33  1  0.06135814  0.19040715  0.45932008  1
  B  B34  1  0.81635964  0.32164657  0.23494058  1
  B  B35  1  0.42861620  0.93298694  0.53447789  1
  B  B36  1  0.41756464  0.82097477  0.23509490  1
  B  B37  1  0.18522270  0.08804212  0.76603239  1
  B  B38  1  0.66095784  0.07157792  0.61181726  1
  B  B39  1  0.33956457  0.46036137  0.38898845  1
  B  B40  1  0.26982219  0.15224800  0.12936883  1
  B  B41  1  0.74111269  0.53801371  0.30886588  1
  B  B42  1  0.92044727  0.08892297  0.69783692  1
  B  B43  1  0.77619934  0.58783538  0.69636740  1
  B  B44  1  0.08044943  0.39149053  0.30384952  1
  B  B45  1  0.63969103  0.11813429  0.98620225  1
  B  B46  1  0.38032869  0.59939536  0.12331613  1
  B  B47  1  0.87205398  0.46811292  0.95205379  1
  B  B48  1  0.43249009  0.73034678  0.69165301  1
  B  B49  1  0.25940934  0.97610227  0.87679286  1
  B  B50  1  0.61720629  0.47597711  0.87675539  1
  B  B51  1  0.17559605  0.66118250  0.60522387  1
  B  B52  1  0.70416458  0.26665179  0.91201691  1
  B  B53  1  0.95127014  0.57182225  0.61148356  1
  B  B54  1  0.56917716  0.55614844  0.39455060  1
  B  B55  1  0.29551278  0.35485796  0.08763384  1
  B  B56  1  0.25881548  0.22951370  0.69125590  1
  B  B57  1  0.34763950  0.61985755  0.98683501  1
  B  B58  1  0.36094413  0.13242203  0.01365712  1
  B  B59  1  0.73192083  0.02245442  0.87096466  1
  B  B60  1  0.91967268  0.52196888  0.22883533  1
  B  B61  1  0.07969536  0.96889770  0.95236315  1
  B  B62  1  0.74234202  0.09938011  0.12336869  1
  B  B63  1  0.39746987  0.68903695  0.45999106  1
  B  B64  1  0.08204986  0.29461617  0.77157040  1
  B  B65  1  0.57233220  0.39776935  0.46489176  1
  B  B66  1  0.22227138  0.89044575  0.30356996  1
  B  B67  1  0.14032409  0.52431053  0.87117016  1
  B  B68  1  0.82501315  0.05647674  0.39425158  1
  B  B69  1  0.93755667  0.72814162  0.53909885  1
  B  B70  1  0.85843839  0.65271952  0.12964232  1
  B  B71  1  0.31010061  0.02224673  0.22955043  1
  B  B72  1  0.65097735  0.63356337  0.01415874  1
  B  B73  1  0.20843733  0.76853104  0.91301483  1
  B  B74  1  0.04860603  0.96082097  0.38866481  1
  B  B75  1  0.12604449  0.51551421  0.04711903  1
  O  O76  1  0.65539902  0.71345556  0.81716599  1
  O  O77  1  0.32398095  0.80373574  0.28815684  1
  O  O78  1  0.94994939  0.59577846  0.17839278  1
  O  O79  1  0.91792518  0.17510267  0.45502494  1
  O  O80  1  0.87747720  0.78462018  0.14180562  1
  O  O81  1  0.89082666  0.88739848  0.04344945  1
  O  O82  1  0.69667271  0.10775250  0.35306024  1
  O  O83  1  0.26556804  0.00239272  0.80502115  1
  O  O84  1  0.55516841  0.90265233  0.29046850  1
  O  O85  1  0.78666339  0.02404545  0.65733641  1
  O  O86  1  0.60448441  0.33314971  0.86536423  1
  O  O87  1  0.87069728  0.52372287  0.65674124  1
  O  O88  1  0.96211954  0.30579698  0.28931140  1
  O  O89  1  0.73703134  0.19716696  0.19531219  1
  O  O90  1  0.35361824  0.81119199  0.49351425  1
  O  O91  1  0.13892493  0.31202325  0.49275301  1
  O  O92  1  0.33075448  0.74030647  0.97428379  1
  O  O93  1  0.29308265  0.58801065  0.42847946  1
  O  O94  1  0.99889024  0.04599298  0.99946553  1
  O  O95  1  0.13378002  0.08927857  0.42769487  1
  O  O96  1  0.15142442  0.38827374  0.04310731  1
  O  O97  1  0.56154432  0.55360819  0.94439203  1
  O  O98  1  0.12934581  0.86706020  0.34434476  1
  O  O99  1  0.78216839  0.72377186  0.72004424  1
  O  O100  1  0.08139458  0.71835339  0.54396901  1
  O  O101  1  0.61921795  0.10763843  0.05565842  1
  O  O102  1  0.70828975  0.16007660  0.57244572  1
  O  O103  1  0.53657341  0.67388866  0.45581144  1
  O  O104  1  0.73908148  0.14244897  0.85910186  1
  O  O105  1  0.53923294  0.50153346  0.80455379  1
  O  O106  1  0.21971394  0.61925777  0.09707782  1
  O  O107  1  0.21385514  0.36691291  0.34431978  1
  O  O108  1  0.67421602  0.00813220  0.93124460  1
  O  O109  1  0.93752715  0.22486475  0.72201348  1
  O  O110  1  0.02602946  0.90385949  0.45194976  1
  O  O111  1  0.34473368  0.89701474  0.18317811  1
  O  O112  1  0.64415890  0.23830104  0.97356225  1
  O  O113  1  0.87834178  0.11799489  0.09813354  1
  O  O114  1  0.21473750  0.00177009  0.27872370  1
  O  O115  1  0.77369219  0.91650373  0.82194496  1
  O  O116  1  0.90722359  0.98272442  0.34058560  1
  O  O117  1  0.09309779  0.64189751  0.65909363  1
  O  O118  1  0.38232099  0.05227341  0.94478109  1
  O  O119  1  0.10944213  0.84627682  0.95743266  1
  O  O120  1  0.73264075  0.40290571  0.28941594  1
  O  O121  1  0.12019075  0.64492728  0.86007094  1
  O  O122  1  0.43756079  0.60877933  0.05621073  1
  O  O123  1  0.83865784  0.39651768  0.18285832  1
  O  O124  1  0.25855276  0.51031653  0.93147137  1
  O  O125  1  0.43236400  0.48369386  0.34083096  1
  O  O126  1  0.42606251  0.40211356  0.45168008  1
  O  O127  1  0.74002175  0.96876589  0.13513876  1
  O  O128  1  0.65835213  0.60850219  0.35419385  1
  O  O129  1  0.12313048  0.02135253  0.90173476  1
  O  O130  1  0.45772258  0.69645181  0.19570447  1
  O  O131  1  0.86541572  0.65961526  0.57145960  1
  O  O132  1  0.64739474  0.31608397  0.50550972  1
  O  O133  1  0.32426666  0.07692546  0.06802994  1
  O  O134  1  0.83633245  0.60334338  0.28399175  1
  O  O135  1  0.03809703  0.01804478  0.71336886  1
  O  O136  1  0.06425540  0.50191509  0.27827251  1
  O  O137  1  0.46537975  0.21933420  0.54529442  1
  O  O138  1  0.22987763  0.09677612  0.17955366  1
  O  O139  1  0.99899534  0.54622322  0.99951117  1
  O  O140  1  0.66756194  0.76661844  0.02736223  1
  O  O141  1  0.78627847  0.97008083  0.43730081  1
  O  O142  1  0.65090197  0.46910488  0.43689373  1
  O  O143  1  0.97372567  0.45137448  0.54823694  1
  O  O144  1  0.57511144  0.95067782  0.54856411  1
  O  O145  1  0.74103473  0.57844509  0.06893803  1
  O  O146  1  0.26691968  0.11400405  0.71052823  1
  O  O147  1  0.34908912  0.03203341  0.56158253  1
  O  O148  1  0.44385114  0.61359027  0.71001805  1
  O  O149  1  0.85923235  0.81553747  0.50462276  1
  O  O150  1  0.39328480  0.46841886  0.13485238  1
  O  O151  1  0.55082355  0.82211229  0.71797306  1
  O  O152  1  0.56618772  0.14080904  0.65926217  1
  O  O153  1  0.77771165  0.52121898  0.90190017  1
  O  O154  1  0.21371532  0.53217248  0.56237653  1
  O  O155  1  0.26028742  0.83363685  0.86544558  1
  O  O156  1  0.35805411  0.26566061  0.02689057  1
  O  O157  1  0.67447161  0.51634872  0.71228430  1
  O  O158  1  0.30405366  0.75440998  0.64535253  1
  O  O159  1  0.44826709  0.10371767  0.28476150  1
  O  O160  1  0.84815663  0.34461799  0.95577413  1
  O  O161  1  0.16605709  0.32123895  0.71676189  1
  O  O162  1  0.34116228  0.25352550  0.64495521  1
  O  O163  1  0.16348587  0.21550404  0.81790433  1
  O  O164  1  0.05055247  0.41862467  0.82162924  1
  O  O165  1  0.26182090  0.28357245  0.14065029  1
