# generated using pymatgen
data_BaNd2Ti3O10
_symmetry_space_group_name_H-M   'P 1'
_cell_length_a   3.92799284
_cell_length_b   7.69400400
_cell_length_c   14.38031107
_cell_angle_alpha   90.00000000
_cell_angle_beta   97.84972619
_cell_angle_gamma   90.00000000
_symmetry_Int_Tables_number   1
_chemical_formula_structural   BaNd2Ti3O10
_chemical_formula_sum   'Ba2 Nd4 Ti6 O20'
_cell_volume   430.52929889
_cell_formula_units_Z   2
loop_
 _symmetry_equiv_pos_site_id
 _symmetry_equiv_pos_as_xyz
  1  'x, y, z'
loop_
 _atom_site_type_symbol
 _atom_site_label
 _atom_site_symmetry_multiplicity
 _atom_site_fract_x
 _atom_site_fract_y
 _atom_site_fract_z
 _atom_site_occupancy
  O  O0  1  0.36956976  0.50736529  0.73913952  1
  O  O1  1  0.63043024  0.49263471  0.26086048  1
  O  O2  1  0.63043024  0.00736529  0.26086048  1
  O  O3  1  0.36956976  0.99263471  0.73913952  1
  O  O4  1  0.79306535  0.54720075  0.58613070  1
  O  O5  1  0.20693465  0.45279925  0.41386930  1
  O  O6  1  0.20693465  0.04720075  0.41386930  1
  O  O7  1  0.79306535  0.95279925  0.58613070  1
  O  O8  1  0.93361860  0.44451839  0.86723720  1
  O  O9  1  0.06638140  0.55548161  0.13276280  1
  O  O10  1  0.06638140  0.94451839  0.13276280  1
  O  O11  1  0.93361860  0.05548161  0.86723720  1
  O  O12  1  0.50000000  0.00000000  0.00000000  1
  O  O13  1  0.50000000  0.50000000  0.00000000  1
  O  O14  1  0.01759279  0.25000000  0.03518559  1
  O  O15  1  0.98240721  0.75000000  0.96481441  1
  O  O16  1  0.12232063  0.25000000  0.24464126  1
  O  O17  1  0.87767937  0.75000000  0.75535874  1
  O  O18  1  0.85319931  0.25000000  0.70639862  1
  O  O19  1  0.14680069  0.75000000  0.29360138  1
  Ti  Ti20  1  0.85420552  0.50506111  0.70841103  1
  Ti  Ti21  1  0.14579448  0.49493889  0.29158897  1
  Ti  Ti22  1  0.14579448  0.00506111  0.29158897  1
  Ti  Ti23  1  0.85420552  0.99493889  0.70841103  1
  Ti  Ti24  1  0.00000000  0.50000000  0.00000000  1
  Ti  Ti25  1  0.00000000  0.00000000  0.00000000  1
  Ba  Ba26  1  0.74297907  0.25000000  0.48595815  1
  Ba  Ba27  1  0.25702093  0.75000000  0.51404185  1
  Nd  Nd28  1  0.58019676  0.75000000  0.16039352  1
  Nd  Nd29  1  0.41980324  0.25000000  0.83960648  1
  Nd  Nd30  1  0.57271618  0.25000000  0.14543236  1
  Nd  Nd31  1  0.42728382  0.75000000  0.85456764  1
