# generated using pymatgen
data_K2Pt(NO2)4
_symmetry_space_group_name_H-M   'P 1'
_cell_length_a   7.87002573
_cell_length_b   9.68877442
_cell_length_c   12.99121140
_cell_angle_alpha   90.00000000
_cell_angle_beta   90.00000000
_cell_angle_gamma   96.85361864
_symmetry_Int_Tables_number   1
_chemical_formula_structural   K2Pt(NO2)4
_chemical_formula_sum   'K8 Pt4 N16 O32'
_cell_volume   983.51311078
_cell_formula_units_Z   4
loop_
 _symmetry_equiv_pos_site_id
 _symmetry_equiv_pos_as_xyz
  1  'x, y, z'
loop_
 _atom_site_type_symbol
 _atom_site_label
 _atom_site_symmetry_multiplicity
 _atom_site_fract_x
 _atom_site_fract_y
 _atom_site_fract_z
 _atom_site_occupancy
  N  N0  1  0.24816833  0.42033492  0.47814381  1
  N  N1  1  0.50928787  0.40312467  0.63889467  1
  N  N2  1  0.99071213  0.59687533  0.13889467  1
  N  N3  1  0.49071213  0.59687533  0.36110533  1
  N  N4  1  0.00928787  0.40312467  0.86110533  1
  N  N5  1  0.25183167  0.57966508  0.97814381  1
  N  N6  1  0.75183167  0.57966508  0.52185619  1
  N  N7  1  0.74816833  0.42033492  0.02185619  1
  N  N8  1  0.73515252  0.99336409  0.43421115  1
  N  N9  1  0.76484748  0.00663591  0.93421115  1
  N  N10  1  0.26484748  0.00663591  0.56578885  1
  N  N11  1  0.23515252  0.99336409  0.06578885  1
  N  N12  1  0.07288008  0.89884942  0.87209564  1
  N  N13  1  0.42711992  0.10115058  0.37209564  1
  N  N14  1  0.92711992  0.10115058  0.12790436  1
  N  N15  1  0.57288008  0.89884942  0.62790436  1
  O  O16  1  0.70064138  0.37430441  0.10844684  1
  O  O17  1  0.79935862  0.62569559  0.60844684  1
  O  O18  1  0.29935862  0.62569559  0.89155316  1
  O  O19  1  0.20064138  0.37430441  0.39155316  1
  O  O20  1  0.92523850  0.44236431  0.78668733  1
  O  O21  1  0.57476150  0.55763569  0.28668733  1
  O  O22  1  0.07476150  0.55763569  0.21331267  1
  O  O23  1  0.59999184  0.30689598  0.65067788  1
  O  O24  1  0.42523850  0.44236431  0.71331267  1
  O  O25  1  0.09999184  0.30689598  0.84932212  1
  O  O26  1  0.40000816  0.69310402  0.34932212  1
  O  O27  1  0.90000816  0.69310402  0.15067788  1
  O  O28  1  0.21160500  0.93840308  0.82839716  1
  O  O29  1  0.28839500  0.06159692  0.32839716  1
  O  O30  1  0.78839500  0.06159692  0.17160284  1
  O  O31  1  0.71160500  0.93840308  0.67160284  1
  O  O32  1  0.97786544  0.79624245  0.83748686  1
  O  O33  1  0.52213456  0.20375755  0.33748686  1
  O  O34  1  0.02213456  0.20375755  0.16251314  1
  O  O35  1  0.47786544  0.79624245  0.66251314  1
  O  O36  1  0.35238548  0.09029579  0.04987030  1
  O  O37  1  0.14761452  0.90970421  0.54987030  1
  O  O38  1  0.64761452  0.90970421  0.95012970  1
  O  O39  1  0.85238548  0.09029579  0.45012970  1
  O  O40  1  0.26047167  0.89336361  0.12225590  1
  O  O41  1  0.23952833  0.10663639  0.62225590  1
  O  O42  1  0.73952833  0.10663639  0.87774410  1
  O  O43  1  0.76047167  0.89336361  0.37774410  1
  O  O44  1  0.64303339  0.41889111  0.94938961  1
  O  O45  1  0.85696661  0.58110889  0.44938961  1
  O  O46  1  0.35696661  0.58110889  0.05061039  1
  O  O47  1  0.14303339  0.41889111  0.55061039  1
  K  K48  1  0.41650630  0.19549602  0.84467746  1
  K  K49  1  0.08349370  0.80450398  0.34467746  1
  K  K50  1  0.58349370  0.80450398  0.15532254  1
  K  K51  1  0.91650630  0.19549602  0.65532254  1
  K  K52  1  0.65275562  0.66105855  0.81849122  1
  K  K53  1  0.84724438  0.33894145  0.31849122  1
  K  K54  1  0.34724438  0.33894145  0.18150878  1
  K  K55  1  0.15275562  0.66105855  0.68150878  1
  Pt  Pt56  1  0.00000000  0.00000000  0.00000000  1
  Pt  Pt57  1  0.50000000  0.00000000  0.50000000  1
  Pt  Pt58  1  0.00000000  0.50000000  0.00000000  1
  Pt  Pt59  1  0.50000000  0.50000000  0.50000000  1
