# generated using pymatgen
data_Nb3Te4ClO15
_symmetry_space_group_name_H-M   'P 1'
_cell_length_a   7.97047861
_cell_length_b   10.43363160
_cell_length_c   19.65395509
_cell_angle_alpha   85.58129319
_cell_angle_beta   78.28821230
_cell_angle_gamma   67.58055512
_symmetry_Int_Tables_number   1
_chemical_formula_structural   Nb3Te4ClO15
_chemical_formula_sum   'Nb12 Te16 Cl4 O60'
_cell_volume   1479.45101795
_cell_formula_units_Z   4
loop_
 _symmetry_equiv_pos_site_id
 _symmetry_equiv_pos_as_xyz
  1  'x, y, z'
loop_
 _atom_site_type_symbol
 _atom_site_label
 _atom_site_symmetry_multiplicity
 _atom_site_fract_x
 _atom_site_fract_y
 _atom_site_fract_z
 _atom_site_occupancy
  Nb  Nb0  1  0.99615709  0.74436614  0.49066796  1
  Nb  Nb1  1  0.51220232  0.24701697  0.50573341  1
  Nb  Nb2  1  0.76948862  0.24652366  0.99034415  1
  Nb  Nb3  1  0.26815033  0.25194573  0.99422264  1
  Nb  Nb4  1  0.87144253  0.26020353  0.25202174  1
  Nb  Nb5  1  0.23271992  0.75298325  0.01026582  1
  Nb  Nb6  1  0.38293480  0.24174833  0.24728331  1
  Nb  Nb7  1  0.73408227  0.74873716  0.00496037  1
  Nb  Nb8  1  0.61536645  0.76076001  0.75337127  1
  Nb  Nb9  1  0.48769496  0.75150109  0.49366419  1
  Nb  Nb10  1  0.12737672  0.74138441  0.74746312  1
  Nb  Nb11  1  0.00467639  0.25206570  0.50889801  1
  Te  Te12  1  0.14140874  0.46606228  0.62638361  1
  Te  Te13  1  0.63879677  0.96417284  0.37072615  1
  Te  Te14  1  0.02573800  0.46371604  0.87095229  1
  Te  Te15  1  0.37532391  0.50246971  0.35609135  1
  Te  Te16  1  0.76561565  0.96776319  0.12532739  1
  Te  Te17  1  0.23023694  0.99707602  0.14387930  1
  Te  Te18  1  0.97387389  0.53650723  0.12890065  1
  Te  Te19  1  0.51308090  0.49808112  0.86275166  1
  Te  Te20  1  0.12260016  0.99766215  0.36217393  1
  Te  Te21  1  0.36345287  0.03396588  0.62869658  1
  Te  Te22  1  0.48932617  0.50268298  0.13769464  1
  Te  Te23  1  0.85764836  0.53325299  0.37538179  1
  Te  Te24  1  0.23146687  0.03409915  0.87617384  1
  Te  Te25  1  0.87264340  0.00046049  0.63721152  1
  Te  Te26  1  0.62958266  0.49653646  0.64346229  1
  Te  Te27  1  0.76937373  0.00511572  0.85529497  1
  Cl  Cl28  1  0.20936528  0.74554461  0.24931592  1
  Cl  Cl29  1  0.30126415  0.25276030  0.75009069  1
  Cl  Cl30  1  0.70476941  0.74516234  0.24979422  1
  Cl  Cl31  1  0.79451446  0.24734911  0.75181715  1
  O  O32  1  0.73863011  0.25471770  0.50192832  1
  O  O33  1  0.02594067  0.90005366  0.81807756  1
  O  O34  1  0.32600099  0.59087585  0.07613119  1
  O  O35  1  0.54424867  0.11108390  0.58985523  1
  O  O36  1  0.56801222  0.62458426  0.56992859  1
  O  O37  1  0.43516987  0.37321916  0.42921608  1
  O  O38  1  0.33432927  0.63099965  0.92876853  1
  O  O39  1  0.83295703  0.11859758  0.90737112  1
  O  O40  1  0.53081855  0.90261469  0.68142524  1
  O  O41  1  0.57788664  0.08449269  0.44680762  1
  O  O42  1  0.00513710  0.08951226  0.57389953  1
  O  O43  1  0.65853158  0.60835407  0.82714814  1
  O  O44  1  0.10636416  0.60002837  0.81856788  1
  O  O45  1  0.95504045  0.41607774  0.44882307  1
  O  O46  1  0.82027535  0.08360646  0.05113869  1
  O  O47  1  0.47514600  0.10057975  0.31831878  1
  O  O48  1  0.17958831  0.91714863  0.95027492  1
  O  O49  1  0.14866379  0.61883051  0.40806475  1
  O  O50  1  0.74234901  0.60020738  0.68278867  1
  O  O51  1  0.22477218  0.24541162  0.53410109  1
  O  O52  1  0.82993186  0.39187018  0.32713251  1
  O  O53  1  0.10668000  0.13212419  0.42642193  1
  O  O54  1  0.75911889  0.87541747  0.92839213  1
  O  O55  1  0.88785538  0.40271179  0.18117331  1
  O  O56  1  0.23888795  0.12242668  0.06935450  1
  O  O57  1  0.75620847  0.61153220  0.08923861  1
  O  O58  1  0.25800515  0.74998041  0.49794428  1
  O  O59  1  0.85745917  0.37972685  0.59227490  1
  O  O60  1  0.97303504  0.10058021  0.18137553  1
  O  O61  1  0.77845104  0.74924237  0.46305990  1
  O  O62  1  0.90255035  0.10951748  0.32711661  1
  O  O63  1  0.60494739  0.59058636  0.42210957  1
  O  O64  1  0.39364558  0.40364146  0.57978288  1
  O  O65  1  0.54635104  0.10875349  0.17196807  1
  O  O66  1  0.66860271  0.36972174  0.07121306  1
  O  O67  1  0.04677521  0.58238456  0.55169021  1
  O  O68  1  0.37983775  0.09317402  0.92178523  1
  O  O69  1  0.45043843  0.89306686  0.82786235  1
  O  O70  1  0.34287068  0.39318880  0.17356846  1
  O  O71  1  0.25891353  0.39942797  0.31828654  1
  O  O72  1  0.37298606  0.70955664  0.74737992  1
  O  O73  1  0.67482958  0.40862931  0.92466571  1
  O  O74  1  0.17253513  0.60813519  0.67234267  1
  O  O75  1  0.24507227  0.38845232  0.91015846  1
  O  O76  1  0.62517236  0.29554536  0.25164931  1
  O  O77  1  0.89084661  0.86706016  0.57165790  1
  O  O78  1  0.16991045  0.87857092  0.09386401  1
  O  O79  1  0.50490134  0.75164497  0.00237309  1
  O  O80  1  0.62133066  0.90481801  0.07933293  1
  O  O81  1  0.49874103  0.24591975  0.99720149  1
  O  O82  1  0.42762348  0.91083371  0.55344886  1
  O  O83  1  0.09389060  0.89201755  0.67245625  1
  O  O84  1  0.00996731  0.25080556  0.96376391  1
  O  O85  1  0.88654661  0.58650274  0.94597323  1
  O  O86  1  0.45748255  0.88610836  0.40860817  1
  O  O87  1  0.17263959  0.20557597  0.24585113  1
  O  O88  1  0.11372241  0.41194732  0.05436027  1
  O  O89  1  0.82748306  0.79632441  0.75198361  1
  O  O90  1  0.99343424  0.74687402  0.03481463  1
  O  O91  1  0.98931436  0.90992111  0.42540391  1
