# generated using pymatgen
data_K2In3AgSe6
_symmetry_space_group_name_H-M   'P 1'
_cell_length_a   8.39636367
_cell_length_b   8.39636454
_cell_length_c   21.92997727
_cell_angle_alpha   84.42114706
_cell_angle_beta   84.42114639
_cell_angle_gamma   90.14307689
_symmetry_Int_Tables_number   1
_chemical_formula_structural   K2In3AgSe6
_chemical_formula_sum   'K8 In12 Ag4 Se24'
_cell_volume   1531.31710598
_cell_formula_units_Z   4
loop_
 _symmetry_equiv_pos_site_id
 _symmetry_equiv_pos_as_xyz
  1  'x, y, z'
loop_
 _atom_site_type_symbol
 _atom_site_label
 _atom_site_symmetry_multiplicity
 _atom_site_fract_x
 _atom_site_fract_y
 _atom_site_fract_z
 _atom_site_occupancy
  K  K0  1  0.25086770  0.60722714  0.58229448  1
  K  K1  1  0.39277286  0.74913230  0.91770552  1
  K  K2  1  0.79210528  0.89561436  0.41762079  1
  K  K3  1  0.89561436  0.79210528  0.91762079  1
  K  K4  1  0.74913230  0.39277286  0.41770552  1
  K  K5  1  0.20789472  0.10438564  0.58237921  1
  K  K6  1  0.60722714  0.25086770  0.08229448  1
  K  K7  1  0.10438564  0.20789472  0.08237921  1
  In  In8  1  0.15179435  0.27743718  0.88686301  1
  In  In9  1  0.84820565  0.72256282  0.11313699  1
  In  In10  1  0.06794707  0.93205293  0.25000000  1
  In  In11  1  0.44041182  0.55958818  0.75000000  1
  In  In12  1  0.27899513  0.65158002  0.38751541  1
  In  In13  1  0.93205293  0.06794707  0.75000000  1
  In  In14  1  0.72100487  0.34841998  0.61248459  1
  In  In15  1  0.27743718  0.15179435  0.38686301  1
  In  In16  1  0.72256282  0.84820565  0.61313699  1
  In  In17  1  0.34841998  0.72100487  0.11248459  1
  In  In18  1  0.55958818  0.44041182  0.25000000  1
  In  In19  1  0.65158002  0.27899513  0.88751541  1
  Ag  Ag20  1  0.06660322  0.44018055  0.24987391  1
  Ag  Ag21  1  0.55981945  0.93339678  0.25012609  1
  Ag  Ag22  1  0.44018055  0.06660322  0.74987391  1
  Ag  Ag23  1  0.93339678  0.55981945  0.75012609  1
  Se  Se24  1  0.33348362  0.43799407  0.17541727  1
  Se  Se25  1  0.44031773  0.82950930  0.67662016  1
  Se  Se26  1  0.66839780  0.02745551  0.82472625  1
  Se  Se27  1  0.83470173  0.97141154  0.17705159  1
  Se  Se28  1  0.02858846  0.16529827  0.32294841  1
  Se  Se29  1  0.24160209  0.88364890  0.45986206  1
  Se  Se30  1  0.75839791  0.11635110  0.54013794  1
  Se  Se31  1  0.17049070  0.55968227  0.82337984  1
  Se  Se32  1  0.11635110  0.75839791  0.04013794  1
  Se  Se33  1  0.55968227  0.17049070  0.32337984  1
  Se  Se34  1  0.43799407  0.33348362  0.67541727  1
  Se  Se35  1  0.97141154  0.83470173  0.67705159  1
  Se  Se36  1  0.16529827  0.02858846  0.82294841  1
  Se  Se37  1  0.61703630  0.72218154  0.04000804  1
  Se  Se38  1  0.97254449  0.33160220  0.67527375  1
  Se  Se39  1  0.82950930  0.44031773  0.17662016  1
  Se  Se40  1  0.33160220  0.97254449  0.17527375  1
  Se  Se41  1  0.72218154  0.61703630  0.54000804  1
  Se  Se42  1  0.27781846  0.38296370  0.45999196  1
  Se  Se43  1  0.38296370  0.27781846  0.95999196  1
  Se  Se44  1  0.02745551  0.66839780  0.32472625  1
  Se  Se45  1  0.56200593  0.66651638  0.32458273  1
  Se  Se46  1  0.88364890  0.24160209  0.95986206  1
  Se  Se47  1  0.66651638  0.56200593  0.82458273  1
