# generated using pymatgen
data_Ba3WN4
_symmetry_space_group_name_H-M   'P 1'
_cell_length_a   18.69893851
_cell_length_b   18.69893825
_cell_length_c   10.57218675
_cell_angle_alpha   90.00000000
_cell_angle_beta   90.00000000
_cell_angle_gamma   120.00000044
_symmetry_Int_Tables_number   1
_chemical_formula_structural   Ba3WN4
_chemical_formula_sum   'Ba54 W18 N72'
_cell_volume   3201.32198241
_cell_formula_units_Z   18
loop_
 _symmetry_equiv_pos_site_id
 _symmetry_equiv_pos_as_xyz
  1  'x, y, z'
loop_
 _atom_site_type_symbol
 _atom_site_label
 _atom_site_symmetry_multiplicity
 _atom_site_fract_x
 _atom_site_fract_y
 _atom_site_fract_z
 _atom_site_occupancy
  Ba  Ba0  1  0.47941519  0.60450297  0.64088558  1
  Ba  Ba1  1  0.81301406  0.24942460  0.64749516  1
  Ba  Ba2  1  0.02092724  0.32978523  0.84405804  1
  Ba  Ba3  1  0.24942460  0.81301406  0.14749516  1
  Ba  Ba4  1  0.67021477  0.69114201  0.84405804  1
  Ba  Ba5  1  0.12508778  0.52058481  0.64088558  1
  Ba  Ba6  1  0.52864596  0.42960042  0.48490277  1
  Ba  Ba7  1  0.47135404  0.90095446  0.98490277  1
  Ba  Ba8  1  0.07533239  0.84758954  0.91254761  1
  Ba  Ba9  1  0.39549703  0.87491222  0.64088558  1
  Ba  Ba10  1  0.08206803  0.22058743  0.56735959  1
  Ba  Ba11  1  0.33333300  0.66666700  0.83207595  1
  Ba  Ba12  1  0.18698594  0.43641054  0.14749516  1
  Ba  Ba13  1  0.75057540  0.56358946  0.64749516  1
  Ba  Ba14  1  0.55186239  0.81585867  0.48996483  1
  Ba  Ba15  1  0.92466761  0.77225715  0.41254761  1
  Ba  Ba16  1  0.81585867  0.55186239  0.98996483  1
  Ba  Ba17  1  0.69114201  0.67021477  0.34405804  1
  Ba  Ba18  1  0.87491222  0.39549703  0.14088558  1
  Ba  Ba19  1  0.86148060  0.77941257  0.06735959  1
  Ba  Ba20  1  0.09904554  0.57039958  0.98490277  1
  Ba  Ba21  1  0.56358946  0.75057540  0.14749516  1
  Ba  Ba22  1  0.66868666  0.02008392  0.72181974  1
  Ba  Ba23  1  0.77225715  0.92466761  0.91254761  1
  Ba  Ba24  1  0.52058481  0.12508778  0.14088558  1
  Ba  Ba25  1  0.91793197  0.13851940  0.06735959  1
  Ba  Ba26  1  0.32978523  0.02092724  0.34405804  1
  Ba  Ba27  1  0.00000000  0.00000000  0.24943891  1
  Ba  Ba28  1  0.64860274  0.97991608  0.22181974  1
  Ba  Ba29  1  0.15241046  0.22774285  0.91254761  1
  Ba  Ba30  1  0.13851940  0.91793197  0.56735959  1
  Ba  Ba31  1  0.42960042  0.52864596  0.98490277  1
  Ba  Ba32  1  0.97907276  0.30885799  0.34405804  1
  Ba  Ba33  1  0.35139726  0.33131334  0.72181974  1
  Ba  Ba34  1  0.33131334  0.35139726  0.22181974  1
  Ba  Ba35  1  0.97991608  0.64860274  0.72181974  1
  Ba  Ba36  1  0.90095446  0.47135404  0.48490277  1
  Ba  Ba37  1  0.66666700  0.33333300  0.80113306  1
  Ba  Ba38  1  0.57039958  0.09904554  0.48490277  1
  Ba  Ba39  1  0.73600372  0.18414133  0.98996483  1
  Ba  Ba40  1  0.33333300  0.66666700  0.30113306  1
  Ba  Ba41  1  0.00000000  0.00000000  0.74943891  1
  Ba  Ba42  1  0.30885799  0.97907276  0.84405804  1
  Ba  Ba43  1  0.60450297  0.47941519  0.14088558  1
  Ba  Ba44  1  0.77941257  0.86148060  0.56735959  1
  Ba  Ba45  1  0.66666700  0.33333300  0.33207595  1
  Ba  Ba46  1  0.26399628  0.44813761  0.48996483  1
  Ba  Ba47  1  0.22058743  0.08206803  0.06735959  1
  Ba  Ba48  1  0.43641054  0.18698594  0.64749516  1
  Ba  Ba49  1  0.22774285  0.15241046  0.41254761  1
  Ba  Ba50  1  0.18414133  0.73600372  0.48996483  1
  Ba  Ba51  1  0.44813761  0.26399628  0.98996483  1
  Ba  Ba52  1  0.02008392  0.66868666  0.22181974  1
  Ba  Ba53  1  0.84758954  0.07533239  0.41254761  1
  W  W54  1  0.76399760  0.20390674  0.32568779  1
  W  W55  1  0.22491101  0.10450132  0.73297739  1
  W  W56  1  0.10978899  0.54878185  0.31959477  1
  W  W57  1  0.56100714  0.45121815  0.81959477  1
  W  W58  1  0.54878185  0.10978899  0.81959477  1
  W  W59  1  0.20390674  0.76399760  0.82568779  1
  W  W60  1  0.43990914  0.23600240  0.32568779  1
  W  W61  1  0.10450132  0.22491101  0.23297739  1
  W  W62  1  0.89021101  0.43899286  0.81959477  1
  W  W63  1  0.56009086  0.79609326  0.82568779  1
  W  W64  1  0.23600240  0.43990914  0.82568779  1
  W  W65  1  0.89549868  0.12040969  0.73297739  1
  W  W66  1  0.45121815  0.56100714  0.31959477  1
  W  W67  1  0.87959031  0.77508899  0.73297739  1
  W  W68  1  0.43899286  0.89021101  0.31959477  1
  W  W69  1  0.79609326  0.56009086  0.32568779  1
  W  W70  1  0.77508899  0.87959031  0.23297739  1
  W  W71  1  0.12040969  0.89549868  0.23297739  1
  N  N72  1  0.69214777  0.51792226  0.40406338  1
  N  N73  1  0.45850522  0.03396967  0.71866563  1
  N  N74  1  0.52583993  0.32687204  0.23716126  1
  N  N75  1  0.14843074  0.16522798  0.15390933  1
  N  N76  1  0.83128504  0.47490809  0.71694020  1
  N  N77  1  0.82577449  0.30785223  0.40406338  1
  N  N78  1  0.33865898  0.81351795  0.39828144  1
  N  N79  1  0.16871496  0.64362305  0.21694020  1
  N  N80  1  0.51792226  0.69214777  0.90406338  1
  N  N81  1  0.52514103  0.18648205  0.89828144  1
  N  N82  1  0.07224206  0.27520323  0.10644199  1
  N  N83  1  0.48207774  0.17422551  0.40406338  1
  N  N84  1  0.05900539  0.57759251  0.44960971  1
  N  N85  1  0.85949074  0.84913318  0.82708452  1
  N  N86  1  0.39085235  0.27126817  0.44917174  1
  N  N87  1  0.30695544  0.18586400  0.84155295  1
  N  N88  1  0.18586400  0.30695544  0.34155295  1
  N  N89  1  0.47490809  0.83128504  0.21694020  1
  N  N90  1  0.48141288  0.42240749  0.94960971  1
  N  N91  1  0.79703883  0.72479677  0.60644199  1
  N  N92  1  0.47416007  0.80103211  0.73716126  1
  N  N93  1  0.64199268  0.80494473  0.71067526  1
  N  N94  1  0.42240749  0.48141288  0.44960971  1
  N  N95  1  0.57759251  0.05900539  0.94960971  1
  N  N96  1  0.87890856  0.69304456  0.84155295  1
  N  N97  1  0.98964244  0.14050926  0.82708452  1
  N  N98  1  0.85156926  0.01679724  0.65390933  1
  N  N99  1  0.72479677  0.79703883  0.10644199  1
  N  N100  1  0.32687204  0.52583993  0.73716126  1
  N  N101  1  0.60914765  0.88041582  0.94917174  1
  N  N102  1  0.72873183  0.11958418  0.44917174  1
  N  N103  1  0.27520323  0.07224206  0.60644199  1
  N  N104  1  0.16295205  0.35800732  0.71067526  1
  N  N105  1  0.01035756  0.15086682  0.32708452  1
  N  N106  1  0.80494473  0.64199268  0.21067526  1
  N  N107  1  0.67312796  0.19896789  0.23716126  1
  N  N108  1  0.88041582  0.60914765  0.44917174  1
  N  N109  1  0.84913318  0.85949074  0.32708452  1
  N  N110  1  0.15086682  0.01035756  0.82708452  1
  N  N111  1  0.35637695  0.52509191  0.21694020  1
  N  N112  1  0.81413600  0.12109144  0.84155295  1
  N  N113  1  0.66134102  0.47485897  0.89828144  1
  N  N114  1  0.57546445  0.54149478  0.71866563  1
  N  N115  1  0.80103211  0.47416007  0.23716126  1
  N  N116  1  0.47485897  0.66134102  0.39828144  1
  N  N117  1  0.54149478  0.57546445  0.21866563  1
  N  N118  1  0.64362305  0.16871496  0.71694020  1
  N  N119  1  0.94099461  0.51858712  0.94960971  1
  N  N120  1  0.20296117  0.92775794  0.10644199  1
  N  N121  1  0.01679724  0.85156926  0.15390933  1
  N  N122  1  0.18648205  0.52514103  0.39828144  1
  N  N123  1  0.51858712  0.94099461  0.44960971  1
  N  N124  1  0.98320276  0.83477202  0.65390933  1
  N  N125  1  0.81351795  0.33865898  0.89828144  1
  N  N126  1  0.27126817  0.39085235  0.94917174  1
  N  N127  1  0.14050926  0.98964244  0.32708452  1
  N  N128  1  0.83704795  0.19505527  0.21067526  1
  N  N129  1  0.42453555  0.96603033  0.21866563  1
  N  N130  1  0.03396967  0.45850522  0.21866563  1
  N  N131  1  0.92775794  0.20296117  0.60644199  1
  N  N132  1  0.19505527  0.83704795  0.71067526  1
  N  N133  1  0.11958418  0.72873183  0.94917174  1
  N  N134  1  0.69304456  0.87890856  0.34155295  1
  N  N135  1  0.16522798  0.14843074  0.65390933  1
  N  N136  1  0.19896789  0.67312796  0.73716126  1
  N  N137  1  0.83477202  0.98320276  0.15390933  1
  N  N138  1  0.35800732  0.16295205  0.21067526  1
  N  N139  1  0.96603033  0.42453555  0.71866563  1
  N  N140  1  0.52509191  0.35637695  0.71694020  1
  N  N141  1  0.17422551  0.48207774  0.90406338  1
  N  N142  1  0.12109144  0.81413600  0.34155295  1
  N  N143  1  0.30785223  0.82577449  0.90406338  1
