# generated using pymatgen
data_CsP4N7
_symmetry_space_group_name_H-M   'P 1'
_cell_length_a   10.09031025
_cell_length_b   12.51241875
_cell_length_c   4.75710760
_cell_angle_alpha   90.00000000
_cell_angle_beta   90.00000000
_cell_angle_gamma   90.00000000
_symmetry_Int_Tables_number   1
_chemical_formula_structural   CsP4N7
_chemical_formula_sum   'Cs4 P16 N28'
_cell_volume   600.60475330
_cell_formula_units_Z   4
loop_
 _symmetry_equiv_pos_site_id
 _symmetry_equiv_pos_as_xyz
  1  'x, y, z'
loop_
 _atom_site_type_symbol
 _atom_site_label
 _atom_site_symmetry_multiplicity
 _atom_site_fract_x
 _atom_site_fract_y
 _atom_site_fract_z
 _atom_site_occupancy
  Cs  Cs0  1  0.14264431  0.75000000  0.27437154  1
  Cs  Cs1  1  0.35735569  0.25000000  0.77437154  1
  Cs  Cs2  1  0.64264431  0.75000000  0.22562846  1
  Cs  Cs3  1  0.85735569  0.25000000  0.72562846  1
  P  P4  1  0.08886886  0.12931168  0.28481349  1
  P  P5  1  0.08886886  0.37068832  0.28481349  1
  P  P6  1  0.15774382  0.00073242  0.77389041  1
  P  P7  1  0.15774382  0.49926758  0.77389041  1
  P  P8  1  0.34225618  0.50073242  0.27389041  1
  P  P9  1  0.34225618  0.99926758  0.27389041  1
  P  P10  1  0.41113114  0.62931168  0.78481349  1
  P  P11  1  0.41113114  0.87068832  0.78481349  1
  P  P12  1  0.58886886  0.12931168  0.21518651  1
  P  P13  1  0.58886886  0.37068832  0.21518651  1
  P  P14  1  0.65774382  0.00073242  0.72610959  1
  P  P15  1  0.65774382  0.49926758  0.72610959  1
  P  P16  1  0.84225618  0.50073242  0.22610959  1
  P  P17  1  0.84225618  0.99926758  0.22610959  1
  P  P18  1  0.91113114  0.62931168  0.71518651  1
  P  P19  1  0.91113114  0.87068832  0.71518651  1
  N  N20  1  0.05839710  0.59621897  0.81055491  1
  N  N21  1  0.05839710  0.90378103  0.81055491  1
  N  N22  1  0.11919587  0.10683166  0.61091783  1
  N  N23  1  0.11919587  0.39316834  0.61091783  1
  N  N24  1  0.12160815  0.25000000  0.20111296  1
  N  N25  1  0.20009817  0.04414276  0.11089824  1
  N  N26  1  0.20009817  0.45585724  0.11089824  1
  N  N27  1  0.29990183  0.54414276  0.61089824  1
  N  N28  1  0.29990183  0.95585724  0.61089824  1
  N  N29  1  0.37839185  0.75000000  0.70111296  1
  N  N30  1  0.38080413  0.60683166  0.11091783  1
  N  N31  1  0.38080413  0.89316834  0.11091783  1
  N  N32  1  0.44160290  0.09621897  0.31055491  1
  N  N33  1  0.44160290  0.40378103  0.31055491  1
  N  N34  1  0.55839710  0.59621897  0.68944509  1
  N  N35  1  0.55839710  0.90378103  0.68944509  1
  N  N36  1  0.61919587  0.10683166  0.88908217  1
  N  N37  1  0.61919587  0.39316834  0.88908217  1
  N  N38  1  0.62160815  0.25000000  0.29888704  1
  N  N39  1  0.70009817  0.04414276  0.38910176  1
  N  N40  1  0.70009817  0.45585724  0.38910176  1
  N  N41  1  0.79990183  0.54414276  0.88910176  1
  N  N42  1  0.79990183  0.95585724  0.88910176  1
  N  N43  1  0.87839185  0.75000000  0.79888704  1
  N  N44  1  0.88080413  0.60683166  0.38908217  1
  N  N45  1  0.88080413  0.89316834  0.38908217  1
  N  N46  1  0.94160290  0.09621897  0.18944509  1
  N  N47  1  0.94160290  0.40378103  0.18944509  1
