# generated using pymatgen
data_Na3HoTi2Nb2O12
_symmetry_space_group_name_H-M   'P 1'
_cell_length_a   5.46826353
_cell_length_b   5.61327927
_cell_length_c   15.45399380
_cell_angle_alpha   90.00000000
_cell_angle_beta   90.00000000
_cell_angle_gamma   90.00000000
_symmetry_Int_Tables_number   1
_chemical_formula_structural   Na3HoTi2Nb2O12
_chemical_formula_sum   'Na6 Ho2 Ti4 Nb4 O24'
_cell_volume   474.35864463
_cell_formula_units_Z   2
loop_
 _symmetry_equiv_pos_site_id
 _symmetry_equiv_pos_as_xyz
  1  'x, y, z'
loop_
 _atom_site_type_symbol
 _atom_site_label
 _atom_site_symmetry_multiplicity
 _atom_site_fract_x
 _atom_site_fract_y
 _atom_site_fract_z
 _atom_site_occupancy
  Na  Na0  1  0.99825823  0.98558751  0.37201953  1
  Na  Na1  1  0.99825823  0.98558751  0.87798047  1
  Na  Na2  1  0.50174177  0.48558751  0.87798047  1
  Na  Na3  1  0.50174177  0.48558751  0.37201953  1
  Na  Na4  1  0.51148200  0.53079910  0.62500000  1
  Na  Na5  1  0.98851800  0.03079910  0.62500000  1
  Ho  Ho6  1  0.51273496  0.56903188  0.12500000  1
  Ho  Ho7  1  0.98726504  0.06903188  0.12500000  1
  Ti  Ti8  1  0.01422897  0.52832499  0.99876185  1
  Ti  Ti9  1  0.01422897  0.52832499  0.25123815  1
  Ti  Ti10  1  0.48577103  0.02832499  0.25123815  1
  Ti  Ti11  1  0.48577103  0.02832499  0.99876185  1
  Nb  Nb12  1  0.00483971  0.51335042  0.49785620  1
  Nb  Nb13  1  0.00483971  0.51335042  0.75214380  1
  Nb  Nb14  1  0.49516029  0.01335042  0.75214380  1
  Nb  Nb15  1  0.49516029  0.01335042  0.49785620  1
  O  O16  1  0.10079470  0.45952949  0.12500000  1
  O  O17  1  0.07912293  0.47348899  0.62500000  1
  O  O18  1  0.21108036  0.20566767  0.47769684  1
  O  O19  1  0.19778819  0.19223194  0.26041359  1
  O  O20  1  0.21108036  0.20566767  0.77230316  1
  O  O21  1  0.19778819  0.19223194  0.98958641  1
  O  O22  1  0.30221181  0.69223194  0.26041359  1
  O  O23  1  0.28891964  0.70566767  0.47769684  1
  O  O24  1  0.28891964  0.70566767  0.77230316  1
  O  O25  1  0.30221181  0.69223194  0.98958641  1
  O  O26  1  0.39920530  0.95952949  0.12500000  1
  O  O27  1  0.42087707  0.97348899  0.62500000  1
  O  O28  1  0.57169724  0.00810300  0.37006288  1
  O  O29  1  0.57169724  0.00810300  0.87993712  1
  O  O30  1  0.71855992  0.27065351  0.51820932  1
  O  O31  1  0.69939258  0.27965573  0.03326014  1
  O  O32  1  0.69939258  0.27965573  0.21673986  1
  O  O33  1  0.71855992  0.27065351  0.73179068  1
  O  O34  1  0.80060742  0.77965573  0.03326014  1
  O  O35  1  0.80060742  0.77965573  0.21673986  1
  O  O36  1  0.78144008  0.77065351  0.51820932  1
  O  O37  1  0.78144008  0.77065351  0.73179068  1
  O  O38  1  0.92830276  0.50810300  0.37006288  1
  O  O39  1  0.92830276  0.50810300  0.87993712  1
