# generated using pymatgen
data_CeSb(SBr)2
_symmetry_space_group_name_H-M   'P 1'
_cell_length_a   8.86908714
_cell_length_b   9.42218419
_cell_length_c   18.02139742
_cell_angle_alpha   90.00000000
_cell_angle_beta   104.20778602
_cell_angle_gamma   90.00000000
_symmetry_Int_Tables_number   1
_chemical_formula_structural   CeSb(SBr)2
_chemical_formula_sum   'Ce8 Sb8 S16 Br16'
_cell_volume   1459.91432419
_cell_formula_units_Z   8
loop_
 _symmetry_equiv_pos_site_id
 _symmetry_equiv_pos_as_xyz
  1  'x, y, z'
loop_
 _atom_site_type_symbol
 _atom_site_label
 _atom_site_symmetry_multiplicity
 _atom_site_fract_x
 _atom_site_fract_y
 _atom_site_fract_z
 _atom_site_occupancy
  Ce  Ce0  1  0.87773722  0.86794454  0.75653872  1
  Ce  Ce1  1  0.38685458  0.86315373  0.76327328  1
  Ce  Ce2  1  0.61314542  0.36315373  0.73672672  1
  Ce  Ce3  1  0.12226278  0.36794454  0.74346128  1
  Ce  Ce4  1  0.87773722  0.63205546  0.25653872  1
  Ce  Ce5  1  0.12226278  0.13205546  0.24346128  1
  Ce  Ce6  1  0.61314542  0.13684627  0.23672672  1
  Ce  Ce7  1  0.38685458  0.63684627  0.26327328  1
  Sb  Sb8  1  0.27129564  0.54134046  0.54999737  1
  Sb  Sb9  1  0.27592527  0.33986441  0.05806317  1
  Sb  Sb10  1  0.72407473  0.83986441  0.44193683  1
  Sb  Sb11  1  0.27592527  0.16013559  0.55806317  1
  Sb  Sb12  1  0.72870436  0.45865954  0.45000263  1
  Sb  Sb13  1  0.27129564  0.95865954  0.04999737  1
  Sb  Sb14  1  0.72870436  0.04134046  0.95000263  1
  Sb  Sb15  1  0.72407473  0.66013559  0.94193683  1
  S  S16  1  0.33784638  0.93930822  0.19053667  1
  S  S17  1  0.48041671  0.15085203  0.05614934  1
  S  S18  1  0.66215362  0.43930822  0.30946333  1
  S  S19  1  0.07016609  0.15030227  0.05393090  1
  S  S20  1  0.07016609  0.34969773  0.55393090  1
  S  S21  1  0.51958329  0.84914797  0.94385066  1
  S  S22  1  0.34020401  0.33543762  0.19794177  1
  S  S23  1  0.34020401  0.16456238  0.69794177  1
  S  S24  1  0.65979599  0.66456238  0.80205823  1
  S  S25  1  0.48041671  0.34914797  0.55614934  1
  S  S26  1  0.33784638  0.56069178  0.69053667  1
  S  S27  1  0.92983391  0.65030227  0.44606910  1
  S  S28  1  0.51958329  0.65085203  0.44385066  1
  S  S29  1  0.92983391  0.84969773  0.94606910  1
  S  S30  1  0.66215362  0.06069178  0.80946333  1
  S  S31  1  0.65979599  0.83543762  0.30205823  1
  Br  Br32  1  0.83812297  0.55411658  0.66226526  1
  Br  Br33  1  0.44303749  0.12829108  0.36817803  1
  Br  Br34  1  0.44303749  0.37170892  0.86817803  1
  Br  Br35  1  0.15676126  0.82594307  0.33083932  1
  Br  Br36  1  0.08001210  0.63019468  0.13690217  1
  Br  Br37  1  0.91998790  0.36980532  0.86309783  1
  Br  Br38  1  0.55696251  0.87170892  0.63182197  1
  Br  Br39  1  0.84323874  0.17405693  0.66916068  1
  Br  Br40  1  0.83812297  0.94588342  0.16226526  1
  Br  Br41  1  0.16187703  0.44588342  0.33773474  1
  Br  Br42  1  0.55696251  0.62829108  0.13182197  1
  Br  Br43  1  0.91998790  0.13019468  0.36309783  1
  Br  Br44  1  0.84323874  0.32594307  0.16916068  1
  Br  Br45  1  0.15676126  0.67405693  0.83083932  1
  Br  Br46  1  0.08001210  0.86980532  0.63690217  1
  Br  Br47  1  0.16187703  0.05411658  0.83773474  1
