# generated using pymatgen
data_Zr7Ni10
_symmetry_space_group_name_H-M   'P 1'
_cell_length_a   9.22594138
_cell_length_b   9.25258642
_cell_length_c   12.43950622
_cell_angle_alpha   90.00000000
_cell_angle_beta   90.00000000
_cell_angle_gamma   90.00000000
_symmetry_Int_Tables_number   1
_chemical_formula_structural   Zr7Ni10
_chemical_formula_sum   'Zr28 Ni40'
_cell_volume   1061.88376891
_cell_formula_units_Z   4
loop_
 _symmetry_equiv_pos_site_id
 _symmetry_equiv_pos_as_xyz
  1  'x, y, z'
loop_
 _atom_site_type_symbol
 _atom_site_label
 _atom_site_symmetry_multiplicity
 _atom_site_fract_x
 _atom_site_fract_y
 _atom_site_fract_z
 _atom_site_occupancy
  Zr  Zr0  1  0.18657153  0.81293267  0.49794019  1
  Zr  Zr1  1  0.49942880  0.49980179  0.69280224  1
  Zr  Zr2  1  0.00000000  0.50000000  0.50000000  1
  Zr  Zr3  1  0.31342847  0.31293267  0.49794019  1
  Zr  Zr4  1  0.50057120  0.99980179  0.80719776  1
  Zr  Zr5  1  0.18657153  0.68706733  0.99794019  1
  Zr  Zr6  1  0.25206297  0.24915194  0.74688081  1
  Zr  Zr7  1  0.49942880  0.00019821  0.19280224  1
  Zr  Zr8  1  0.75206297  0.25084806  0.25311919  1
  Zr  Zr9  1  0.81342847  0.31293267  0.00205981  1
  Zr  Zr10  1  0.68657153  0.68706733  0.50205981  1
  Zr  Zr11  1  0.50057120  0.50019821  0.30719776  1
  Zr  Zr12  1  0.68657153  0.81293267  0.00205981  1
  Zr  Zr13  1  0.81342847  0.18706733  0.50205981  1
  Zr  Zr14  1  0.99942880  0.49980179  0.80719776  1
  Zr  Zr15  1  0.31342847  0.18706733  0.99794019  1
  Zr  Zr16  1  0.00000000  0.00000000  0.00000000  1
  Zr  Zr17  1  0.24793703  0.74915194  0.74688081  1
  Zr  Zr18  1  0.24793703  0.75084806  0.24688081  1
  Zr  Zr19  1  0.75206297  0.24915194  0.75311919  1
  Zr  Zr20  1  0.99942880  0.00019821  0.30719776  1
  Zr  Zr21  1  0.50000000  0.00000000  0.50000000  1
  Zr  Zr22  1  0.74793703  0.74915194  0.75311919  1
  Zr  Zr23  1  0.74793703  0.75084806  0.25311919  1
  Zr  Zr24  1  0.25206297  0.25084806  0.24688081  1
  Zr  Zr25  1  0.00057120  0.99980179  0.69280224  1
  Zr  Zr26  1  0.50000000  0.50000000  0.00000000  1
  Zr  Zr27  1  0.00057120  0.50019821  0.19280224  1
  Ni  Ni28  1  0.49456506  0.79417270  0.64655704  1
  Ni  Ni29  1  0.60696184  0.10521092  0.99825143  1
  Ni  Ni30  1  0.60696184  0.39478908  0.49825143  1
  Ni  Ni31  1  0.98836942  0.70820475  0.64339461  1
  Ni  Ni32  1  0.01163058  0.20820475  0.85660539  1
  Ni  Ni33  1  0.79032242  0.49182604  0.64581004  1
  Ni  Ni34  1  0.10696184  0.10521092  0.50174857  1
  Ni  Ni35  1  0.99456506  0.79417270  0.85344296  1
  Ni  Ni36  1  0.89303816  0.60521092  0.99825143  1
  Ni  Ni37  1  0.79221728  0.00652345  0.85676752  1
  Ni  Ni38  1  0.20778272  0.50652345  0.64323248  1
  Ni  Ni39  1  0.51163058  0.20820475  0.64339461  1
  Ni  Ni40  1  0.10696184  0.39478908  0.00174857  1
  Ni  Ni41  1  0.98836942  0.79179525  0.14339461  1
  Ni  Ni42  1  0.00543494  0.29417270  0.64655704  1
  Ni  Ni43  1  0.29032242  0.00817396  0.35418996  1
  Ni  Ni44  1  0.29032242  0.49182604  0.85418996  1
  Ni  Ni45  1  0.70778272  0.99347655  0.35676752  1
  Ni  Ni46  1  0.48836942  0.79179525  0.35660539  1
  Ni  Ni47  1  0.00543494  0.20582730  0.14655704  1
  Ni  Ni48  1  0.48836942  0.70820475  0.85660539  1
  Ni  Ni49  1  0.70967758  0.99182604  0.64581004  1
  Ni  Ni50  1  0.50543494  0.29417270  0.85344296  1
  Ni  Ni51  1  0.39303816  0.89478908  0.00174857  1
  Ni  Ni52  1  0.29221728  0.49347655  0.14323248  1
  Ni  Ni53  1  0.70778272  0.50652345  0.85676752  1
  Ni  Ni54  1  0.50543494  0.20582730  0.35344296  1
  Ni  Ni55  1  0.29221728  0.00652345  0.64323248  1
  Ni  Ni56  1  0.79221728  0.49347655  0.35676752  1
  Ni  Ni57  1  0.20778272  0.99347655  0.14323248  1
  Ni  Ni58  1  0.70967758  0.50817396  0.14581004  1
  Ni  Ni59  1  0.49456506  0.70582730  0.14655704  1
  Ni  Ni60  1  0.20967758  0.50817396  0.35418996  1
  Ni  Ni61  1  0.99456506  0.70582730  0.35344296  1
  Ni  Ni62  1  0.01163058  0.29179525  0.35660539  1
  Ni  Ni63  1  0.39303816  0.60521092  0.50174857  1
  Ni  Ni64  1  0.89303816  0.89478908  0.49825143  1
  Ni  Ni65  1  0.20967758  0.99182604  0.85418996  1
  Ni  Ni66  1  0.79032242  0.00817396  0.14581004  1
  Ni  Ni67  1  0.51163058  0.29179525  0.14339461  1
