# generated using pymatgen
data_LiNbO3
_symmetry_space_group_name_H-M   'P 1'
_cell_length_a   5.58892315
_cell_length_b   5.58410672
_cell_length_c   33.52965366
_cell_angle_alpha   55.91354176
_cell_angle_beta   55.90128037
_cell_angle_gamma   55.93234477
_symmetry_Int_Tables_number   1
_chemical_formula_structural   LiNbO3
_chemical_formula_sum   'Li12 Nb12 O36'
_cell_volume   669.89877062
_cell_formula_units_Z   12
loop_
 _symmetry_equiv_pos_site_id
 _symmetry_equiv_pos_as_xyz
  1  'x, y, z'
loop_
 _atom_site_type_symbol
 _atom_site_label
 _atom_site_symmetry_multiplicity
 _atom_site_fract_x
 _atom_site_fract_y
 _atom_site_fract_z
 _atom_site_occupancy
  Li  Li0  1  0.21702469  0.21868446  0.03820868  1
  Li  Li1  1  0.29246113  0.29223726  0.21611461  1
  Li  Li2  1  0.71882980  0.71891081  0.11994000  1
  Li  Li3  1  0.29500864  0.29405682  0.38186572  1
  Li  Li4  1  0.79401275  0.79520092  0.29869362  1
  Li  Li5  1  0.29466079  0.29360233  0.54874975  1
  Li  Li6  1  0.79360318  0.79469374  0.46541774  1
  Li  Li7  1  0.29479966  0.29377801  0.71537750  1
  Li  Li8  1  0.79360082  0.79463950  0.63209084  1
  Li  Li9  1  0.29419333  0.29428857  0.88210463  1
  Li  Li10  1  0.79433495  0.79490567  0.79857379  1
  Li  Li11  1  0.79125247  0.79010907  0.96542748  1
  Nb  Nb12  1  0.01281985  0.00431933  0.00272814  1
  Nb  Nb13  1  0.01170767  0.00740567  0.16992146  1
  Nb  Nb14  1  0.49586803  0.50409371  0.08775257  1
  Nb  Nb15  1  0.01674388  0.01802020  0.33588192  1
  Nb  Nb16  1  0.51858295  0.51713004  0.25211240  1
  Nb  Nb17  1  0.01741574  0.01801093  0.50268521  1
  Nb  Nb18  1  0.51797819  0.51736182  0.41930440  1
  Nb  Nb19  1  0.01748713  0.01787157  0.66935298  1
  Nb  Nb20  1  0.51806686  0.51716414  0.58605249  1
  Nb  Nb21  1  0.01683421  0.01781762  0.83569405  1
  Nb  Nb22  1  0.51802215  0.51715073  0.75261653  1
  Nb  Nb23  1  0.51649828  0.51700809  0.91855844  1
  O  O24  1  0.12555224  0.37642755  0.12405873  1
  O  O25  1  0.37482534  0.76163778  0.02062342  1
  O  O26  1  0.75738639  0.12359301  0.06236940  1
  O  O27  1  0.25845258  0.87280249  0.10439393  1
  O  O28  1  0.62792261  0.26180298  0.14550220  1
  O  O29  1  0.12752325  0.37580536  0.28972875  1
  O  O30  1  0.86931462  0.62902268  0.04054835  1
  O  O31  1  0.37437176  0.73569855  0.18780154  1
  O  O32  1  0.74045870  0.12725843  0.22902408  1
  O  O33  1  0.23885895  0.87504704  0.27095434  1
  O  O34  1  0.62791504  0.23833563  0.31218107  1
  O  O35  1  0.12672092  0.37656123  0.45648162  1
  O  O36  1  0.87831292  0.62664141  0.20787392  1
  O  O37  1  0.37485370  0.73853817  0.35462419  1
  O  O38  1  0.73750847  0.12771644  0.39590278  1
  O  O39  1  0.23803626  0.87569451  0.43800515  1
  O  O40  1  0.62749883  0.23747543  0.47934950  1
  O  O41  1  0.12653835  0.37654284  0.62315451  1
  O  O42  1  0.87628600  0.62695408  0.37304324  1
  O  O43  1  0.37543698  0.73800535  0.52137166  1
  O  O44  1  0.73709213  0.12739316  0.56277813  1
  O  O45  1  0.23787877  0.87571472  0.60470356  1
  O  O46  1  0.62749903  0.23713962  0.64609678  1
  O  O47  1  0.12702841  0.37618970  0.78972147  1
  O  O48  1  0.87639491  0.62653665  0.53982756  1
  O  O49  1  0.37565687  0.73806017  0.68798033  1
  O  O50  1  0.73728920  0.12736638  0.72941043  1
  O  O51  1  0.23829068  0.87629107  0.77106757  1
  O  O52  1  0.62773588  0.23714960  0.81261658  1
  O  O53  1  0.12560185  0.37157341  0.95789617  1
  O  O54  1  0.87651728  0.62647942  0.70646115  1
  O  O55  1  0.37613524  0.73646257  0.85424405  1
  O  O56  1  0.73731129  0.12733413  0.89559224  1
  O  O57  1  0.23847367  0.87819771  0.93694735  1
  O  O58  1  0.62404359  0.23727574  0.97861748  1
  O  O59  1  0.87667015  0.62601399  0.87302185  1
