# generated using pymatgen
data_RbAuC2(SN)2
_symmetry_space_group_name_H-M   'P 1'
_cell_length_a   6.30832011
_cell_length_b   7.40940507
_cell_length_c   17.42267275
_cell_angle_alpha   82.74943918
_cell_angle_beta   79.56979288
_cell_angle_gamma   64.80521906
_symmetry_Int_Tables_number   1
_chemical_formula_structural   RbAuC2(SN)2
_chemical_formula_sum   'Rb4 Au4 C8 S8 N8'
_cell_volume   723.59691786
_cell_formula_units_Z   4
loop_
 _symmetry_equiv_pos_site_id
 _symmetry_equiv_pos_as_xyz
  1  'x, y, z'
loop_
 _atom_site_type_symbol
 _atom_site_label
 _atom_site_symmetry_multiplicity
 _atom_site_fract_x
 _atom_site_fract_y
 _atom_site_fract_z
 _atom_site_occupancy
  Rb  Rb0  1  0.19085218  0.70757829  0.93948692  1
  Rb  Rb1  1  0.83791739  0.79242171  0.56051308  1
  Rb  Rb2  1  0.16208261  0.20757829  0.43948692  1
  Rb  Rb3  1  0.80914782  0.29242171  0.06051308  1
  Au  Au4  1  0.66385074  0.25000000  0.75000000  1
  Au  Au5  1  0.33614926  0.75000000  0.25000000  1
  Au  Au6  1  0.16551383  0.25000000  0.75000000  1
  Au  Au7  1  0.83448617  0.75000000  0.25000000  1
  C  C8  1  0.58484505  0.87276721  0.08705023  1
  C  C9  1  0.82728269  0.59904163  0.85641808  1
  C  C10  1  0.17271731  0.40095837  0.14358192  1
  C  C11  1  0.54466249  0.62723279  0.41294977  1
  C  C12  1  0.41515495  0.12723279  0.91294977  1
  C  C13  1  0.28274240  0.90095837  0.64358192  1
  C  C14  1  0.71725760  0.09904163  0.35641808  1
  C  C15  1  0.45533751  0.37276721  0.58705023  1
  S  S16  1  0.70787449  0.34038073  0.61531093  1
  S  S17  1  0.00495194  0.40529456  0.22922651  1
  S  S18  1  0.33643385  0.84038073  0.11531093  1
  S  S19  1  0.29212551  0.65961927  0.38468907  1
  S  S20  1  0.63947301  0.09470544  0.27077349  1
  S  S21  1  0.36052699  0.90529456  0.72922651  1
  S  S22  1  0.66356615  0.15961927  0.88468907  1
  S  S23  1  0.99504806  0.59470544  0.77077349  1
  N  N24  1  0.76024400  0.89537334  0.06423569  1
  N  N25  1  0.28571692  0.39352366  0.08112497  1
  N  N26  1  0.71985303  0.60462666  0.43576431  1
  N  N27  1  0.76036555  0.10647634  0.41887503  1
  N  N28  1  0.23963445  0.89352366  0.58112497  1
  N  N29  1  0.28014697  0.39537334  0.56423569  1
  N  N30  1  0.71428308  0.60647634  0.91887503  1
  N  N31  1  0.23975600  0.10462666  0.93576431  1
