# generated using pymatgen
data_MnSb6(Pb2S7)2
_symmetry_space_group_name_H-M   'P 1'
_cell_length_a   4.03600356
_cell_length_b   15.97886328
_cell_length_c   19.37850325
_cell_angle_alpha   90.00000000
_cell_angle_beta   90.00000000
_cell_angle_gamma   92.02113297
_symmetry_Int_Tables_number   1
_chemical_formula_structural   MnSb6(Pb2S7)2
_chemical_formula_sum   'Mn2 Sb12 Pb8 S28'
_cell_volume   1248.95671431
_cell_formula_units_Z   2
loop_
 _symmetry_equiv_pos_site_id
 _symmetry_equiv_pos_as_xyz
  1  'x, y, z'
loop_
 _atom_site_type_symbol
 _atom_site_label
 _atom_site_symmetry_multiplicity
 _atom_site_fract_x
 _atom_site_fract_y
 _atom_site_fract_z
 _atom_site_occupancy
  Mn  Mn0  1  0.50000000  0.00000000  0.00000000  1
  Mn  Mn1  1  0.50000000  0.50000000  0.50000000  1
  Sb  Sb2  1  0.09064604  0.68216975  0.43764845  1
  Sb  Sb3  1  0.87690102  0.87052612  0.34013908  1
  Sb  Sb4  1  0.12303794  0.89680640  0.54935999  1
  Sb  Sb5  1  0.87696206  0.10319360  0.45064001  1
  Sb  Sb6  1  0.90935396  0.31783025  0.56235155  1
  Sb  Sb7  1  0.90935396  0.81783025  0.93764845  1
  Sb  Sb8  1  0.87690102  0.37052612  0.15986092  1
  Sb  Sb9  1  0.09064604  0.18216975  0.06235155  1
  Sb  Sb10  1  0.12303794  0.39680640  0.95064001  1
  Sb  Sb11  1  0.12309898  0.62947388  0.84013908  1
  Sb  Sb12  1  0.12309898  0.12947388  0.65986092  1
  Sb  Sb13  1  0.87696206  0.60319360  0.04935999  1
  Pb  Pb14  1  0.46055912  0.31458918  0.36006848  1
  Pb  Pb15  1  0.53944088  0.18541082  0.86006848  1
  Pb  Pb16  1  0.43562674  0.07287156  0.26046247  1
  Pb  Pb17  1  0.46055912  0.81458918  0.13993152  1
  Pb  Pb18  1  0.43562674  0.57287156  0.23953753  1
  Pb  Pb19  1  0.56437326  0.42712844  0.76046247  1
  Pb  Pb20  1  0.56437326  0.92712844  0.73953753  1
  Pb  Pb21  1  0.53944088  0.68541082  0.63993152  1
  S  S22  1  0.02602888  0.09656962  0.95603940  1
  S  S23  1  0.55220730  0.00324469  0.60091599  1
  S  S24  1  0.05784978  0.31815445  0.84074950  1
  S  S25  1  0.52984426  0.78663994  0.50376964  1
  S  S26  1  0.40520656  0.77725335  0.29768023  1
  S  S27  1  0.44779270  0.99675531  0.39908401  1
  S  S28  1  0.55220730  0.50324469  0.89908401  1
  S  S29  1  0.08115298  0.55168705  0.73066381  1
  S  S30  1  0.40520656  0.27725335  0.20231977  1
  S  S31  1  0.59479344  0.72274665  0.79768023  1
  S  S32  1  0.51590043  0.58300156  0.39508355  1
  S  S33  1  0.59479344  0.22274665  0.70231977  1
  S  S34  1  0.52984426  0.28663994  0.99623036  1
  S  S35  1  0.47015574  0.21336006  0.49623036  1
  S  S36  1  0.44779270  0.49675531  0.10091599  1
  S  S37  1  0.51590043  0.08300156  0.10491645  1
  S  S38  1  0.08115298  0.05168705  0.76933619  1
  S  S39  1  0.94215022  0.18184555  0.34074950  1
  S  S40  1  0.91884702  0.44831295  0.26933619  1
  S  S41  1  0.94215022  0.68184555  0.15925050  1
  S  S42  1  0.48409957  0.41699844  0.60491645  1
  S  S43  1  0.97397112  0.40343038  0.45603940  1
  S  S44  1  0.48409957  0.91699844  0.89508355  1
  S  S45  1  0.91884702  0.94831295  0.23066381  1
  S  S46  1  0.47015574  0.71336006  0.00376964  1
  S  S47  1  0.97397112  0.90343038  0.04396060  1
  S  S48  1  0.05784978  0.81815445  0.65925050  1
  S  S49  1  0.02602888  0.59656962  0.54396060  1
