# generated using pymatgen
data_AgMo6Br13
_symmetry_space_group_name_H-M   'P 1'
_cell_length_a   9.57234839
_cell_length_b   9.70543579
_cell_length_c   14.76783732
_cell_angle_alpha   96.59708287
_cell_angle_beta   102.63210165
_cell_angle_gamma   113.22474726
_symmetry_Int_Tables_number   1
_chemical_formula_structural   AgMo6Br13
_chemical_formula_sum   'Ag2 Mo12 Br26'
_cell_volume   1198.94630549
_cell_formula_units_Z   2
loop_
 _symmetry_equiv_pos_site_id
 _symmetry_equiv_pos_as_xyz
  1  'x, y, z'
loop_
 _atom_site_type_symbol
 _atom_site_label
 _atom_site_symmetry_multiplicity
 _atom_site_fract_x
 _atom_site_fract_y
 _atom_site_fract_z
 _atom_site_occupancy
  Ag  Ag0  1  0.04544285  0.27587197  0.77220490  1
  Ag  Ag1  1  0.95455715  0.72412803  0.22779510  1
  Mo  Mo2  1  0.46168795  0.32095328  0.41539305  1
  Mo  Mo3  1  0.63132406  0.45667351  0.59526732  1
  Mo  Mo4  1  0.54901413  0.98549649  0.88389022  1
  Mo  Mo5  1  0.69151646  0.99777042  0.06239885  1
  Mo  Mo6  1  0.53831205  0.67904672  0.58460695  1
  Mo  Mo7  1  0.45098587  0.01450351  0.11610978  1
  Mo  Mo8  1  0.60143218  0.21550952  0.02433086  1
  Mo  Mo9  1  0.30848354  0.00222958  0.93760115  1
  Mo  Mo10  1  0.36867594  0.54332649  0.40473268  1
  Mo  Mo11  1  0.32384432  0.38836167  0.54035217  1
  Mo  Mo12  1  0.67615568  0.61163833  0.45964783  1
  Mo  Mo13  1  0.39856782  0.78449048  0.97566914  1
  Br  Br14  1  0.41614148  0.16806763  0.55028119  1
  Br  Br15  1  0.51004550  0.47781473  0.28348326  1
  Br  Br16  1  0.15904090  0.25413039  0.36404003  1
  Br  Br17  1  0.25782581  0.77448645  0.80028544  1
  Br  Br18  1  0.64433766  0.77799364  0.92558416  1
  Br  Br19  1  0.23417987  0.61129880  0.52847131  1
  Br  Br20  1  0.92679900  0.77198414  0.40486643  1
  Br  Br21  1  0.74436582  0.51907718  0.06316794  1
  Br  Br22  1  0.58385852  0.83193237  0.44971881  1
  Br  Br23  1  0.16227616  0.79882421  0.02977637  1
  Br  Br24  1  0.39528562  0.05485055  0.29075724  1
  Br  Br25  1  0.81866093  0.40756939  0.73278577  1
  Br  Br26  1  0.04602534  0.01661667  0.85086548  1
  Br  Br27  1  0.25563418  0.48092282  0.93683206  1
  Br  Br28  1  0.48995450  0.52218527  0.71651674  1
  Br  Br29  1  0.18133907  0.59243061  0.26721423  1
  Br  Br30  1  0.95397466  0.98338333  0.14913452  1
  Br  Br31  1  0.53841252  0.79804245  0.15205937  1
  Br  Br32  1  0.46158748  0.20195755  0.84794063  1
  Br  Br33  1  0.07320100  0.22801586  0.59513357  1
  Br  Br34  1  0.60471438  0.94514945  0.70924276  1
  Br  Br35  1  0.35566234  0.22200636  0.07441584  1
  Br  Br36  1  0.76582013  0.38870120  0.47152869  1
  Br  Br37  1  0.74217419  0.22551355  0.19971456  1
  Br  Br38  1  0.84095910  0.74586961  0.63595997  1
  Br  Br39  1  0.83772384  0.20117579  0.97022363  1
