# generated using pymatgen
data_Mg2TiO4
_symmetry_space_group_name_H-M   'P 1'
_cell_length_a   6.07605787
_cell_length_b   18.23332659
_cell_length_c   10.33750508
_cell_angle_alpha   53.98596813
_cell_angle_beta   90.07760234
_cell_angle_gamma   90.00181427
_symmetry_Int_Tables_number   1
_chemical_formula_structural   Mg2TiO4
_chemical_formula_sum   'Mg24 Ti12 O48'
_cell_volume   926.36748997
_cell_formula_units_Z   12
loop_
 _symmetry_equiv_pos_site_id
 _symmetry_equiv_pos_as_xyz
  1  'x, y, z'
loop_
 _atom_site_type_symbol
 _atom_site_label
 _atom_site_symmetry_multiplicity
 _atom_site_fract_x
 _atom_site_fract_y
 _atom_site_fract_z
 _atom_site_occupancy
  Mg  Mg0  1  0.00450379  0.41680552  0.99676421  1
  Mg  Mg1  1  0.99578008  0.74831292  0.00276648  1
  Mg  Mg2  1  0.99614765  0.75114651  0.50075333  1
  Mg  Mg3  1  0.24917029  0.08322995  0.75142271  1
  Mg  Mg4  1  0.25160090  0.41708227  0.74743049  1
  Mg  Mg5  1  0.24526169  0.74985961  0.75121950  1
  Mg  Mg6  1  0.24430471  0.20776554  0.12513617  1
  Mg  Mg7  1  0.25323695  0.54040471  0.12411171  1
  Mg  Mg8  1  0.24517801  0.87370938  0.12618878  1
  Mg  Mg9  1  0.25920592  0.29196127  0.37371351  1
  Mg  Mg10  1  0.25043560  0.62513154  0.37764631  1
  Mg  Mg11  1  0.25785544  0.96076647  0.37316363  1
  Mg  Mg12  1  0.50014676  0.08321742  0.00026563  1
  Mg  Mg13  1  0.74223928  0.20818628  0.62802484  1
  Mg  Mg14  1  0.75979287  0.29126866  0.87185581  1
  Mg  Mg15  1  0.74878330  0.54323583  0.62190296  1
  Mg  Mg16  1  0.74570479  0.62443168  0.87500243  1
  Mg  Mg17  1  0.74122171  0.87623757  0.62551531  1
  Mg  Mg18  1  0.75214914  0.95640785  0.87765020  1
  Mg  Mg19  1  0.75363235  0.24998263  0.24890726  1
  Mg  Mg20  1  0.74736129  0.91768091  0.25031871  1
  Mg  Mg21  1  0.75237048  0.58241254  0.25112608  1
  Mg  Mg22  1  0.00138049  0.08420826  0.49793029  1
  Mg  Mg23  1  0.00296058  0.41559709  0.50089201  1
  Ti  Ti24  1  0.00043606  0.07822674  0.00162025  1
  Ti  Ti25  1  0.25445680  0.24991161  0.75080829  1
  Ti  Ti26  1  0.23578903  0.58441539  0.74910753  1
  Ti  Ti27  1  0.23099253  0.91532309  0.75067664  1
  Ti  Ti28  1  0.50311150  0.08597845  0.50704944  1
  Ti  Ti29  1  0.50154268  0.42155928  0.49513819  1
  Ti  Ti30  1  0.50530818  0.41271287  0.99595196  1
  Ti  Ti31  1  0.49552238  0.75637164  0.49917170  1
  Ti  Ti32  1  0.49565725  0.74421593  0.00326466  1
  Ti  Ti33  1  0.74500407  0.08541910  0.24868368  1
  Ti  Ti34  1  0.77011423  0.41552307  0.24876721  1
  Ti  Ti35  1  0.76049760  0.74968323  0.25209269  1
  O  O36  1  0.01725950  0.16643343  0.76252684  1
  O  O37  1  0.03453516  0.33070148  0.74550652  1
  O  O38  1  0.03151269  0.50590972  0.74553361  1
  O  O39  1  0.02640582  0.66271338  0.74992150  1
  O  O40  1  0.02321351  0.83705109  0.75185982  1
  O  O41  1  0.02958655  0.99573803  0.74924291  1
  O  O42  1  0.24143174  0.16489971  -0.01380909  1
  O  O43  1  0.26269650  0.49933194  -0.01708354  1
  O  O44  1  0.25740704  0.83118622  -0.01293252  1
  O  O45  1  0.26287688  0.00014678  0.51730580  1
  O  O46  1  0.26116827  0.33436195  0.51323739  1
  O  O47  1  0.25943487  0.66981725  0.51350247  1
  O  O48  1  0.26424869  0.15649949  0.50014601  1
  O  O49  1  0.26694486  0.34345075  -0.00236441  1
  O  O50  1  0.23527899  0.00900648  0.00174387  1
  O  O51  1  0.26767042  0.49027118  0.49843447  1
  O  O52  1  0.25886259  0.82494005  0.50035501  1
  O  O53  1  0.25863836  0.67555084  0.00171864  1
  O  O54  1  0.46851616  0.16850009  0.75598474  1
  O  O55  1  0.51569527  0.67462003  0.23725054  1
  O  O56  1  0.51825289  0.15866862  0.26209816  1
  O  O57  1  0.47713869  0.83137190  0.76707812  1
  O  O58  1  0.51482563  0.82666273  0.26338083  1
  O  O59  1  0.51998214  0.49092422  0.26410164  1
  O  O60  1  0.53146226  0.00685022  0.24487083  1
  O  O61  1  0.52365139  0.34215563  0.23258468  1
  O  O62  1  0.47889025  0.66909800  0.73483283  1
  O  O63  1  0.48516835  0.33219812  0.73700224  1
  O  O64  1  0.48339672  0.49987915  0.76211299  1
  O  O65  1  0.48376912  0.00121621  0.73805781  1
  O  O66  1  0.76422509  0.00991724  -0.00007101  1
  O  O67  1  0.74179663  0.34380089  0.99635264  1
  O  O68  1  0.73687993  0.15737016  0.50056980  1
  O  O69  1  0.73315874  0.67527056  0.00215333  1
  O  O70  1  0.73502260  0.82448170  0.50030918  1
  O  O71  1  0.73816955  0.48896135  0.50052524  1
  O  O72  1  0.73649793  0.82132772  0.01665516  1
  O  O73  1  0.75968822  0.15587559  0.01402029  1
  O  O74  1  0.74152162  0.48902716  0.01296512  1
  O  O75  1  0.74159965  0.34381502  0.48329475  1
  O  O76  1  0.73381583  0.67843295  0.48587885  1
  O  O77  1  0.74116002  0.01149335  0.48655440  1
  O  O78  1  0.98301119  0.00822667  0.23826773  1
  O  O79  1  0.96990166  0.16192899  0.25306669  1
  O  O80  1  0.97723748  0.33793245  0.24755555  1
  O  O81  1  0.97278482  0.49559929  0.24915432  1
  O  O82  1  0.96789573  0.66984394  0.25380570  1
  O  O83  1  0.96685565  0.82815748  0.25270098  1
