# generated using pymatgen
data_Ca2SbWO6
_symmetry_space_group_name_H-M   'P 1'
_cell_length_a   6.20702502
_cell_length_b   7.16154740
_cell_length_c   8.30503074
_cell_angle_alpha   92.17047879
_cell_angle_beta   132.99803502
_cell_angle_gamma   123.14891899
_symmetry_Int_Tables_number   1
_chemical_formula_structural   Ca2SbWO6
_chemical_formula_sum   'Ca2 Sb1 W1 O6'
_cell_volume   167.64848898
_cell_formula_units_Z   1
loop_
 _symmetry_equiv_pos_site_id
 _symmetry_equiv_pos_as_xyz
  1  'x, y, z'
loop_
 _atom_site_type_symbol
 _atom_site_label
 _atom_site_symmetry_multiplicity
 _atom_site_fract_x
 _atom_site_fract_y
 _atom_site_fract_z
 _atom_site_occupancy
  Ca  Ca0  1  0.08507391  0.67236132  0.32728924  1
  Ca  Ca1  1  0.92944641  0.60129203  0.67908858  1
  Sb  Sb2  1  0.02979547  0.06611970  0.49994439  1
  W  W3  1  0.99155130  0.95360012  0.99458615  1
  O  O4  1  0.22938740  0.07629521  0.36726721  1
  O  O5  1  0.70798981  0.78573382  0.62647283  1
  O  O6  1  0.50162499  0.35947210  0.21110032  1
  O  O7  1  0.49613970  0.87735420  0.79002645  1
  O  O8  1  0.47009956  0.95246816  0.17767697  1
  O  O9  1  0.57566844  0.51015632  0.84070988  1
