# generated using pymatgen
data_Li5Mn2CoO8
_symmetry_space_group_name_H-M   'P 1'
_cell_length_a   3.00611608
_cell_length_b   9.68043018
_cell_length_c   5.03575216
_cell_angle_alpha   87.16475803
_cell_angle_beta   87.36270342
_cell_angle_gamma   82.82920049
_symmetry_Int_Tables_number   1
_chemical_formula_structural   Li5Mn2CoO8
_chemical_formula_sum   'Li5 Mn2 Co1 O8'
_cell_volume   145.10131803
_cell_formula_units_Z   1
loop_
 _symmetry_equiv_pos_site_id
 _symmetry_equiv_pos_as_xyz
  1  'x, y, z'
loop_
 _atom_site_type_symbol
 _atom_site_label
 _atom_site_symmetry_multiplicity
 _atom_site_fract_x
 _atom_site_fract_y
 _atom_site_fract_z
 _atom_site_occupancy
  Li  Li0  1  0.87091545  0.26553132  0.62918338  1
  Li  Li1  1  0.13781155  0.73534951  0.37812551  1
  Li  Li2  1  0.36218845  0.26465049  0.12187449  1
  Li  Li3  1  0.62908455  0.73446868  0.87081662  1
  Li  Li4  1  0.25000000  0.50000000  0.75000000  1
  Mn  Mn5  1  0.00004115  0.00059744  -0.00025942  1
  Mn  Mn6  1  0.49995885  0.99940256  0.50025942  1
  Co  Co7  1  0.75000000  0.50000000  0.25000000  1
  O  O8  1  0.41292725  0.11845118  0.80644289  1
  O  O9  1  0.68693263  0.61205376  0.52505653  1
  O  O10  1  0.91469816  0.11500816  0.31134261  1
  O  O11  1  0.21026749  0.60935938  0.08087238  1
  O  O12  1  0.28973251  0.39064062  0.41912762  1
  O  O13  1  0.58530184  0.88499184  0.18865739  1
  O  O14  1  0.81306737  0.38794624  0.97494347  1
  O  O15  1  0.08707275  0.88154882  0.69355711  1
