# generated using pymatgen
data_Na3DyTi2Nb2O12
_symmetry_space_group_name_H-M   'P 1'
_cell_length_a   5.47232452
_cell_length_b   5.63279130
_cell_length_c   15.47606657
_cell_angle_alpha   89.99974099
_cell_angle_beta   89.99988204
_cell_angle_gamma   89.99810133
_symmetry_Int_Tables_number   1
_chemical_formula_structural   Na3DyTi2Nb2O12
_chemical_formula_sum   'Na6 Dy2 Ti4 Nb4 O24'
_cell_volume   477.04142498
_cell_formula_units_Z   2
loop_
 _symmetry_equiv_pos_site_id
 _symmetry_equiv_pos_as_xyz
  1  'x, y, z'
loop_
 _atom_site_type_symbol
 _atom_site_label
 _atom_site_symmetry_multiplicity
 _atom_site_fract_x
 _atom_site_fract_y
 _atom_site_fract_z
 _atom_site_occupancy
  Na  Na0  1  0.00413956  0.96718567  0.37325444  1
  Na  Na1  1  0.00410683  0.96709740  0.87674691  1
  Na  Na2  1  0.49586991  0.46698561  0.87674396  1
  Na  Na3  1  0.49583538  0.46709154  0.37325797  1
  Na  Na4  1  0.50793353  0.51298100  0.62499045  1
  Na  Na5  1  0.99185549  0.01300575  0.62499007  1
  Dy  Dy6  1  0.51460706  0.56814912  0.12499596  1
  Dy  Dy7  1  0.98552029  0.06817817  0.12499795  1
  Ti  Ti8  1  0.01527526  0.52987912  0.99846872  1
  Ti  Ti9  1  0.01527760  0.52988533  0.25152809  1
  Ti  Ti10  1  0.48485337  0.02986482  0.25152632  1
  Ti  Ti11  1  0.48485322  0.02985995  0.99847318  1
  Nb  Nb12  1  0.99759123  0.48129903  0.49761194  1
  Nb  Nb13  1  0.99757978  0.48122978  0.75238957  1
  Nb  Nb14  1  0.50218783  0.98120483  0.75239834  1
  Nb  Nb15  1  0.50219284  0.98126075  0.49760430  1
  O  O16  1  0.09849463  0.46517789  0.12499928  1
  O  O17  1  0.07823078  0.49048819  0.62500337  1
  O  O18  1  0.21720537  0.22122682  0.47774940  1
  O  O19  1  0.19661478  0.19413151  0.26134531  1
  O  O20  1  0.21711034  0.22111972  0.77225273  1
  O  O21  1  0.19659818  0.19411838  0.98864900  1
  O  O22  1  0.30349908  0.69411712  0.26135900  1
  O  O23  1  0.28277279  0.72119409  0.47774804  1
  O  O24  1  0.28284725  0.72109931  0.77225149  1
  O  O25  1  0.30352142  0.69411049  0.98864211  1
  O  O26  1  0.40161116  0.96513061  0.12500007  1
  O  O27  1  0.42165951  0.99046375  0.62500082  1
  O  O28  1  0.57267144  0.02077744  0.87950791  1
  O  O29  1  0.57268585  0.02077382  0.37049212  1
  O  O30  1  0.70121306  0.28164172  0.03242379  1
  O  O31  1  0.70122695  0.28163705  0.21757563  1
  O  O32  1  0.71472073  0.28569398  0.73186829  1
  O  O33  1  0.71479600  0.28563905  0.51813756  1
  O  O34  1  0.79889118  0.78166284  0.03242678  1
  O  O35  1  0.79888247  0.78166266  0.21757140  1
  O  O36  1  0.78516352  0.78566233  0.51814563  1
  O  O37  1  0.78522017  0.78570060  0.73186759  1
  O  O38  1  0.92733842  0.52080823  0.37049121  1
  O  O39  1  0.92734673  0.52080251  0.87951131  1
