# generated using pymatgen
data_Er7(CuTe4)3
_symmetry_space_group_name_H-M   'P 1'
_cell_length_a   14.21739811
_cell_length_b   42.68822798
_cell_length_c   28.13419248
_cell_angle_alpha   8.66182527
_cell_angle_beta   15.27581531
_cell_angle_gamma   17.50980489
_symmetry_Int_Tables_number   1
_chemical_formula_structural   Er7(CuTe4)3
_chemical_formula_sum   'Er7 Cu3 Te12'
_cell_volume   677.51411431
_cell_formula_units_Z   1
loop_
 _symmetry_equiv_pos_site_id
 _symmetry_equiv_pos_as_xyz
  1  'x, y, z'
loop_
 _atom_site_type_symbol
 _atom_site_label
 _atom_site_symmetry_multiplicity
 _atom_site_fract_x
 _atom_site_fract_y
 _atom_site_fract_z
 _atom_site_occupancy
  Er  Er0  1  0.58207093  0.99888011  0.58403840  1
  Er  Er1  1  0.41638060  0.33447257  0.41534670  1
  Er  Er2  1  0.58207917  0.33444868  0.58068040  1
  Er  Er3  1  0.99780385  0.66666409  0.99860089  1
  Er  Er4  1  0.41906951  0.66667406  0.41568547  1
  Er  Er5  1  0.57952883  0.66668102  0.58364804  1
  Er  Er6  1  0.41638354  0.99884578  0.41878748  1
  Cu  Cu7  1  0.81355386  0.00040188  0.81240267  1
  Cu  Cu8  1  0.81350934  0.33293290  0.81358196  1
  Cu  Cu9  1  0.81382752  0.66665632  0.81290972  1
  Te  Te10  1  0.12798704  -0.00000854  0.12781135  1
  Te  Te11  1  0.29266636  0.00114475  0.29047591  1
  Te  Te12  1  0.12799443  0.33333047  0.12780944  1
  Te  Te13  1  0.29267901  0.33218253  0.29390481  1
  Te  Te14  1  0.70694456  0.00207483  0.70600912  1
  Te  Te15  1  0.12760245  0.66667529  0.12828087  1
  Te  Te16  1  0.87521621  0.99998685  0.87474867  1
  Te  Te17  1  0.29098125  0.66667636  0.29316549  1
  Te  Te18  1  0.70695129  0.33126513  0.71221180  1
  Te  Te19  1  0.87518323  0.33334111  0.87472622  1
  Te  Te20  1  0.71141986  0.66666463  0.70679445  1
  Te  Te21  1  0.87576716  0.66667619  0.87398014  1
