# generated using pymatgen
data_Bi15PO25
_symmetry_space_group_name_H-M   'P 1'
_cell_length_a   44.79144188
_cell_length_b   17.15308433
_cell_length_c   17.15308483
_cell_angle_alpha   50.47160269
_cell_angle_beta   29.49188832
_cell_angle_gamma   29.49188848
_symmetry_Int_Tables_number   1
_chemical_formula_structural   Bi15PO25
_chemical_formula_sum   'Bi60 P4 O100'
_cell_volume   2766.11612276
_cell_formula_units_Z   4
loop_
 _symmetry_equiv_pos_site_id
 _symmetry_equiv_pos_as_xyz
  1  'x, y, z'
loop_
 _atom_site_type_symbol
 _atom_site_label
 _atom_site_symmetry_multiplicity
 _atom_site_fract_x
 _atom_site_fract_y
 _atom_site_fract_z
 _atom_site_occupancy
  Bi  Bi0  1  0.11764317  0.30322318  0.15528541  1
  Bi  Bi1  1  0.02278417  0.69965424  0.17731310  1
  Bi  Bi2  1  0.17340253  0.14766349  0.34262748  1
  Bi  Bi3  1  0.11250653  0.49468249  0.30014465  1
  Bi  Bi4  1  0.07657678  0.83126213  0.13071345  1
  Bi  Bi5  1  0.20098876  0.15243070  0.49520768  1
  Bi  Bi6  1  0.01309035  0.79945973  0.49203296  1
  Bi  Bi7  1  0.31828465  0.30016812  0.15445087  1
  Bi  Bi8  1  0.11230581  0.20529440  0.86422760  1
  Bi  Bi9  1  0.09479945  0.50496928  0.65597692  1
  Bi  Bi10  1  0.20799251  0.70743282  0.20174921  1
  Bi  Bi11  1  0.01745988  0.85332555  0.70019513  1
  Bi  Bi12  1  0.37365778  0.14483115  0.34558592  1
  Bi  Bi13  1  0.15468443  0.34911244  0.83947854  1
  Bi  Bi14  1  0.30883721  0.50798372  0.30374935  1
  Bi  Bi15  1  0.27292859  0.84471459  0.14793777  1
  Bi  Bi16  1  0.09876366  0.69167059  0.82315036  1
  Bi  Bi17  1  0.39348380  0.16284292  0.50416327  1
  Bi  Bi18  1  0.20009727  0.82268690  0.52234114  1
  Bi  Bi19  1  0.51482206  0.30083771  0.16434698  1
  Bi  Bi20  1  0.32106602  0.19496399  0.85233651  1
  Bi  Bi21  1  0.27940266  0.52253550  0.69019157  1
  Bi  Bi22  1  0.41265118  0.69985535  0.19453784  1
  Bi  Bi23  1  0.20729023  0.86928655  0.70054869  1
  Bi  Bi24  1  0.56912236  0.14893888  0.34823853  1
  Bi  Bi25  1  0.35341946  0.34277698  0.84756930  1
  Bi  Bi26  1  0.50512331  0.50796704  0.30742677  1
  Bi  Bi27  1  0.47273552  0.84554913  0.14571725  1
  Bi  Bi28  1  0.31760020  0.65893321  0.79470560  1
  Bi  Bi29  1  0.59976873  0.15100765  0.49503072  1
  Bi  Bi30  1  0.40974172  0.79825079  0.50568361  1
  Bi  Bi31  1  0.71765501  0.29980487  0.15313042  1
  Bi  Bi32  1  0.51848893  0.20075477  0.85516885  1
  Bi  Bi33  1  0.50379686  0.49036610  0.65088756  1
  Bi  Bi34  1  0.61258656  0.69625065  0.20423437  1
  Bi  Bi35  1  0.42086636  0.85206223  0.69677682  1
  Bi  Bi36  1  0.79043425  0.13147977  0.30832941  1
  Bi  Bi37  1  0.55632672  0.34132035  0.83715708  1
  Bi  Bi38  1  0.72243841  0.47765886  0.30034576  1
  Bi  Bi39  1  0.67916904  0.83565302  0.13649073  1
  Bi  Bi40  1  0.51603002  0.65737252  0.80503601  1
  Bi  Bi41  1  0.80193817  0.16765606  0.47746450  1
  Bi  Bi42  1  0.60718902  0.80546216  0.50531751  1
  Bi  Bi43  1  0.90783892  0.29945131  0.16873787  1
  Bi  Bi44  1  0.71806124  0.19929965  0.85106112  1
  Bi  Bi45  1  0.69619644  0.50479232  0.65722302  1
  Bi  Bi46  1  0.81255007  0.69257323  0.20054027  1
  Bi  Bi47  1  0.61845277  0.85428275  0.69983188  1
  Bi  Bi48  1  0.97653341  0.13577240  0.34106679  1
  Bi  Bi49  1  0.75077638  0.34402308  0.84899235  1
  Bi  Bi50  1  0.91542533  0.49431639  0.29256718  1
  Bi  Bi51  1  0.87078543  0.84686958  0.14667445  1
  Bi  Bi52  1  0.71924370  0.65441408  0.79924523  1
  Bi  Bi53  1  0.99416297  0.16052146  0.50963390  1
  Bi  Bi54  1  0.81682093  0.79576563  0.49201628  1
  Bi  Bi55  1  0.92191402  0.17684964  0.86852023  1
  Bi  Bi56  1  0.89764707  0.49583673  0.65867965  1
  Bi  Bi57  1  0.81565977  0.86350927  0.69916229  1
  Bi  Bi58  1  0.96959423  0.30980843  0.83234394  1
  Bi  Bi59  1  0.91736089  0.65176147  0.80070035  1
  P  P60  1  0.20014288  0.00000000  0.00000000  1
  P  P61  1  0.40017871  1.00000000  1.00000000  1
  P  P62  1  0.59998371  0.00000000  0.00000000  1
  P  P63  1  0.79954421  1.00000000  1.00000000  1
  O  O64  1  0.07453485  1.00000000  1.00000000  1
  O  O65  1  0.16483985  1.00000000  1.00000000  1
  O  O66  1  0.03975781  0.40372443  0.99731235  1
  O  O67  1  0.03707016  0.00268765  0.40641209  1
  O  O68  1  0.09460932  0.17722819  0.17378904  1
  O  O69  1  0.28117414  0.00000000  0.00000000  1
  O  O70  1  0.07047224  0.25999100  0.37504342  1
  O  O71  1  0.16018500  0.35775542  0.11372803  1
  O  O72  1  0.03097091  0.24425984  0.61942836  1
  O  O73  1  0.10800479  0.00031015  0.73013365  1
  O  O74  1  0.10831494  0.72982350  0.99968985  1
  O  O75  1  0.36515088  1.00000000  1.00000000  1
  O  O76  1  0.24389198  0.39041068  0.99995349  1
  O  O77  1  0.24384547  0.00004651  0.39045719  1
  O  O78  1  0.05765912  0.36998722  0.61394796  1
  O  O79  1  0.29510332  0.17505972  0.17535853  1
  O  O80  1  0.12999384  0.11835923  0.73753129  1
  O  O81  1  0.12639628  0.61304098  0.25581210  1
  O  O82  1  0.04189965  0.59662387  0.59544273  1
  O  O83  1  0.07419383  0.87743614  0.24893779  1
  O  O84  1  0.07455089  0.37828537  0.75398244  1
  O  O85  1  0.48036377  1.00000000  1.00000000  1
  O  O86  1  0.26892387  0.26170353  0.37639716  1
  O  O87  1  0.14391079  0.63905050  0.37767429  1
  O  O88  1  0.35820782  0.35950702  0.11350666  1
  O  O89  1  0.22945106  0.24642850  0.62326063  1
  O  O90  1  0.27183750  0.99656086  0.82277181  1
  O  O91  1  0.26839836  0.82621096  0.00343914  1
  O  O92  1  0.04265790  0.63014230  0.88574301  1
  O  O93  1  0.18124196  0.74060370  0.36395990  1
  O  O94  1  0.56493153  1.00000000  1.00000000  1
  O  O95  1  0.43796131  0.40407492  0.00142095  1
  O  O96  1  0.43938227  0.99857905  0.40265397  1
  O  O97  1  0.11646813  0.75753625  0.63926206  1
  O  O98  1  0.25038147  0.37658993  0.62546081  1
  O  O99  1  0.49458008  0.17516621  0.17589866  1
  O  O100  1  0.33046324  0.11505241  0.74000900  1
  O  O101  1  0.32040258  0.62950464  0.25980497  1
  O  O102  1  0.22441750  0.62602942  0.62572793  1
  O  O103  1  0.27391303  0.88627197  0.24402739  1
  O  O104  1  0.27523075  0.37516852  0.75574016  1
  O  O105  1  0.68079137  1.00000000  1.00000000  1
  O  O106  1  0.47052470  0.25926873  0.37925257  1
  O  O107  1  0.34535656  0.63910969  0.37621379  1
  O  O108  1  0.55662878  0.36318792  0.11489533  1
  O  O109  1  0.42764634  0.24396075  0.63001278  1
  O  O110  1  0.47016304  0.00029881  0.82494028  1
  O  O111  1  0.47046185  0.82464147  0.99970119  1
  O  O112  1  0.24835307  0.61917207  0.88164077  1
  O  O113  1  0.38220838  0.74418790  0.35722888  1
  O  O114  1  0.76477927  1.00000000  1.00000000  1
  O  O115  1  0.63734238  0.40455727  0.00118115  1
  O  O116  1  0.63852352  0.99881885  0.40337613  1
  O  O117  1  0.32313162  0.75106221  0.62849836  1
  O  O118  1  0.45283625  0.37569707  0.62171463  1
  O  O119  1  0.69465460  0.17397116  0.17683312  1
  O  O120  1  0.53062740  0.11469363  0.73829647  1
  O  O121  1  0.52158508  0.62232571  0.26137621  1
  O  O122  1  0.44348225  0.59358791  0.59627557  1
  O  O123  1  0.47171448  0.88649334  0.24600036  1
  O  O124  1  0.47587956  0.37683214  0.75357150  1
  O  O125  1  0.87819578  0.00000000  0.00000000  1
  O  O126  1  0.67280020  0.25560071  0.36985770  1
  O  O127  1  0.54520186  0.63604010  0.37664380  1
  O  O128  1  0.75573020  0.36073794  0.11827419  1
  O  O129  1  0.62697141  0.24887088  0.62341007  1
  O  O130  1  0.66974629  0.00073245  0.82483379  1
  O  O131  1  0.67047874  0.82410134  0.99926755  1
  O  O132  1  0.44551565  0.62495658  0.88494759  1
  O  O133  1  0.58020755  0.74019503  0.36969967  1
  O  O134  1  0.94598139  0.00000000  0.00000000  1
  O  O135  1  0.85014543  0.37427207  0.00030148  1
  O  O136  1  0.85044691  0.99969852  0.37397058  1
  O  O137  1  0.51794041  0.75597261  0.64224458  1
  O  O138  1  0.65039927  0.38057164  0.62483148  1
  O  O139  1  0.83813844  0.26986635  0.27017650  1
  O  O140  1  0.72979343  0.11998385  0.74073127  1
  O  O141  1  0.72157036  0.62378621  0.26289590  1
  O  O142  1  0.63430266  0.60954281  0.60958932  1
  O  O143  1  0.67152411  0.88510467  0.24829259  1
  O  O144  1  0.67160708  0.38605204  0.75603925  1
  O  O145  1  0.86752513  0.26246871  0.38082793  1
  O  O146  1  0.73943727  0.64277112  0.38695902  1
  O  O147  1  0.95162998  0.37150164  0.12256386  1
  O  O148  1  0.82853332  0.24601756  0.62430293  1
  O  O149  1  0.86862576  0.00286197  0.82602884  1
  O  O150  1  0.87148772  0.82316688  0.99713803  1
  O  O151  1  0.64532103  0.62360284  0.88530637  1
  O  O152  1  0.78296129  0.73862379  0.36094950  1
  O  O153  1  0.71771485  0.75399964  0.64049298  1
  O  O154  1  0.85271170  0.37673937  0.62316786  1
  O  O155  1  0.92840091  0.11425699  0.74439929  1
  O  O156  1  0.92184566  0.62335620  0.25939630  1
  O  O157  1  0.84203624  0.59734603  0.59592508  1
  O  O158  1  0.87400438  0.88172581  0.24246375  1
  O  O159  1  0.87584229  0.37453919  0.75112912  1
  O  O160  1  0.94990722  0.63030033  0.37049536  1
  O  O161  1  0.84977727  0.62074743  0.88001615  1
  O  O162  1  0.98446626  0.73710410  0.36089031  1
  O  O163  1  0.91981670  0.75170741  0.63681208  1
