# generated using pymatgen
data_BaMnO3
_symmetry_space_group_name_H-M   'P 1'
_cell_length_a   12.56833787
_cell_length_b   12.56833765
_cell_length_c   12.56833753
_cell_angle_alpha   26.51346105
_cell_angle_beta   26.51346290
_cell_angle_gamma   26.51346259
_symmetry_Int_Tables_number   1
_chemical_formula_structural   BaMnO3
_chemical_formula_sum   'Ba5 Mn5 O15'
_cell_volume   348.74101447
_cell_formula_units_Z   5
loop_
 _symmetry_equiv_pos_site_id
 _symmetry_equiv_pos_as_xyz
  1  'x, y, z'
loop_
 _atom_site_type_symbol
 _atom_site_label
 _atom_site_symmetry_multiplicity
 _atom_site_fract_x
 _atom_site_fract_y
 _atom_site_fract_z
 _atom_site_occupancy
  Ba  Ba0  1  0.73462207  0.73462207  0.73462207  1
  Ba  Ba1  1  0.86601871  0.86601871  0.86601871  1
  Ba  Ba2  1  0.00000000  0.00000000  0.00000000  1
  Ba  Ba3  1  0.13398129  0.13398129  0.13398129  1
  Ba  Ba4  1  0.26537793  0.26537793  0.26537793  1
  Mn  Mn5  1  0.56868497  0.56868497  0.56868497  1
  Mn  Mn6  1  0.63851130  0.63851130  0.63851130  1
  Mn  Mn7  1  0.36148870  0.36148870  0.36148870  1
  Mn  Mn8  1  0.43131503  0.43131503  0.43131503  1
  Mn  Mn9  1  0.50000000  0.50000000  0.50000000  1
  O  O10  1  0.38486730  0.83183480  0.38486730  1
  O  O11  1  0.38486730  0.38486730  0.83183480  1
  O  O12  1  0.83183480  0.38486730  0.38486730  1
  O  O13  1  0.50000000  0.00000000  0.50000000  1
  O  O14  1  0.00000000  0.50000000  0.50000000  1
  O  O15  1  0.50000000  0.50000000  0.00000000  1
  O  O16  1  0.16816520  0.61513270  0.61513270  1
  O  O17  1  0.61513270  0.61513270  0.16816520  1
  O  O18  1  0.61513270  0.16816520  0.61513270  1
  O  O19  1  0.25056885  0.25056885  0.69169552  1
  O  O20  1  0.25056885  0.69169552  0.25056885  1
  O  O21  1  0.69169552  0.25056885  0.25056885  1
  O  O22  1  0.30830448  0.74943115  0.74943115  1
  O  O23  1  0.74943115  0.74943115  0.30830448  1
  O  O24  1  0.74943115  0.30830448  0.74943115  1
