# generated using pymatgen
data_Sr2V3O9
_symmetry_space_group_name_H-M   'P 1'
_cell_length_a   7.10910000
_cell_length_b   7.46608288
_cell_length_c   9.02945398
_cell_angle_alpha   103.40797554
_cell_angle_beta   101.80939204
_cell_angle_gamma   116.58042222
_symmetry_Int_Tables_number   1
_chemical_formula_structural   Sr2V3O9
_chemical_formula_sum   'Sr4 V6 O18'
_cell_volume   389.84057942
_cell_formula_units_Z   2
loop_
 _symmetry_equiv_pos_site_id
 _symmetry_equiv_pos_as_xyz
  1  'x, y, z'
loop_
 _atom_site_type_symbol
 _atom_site_label
 _atom_site_symmetry_multiplicity
 _atom_site_fract_x
 _atom_site_fract_y
 _atom_site_fract_z
 _atom_site_occupancy
  Sr  Sr0  1  0.12099443  0.87500604  0.75158462  1
  Sr  Sr1  1  0.30037191  0.55484466  0.09978795  1
  Sr  Sr2  1  0.69842782  0.45062678  0.90097056  1
  Sr  Sr3  1  0.87601730  0.12165422  0.24829478  1
  V  V4  1  0.09020075  0.34324565  0.68292172  1
  V  V5  1  0.66700695  0.91805962  0.84122909  1
  V  V6  1  0.49654409  0.52600186  0.49123045  1
  V  V7  1  0.33168962  0.08251861  0.15844851  1
  V  V8  1  0.50443474  0.03527034  0.50914615  1
  V  V9  1  0.91063032  0.65793795  0.31715497  1
  O  O10  1  0.04681687  0.52110744  0.81081463  1
  O  O11  1  0.17045894  0.88954170  0.44690334  1
  O  O12  1  0.07633271  0.86125156  0.03957363  1
  O  O13  1  0.21841468  0.44048548  0.54849233  1
  O  O14  1  0.26103588  0.28873774  0.80596351  1
  O  O15  1  0.53878005  0.82099165  0.96795425  1
  O  O16  1  0.48884652  0.00092852  0.27919344  1
  O  O17  1  0.47512680  0.71683655  0.42701466  1
  O  O18  1  0.29355815  0.28463801  0.27613119  1
  O  O19  1  0.70282703  0.71410673  0.72285597  1
  O  O20  1  0.54109023  0.28707344  0.57376579  1
  O  O21  1  0.50630637  0.99656154  0.72088237  1
  O  O22  1  0.46217243  0.17834697  0.03272351  1
  O  O23  1  0.73845888  0.70830391  0.19100421  1
  O  O24  1  0.77861310  0.56143414  0.44987117  1
  O  O25  1  0.92225343  0.13894285  0.95919200  1
  O  O26  1  0.82751605  0.11488731  0.55464142  1
  O  O27  1  0.95633395  0.47971870  0.19225376  1
