# generated using pymatgen
data_H4S(NO)2
_symmetry_space_group_name_H-M   'P 1'
_cell_length_a   9.72379890
_cell_length_b   8.87187467
_cell_length_c   5.15482050
_cell_angle_alpha   83.40511597
_cell_angle_beta   65.24451470
_cell_angle_gamma   31.75329884
_symmetry_Int_Tables_number   1
_chemical_formula_structural   H4S(NO)2
_chemical_formula_sum   'H8 S2 N4 O4'
_cell_volume   183.46232790
_cell_formula_units_Z   2
loop_
 _symmetry_equiv_pos_site_id
 _symmetry_equiv_pos_as_xyz
  1  'x, y, z'
loop_
 _atom_site_type_symbol
 _atom_site_label
 _atom_site_symmetry_multiplicity
 _atom_site_fract_x
 _atom_site_fract_y
 _atom_site_fract_z
 _atom_site_occupancy
  H  H0  1  0.68804391  0.72082677  0.10108710  1
  H  H1  1  0.48740348  0.10861583  0.72164571  1
  H  H2  1  0.13795695  0.76782951  0.56550912  1
  H  H3  1  0.52635968  0.57192243  0.76381602  1
  H  H4  1  0.42969721  0.86294239  0.06162319  1
  H  H5  1  0.65675563  0.04885815  0.86076451  1
  H  H6  1  0.19626130  0.59928236  0.81582450  1
  H  H7  1  0.37987556  0.83010473  0.60626417  1
  S  S8  1  0.24382761  0.25756608  0.25579224  1
  S  S9  1  0.99237932  0.00902861  0.00810166  1
  N  N10  1  0.44671790  0.91608209  0.19970771  1
  N  N11  1  0.44368018  0.19619798  0.91627430  1
  N  N12  1  0.05303048  0.81031013  0.80334094  1
  N  N13  1  0.32914782  0.81275093  0.81460813  1
  O  O14  1  0.93534130  0.49473290  0.32557890  1
  O  O15  1  0.23712938  0.33619409  0.49748839  1
  O  O16  1  0.92115242  0.00737594  0.31655775  1
  O  O17  1  0.75122687  0.32122509  0.01406765  1
