# generated using pymatgen
data_Ca6Ti5AlSi6O29F
_symmetry_space_group_name_H-M   'P 1'
_cell_length_a   5.47784269
_cell_length_b   5.47736564
_cell_length_c   42.83199602
_cell_angle_alpha   104.24246412
_cell_angle_beta   104.22670036
_cell_angle_gamma   105.92578501
_symmetry_Int_Tables_number   1
_chemical_formula_structural   Ca6Ti5AlSi6O29F
_chemical_formula_sum   'Ca12 Ti10 Al2 Si12 O58 F2'
_cell_volume   1128.14404639
_cell_formula_units_Z   2
loop_
 _symmetry_equiv_pos_site_id
 _symmetry_equiv_pos_as_xyz
  1  'x, y, z'
loop_
 _atom_site_type_symbol
 _atom_site_label
 _atom_site_symmetry_multiplicity
 _atom_site_fract_x
 _atom_site_fract_y
 _atom_site_fract_z
 _atom_site_occupancy
  Ca  Ca0  1  0.15349201  0.82301000  0.95423854  1
  Ca  Ca1  1  0.17629581  0.84141407  0.79244462  1
  Ca  Ca2  1  0.16942148  0.83196673  0.62589945  1
  Ca  Ca3  1  0.16925919  0.83245482  0.45912019  1
  Ca  Ca4  1  0.83566833  0.16176795  0.87214164  1
  Ca  Ca5  1  0.16909594  0.83259922  0.29241870  1
  Ca  Ca6  1  0.83369827  0.17051249  0.70982352  1
  Ca  Ca7  1  0.16694752  0.83214929  0.12525642  1
  Ca  Ca8  1  0.83236425  0.16926598  0.54248164  1
  Ca  Ca9  1  0.83259992  0.16922892  0.37577067  1
  Ca  Ca10  1  0.83253748  0.16868373  0.20899959  1
  Ca  Ca11  1  0.82947311  0.16083241  0.04105528  1
  Ti  Ti12  1  0.49974723  0.48519354  0.00201677  1
  Ti  Ti13  1  0.50423676  0.51088521  0.75334275  1
  Ti  Ti14  1  0.50570261  0.49747660  0.66904110  1
  Ti  Ti15  1  0.49697247  0.50464102  0.58538478  1
  Ti  Ti16  1  0.50452658  0.49689577  0.50189038  1
  Ti  Ti17  1  0.49703765  0.50451546  0.41849258  1
  Ti  Ti18  1  0.50451625  0.49711559  0.33515140  1
  Ti  Ti19  1  0.49691696  0.50439907  0.25186720  1
  Ti  Ti20  1  0.50387804  0.49626798  0.16860554  1
  Ti  Ti21  1  0.49370959  0.50218620  0.08519952  1
  Al  Al22  1  0.49459980  0.49596782  0.91551766  1
  Al  Al23  1  0.50071402  0.50819051  0.83299845  1
  Si  Si24  1  0.18798555  0.81710710  0.87524981  1
  Si  Si25  1  0.18515136  0.81879997  0.70887511  1
  Si  Si26  1  0.18333822  0.81648802  0.54154135  1
  Si  Si27  1  0.80502319  0.17625687  0.95535421  1
  Si  Si28  1  0.18323975  0.81633884  0.37479717  1
  Si  Si29  1  0.82688999  0.19591053  0.79420359  1
  Si  Si30  1  0.18309307  0.81618843  0.20812916  1
  Si  Si31  1  0.81699173  0.18352124  0.62509478  1
  Si  Si32  1  0.18053998  0.81213526  0.04020588  1
  Si  Si33  1  0.81638054  0.18323838  0.45817419  1
  Si  Si34  1  0.81628402  0.18322312  0.29148104  1
  Si  Si35  1  0.81569460  0.18285076  0.12467884  1
  O  O36  1  0.11577671  0.25477463  0.98211571  1
  O  O37  1  0.19863740  0.60912117  0.89807068  1
  O  O38  1  0.13230400  0.25847004  0.81984910  1
  O  O39  1  0.25845002  0.12903065  0.90101702  1
  O  O40  1  0.39744311  0.80627250  0.85345095  1
  O  O41  1  0.18647917  0.60844752  0.73056789  1
  O  O42  1  0.11901779  0.25080038  0.65175025  1
  O  O43  1  0.43410805  0.57236739  0.79250707  1
  O  O44  1  0.60365895  0.18487938  0.97891243  1
  O  O45  1  0.73913450  0.86712373  0.93114492  1
  O  O46  1  0.25169291  0.12049157  0.73541995  1
  O  O47  1  0.39484317  0.81458611  0.68683412  1
  O  O48  1  0.18397676  0.60543737  0.56308471  1
  O  O49  1  0.79667136  0.39092858  0.93444062  1
  O  O50  1  0.11806190  0.25062085  0.48483424  1
  O  O51  1  0.43010066  0.57150747  0.62470810  1
  O  O52  1  0.61358345  0.20114975  0.81574942  1
  O  O53  1  0.75018664  0.89031145  0.76648517  1
  O  O54  1  0.25063133  0.11830345  0.56822586  1
  O  O55  1  0.39385219  0.81405509  0.51972185  1
  O  O56  1  0.57430989  0.43335613  0.70866860  1
  O  O57  1  0.87620799  0.74093833  0.85037937  1
  O  O58  1  0.18370087  0.60503067  0.39629506  1
  O  O59  1  0.81768443  0.39982278  0.77120000  1
  O  O60  1  0.11807471  0.25064040  0.31816134  1
  O  O61  1  0.42874883  0.57122739  0.45775045  1
  O  O62  1  0.60591801  0.18416431  0.64663169  1
  O  O63  1  0.74994397  0.88211326  0.59776727  1
  O  O64  1  0.25062139  0.11815151  0.40150436  1
  O  O65  1  0.39390447  0.81408006  0.35302715  1
  O  O66  1  0.57130773  0.42903131  0.54114558  1
  O  O67  1  0.88307862  0.74975634  0.68139708  1
  O  O68  1  0.18365429  0.60494639  0.22961411  1
  O  O69  1  0.81424332  0.39385889  0.60319611  1
  O  O70  1  0.11736698  0.25030401  0.15139376  1
  O  O71  1  0.42842655  0.57124115  0.29108946  1
  O  O72  1  0.60516961  0.18368724  0.47963297  1
  O  O73  1  0.74973927  0.88185462  0.43092356  1
  O  O74  1  0.25052462  0.11791690  0.23481167  1
  O  O75  1  0.39387495  0.81369872  0.18636337  1
  O  O76  1  0.57120971  0.42852953  0.37440179  1
  O  O77  1  0.88200711  0.74968991  0.51430457  1
  O  O78  1  0.18387012  0.60262248  0.06220586  1
  O  O79  1  0.81406748  0.39392490  0.43635321  1
  O  O80  1  0.42535833  0.56981791  0.12431496  1
  O  O81  1  0.60507132  0.18368009  0.31294845  1
  O  O82  1  0.74963156  0.88175746  0.26426744  1
  O  O83  1  0.25153265  0.11559145  0.06725947  1
  O  O84  1  0.39073541  0.80779476  0.01840831  1
  O  O85  1  0.57104973  0.42788476  0.20777465  1
  O  O86  1  0.88195454  0.74966622  0.34759602  1
  O  O87  1  0.81396079  0.39397569  0.26969042  1
  O  O88  1  0.60463850  0.18351494  0.14619328  1
  O  O89  1  0.74857356  0.88025171  0.09756466  1
  O  O90  1  0.56968948  0.42307079  0.04078094  1
  O  O91  1  0.88121367  0.74930362  0.18095817  1
  O  O92  1  0.81303915  0.39411268  0.10297708  1
  O  O93  1  0.87584198  0.74633561  0.01399080  1
  F  F94  1  0.42922448  0.57274263  0.95634198  1
  F  F95  1  0.56819658  0.43155444  0.87488142  1
