# generated using pymatgen
data_Na7Bi3P12(Pb5O24)2
_symmetry_space_group_name_H-M   'P 1'
_cell_length_a   9.80639235
_cell_length_b   9.74487317
_cell_length_c   14.33344171
_cell_angle_alpha   90.05668387
_cell_angle_beta   89.98977905
_cell_angle_gamma   119.78360806
_symmetry_Int_Tables_number   1
_chemical_formula_structural   Na7Bi3P12(Pb5O24)2
_chemical_formula_sum   'Na7 Bi3 P12 Pb10 O48'
_cell_volume   1188.80107996
_cell_formula_units_Z   1
loop_
 _symmetry_equiv_pos_site_id
 _symmetry_equiv_pos_as_xyz
  1  'x, y, z'
loop_
 _atom_site_type_symbol
 _atom_site_label
 _atom_site_symmetry_multiplicity
 _atom_site_fract_x
 _atom_site_fract_y
 _atom_site_fract_z
 _atom_site_occupancy
  Na  Na0  1  0.27990634  0.00139658  0.87505170  1
  Na  Na1  1  0.33571947  0.66852689  0.49145578  1
  Na  Na2  1  0.33160409  0.66783159  0.00342851  1
  Na  Na3  1  0.33269785  0.66555035  0.25846004  1
  Na  Na4  1  0.66849304  0.33657856  0.24828335  1
  Na  Na5  1  0.66406972  0.32845112  0.74876877  1
  Na  Na6  1  0.72302547  0.99958983  0.62407258  1
  Bi  Bi7  1  0.34768730  0.68239615  0.75395814  1
  Bi  Bi8  1  0.65254127  0.32593930  0.00108589  1
  Bi  Bi9  1  0.66525505  0.32158055  0.50646870  1
  P  P10  1  0.01881643  0.40018938  0.12104598  1
  P  P11  1  0.02342391  0.40393648  0.62429348  1
  P  P12  1  0.37617724  0.97492453  0.11893482  1
  P  P13  1  0.37316373  0.96817613  0.62734233  1
  P  P14  1  0.40214650  0.37493369  0.37717439  1
  P  P15  1  0.40636466  0.37952107  0.87307374  1
  P  P16  1  0.59502435  0.61893389  0.12145770  1
  P  P17  1  0.59468097  0.62119716  0.62488316  1
  P  P18  1  0.63066843  0.03270561  0.87042099  1
  P  P19  1  0.62573254  0.02797931  0.37943313  1
  P  P20  1  0.97421859  0.59919879  0.37726630  1
  P  P21  1  0.97928163  0.59838625  0.87232722  1
  Pb  Pb22  1  0.25527242  0.99385706  0.37185703  1
  Pb  Pb23  1  0.00560544  0.26137862  0.37293589  1
  Pb  Pb24  1  0.99662338  0.24876142  0.87226765  1
  Pb  Pb25  1  0.25148916  0.26024208  0.12570000  1
  Pb  Pb26  1  0.25571958  0.25796634  0.62698235  1
  Pb  Pb27  1  0.74960877  0.74437994  0.87228435  1
  Pb  Pb28  1  0.73648936  0.74376478  0.37694184  1
  Pb  Pb29  1  0.00332922  0.75096617  0.62419108  1
  Pb  Pb30  1  0.00954500  0.75038375  0.12508595  1
  Pb  Pb31  1  0.73714161  0.99097197  0.12851026  1
  O  O32  1  0.26970885  0.92070631  0.71693913  1
  O  O33  1  0.26367618  0.92019754  0.03444490  1
  O  O34  1  0.27037133  0.93183616  0.20782528  1
  O  O35  1  0.25960698  0.92159627  0.54216652  1
  O  O36  1  0.10986669  0.58437590  0.12568850  1
  O  O37  1  0.11526967  0.58991239  0.62716747  1
  O  O38  1  0.15219939  0.66801806  0.37891629  1
  O  O39  1  0.15868222  0.66368970  0.86999114  1
  O  O40  1  0.06446681  0.33518578  0.20816680  1
  O  O41  1  0.07942716  0.34613563  0.03602330  1
  O  O42  1  0.07710760  0.34945808  0.71243664  1
  O  O43  1  0.07754250  0.34418581  0.53975500  1
  O  O44  1  0.47049605  0.88496848  0.12292258  1
  O  O45  1  0.45860694  0.86954320  0.62833380  1
  O  O46  1  0.33045523  0.48261705  0.37916674  1
  O  O47  1  0.34670306  0.50041925  0.87336458  1
  O  O48  1  0.51977602  0.84874595  0.38067650  1
  O  O49  1  0.50657949  0.85142315  0.86881116  1
  O  O50  1  0.41199943  0.52781959  0.12731607  1
  O  O51  1  0.40841066  0.53010310  0.62048405  1
  O  O52  1  0.33811875  0.26358678  0.79072456  1
  O  O53  1  0.34015333  0.25829805  0.29273503  1
  O  O54  1  0.36629111  0.26832486  0.46669021  1
  O  O55  1  0.36891760  0.28204672  0.96560332  1
  O  O56  1  0.64901730  0.73008292  0.03512484  1
  O  O57  1  0.66646904  0.74020395  0.54422445  1
  O  O58  1  0.66199805  0.73018474  0.20797296  1
  O  O59  1  0.63136858  0.71728032  0.71800773  1
  O  O60  1  0.58782771  0.47155038  0.37314446  1
  O  O61  1  0.59328283  0.47100910  0.87004811  1
  O  O62  1  0.49406510  0.15782200  0.11723549  1
  O  O63  1  0.49552879  0.14922454  0.62297872  1
  O  O64  1  0.65909048  0.50116324  0.11787446  1
  O  O65  1  0.65360066  0.49938659  0.62491891  1
  O  O66  1  0.54587355  0.13173617  0.87336348  1
  O  O67  1  0.52643627  0.11622647  0.37408994  1
  O  O68  1  0.90607951  0.63704817  0.46710190  1
  O  O69  1  0.91981741  0.66054450  0.29295806  1
  O  O70  1  0.92366066  0.65112546  0.96075457  1
  O  O71  1  0.92155467  0.65606865  0.78771856  1
  O  O72  1  0.83814506  0.33376396  0.11703062  1
  O  O73  1  0.84360073  0.34127712  0.62295760  1
  O  O74  1  0.88330548  0.41161724  0.37454889  1
  O  O75  1  0.88738624  0.41217876  0.87393725  1
  O  O76  1  0.74107832  0.08198808  0.29480502  1
  O  O77  1  0.72820256  0.10119541  0.46964563  1
  O  O78  1  0.74367763  0.07739272  0.78645174  1
  O  O79  1  0.73297787  0.07613740  0.96131095  1
