# generated using pymatgen
data_Ca9LaTi9MnO30
_symmetry_space_group_name_H-M   'P 1'
_cell_length_a   5.43489446
_cell_length_b   5.51743250
_cell_length_c   38.54213425
_cell_angle_alpha   90.00000000
_cell_angle_beta   90.00000000
_cell_angle_gamma   89.93866784
_symmetry_Int_Tables_number   1
_chemical_formula_structural   Ca9LaTi9MnO30
_chemical_formula_sum   'Ca18 La2 Ti18 Mn2 O60'
_cell_volume   1155.74934338
_cell_formula_units_Z   2
loop_
 _symmetry_equiv_pos_site_id
 _symmetry_equiv_pos_as_xyz
  1  'x, y, z'
loop_
 _atom_site_type_symbol
 _atom_site_label
 _atom_site_symmetry_multiplicity
 _atom_site_fract_x
 _atom_site_fract_y
 _atom_site_fract_z
 _atom_site_occupancy
  Ca  Ca0  1  0.01107640  0.95989747  0.15005160  1
  Ca  Ca1  1  0.01160124  0.95929909  0.35000000  1
  Ca  Ca2  1  0.01107640  0.95989747  0.54994840  1
  Ca  Ca3  1  0.01212673  0.96143335  0.74875004  1
  Ca  Ca4  1  0.01212673  0.96143335  0.95124996  1
  Ca  Ca5  1  0.48813364  0.45888893  0.35000000  1
  Ca  Ca6  1  0.48762743  0.45896965  0.14999748  1
  Ca  Ca7  1  0.48762743  0.45896965  0.55000252  1
  Ca  Ca8  1  0.48896484  0.45813245  0.74897551  1
  Ca  Ca9  1  0.48896484  0.45813245  0.95102449  1
  Ca  Ca10  1  0.51313823  0.54102470  0.05020007  1
  Ca  Ca11  1  0.51171490  0.54089258  0.25001717  1
  Ca  Ca12  1  0.51313823  0.54102470  0.64979993  1
  Ca  Ca13  1  0.51171490  0.54089258  0.44998283  1
  Ca  Ca14  1  0.98830803  0.04043155  0.25003395  1
  Ca  Ca15  1  0.98923218  0.03985742  0.05032681  1
  Ca  Ca16  1  0.98830803  0.04043155  0.44996605  1
  Ca  Ca17  1  0.98923218  0.03985742  0.64967319  1
  La  La18  1  0.50663349  0.53033861  0.85000000  1
  La  La19  1  0.99139556  0.02852955  0.85000000  1
  Ti  Ti20  1  0.00616855  0.49734944  0.00137348  1
  Ti  Ti21  1  0.99774064  0.50053742  0.10069002  1
  Ti  Ti22  1  0.99985147  0.49968223  0.20037525  1
  Ti  Ti23  1  0.99977446  0.49994579  0.30011144  1
  Ti  Ti24  1  0.99977446  0.49994579  0.39988856  1
  Ti  Ti25  1  0.99985147  0.49968223  0.49962475  1
  Ti  Ti26  1  0.00019339  0.49966359  0.79689040  1
  Ti  Ti27  1  0.00019339  0.49966359  0.90310960  1
  Ti  Ti28  1  0.49750443  0.00000925  0.09949046  1
  Ti  Ti29  1  0.49980704  0.99993760  0.29991449  1
  Ti  Ti30  1  0.49993093  0.99947630  0.50032496  1
  Ti  Ti31  1  0.50766798  0.99856355  0.99967588  1
  Ti  Ti32  1  0.49993093  0.99947630  0.19967504  1
  Ti  Ti33  1  0.49980704  0.99993760  0.40008551  1
  Ti  Ti34  1  0.49750443  0.00000925  0.60050954  1
  Ti  Ti35  1  0.50766798  0.99856355  0.70032412  1
  Ti  Ti36  1  0.00616855  0.49734944  0.69862652  1
  Ti  Ti37  1  0.99774064  0.50053742  0.59930998  1
  Mn  Mn38  1  0.49852779  0.00012096  0.90163515  1
  Mn  Mn39  1  0.49852779  0.00012096  0.79836485  1
  O  O40  1  0.08309556  0.48068479  0.05004290  1
  O  O41  1  0.08195821  0.48057293  0.24996772  1
  O  O42  1  0.08195821  0.48057293  0.45003228  1
  O  O43  1  0.08309556  0.48068479  0.64995710  1
  O  O44  1  0.06973831  0.48940402  0.85000000  1
  O  O45  1  0.21574284  0.21665143  0.19125019  1
  O  O46  1  0.21548190  0.21621526  0.10875287  1
  O  O47  1  0.21549126  0.21635580  0.30873135  1
  O  O48  1  0.21549126  0.21635580  0.39126865  1
  O  O49  1  0.21548190  0.21621526  0.59124713  1
  O  O50  1  0.21574284  0.21665143  0.50874981  1
  O  O51  1  0.21263754  0.21827697  0.70859668  1
  O  O52  1  0.21154800  0.21997911  0.79124914  1
  O  O53  1  0.21263754  0.21827697  0.99140332  1
  O  O54  1  0.21154800  0.21997911  0.90875086  1
  O  O55  1  0.28383720  0.71571434  0.10880507  1
  O  O56  1  0.28404469  0.71628461  0.19126718  1
  O  O57  1  0.28402442  0.71600883  0.30872392  1
  O  O58  1  0.28402442  0.71600883  0.39127608  1
  O  O59  1  0.28383720  0.71571434  0.59119493  1
  O  O60  1  0.27701760  0.71279519  0.90831145  1
  O  O61  1  0.28304279  0.71635469  0.70859749  1
  O  O62  1  0.27701760  0.71279519  0.79168855  1
  O  O63  1  0.28404469  0.71628461  0.50873282  1
  O  O64  1  0.28304279  0.71635469  0.99140251  1
  O  O65  1  0.41721100  0.98050456  0.05058668  1
  O  O66  1  0.41721100  0.98050456  0.64941332  1
  O  O67  1  0.41839540  0.98065671  0.25008337  1
  O  O68  1  0.41839540  0.98065671  0.44991663  1
  O  O69  1  0.43317851  0.99356346  0.85000000  1
  O  O70  1  0.58162653  0.01957731  0.35000000  1
  O  O71  1  0.58160477  0.01941120  0.15021033  1
  O  O72  1  0.58160477  0.01941120  0.54978967  1
  O  O73  1  0.58653421  0.02229604  0.74788214  1
  O  O74  1  0.58653421  0.02229604  0.95211786  1
  O  O75  1  0.71459411  0.28690316  0.00916208  1
  O  O76  1  0.71652855  0.28372179  0.09129041  1
  O  O77  1  0.71592299  0.28412178  0.29127875  1
  O  O78  1  0.71637986  0.28414844  0.20873056  1
  O  O79  1  0.71652855  0.28372179  0.60870959  1
  O  O80  1  0.71592299  0.28412178  0.40872125  1
  O  O81  1  0.71637986  0.28414844  0.49126944  1
  O  O82  1  0.71459411  0.28690316  0.69083792  1
  O  O83  1  0.72468665  0.28354770  0.80814898  1
  O  O84  1  0.72468665  0.28354770  0.89185102  1
  O  O85  1  0.78419199  0.78528234  0.00926068  1
  O  O86  1  0.78459975  0.78294707  0.09125882  1
  O  O87  1  0.78452904  0.78359127  0.20872566  1
  O  O88  1  0.78438970  0.78374243  0.29126876  1
  O  O89  1  0.78438970  0.78374243  0.40873124  1
  O  O90  1  0.78452904  0.78359127  0.49127434  1
  O  O91  1  0.78459975  0.78294707  0.60874118  1
  O  O92  1  0.78419199  0.78528234  0.69073932  1
  O  O93  1  0.78011534  0.77556478  0.89158578  1
  O  O94  1  0.78011534  0.77556478  0.80841422  1
  O  O95  1  0.91784780  0.51934354  0.14992961  1
  O  O96  1  0.91803853  0.51963511  0.35000000  1
  O  O97  1  0.91784780  0.51934354  0.55007039  1
  O  O98  1  0.91501849  0.52277990  0.74935100  1
  O  O99  1  0.91501849  0.52277990  0.95064900  1
