# generated using pymatgen
data_LiMgCr3(SO4)6
_symmetry_space_group_name_H-M   'P 1'
_cell_length_a   8.86981415
_cell_length_b   17.76171798
_cell_length_c   15.70594446
_cell_angle_alpha   28.04791663
_cell_angle_beta   50.56686807
_cell_angle_gamma   55.93033781
_symmetry_Int_Tables_number   1
_chemical_formula_structural   LiMgCr3(SO4)6
_chemical_formula_sum   'Li2 Mg2 Cr6 S12 O48'
_cell_volume   898.62474386
_cell_formula_units_Z   2
loop_
 _symmetry_equiv_pos_site_id
 _symmetry_equiv_pos_as_xyz
  1  'x, y, z'
loop_
 _atom_site_type_symbol
 _atom_site_label
 _atom_site_symmetry_multiplicity
 _atom_site_fract_x
 _atom_site_fract_y
 _atom_site_fract_z
 _atom_site_occupancy
  Li  Li0  1  0.18383667  0.33653373  0.75859217  1
  Li  Li1  1  0.81616333  0.66346627  0.24140783  1
  Mg  Mg2  1  0.35945904  0.50113717  0.35303788  1
  Mg  Mg3  1  0.64054096  0.49886283  0.64696212  1
  Cr  Cr4  1  0.14838968  0.99446017  0.15906620  1
  Cr  Cr5  1  0.35766814  0.99742888  0.35858226  1
  Cr  Cr6  1  0.15566614  0.49952595  0.14934884  1
  Cr  Cr7  1  0.84433386  0.50047405  0.85065116  1
  Cr  Cr8  1  0.64233186  0.00257112  0.64141774  1
  Cr  Cr9  1  0.85161032  0.00553983  0.84093380  1
  S  S10  1  0.04187316  0.14332357  0.46110094  1
  S  S11  1  0.74656787  0.20978670  0.04306584  1
  S  S12  1  0.53940419  0.35219000  0.25219462  1
  S  S13  1  0.04265567  0.64637678  0.45803499  1
  S  S14  1  0.46069575  0.14268215  0.75392232  1
  S  S15  1  0.75253908  0.70914931  0.03972269  1
  S  S16  1  0.24746092  0.29085069  0.96027731  1
  S  S17  1  0.53930425  0.85731785  0.24607768  1
  S  S18  1  0.95734433  0.35362322  0.54196501  1
  S  S19  1  0.46059581  0.64781000  0.74780538  1
  S  S20  1  0.25343213  0.79021330  0.95693416  1
  S  S21  1  0.95812684  0.85667643  0.53889906  1
  O  O22  1  0.29929116  0.19786827  0.11080436  1
  O  O23  1  0.01781025  0.31256057  0.32612001  1
  O  O24  1  0.02666776  0.03341077  0.65091981  1
  O  O25  1  0.23813167  0.11805701  0.37908197  1
  O  O26  1  0.62090430  0.06703023  0.24152618  1
  O  O27  1  0.34899825  0.34516404  0.28054781  1
  O  O28  1  0.71861797  0.31102318  0.02929030  1
  O  O29  1  0.10752173  0.39119724  0.51314660  1
  O  O30  1  0.95803746  0.15765560  0.01379149  1
  O  O31  1  0.29682289  0.70411691  0.10549387  1
  O  O32  1  0.67578298  0.46584409  0.04797242  1
  O  O33  1  0.62102797  0.18714750  0.38357063  1
  O  O34  1  0.01260491  0.81391015  0.32980678  1
  O  O35  1  0.51314538  0.40371354  0.29796145  1
  O  O36  1  0.02617823  0.53082030  0.65521958  1
  O  O37  1  0.24060686  0.61808513  0.38334865  1
  O  O38  1  0.48693070  0.09728143  0.69988591  1
  O  O39  1  0.37386829  0.30484028  0.62910895  1
  O  O40  1  0.32715547  0.02534990  0.95955707  1
  O  O41  1  0.62336295  0.57250226  0.23478406  1
  O  O42  1  0.04096122  0.34123142  0.99080871  1
  O  O43  1  0.89110874  0.10588216  0.48827741  1
  O  O44  1  0.27360288  0.18909060  0.97224569  1
  O  O45  1  0.34699356  0.84696997  0.28126771  1
  O  O46  1  0.65300644  0.15303003  0.71873229  1
  O  O47  1  0.72639712  0.81090940  0.02775431  1
  O  O48  1  0.10889126  0.89411784  0.51172259  1
  O  O49  1  0.95903878  0.65876858  0.00919129  1
  O  O50  1  0.37663705  0.42749774  0.76521594  1
  O  O51  1  0.67284453  0.97465010  0.04044293  1
  O  O52  1  0.62613171  0.69515972  0.37089105  1
  O  O53  1  0.51306930  0.90271857  0.30011409  1
  O  O54  1  0.75939314  0.38191487  0.61665135  1
  O  O55  1  0.97382177  0.46917970  0.34478042  1
  O  O56  1  0.48685462  0.59628646  0.70203855  1
  O  O57  1  0.98739509  0.18608985  0.67019322  1
  O  O58  1  0.37897203  0.81285250  0.61642937  1
  O  O59  1  0.32421702  0.53415591  0.95202758  1
  O  O60  1  0.70317711  0.29588309  0.89450613  1
  O  O61  1  0.04196254  0.84234440  0.98620851  1
  O  O62  1  0.89247827  0.60880276  0.48685340  1
  O  O63  1  0.28138203  0.68897682  0.97070970  1
  O  O64  1  0.65100175  0.65483596  0.71945219  1
  O  O65  1  0.37909570  0.93296977  0.75847382  1
  O  O66  1  0.76186833  0.88194299  0.62091803  1
  O  O67  1  0.97333224  0.96658923  0.34908019  1
  O  O68  1  0.98218975  0.68743943  0.67387999  1
  O  O69  1  0.70070884  0.80213173  0.88919564  1
