# generated using pymatgen
data_HfP2H4O9
_symmetry_space_group_name_H-M   'P 1'
_cell_length_a   9.15528107
_cell_length_b   5.29225836
_cell_length_c   16.69169939
_cell_angle_alpha   90.00000000
_cell_angle_beta   110.20392055
_cell_angle_gamma   90.00000000
_symmetry_Int_Tables_number   1
_chemical_formula_structural   HfP2H4O9
_chemical_formula_sum   'Hf4 P8 H16 O36'
_cell_volume   758.98534006
_cell_formula_units_Z   4
loop_
 _symmetry_equiv_pos_site_id
 _symmetry_equiv_pos_as_xyz
  1  'x, y, z'
loop_
 _atom_site_type_symbol
 _atom_site_label
 _atom_site_symmetry_multiplicity
 _atom_site_fract_x
 _atom_site_fract_y
 _atom_site_fract_z
 _atom_site_occupancy
  Hf  Hf0  1  0.74045897  0.24503852  0.98463925  1
  Hf  Hf1  1  0.25954103  0.74503852  0.51536075  1
  Hf  Hf2  1  0.25954103  0.75496148  0.01536075  1
  Hf  Hf3  1  0.74045897  0.25496148  0.48463925  1
  P  P4  1  0.96540773  0.74940929  0.10206639  1
  P  P5  1  0.03459227  0.24940929  0.39793361  1
  P  P6  1  0.03459227  0.25059071  0.89793361  1
  P  P7  1  0.96540773  0.75059071  0.60206639  1
  P  P8  1  0.49890198  0.25470471  0.11002810  1
  P  P9  1  0.50109802  0.75470471  0.38997190  1
  P  P10  1  0.50109802  0.74529529  0.88997190  1
  P  P11  1  0.49890198  0.24529529  0.61002810  1
  H  H12  1  0.91568923  0.74943035  0.22391930  1
  H  H13  1  0.08431077  0.24943035  0.27608070  1
  H  H14  1  0.08431077  0.25056965  0.77608070  1
  H  H15  1  0.91568923  0.75056965  0.72391930  1
  H  H16  1  0.65308705  0.40172339  0.23183885  1
  H  H17  1  0.34691295  0.90172339  0.26816115  1
  H  H18  1  0.34691295  0.59827661  0.76816115  1
  H  H19  1  0.65308705  0.09827661  0.73183885  1
  H  H20  1  0.29441622  0.40821675  0.25977822  1
  H  H21  1  0.70558378  0.90821675  0.24022178  1
  H  H22  1  0.70558378  0.59178325  0.74022178  1
  H  H23  1  0.29441622  0.09178325  0.75977822  1
  H  H24  1  0.20687456  0.25902173  0.17823318  1
  H  H25  1  0.79312544  0.75902173  0.32176682  1
  H  H26  1  0.79312544  0.74097827  0.82176682  1
  H  H27  1  0.20687456  0.24097827  0.67823318  1
  O  O28  1  0.12229146  0.69577188  0.09053610  1
  O  O29  1  0.87770854  0.19577188  0.40946390  1
  O  O30  1  0.87770854  0.30422812  0.90946390  1
  O  O31  1  0.12229146  0.80422812  0.59053610  1
  O  O32  1  0.90504500  0.01323193  0.06754594  1
  O  O33  1  0.09495500  0.51323193  0.43245406  1
  O  O34  1  0.09495500  0.98676807  0.93245406  1
  O  O35  1  0.90504500  0.48676807  0.56754594  1
  O  O36  1  0.84192614  0.55093351  0.05728193  1
  O  O37  1  0.15807386  0.05093351  0.44271807  1
  O  O38  1  0.15807386  0.44906649  0.94271807  1
  O  O39  1  0.84192614  0.94906649  0.55728193  1
  O  O40  1  0.00420833  0.73715625  0.20117272  1
  O  O41  1  0.99579167  0.23715625  0.29882728  1
  O  O42  1  0.99579167  0.26284375  0.79882728  1
  O  O43  1  0.00420833  0.76284375  0.70117272  1
  O  O44  1  0.37262598  0.05190264  0.09505935  1
  O  O45  1  0.62737402  0.55190264  0.40494065  1
  O  O46  1  0.62737402  0.94809736  0.90494065  1
  O  O47  1  0.37262598  0.44809736  0.59505935  1
  O  O48  1  0.43011933  0.52081339  0.09350109  1
  O  O49  1  0.56988067  0.02081339  0.40649891  1
  O  O50  1  0.56988067  0.47918661  0.90649891  1
  O  O51  1  0.43011933  0.97918661  0.59350109  1
  O  O52  1  0.60561881  0.19460618  0.05929245  1
  O  O53  1  0.39438119  0.69460618  0.44070755  1
  O  O54  1  0.39438119  0.80539382  0.94070755  1
  O  O55  1  0.60561881  0.30539382  0.55929245  1
  O  O56  1  0.60037127  0.23974711  0.20926760  1
  O  O57  1  0.39962873  0.73974711  0.29073240  1
  O  O58  1  0.39962873  0.76025289  0.79073240  1
  O  O59  1  0.60037127  0.26025289  0.70926760  1
  O  O60  1  0.23912344  0.24698094  0.24031877  1
  O  O61  1  0.76087656  0.74698094  0.25968123  1
  O  O62  1  0.76087656  0.75301906  0.75968123  1
  O  O63  1  0.23912344  0.25301906  0.74031877  1
