# generated using pymatgen
data_Ce3Zn22
_symmetry_space_group_name_H-M   'P 1'
_cell_length_a   8.89562914
_cell_length_b   8.89562914
_cell_length_c   12.33109161
_cell_angle_alpha   111.14314095
_cell_angle_beta   111.14314095
_cell_angle_gamma   90.00000000
_symmetry_Int_Tables_number   1
_chemical_formula_structural   Ce3Zn22
_chemical_formula_sum   'Ce6 Zn44'
_cell_volume   839.28553668
_cell_formula_units_Z   2
loop_
 _symmetry_equiv_pos_site_id
 _symmetry_equiv_pos_as_xyz
  1  'x, y, z'
loop_
 _atom_site_type_symbol
 _atom_site_label
 _atom_site_symmetry_multiplicity
 _atom_site_fract_x
 _atom_site_fract_y
 _atom_site_fract_z
 _atom_site_occupancy
  Ce  Ce0  1  0.49614242  0.74614242  0.99228485  1
  Ce  Ce1  1  0.74614242  0.49614242  0.49228485  1
  Ce  Ce2  1  0.50385758  0.25385758  0.00771515  1
  Ce  Ce3  1  0.25385758  0.50385758  0.50771515  1
  Ce  Ce4  1  0.12500000  0.87500000  0.25000000  1
  Ce  Ce5  1  0.87500000  0.12500000  0.75000000  1
  Zn  Zn6  1  0.31902164  0.04252381  0.12220554  1
  Zn  Zn7  1  0.31902164  0.57968173  0.12220554  1
  Zn  Zn8  1  0.04252381  0.31902164  0.62220554  1
  Zn  Zn9  1  0.04252381  0.80318390  0.62220554  1
  Zn  Zn10  1  0.80318390  0.04252381  0.12220554  1
  Zn  Zn11  1  0.80318390  0.57968173  0.12220554  1
  Zn  Zn12  1  0.57968173  0.31902164  0.62220554  1
  Zn  Zn13  1  0.57968173  0.80318390  0.62220554  1
  Zn  Zn14  1  0.68097836  0.95747619  0.87779446  1
  Zn  Zn15  1  0.68097836  0.42031827  0.87779446  1
  Zn  Zn16  1  0.95747619  0.68097836  0.37779446  1
  Zn  Zn17  1  0.95747619  0.19681610  0.37779446  1
  Zn  Zn18  1  0.19681610  0.95747619  0.87779446  1
  Zn  Zn19  1  0.19681610  0.42031827  0.87779446  1
  Zn  Zn20  1  0.42031827  0.68097836  0.37779446  1
  Zn  Zn21  1  0.42031827  0.19681610  0.37779446  1
  Zn  Zn22  1  0.15069518  0.62323891  0.74647781  1
  Zn  Zn23  1  0.62323891  0.15069518  0.24647781  1
  Zn  Zn24  1  0.62323891  0.59578263  0.24647781  1
  Zn  Zn25  1  0.59578263  0.62323891  0.74647781  1
  Zn  Zn26  1  0.84930482  0.37676109  0.25352219  1
  Zn  Zn27  1  0.37676109  0.84930482  0.75352219  1
  Zn  Zn28  1  0.37676109  0.40421737  0.75352219  1
  Zn  Zn29  1  0.40421737  0.37676109  0.25352219  1
  Zn  Zn30  1  0.48527274  0.88285972  0.26571943  1
  Zn  Zn31  1  0.88285972  0.48527274  0.76571943  1
  Zn  Zn32  1  0.88285972  0.78044670  0.76571943  1
  Zn  Zn33  1  0.78044670  0.88285972  0.26571943  1
  Zn  Zn34  1  0.51472726  0.11714028  0.73428057  1
  Zn  Zn35  1  0.11714028  0.51472726  0.23428057  1
  Zn  Zn36  1  0.11714028  0.21955330  0.23428057  1
  Zn  Zn37  1  0.21955330  0.11714028  0.73428057  1
  Zn  Zn38  1  0.83543531  0.73725898  0.97451797  1
  Zn  Zn39  1  0.73725898  0.83543531  0.47451797  1
  Zn  Zn40  1  0.73725898  0.13908266  0.47451797  1
  Zn  Zn41  1  0.13908266  0.73725898  0.97451797  1
  Zn  Zn42  1  0.16456469  0.26274102  0.02548203  1
  Zn  Zn43  1  0.26274102  0.16456469  0.52548203  1
  Zn  Zn44  1  0.26274102  0.86091734  0.52548203  1
  Zn  Zn45  1  0.86091734  0.26274102  0.02548203  1
  Zn  Zn46  1  0.50000000  0.00000000  0.50000000  1
  Zn  Zn47  1  0.00000000  0.50000000  0.00000000  1
  Zn  Zn48  1  0.00000000  0.00000000  0.00000000  1
  Zn  Zn49  1  0.00000000  0.00000000  0.50000000  1
