# generated using pymatgen
data_Ca3Si2(H3O5)2
_symmetry_space_group_name_H-M   'P 1'
_cell_length_a   8.63236916
_cell_length_b   8.63236916
_cell_length_c   13.39583595
_cell_angle_alpha   48.06932741
_cell_angle_beta   131.93067259
_cell_angle_gamma   141.55138590
_symmetry_Int_Tables_number   1
_chemical_formula_structural   Ca3Si2(H3O5)2
_chemical_formula_sum   'Ca6 Si4 H12 O20'
_cell_volume   438.54384998
_cell_formula_units_Z   2
loop_
 _symmetry_equiv_pos_site_id
 _symmetry_equiv_pos_as_xyz
  1  'x, y, z'
loop_
 _atom_site_type_symbol
 _atom_site_label
 _atom_site_symmetry_multiplicity
 _atom_site_fract_x
 _atom_site_fract_y
 _atom_site_fract_z
 _atom_site_occupancy
  Ca  Ca0  1  0.15823547  0.76519971  0.79296344  1
  Ca  Ca1  1  0.23480029  0.84176453  0.29296344  1
  Ca  Ca2  1  0.74703616  0.14543169  0.71382680  1
  Ca  Ca3  1  0.85456831  0.25296384  0.21382680  1
  Ca  Ca4  1  0.47267330  0.46315862  0.54204140  1
  Ca  Ca5  1  0.53684138  0.52732670  0.04204140  1
  Si  Si6  1  0.05919875  0.82831967  0.50344111  1
  Si  Si7  1  0.17168033  0.94080125  0.00344111  1
  Si  Si8  1  0.88460458  0.14999724  0.50315758  1
  Si  Si9  1  0.85000276  0.11539542  0.00315758  1
  H  H10  1  0.09293378  0.09702287  0.73744186  1
  H  H11  1  0.90297713  0.90706622  0.23744186  1
  H  H12  1  0.00798852  0.52825002  0.50212429  1
  H  H13  1  0.47174998  0.99201148  0.00212429  1
  H  H14  1  0.71360588  0.39119643  0.87289889  1
  H  H15  1  0.60880357  0.28639412  0.37289889  1
  H  H16  1  0.65024115  0.59605209  0.76956777  1
  H  H17  1  0.40394791  0.34975885  0.26956777  1
  H  H18  1  0.31615983  0.42782006  0.79699319  1
  H  H19  1  0.57217994  0.68384017  0.29699319  1
  H  H20  1  0.35418611  0.67458384  0.65837211  1
  H  H21  1  0.32541616  0.64581389  0.15837211  1
  O  O22  1  0.08605908  0.11015600  0.84277581  1
  O  O23  1  0.88984400  0.91394092  0.34277581  1
  O  O24  1  0.09293692  0.09346808  0.66108816  1
  O  O25  1  0.90653192  0.90706308  0.16108816  1
  O  O26  1  0.79557057  0.24078444  0.52108494  1
  O  O27  1  0.75921556  0.20442943  0.02108494  1
  O  O28  1  0.15499304  0.72879659  0.49139833  1
  O  O29  1  0.27120341  0.84500696  0.99139833  1
  O  O30  1  0.60180941  0.93165283  0.89845082  1
  O  O31  1  0.06834717  0.39819059  0.39845082  1
  O  O32  1  0.09814474  0.36624634  0.94292608  1
  O  O33  1  0.63375366  0.90185526  0.44292608  1
  O  O34  1  0.87566335  0.57519812  0.60890346  1
  O  O35  1  0.42480188  0.12433665  0.10890346  1
  O  O36  1  0.32234116  0.05331142  0.58249730  1
  O  O37  1  0.94668858  0.67765884  0.08249730  1
  O  O38  1  0.70070606  0.52146589  0.77212648  1
  O  O39  1  0.47853411  0.29929394  0.27212648  1
  O  O40  1  0.45000553  0.62698145  0.76167017  1
  O  O41  1  0.37301855  0.54999447  0.26167017  1
