# generated using pymatgen
data_KV2P2H4O13
_symmetry_space_group_name_H-M   'P 1'
_cell_length_a   6.25666373
_cell_length_b   6.29715797
_cell_length_c   6.91683130
_cell_angle_alpha   90.06837030
_cell_angle_beta   74.07227539
_cell_angle_gamma   91.07055990
_symmetry_Int_Tables_number   1
_chemical_formula_structural   KV2P2H4O13
_chemical_formula_sum   'K1 V2 P2 H4 O13'
_cell_volume   262.00735815
_cell_formula_units_Z   1
loop_
 _symmetry_equiv_pos_site_id
 _symmetry_equiv_pos_as_xyz
  1  'x, y, z'
loop_
 _atom_site_type_symbol
 _atom_site_label
 _atom_site_symmetry_multiplicity
 _atom_site_fract_x
 _atom_site_fract_y
 _atom_site_fract_z
 _atom_site_occupancy
  K  K0  1  0.00000000  0.00000000  0.00000000  1
  V  V1  1  0.71379594  0.24502783  0.59807222  1
  V  V2  1  0.28620406  0.75497217  0.40192778  1
  P  P3  1  0.75026724  0.74990292  0.50125203  1
  P  P4  1  0.24973276  0.25009708  0.49874797  1
  H  H5  1  0.49326665  0.27545527  0.03587225  1
  H  H6  1  0.50673335  0.72454473  0.96412775  1
  H  H7  1  0.74645366  0.36377976  0.98321968  1
  H  H8  1  0.25354634  0.63622024  0.01678032  1
  O  O9  1  0.71219558  0.93927259  0.64919621  1
  O  O10  1  0.28780442  0.06072741  0.35080379  1
  O  O11  1  0.39532525  0.23100870  0.64705527  1
  O  O12  1  0.60467475  0.76899130  0.35294473  1
  O  O13  1  0.69313661  0.55033604  0.63582373  1
  O  O14  1  0.30686339  0.44966396  0.36417627  1
  O  O15  1  0.00891918  0.25286235  0.63608190  1
  O  O16  1  0.99108082  0.74713765  0.36391810  1
  O  O17  1  0.64084731  0.25995897  0.94311857  1
  O  O18  1  0.35915269  0.74004103  0.05688143  1
  O  O19  1  0.78402057  0.24000456  0.35611740  1
  O  O20  1  0.21597943  0.75999544  0.64388260  1
  O  O21  1  0.00000000  0.50000000  0.00000000  1
