# generated using pymatgen
data_MnAl2Sb2(PO4)6
_symmetry_space_group_name_H-M   'P 1'
_cell_length_a   8.62729915
_cell_length_b   17.23865415
_cell_length_c   14.96680413
_cell_angle_alpha   29.74849267
_cell_angle_beta   54.19088184
_cell_angle_gamma   59.47067768
_symmetry_Int_Tables_number   1
_chemical_formula_structural   MnAl2Sb2(PO4)6
_chemical_formula_sum   'Mn2 Al4 Sb4 P12 O48'
_cell_volume   895.70227205
_cell_formula_units_Z   2
loop_
 _symmetry_equiv_pos_site_id
 _symmetry_equiv_pos_as_xyz
  1  'x, y, z'
loop_
 _atom_site_type_symbol
 _atom_site_label
 _atom_site_symmetry_multiplicity
 _atom_site_fract_x
 _atom_site_fract_y
 _atom_site_fract_z
 _atom_site_occupancy
  Mn  Mn0  1  0.00000000  0.00000000  0.00000000  1
  Mn  Mn1  1  0.50000000  0.50000000  0.50000000  1
  Al  Al2  1  0.14774525  0.99887044  0.14299397  1
  Al  Al3  1  0.35225475  0.49887044  0.35926514  1
  Al  Al4  1  0.85225475  0.00112956  0.85700603  1
  Al  Al5  1  0.64774525  0.50112956  0.64073486  1
  Sb  Sb6  1  0.35992359  0.00083054  0.35543803  1
  Sb  Sb7  1  0.14007641  0.50083054  0.14290088  1
  Sb  Sb8  1  0.85992359  0.49916946  0.85709912  1
  Sb  Sb9  1  0.64007641  0.99916946  0.64456197  1
  P  P10  1  0.03891988  0.14172256  0.46813831  1
  P  P11  1  0.75417275  0.21105742  0.03154626  1
  P  P12  1  0.53891988  0.35827744  0.25158342  1
  P  P13  1  0.04068507  0.64704153  0.45307950  1
  P  P14  1  0.45931493  0.14704153  0.75283743  1
  P  P15  1  0.74582725  0.71105742  0.04633889  1
  P  P16  1  0.25417275  0.28894258  0.95366111  1
  P  P17  1  0.54068507  0.85295847  0.24716257  1
  P  P18  1  0.95931493  0.35295847  0.54692050  1
  P  P19  1  0.46108012  0.64172256  0.74841658  1
  P  P20  1  0.24582725  0.78894258  0.96845374  1
  P  P21  1  0.96108012  0.85827744  0.53186169  1
  O  O22  1  0.29004337  0.19682040  0.12210152  1
  O  O23  1  0.06099648  0.32128967  0.27660842  1
  O  O24  1  0.22555909  0.06814268  0.44290348  1
  O  O25  1  0.00051810  0.07665187  0.63792909  1
  O  O26  1  0.58290232  0.10746098  0.22273558  1
  O  O27  1  0.37292451  0.38559685  0.21288350  1
  O  O28  1  0.92409765  0.10376882  0.05767492  1
  O  O29  1  0.13119439  0.39397688  0.50467706  1
  O  O30  1  0.79004337  0.30317960  0.01574233  1
  O  O31  1  0.28935356  0.68384884  0.13729781  1
  O  O32  1  0.56099648  0.17871033  0.41918777  1
  O  O33  1  0.06043183  0.82804042  0.26547193  1
  O  O34  1  0.72555909  0.43185732  0.07918884  1
  O  O35  1  0.50051810  0.42334813  0.29123282  1
  O  O36  1  0.23229546  0.57048617  0.43651637  1
  O  O37  1  0.02035182  0.58314526  0.62185423  1
  O  O38  1  0.47964818  0.08314526  0.71185524  1
  O  O39  1  0.26770454  0.07048617  0.92251129  1
  O  O40  1  0.43956817  0.32804042  0.57844723  1
  O  O41  1  0.57590235  0.60376882  0.23478744  1
  O  O42  1  0.21064644  0.18384884  0.99500450  1
  O  O43  1  0.87292451  0.11440315  0.48407720  1
  O  O44  1  0.08290232  0.39253902  0.93765754  1
  O  O45  1  0.36880561  0.89397688  0.20736918  1
  O  O46  1  0.63119439  0.10602312  0.79263082  1
  O  O47  1  0.91709768  0.60746098  0.06234246  1
  O  O48  1  0.12707549  0.88559685  0.51592280  1
  O  O49  1  0.78935356  0.81615116  0.00499550  1
  O  O50  1  0.42409765  0.39623118  0.76521256  1
  O  O51  1  0.56043183  0.67195958  0.42155277  1
  O  O52  1  0.73229546  0.92951383  0.07748871  1
  O  O53  1  0.52035182  0.91685474  0.28814476  1
  O  O54  1  0.97964818  0.41685474  0.37814577  1
  O  O55  1  0.76770454  0.42951383  0.56348363  1
  O  O56  1  0.49948190  0.57665187  0.70876718  1
  O  O57  1  0.27444091  0.56814268  0.92081116  1
  O  O58  1  0.93956817  0.17195958  0.73452807  1
  O  O59  1  0.43900352  0.82128967  0.58081223  1
  O  O60  1  0.71064644  0.31615116  0.86270219  1
  O  O61  1  0.20995663  0.69682040  0.98425767  1
  O  O62  1  0.86880561  0.60602312  0.49532294  1
  O  O63  1  0.07590235  0.89623118  0.94232508  1
  O  O64  1  0.62707549  0.61440315  0.78711650  1
  O  O65  1  0.41709768  0.89253902  0.77726442  1
  O  O66  1  0.99948190  0.92334813  0.36207091  1
  O  O67  1  0.77444091  0.93185732  0.55709652  1
  O  O68  1  0.93900352  0.67871033  0.72339158  1
  O  O69  1  0.70995663  0.80317960  0.87789848  1
