# generated using pymatgen
data_Ca6Si2H6O13
_symmetry_space_group_name_H-M   'P 1'
_cell_length_a   10.11327123
_cell_length_b   10.11329631
_cell_length_c   7.54377256
_cell_angle_alpha   90.00040415
_cell_angle_beta   89.99981113
_cell_angle_gamma   120.00120040
_symmetry_Int_Tables_number   1
_chemical_formula_structural   Ca6Si2H6O13
_chemical_formula_sum   'Ca12 Si4 H12 O26'
_cell_volume   668.18750643
_cell_formula_units_Z   2
loop_
 _symmetry_equiv_pos_site_id
 _symmetry_equiv_pos_as_xyz
  1  'x, y, z'
loop_
 _atom_site_type_symbol
 _atom_site_label
 _atom_site_symmetry_multiplicity
 _atom_site_fract_x
 _atom_site_fract_y
 _atom_site_fract_z
 _atom_site_occupancy
  Ca  Ca0  1  0.04312009  0.37497441  0.75008301  1
  Ca  Ca1  1  0.33185436  0.95688603  0.75008261  1
  Ca  Ca2  1  0.04484463  0.38100139  0.24433553  1
  Ca  Ca3  1  0.33615440  0.95516071  0.24433554  1
  Ca  Ca4  1  0.38152754  0.33585400  0.49768637  1
  Ca  Ca5  1  0.37598443  0.33366046  0.99235045  1
  Ca  Ca6  1  0.61899695  0.66384560  0.24434006  1
  Ca  Ca7  1  0.62502065  0.66814840  0.75007887  1
  Ca  Ca8  1  0.95767581  0.62402270  0.99234475  1
  Ca  Ca9  1  0.66415065  0.04569053  0.49769096  1
  Ca  Ca10  1  0.95431693  0.61846914  0.49769037  1
  Ca  Ca11  1  0.66634250  0.04231660  0.99234532  1
  Si  Si12  1  0.33333886  0.66666548  0.46648957  1
  Si  Si13  1  0.33333689  0.66666453  0.02721169  1
  Si  Si14  1  0.66666758  0.33332752  0.27452705  1
  Si  Si15  1  0.66666480  0.33333215  0.71473279  1
  H  H16  1  0.00007513  0.84025408  0.73904061  1
  H  H17  1  0.01395909  0.83464444  0.24142130  1
  H  H18  1  0.16535438  0.17931574  0.24142065  1
  H  H19  1  0.15974482  0.15982203  0.73904087  1
  H  H20  1  0.16302091  0.00207804  0.99933103  1
  H  H21  1  0.17334226  0.00904036  0.49667046  1
  H  H22  1  0.84017482  -0.00007700  0.73904045  1
  H  H23  1  0.82068473  0.98604274  0.24142042  1
  H  H24  1  0.83904824  0.83697275  0.99932630  1
  H  H25  1  0.83569420  0.82665660  0.49667227  1
  H  H26  1  0.99096295  0.16430191  0.49667044  1
  H  H27  1  0.99792515  0.16094745  0.99933097  1
  O  O28  1  0.06719410  0.79687820  0.73962115  1
  O  O29  1  0.07576354  0.78549750  0.24695363  1
  O  O30  1  0.15211819  0.55674940  0.51748318  1
  O  O31  1  0.15327046  0.55511282  0.97572642  1
  O  O32  1  0.40182784  0.84672772  0.97573103  1
  O  O33  1  0.40462299  0.84788369  0.51747870  1
  O  O34  1  0.33335499  0.66664742  0.24687199  1
  O  O35  1  0.21450097  0.29027274  0.24694815  1
  O  O36  1  0.20312736  0.27032295  0.73962522  1
  O  O37  1  0.44326236  0.59537679  0.51750418  1
  O  O38  1  0.44489900  0.59816661  0.97571746  1
  O  O39  1  0.70973161  0.92423445  0.24695696  1
  O  O40  1  0.27316823  0.06798279  0.00404366  1
  O  O41  1  0.28411834  0.07317457  0.49203477  1
  O  O42  1  0.72967724  0.93280458  0.73961723  1
  O  O43  1  0.55615562  0.40371086  0.22382985  1
  O  O44  1  0.55601832  0.40303157  0.76573153  1
  O  O45  1  0.78904880  0.71587978  0.49203089  1
  O  O46  1  0.79479778  0.72682513  0.00403559  1
  O  O47  1  0.66667720  0.33331442  0.49462645  1
  O  O48  1  0.59696172  0.15299018  0.76575858  1
  O  O49  1  0.59628508  0.15243948  0.22379110  1
  O  O50  1  0.84755783  0.44383771  0.22379548  1
  O  O51  1  0.84701063  0.44397477  0.76574944  1
  O  O52  1  0.92683811  0.21095019  0.49203671  1
  O  O53  1  0.93202593  0.20519388  0.00403989  1
