# generated using pymatgen
data_Na13Zr8Si9(PO16)3
_symmetry_space_group_name_H-M   'P 1'
_cell_length_a   9.20128407
_cell_length_b   9.18821333
_cell_length_c   18.58862110
_cell_angle_alpha   60.77649685
_cell_angle_beta   61.08420902
_cell_angle_gamma   60.23453876
_symmetry_Int_Tables_number   1
_chemical_formula_structural   Na13Zr8Si9(PO16)3
_chemical_formula_sum   'Na13 Zr8 Si9 P3 O48'
_cell_volume   1128.64262883
_cell_formula_units_Z   1
loop_
 _symmetry_equiv_pos_site_id
 _symmetry_equiv_pos_as_xyz
  1  'x, y, z'
loop_
 _atom_site_type_symbol
 _atom_site_label
 _atom_site_symmetry_multiplicity
 _atom_site_fract_x
 _atom_site_fract_y
 _atom_site_fract_z
 _atom_site_occupancy
  Na  Na0  1  0.29810265  0.05419088  0.20198119  1
  Na  Na1  1  0.09750375  0.23472122  0.39961788  1
  Na  Na2  1  0.99840545  0.50518100  0.49720787  1
  Na  Na3  1  0.59735056  0.38814861  0.13112060  1
  Na  Na4  1  0.30510584  0.04890749  0.70770736  1
  Na  Na5  1  0.39414226  0.61915234  0.36966275  1
  Na  Na6  1  0.01049958  0.45011315  0.98866956  1
  Na  Na7  1  0.91479519  0.74544892  0.08443099  1
  Na  Na8  1  0.60128232  0.38719000  0.62953769  1
  Na  Na9  1  0.70549493  0.94643174  0.30271924  1
  Na  Na10  1  0.38383094  0.61122173  0.87837255  1
  Na  Na11  1  0.90541912  0.76270463  0.59539148  1
  Na  Na12  1  0.71545690  0.93768941  0.80438698  1
  Zr  Zr13  1  0.15364214  0.64848684  0.27851487  1
  Zr  Zr14  1  0.64476775  0.14984231  0.02716495  1
  Zr  Zr15  1  0.15835109  0.64591213  0.77875563  1
  Zr  Zr16  1  0.35852738  0.84414177  0.46944986  1
  Zr  Zr17  1  0.64181999  0.15577788  0.52722619  1
  Zr  Zr18  1  0.84928102  0.35144019  0.22282894  1
  Zr  Zr19  1  0.34727140  0.85708687  0.96753973  1
  Zr  Zr20  1  0.85347713  0.34653076  0.72251432  1
  Si  Si21  1  0.24960224  0.46697570  0.11896085  1
  Si  Si22  1  0.03905864  0.95225026  0.37800889  1
  Si  Si23  1  0.46271437  0.25365511  0.37044459  1
  Si  Si24  1  0.53665503  0.74695581  0.12622660  1
  Si  Si25  1  0.24670552  0.46835961  0.61889145  1
  Si  Si26  1  0.04105023  0.94949949  0.87720064  1
  Si  Si27  1  0.75289721  0.53146253  0.38146863  1
  Si  Si28  1  0.46527022  0.25197465  0.86935747  1
  Si  Si29  1  0.53889963  0.74706861  0.62850831  1
  P  P30  1  0.96018087  0.04665182  0.12201293  1
  P  P31  1  0.96091442  0.04719806  0.62273963  1
  P  P32  1  0.75211387  0.53298524  0.88049282  1
  O  O33  1  0.11459704  0.00373859  0.04154760  1
  O  O34  1  0.99927248  0.11450044  0.28947372  1
  O  O35  1  0.07109350  0.43084999  0.14287524  1
  O  O36  1  0.26295397  0.63460822  0.02795817  1
  O  O37  1  0.11166577  0.00922451  0.54027964  1
  O  O38  1  0.42351948  0.28613282  0.11259695  1
  O  O39  1  0.23575415  0.51889203  0.19564855  1
  O  O40  1  0.06737822  0.76340298  0.37602209  1
  O  O41  1  0.00164405  0.11378182  0.78875967  1
  O  O42  1  0.43142261  0.07042063  0.39853281  1
  O  O43  1  0.27458990  0.41788951  0.36621575  1
  O  O44  1  0.47894987  0.75074487  0.05475605  1
  O  O45  1  0.78394705  0.06220144  0.12207548  1
  O  O46  1  0.06701016  0.43677617  0.64078877  1
  O  O47  1  0.37600145  0.72802038  0.22054539  1
  O  O48  1  0.62416654  0.27219801  0.27716317  1
  O  O49  1  0.22284308  0.94630114  0.37668351  1
  O  O50  1  0.51507525  0.25818088  0.44185649  1
  O  O51  1  0.26260880  0.63410958  0.52696711  1
  O  O52  1  0.72294234  0.57916373  0.13183434  1
  O  O53  1  0.56847122  0.92932522  0.10191216  1
  O  O54  1  0.41921210  0.28683925  0.61459221  1
  O  O55  1  0.22878469  0.52653985  0.69417833  1
  O  O56  1  0.93883104  0.22509309  0.12201642  1
  O  O57  1  0.05737036  0.76412600  0.87563839  1
  O  O58  1  0.76209550  0.48006484  0.30577825  1
  O  O59  1  0.58168037  0.71426253  0.38649502  1
  O  O60  1  0.44578178  0.06399719  0.89559601  1
  O  O61  1  0.27910448  0.41909365  0.86515959  1
  O  O62  1  0.73740964  0.36647621  0.47348720  1
  O  O63  1  0.48324896  0.74731297  0.55715858  1
  O  O64  1  0.78442259  0.05496852  0.62635500  1
  O  O65  1  0.37698285  0.72414509  0.72227532  1
  O  O66  1  0.62623015  0.27716803  0.77581521  1
  O  O67  1  0.93152195  0.56616339  0.35697036  1
  O  O68  1  0.23351770  0.92530616  0.87414360  1
  O  O69  1  0.51871856  0.25589030  0.94082076  1
  O  O70  1  0.72669326  0.58158820  0.63343863  1
  O  O71  1  0.56716259  0.92972920  0.60507114  1
  O  O72  1  0.99501253  0.89427669  0.20635349  1
  O  O73  1  0.93579939  0.22809978  0.62257024  1
  O  O74  1  0.76790309  0.48036089  0.80836818  1
  O  O75  1  0.58703185  0.70532094  0.88443390  1
  O  O76  1  0.87728891  0.99583337  0.46423009  1
  O  O77  1  0.72954834  0.38296566  0.96876721  1
  O  O78  1  0.91495178  0.57696166  0.85659919  1
  O  O79  1  0.00237430  0.89531713  0.70570076  1
  O  O80  1  0.88082667  0.99628175  0.96287581  1
