# generated using pymatgen
data_KCa9Co(PO4)7
_symmetry_space_group_name_H-M   'P 1'
_cell_length_a   13.82250132
_cell_length_b   13.82250112
_cell_length_c   13.82250178
_cell_angle_alpha   44.74933231
_cell_angle_beta   44.74933315
_cell_angle_gamma   44.74933436
_symmetry_Int_Tables_number   1
_chemical_formula_structural   KCa9Co(PO4)7
_chemical_formula_sum   'K2 Ca18 Co2 P14 O56'
_cell_volume   1190.72196895
_cell_formula_units_Z   2
loop_
 _symmetry_equiv_pos_site_id
 _symmetry_equiv_pos_as_xyz
  1  'x, y, z'
loop_
 _atom_site_type_symbol
 _atom_site_label
 _atom_site_symmetry_multiplicity
 _atom_site_fract_x
 _atom_site_fract_y
 _atom_site_fract_z
 _atom_site_occupancy
  K  K0  1  0.68631221  0.68631221  0.68631221  1
  K  K1  1  0.18631221  0.18631221  0.18631221  1
  Ca  Ca2  1  0.44686086  0.41087253  0.84499194  1
  Ca  Ca3  1  0.41087253  0.84499194  0.44686086  1
  Ca  Ca4  1  0.56273134  0.97181146  0.94640560  1
  Ca  Ca5  1  0.94640560  0.56273134  0.97181146  1
  Ca  Ca6  1  0.44640560  0.47181146  0.06273134  1
  Ca  Ca7  1  0.66242121  0.07505654  0.06514138  1
  Ca  Ca8  1  0.84499194  0.44686086  0.41087253  1
  Ca  Ca9  1  0.07505654  0.06514138  0.66242121  1
  Ca  Ca10  1  0.47181146  0.06273134  0.44640560  1
  Ca  Ca11  1  0.97181146  0.94640560  0.56273134  1
  Ca  Ca12  1  0.56514138  0.57505654  0.16242121  1
  Ca  Ca13  1  0.91087253  0.94686086  0.34499194  1
  Ca  Ca14  1  0.34499194  0.91087253  0.94686086  1
  Ca  Ca15  1  0.16242121  0.56514138  0.57505654  1
  Ca  Ca16  1  0.94686086  0.34499194  0.91087253  1
  Ca  Ca17  1  0.06514138  0.66242121  0.07505654  1
  Ca  Ca18  1  0.06273134  0.44640560  0.47181146  1
  Ca  Ca19  1  0.57505654  0.16242121  0.56514138  1
  Co  Co20  1  0.00215483  0.00215483  0.00215483  1
  Co  Co21  1  0.50215483  0.50215483  0.50215483  1
  P  P22  1  0.22656072  0.18297097  0.68961910  1
  P  P23  1  0.18961910  0.68297097  0.72656072  1
  P  P24  1  0.31976093  0.77661960  0.81581702  1
  P  P25  1  0.27661960  0.81976093  0.31581702  1
  P  P26  1  0.72656072  0.18961910  0.68297097  1
  P  P27  1  0.31581702  0.27661960  0.81976093  1
  P  P28  1  0.27030081  0.27030081  0.27030081  1
  P  P29  1  0.68297097  0.72656072  0.18961910  1
  P  P30  1  0.81581702  0.31976093  0.77661960  1
  P  P31  1  0.81976093  0.31581702  0.27661960  1
  P  P32  1  0.77661960  0.81581702  0.31976093  1
  P  P33  1  0.18297097  0.68961910  0.22656072  1
  P  P34  1  0.68961910  0.22656072  0.18297097  1
  P  P35  1  0.77030081  0.77030081  0.77030081  1
  O  O36  1  0.64370105  0.37838123  0.37413685  1
  O  O37  1  0.11563118  0.67267036  0.68931776  1
  O  O38  1  0.89838142  0.36802758  0.26362035  1
  O  O39  1  0.86802758  0.39838142  0.76362035  1
  O  O40  1  0.11363374  0.83787509  0.39214865  1
  O  O41  1  0.39107542  0.26857223  0.11093113  1
  O  O42  1  0.18931776  0.17267036  0.61563118  1
  O  O43  1  0.37838123  0.37413685  0.64370105  1
  O  O44  1  0.13506199  0.85167734  0.67278211  1
  O  O45  1  0.59063605  0.89956004  0.14551159  1
  O  O46  1  0.26857223  0.11093113  0.39107542  1
  O  O47  1  0.68931776  0.11563118  0.67267036  1
  O  O48  1  0.34764109  0.88498172  0.14137850  1
  O  O49  1  0.26362035  0.89838142  0.36802758  1
  O  O50  1  0.67278211  0.13506199  0.85167734  1
  O  O51  1  0.14137850  0.34764109  0.88498172  1
  O  O52  1  0.88498172  0.14137850  0.34764109  1
  O  O53  1  0.11093113  0.39107542  0.26857223  1
  O  O54  1  0.36802758  0.26362035  0.89838142  1
  O  O55  1  0.67267036  0.68931776  0.11563118  1
  O  O56  1  0.89107542  0.61093113  0.76857223  1
  O  O57  1  0.76857223  0.89107542  0.61093113  1
  O  O58  1  0.81198235  0.81198235  0.81198235  1
  O  O59  1  0.64135435  0.36616199  0.61375780  1
  O  O60  1  0.84764109  0.64137850  0.38498172  1
  O  O61  1  0.39838142  0.76362035  0.86802758  1
  O  O62  1  0.64551159  0.39956004  0.09063605  1
  O  O63  1  0.83787509  0.39214865  0.11363374  1
  O  O64  1  0.39214865  0.11363374  0.83787509  1
  O  O65  1  0.61363374  0.89214865  0.33787509  1
  O  O66  1  0.61375780  0.64135435  0.36616199  1
  O  O67  1  0.86616199  0.14135435  0.11375780  1
  O  O68  1  0.87413685  0.87838123  0.14370105  1
  O  O69  1  0.64137850  0.38498172  0.84764109  1
  O  O70  1  0.31198235  0.31198235  0.31198235  1
  O  O71  1  0.14135435  0.11375780  0.86616199  1
  O  O72  1  0.76362035  0.86802758  0.39838142  1
  O  O73  1  0.14551159  0.59063605  0.89956004  1
  O  O74  1  0.35167734  0.63506199  0.17278211  1
  O  O75  1  0.89956004  0.14551159  0.59063605  1
  O  O76  1  0.63506199  0.17278211  0.35167734  1
  O  O77  1  0.37413685  0.64370105  0.37838123  1
  O  O78  1  0.61563118  0.18931776  0.17267036  1
  O  O79  1  0.89214865  0.33787509  0.61363374  1
  O  O80  1  0.39956004  0.09063605  0.64551159  1
  O  O81  1  0.33787509  0.61363374  0.89214865  1
  O  O82  1  0.11375780  0.86616199  0.14135435  1
  O  O83  1  0.17267036  0.61563118  0.18931776  1
  O  O84  1  0.36616199  0.61375780  0.64135435  1
  O  O85  1  0.85167734  0.67278211  0.13506199  1
  O  O86  1  0.87838123  0.14370105  0.87413685  1
  O  O87  1  0.09063605  0.64551159  0.39956004  1
  O  O88  1  0.17278211  0.35167734  0.63506199  1
  O  O89  1  0.14370105  0.87413685  0.87838123  1
  O  O90  1  0.38498172  0.84764109  0.64137850  1
  O  O91  1  0.61093113  0.76857223  0.89107542  1
