# generated using pymatgen
data_Li2HN
_symmetry_space_group_name_H-M   'P 1'
_cell_length_a   7.12447174
_cell_length_b   7.12447174
_cell_length_c   7.12447174
_cell_angle_alpha   119.94977163
_cell_angle_beta   89.84727896
_cell_angle_gamma   120.22684779
_symmetry_Int_Tables_number   1
_chemical_formula_structural   Li2HN
_chemical_formula_sum   'Li16 H8 N8'
_cell_volume   255.36305533
_cell_formula_units_Z   8
loop_
 _symmetry_equiv_pos_site_id
 _symmetry_equiv_pos_as_xyz
  1  'x, y, z'
loop_
 _atom_site_type_symbol
 _atom_site_label
 _atom_site_symmetry_multiplicity
 _atom_site_fract_x
 _atom_site_fract_y
 _atom_site_fract_z
 _atom_site_occupancy
  Li  Li0  1  0.98754778  0.12029377  0.36725401  1
  Li  Li1  1  0.75303976  0.62029377  0.63274599  1
  Li  Li2  1  0.49391248  0.12030637  0.87360610  1
  Li  Li3  1  0.24670027  0.62030637  0.12639390  1
  Li  Li4  1  0.26465446  0.12048042  0.64417405  1
  Li  Li5  1  0.47630637  0.62048042  0.35582595  1
  Li  Li6  1  0.87077635  0.87058095  0.50019540  1
  Li  Li7  1  0.37038554  0.37058095  0.49980460  1
  Li  Li8  1  0.02158922  0.14461887  0.89200942  1
  Li  Li9  1  0.25260945  0.12957980  0.10799058  1
  Li  Li10  1  0.02158922  0.62957980  0.37697035  1
  Li  Li11  1  0.25260945  0.64461887  0.62302965  1
  Li  Li12  1  0.71907842  0.11090007  0.62303514  1
  Li  Li13  1  0.48786493  0.09604328  0.37696486  1
  Li  Li14  1  0.71907842  0.59604328  0.10817836  1
  Li  Li15  1  0.48786493  0.61090007  0.89182164  1
  H  H16  1  0.67895473  0.97943278  0.19952195  1
  H  H17  1  0.77991084  0.47943278  0.80047805  1
  H  H18  1  0.96087230  0.26143693  0.19943537  1
  H  H19  1  0.06200156  0.76143693  0.80056463  1
  H  H20  1  0.67549808  0.95184220  0.88729486  1
  H  H21  1  0.06454734  0.78820322  0.11270514  1
  H  H22  1  0.67549808  0.28820322  0.22365587  1
  H  H23  1  0.06454734  0.45184220  0.77634413  1
  N  N24  1  0.60155409  0.36021229  0.74134180  1
  N  N25  1  0.61887049  0.86021229  0.25865820  1
  N  N26  1  0.12156117  0.88039521  0.74116597  1
  N  N27  1  0.13922924  0.38039521  0.25883403  1
  N  N28  1  0.12946386  0.33921456  0.72860457  1
  N  N29  1  0.61060999  0.40085929  0.27139543  1
  N  N30  1  0.12946386  0.90085929  0.29024930  1
  N  N31  1  0.61060999  0.83921456  0.70975070  1
