# generated using pymatgen
data_Mg3Al9FeSi5
_symmetry_space_group_name_H-M   'P 1'
_cell_length_a   6.63447947
_cell_length_b   6.63447947
_cell_length_c   7.86911995
_cell_angle_alpha   90.00000000
_cell_angle_beta   90.00000000
_cell_angle_gamma   119.99999997
_symmetry_Int_Tables_number   1
_chemical_formula_structural   Mg3Al9FeSi5
_chemical_formula_sum   'Mg3 Al9 Fe1 Si5'
_cell_volume   299.96494606
_cell_formula_units_Z   1
loop_
 _symmetry_equiv_pos_site_id
 _symmetry_equiv_pos_as_xyz
  1  'x, y, z'
loop_
 _atom_site_type_symbol
 _atom_site_label
 _atom_site_symmetry_multiplicity
 _atom_site_fract_x
 _atom_site_fract_y
 _atom_site_fract_z
 _atom_site_occupancy
  Mg  Mg0  1  0.41827609  0.00000000  0.50000000  1
  Mg  Mg1  1  0.00000000  0.41827609  0.50000000  1
  Mg  Mg2  1  0.58172391  0.58172391  0.50000000  1
  Al  Al3  1  0.62383722  0.62383722  0.00000000  1
  Al  Al4  1  0.00000000  0.37616278  0.00000000  1
  Al  Al5  1  0.75066929  0.00000000  0.77695459  1
  Al  Al6  1  0.37616278  0.00000000  0.00000000  1
  Al  Al7  1  0.00000000  0.75066929  0.77695459  1
  Al  Al8  1  0.75066929  0.00000000  0.22304541  1
  Al  Al9  1  0.00000000  0.75066929  0.22304541  1
  Al  Al10  1  0.24933071  0.24933071  0.77695459  1
  Al  Al11  1  0.24933071  0.24933071  0.22304541  1
  Si  Si12  1  0.66666667  0.33333333  0.23790133  1
  Si  Si13  1  0.66666667  0.33333333  0.76209867  1
  Si  Si14  1  0.00000000  0.00000000  0.50000000  1
  Si  Si15  1  0.33333333  0.66666667  0.76209867  1
  Si  Si16  1  0.33333333  0.66666667  0.23790133  1
  Fe  Fe17  1  0.00000000  0.00000000  0.00000000  1
