# generated using pymatgen
data_AlCuH28S2ClO22
_symmetry_space_group_name_H-M   'P 1'
_cell_length_a   6.30992054
_cell_length_b   13.42177878
_cell_length_c   6.26227698
_cell_angle_alpha   91.22920711
_cell_angle_beta   94.66385580
_cell_angle_gamma   82.52479345
_symmetry_Int_Tables_number   1
_chemical_formula_structural   AlCuH28S2ClO22
_chemical_formula_sum   'Al1 Cu1 H28 S2 Cl1 O22'
_cell_volume   524.07425271
_cell_formula_units_Z   1
loop_
 _symmetry_equiv_pos_site_id
 _symmetry_equiv_pos_as_xyz
  1  'x, y, z'
loop_
 _atom_site_type_symbol
 _atom_site_label
 _atom_site_symmetry_multiplicity
 _atom_site_fract_x
 _atom_site_fract_y
 _atom_site_fract_z
 _atom_site_occupancy
  Al  Al0  1  0.50000000  0.00000000  0.50000000  1
  Cu  Cu1  1  0.50000000  0.50000000  0.00000000  1
  H  H2  1  0.27885106  0.86930098  0.64978870  1
  H  H3  1  0.72114894  0.13069902  0.35021130  1
  H  H4  1  0.50424715  0.80888747  0.57772330  1
  H  H5  1  0.49575285  0.19111253  0.42227670  1
  H  H6  1  0.87670684  0.89742198  0.53023490  1
  H  H7  1  0.12329316  0.10257802  0.46976510  1
  H  H8  1  0.79748569  0.90707627  0.27264892  1
  H  H9  1  0.20251431  0.09292373  0.72735108  1
  H  H10  1  0.30775604  0.91314082  0.17603317  1
  H  H11  1  0.69224396  0.08685918  0.82396683  1
  H  H12  1  0.70227021  0.96805446  0.87279915  1
  H  H13  1  0.29772979  0.03194554  0.12720085  1
  H  H14  1  0.49228128  0.61132544  0.65008147  1
  H  H15  1  0.50771872  0.38867456  0.34991853  1
  H  H16  1  0.28967110  0.54357917  0.63494584  1
  H  H17  1  0.71032890  0.45642083  0.36505416  1
  H  H18  1  0.85001870  0.47017474  0.78527031  1
  H  H19  1  0.14998130  0.52982526  0.21472969  1
  H  H20  1  0.11487099  0.59967900  0.00545966  1
  H  H21  1  0.88512901  0.40032100  0.99454034  1
  H  H22  1  0.72143835  0.68413719  0.04363891  1
  H  H23  1  0.27856165  0.31586281  0.95636109  1
  H  H24  1  0.47434367  0.71678560  0.08081291  1
  H  H25  1  0.52565633  0.28321440  0.91918709  1
  H  H26  1  0.63753556  0.68228344  0.39130195  1
  H  H27  1  0.36246444  0.31771656  0.60869805  1
  H  H28  1  0.76967972  0.68807845  0.62333269  1
  H  H29  1  0.23032028  0.31192155  0.37666731  1
  S  S30  1  0.01535529  0.81067276  0.93285725  1
  S  S31  1  0.98464471  0.18932724  0.06714275  1
  Cl  Cl32  1  0.00000000  0.50000000  0.50000000  1
  O  O33  1  0.94611730  0.70817932  0.90759091  1
  O  O34  1  0.05388270  0.29182068  0.09240909  1
  O  O35  1  0.05118442  0.84774780  0.71624082  1
  O  O36  1  0.94881558  0.15225220  0.28375918  1
  O  O37  1  0.84095518  0.88144004  0.02310405  1
  O  O38  1  0.15904482  0.11855996  0.97689595  1
  O  O39  1  0.21548495  0.80629962  0.07623373  1
  O  O40  1  0.78451505  0.19370038  0.92376627  1
  O  O41  1  0.42213023  0.87788186  0.59799156  1
  O  O42  1  0.57786977  0.12211814  0.40200844  1
  O  O43  1  0.76371587  0.92906729  0.42175823  1
  O  O44  1  0.23628413  0.07093271  0.57824177  1
  O  O45  1  0.37063527  0.97570798  0.22073437  1
  O  O46  1  0.62936473  0.02429202  0.77926563  1
  O  O47  1  0.42607574  0.55632837  0.71480808  1
  O  O48  1  0.57392426  0.44367163  0.28519192  1
  O  O49  1  0.20132122  0.53950724  0.07167146  1
  O  O50  1  0.79867878  0.46049276  0.92832854  1
  O  O51  1  0.60099372  0.66827853  0.12443346  1
  O  O52  1  0.39900628  0.33172147  0.87556654  1
  O  O53  1  0.62516162  0.69792698  0.54886441  1
  O  O54  1  0.37483838  0.30207302  0.45113559  1
