# generated using pymatgen
data_LiMo4P7O24
_symmetry_space_group_name_H-M   'P 1'
_cell_length_a   10.57889860
_cell_length_b   10.60302822
_cell_length_c   11.36483172
_cell_angle_alpha   112.74119659
_cell_angle_beta   109.39967040
_cell_angle_gamma   104.88540426
_symmetry_Int_Tables_number   1
_chemical_formula_structural   LiMo4P7O24
_chemical_formula_sum   'Li2 Mo8 P14 O48'
_cell_volume   994.22360432
_cell_formula_units_Z   2
loop_
 _symmetry_equiv_pos_site_id
 _symmetry_equiv_pos_as_xyz
  1  'x, y, z'
loop_
 _atom_site_type_symbol
 _atom_site_label
 _atom_site_symmetry_multiplicity
 _atom_site_fract_x
 _atom_site_fract_y
 _atom_site_fract_z
 _atom_site_occupancy
  Li  Li0  1  0.02541672  0.39619107  0.64774301  1
  Li  Li1  1  0.97458297  0.60380941  0.35225634  1
  Mo  Mo2  1  0.24461128  0.84440815  0.74589933  1
  Mo  Mo3  1  0.07270655  0.69362089  0.07557260  1
  Mo  Mo4  1  0.37660317  0.22480214  0.88627949  1
  Mo  Mo5  1  0.57099082  0.41243446  0.58764424  1
  Mo  Mo6  1  0.92729329  0.30637903  0.92442739  1
  Mo  Mo7  1  0.75538870  0.15559181  0.25410069  1
  Mo  Mo8  1  0.42900905  0.58756553  0.41235560  1
  Mo  Mo9  1  0.62339693  0.77519782  0.11372083  1
  P  P10  1  0.70112868  0.48785384  0.95227342  1
  P  P11  1  0.49362848  0.71728460  0.75629671  1
  P  P12  1  0.93647826  0.67865650  0.73459797  1
  P  P13  1  0.61195934  0.05162454  0.87624555  1
  P  P14  1  0.50637136  0.28271515  0.24370328  1
  P  P15  1  0.23765595  0.80732101  0.43306268  1
  P  P16  1  0.76234378  0.19267879  0.56693711  1
  P  P17  1  0.38804066  0.94837534  0.12375460  1
  P  P18  1  0.26199276  0.12312747  0.51721612  1
  P  P19  1  0.99939409  0.01128464  0.23208158  1
  P  P20  1  0.06352172  0.32134361  0.26540213  1
  P  P21  1  0.73800740  0.87687251  0.48278407  1
  P  P22  1  0.29887123  0.51214614  0.04772637  1
  P  P23  1  0.00060616  0.98871534  0.76791862  1
  O  O24  1  0.62748183  0.22380108  0.53565053  1
  O  O25  1  0.97091386  0.33498546  0.34585640  1
  O  O26  1  0.49072534  0.39561829  0.36934089  1
  O  O27  1  0.64803011  0.75810651  0.50013050  1
  O  O28  1  0.22393291  0.43655766  0.36833757  1
  O  O29  1  0.16156876  0.01925110  0.79725687  1
  O  O30  1  0.70485581  0.14303372  0.83534703  1
  O  O31  1  0.13771611  0.50988400  0.00956807  1
  O  O32  1  0.55158498  0.96094860  0.18171580  1
  O  O33  1  0.86228375  0.49011589  0.99043168  1
  O  O34  1  0.35196997  0.24189323  0.49986823  1
  O  O35  1  0.60217285  0.36257433  0.96262662  1
  O  O36  1  0.41381075  0.12033035  0.22131674  1
  O  O37  1  0.83906862  0.20584225  0.47482977  1
  O  O38  1  0.83843107  0.98074891  0.20274325  1
  O  O39  1  0.91180761  0.93900282  0.59921897  1
  O  O40  1  0.93525045  0.84713198  0.78267739  1
  O  O41  1  0.77606685  0.56344219  0.63166221  1
  O  O42  1  0.26845847  0.16906092  0.66203506  1
  O  O43  1  0.70206008  0.02017876  0.53607113  1
  O  O44  1  0.73154338  0.83094001  0.33796515  1
  O  O45  1  0.01652827  0.88248970  0.13561183  1
  O  O46  1  0.99008620  0.32396240  0.12856503  1
  O  O47  1  0.06474913  0.15286791  0.21732228  1
  O  O48  1  0.67994907  0.09818231  0.03456442  1
  O  O49  1  0.32005109  0.90181753  0.96543573  1
  O  O50  1  0.10663904  0.70214926  0.27618401  1
  O  O51  1  0.26145256  0.35584055  0.92388644  1
  O  O52  1  0.44841512  0.03905136  0.81828459  1
  O  O53  1  0.16093143  0.79415805  0.52517042  1
  O  O54  1  0.36976794  0.53693769  0.20008259  1
  O  O55  1  0.89336058  0.29785022  0.72381578  1
  O  O56  1  0.50927447  0.60438165  0.63065907  1
  O  O57  1  0.73854755  0.64415943  0.07611359  1
  O  O58  1  0.63023169  0.46306208  0.79991714  1
  O  O59  1  0.02908612  0.66501451  0.65414375  1
  O  O60  1  0.43468271  0.27659066  0.10240398  1
  O  O61  1  0.08819248  0.06099814  0.40078164  1
  O  O62  1  0.56531739  0.72340904  0.89759620  1
  O  O63  1  0.00991339  0.67603789  0.87143503  1
  O  O64  1  0.39782733  0.63742586  0.03737360  1
  O  O65  1  0.32888256  0.68395560  0.69950412  1
  O  O66  1  0.29793925  0.97982080  0.46392800  1
  O  O67  1  0.98347204  0.11751078  0.86438924  1
  O  O68  1  0.67111743  0.31604428  0.30049625  1
  O  O69  1  0.29514404  0.85696606  0.16465298  1
  O  O70  1  0.37251807  0.77619893  0.46434937  1
  O  O71  1  0.58618913  0.87966945  0.77868335  1
