# generated using pymatgen
data_UInNi2
_symmetry_space_group_name_H-M   'P 1'
_cell_length_a   4.58458145
_cell_length_b   4.58046029
_cell_length_c   4.58616275
_cell_angle_alpha   59.96087277
_cell_angle_beta   59.99145261
_cell_angle_gamma   59.96523394
_symmetry_Int_Tables_number   1
_chemical_formula_structural   UInNi2
_chemical_formula_sum   'U1 In1 Ni2'
_cell_volume   68.05695142
_cell_formula_units_Z   1
loop_
 _symmetry_equiv_pos_site_id
 _symmetry_equiv_pos_as_xyz
  1  'x, y, z'
loop_
 _atom_site_type_symbol
 _atom_site_label
 _atom_site_symmetry_multiplicity
 _atom_site_fract_x
 _atom_site_fract_y
 _atom_site_fract_z
 _atom_site_occupancy
  U  U0  1  0.49994747  0.49998290  0.50004168  1
  In  In1  1  0.00003276  0.00000050  0.00000738  1
  Ni  Ni2  1  0.75000278  0.75008361  0.74999102  1
  Ni  Ni3  1  0.25001699  0.24993298  0.24995992  1
