# generated using pymatgen
data_Gd2Mo5O18
_symmetry_space_group_name_H-M   'P 1'
_cell_length_a   9.50188796
_cell_length_b   9.59257330
_cell_length_c   19.53924365
_cell_angle_alpha   90.00000000
_cell_angle_beta   90.00000000
_cell_angle_gamma   90.00000000
_symmetry_Int_Tables_number   1
_chemical_formula_structural   Gd2Mo5O18
_chemical_formula_sum   'Gd8 Mo20 O72'
_cell_volume   1780.95431934
_cell_formula_units_Z   4
loop_
 _symmetry_equiv_pos_site_id
 _symmetry_equiv_pos_as_xyz
  1  'x, y, z'
loop_
 _atom_site_type_symbol
 _atom_site_label
 _atom_site_symmetry_multiplicity
 _atom_site_fract_x
 _atom_site_fract_y
 _atom_site_fract_z
 _atom_site_occupancy
  Gd  Gd0  1  0.02687527  0.23186475  0.61488914  1
  Gd  Gd1  1  0.97312473  0.76813525  0.38511086  1
  Gd  Gd2  1  0.52687527  0.76813525  0.61488914  1
  Gd  Gd3  1  0.47312473  0.73186475  0.11488914  1
  Gd  Gd4  1  0.52687527  0.26813525  0.88511086  1
  Gd  Gd5  1  0.97312473  0.26813525  0.11488914  1
  Gd  Gd6  1  0.02687527  0.73186475  0.88511086  1
  Gd  Gd7  1  0.47312473  0.23186475  0.38511086  1
  Mo  Mo8  1  0.82352832  0.13229412  0.30112456  1
  Mo  Mo9  1  0.25000000  0.96451825  0.50000000  1
  Mo  Mo10  1  0.67647168  0.63229412  0.80112456  1
  Mo  Mo11  1  0.32352832  0.86770588  0.30112456  1
  Mo  Mo12  1  0.17647168  0.86770588  0.69887544  1
  Mo  Mo13  1  0.25000000  0.46451825  0.00000000  1
  Mo  Mo14  1  0.32352832  0.36770588  0.19887544  1
  Mo  Mo15  1  0.43796782  0.35810654  0.58976593  1
  Mo  Mo16  1  0.75000000  0.03548175  0.50000000  1
  Mo  Mo17  1  0.06203218  0.85810654  0.08976593  1
  Mo  Mo18  1  0.06203218  0.35810654  0.41023407  1
  Mo  Mo19  1  0.75000000  0.53548175  0.00000000  1
  Mo  Mo20  1  0.93796782  0.64189346  0.58976593  1
  Mo  Mo21  1  0.93796782  0.14189346  0.91023407  1
  Mo  Mo22  1  0.56203218  0.14189346  0.08976593  1
  Mo  Mo23  1  0.82352832  0.63229412  0.19887544  1
  Mo  Mo24  1  0.67647168  0.13229412  0.69887544  1
  Mo  Mo25  1  0.56203218  0.64189346  0.41023407  1
  Mo  Mo26  1  0.17647168  0.36770588  0.80112456  1
  Mo  Mo27  1  0.43796782  0.85810654  0.91023407  1
  O  O28  1  0.35791923  0.32439602  0.79521100  1
  O  O29  1  0.43419969  0.74671413  0.35679032  1
  O  O30  1  0.11282371  0.07121351  0.53296928  1
  O  O31  1  0.14779834  0.54420197  0.82414339  1
  O  O32  1  0.51311675  0.65846675  0.49652022  1
  O  O33  1  0.06580031  0.24671413  0.85679032  1
  O  O34  1  0.68460641  0.64177201  0.06978177  1
  O  O35  1  0.18460641  0.35822799  0.06978177  1
  O  O36  1  0.76441239  0.70428033  0.59868010  1
  O  O37  1  0.38717629  0.57121351  0.03296928  1
  O  O38  1  0.85791923  0.17560398  0.70478900  1
  O  O39  1  0.55915286  0.96515339  0.11621133  1
  O  O40  1  0.61282371  0.92878649  0.53296928  1
  O  O41  1  0.01311675  0.34153325  0.49652022  1
  O  O42  1  0.89376524  0.65410566  0.28123372  1
  O  O43  1  0.23558761  0.79571967  0.09868010  1
  O  O44  1  0.14779834  0.04420197  0.67585661  1
  O  O45  1  0.05915286  0.53484661  0.38378867  1
  O  O46  1  0.48688325  0.84153325  0.99652022  1
  O  O47  1  0.05915286  0.03484661  0.11621133  1
  O  O48  1  0.26441239  0.79571967  0.90131990  1
  O  O49  1  0.73558761  0.20428033  0.09868010  1
  O  O50  1  0.76441239  0.20428033  0.90131990  1
  O  O51  1  0.60623476  0.65410566  0.71876628  1
  O  O52  1  0.81539359  0.64177201  0.93021823  1
  O  O53  1  0.14208077  0.82439602  0.29521100  1
  O  O54  1  0.64779834  0.95579803  0.67585661  1
  O  O55  1  0.43419969  0.24671413  0.14320968  1
  O  O56  1  0.35791923  0.82439602  0.70478900  1
  O  O57  1  0.55915286  0.46515339  0.38378867  1
  O  O58  1  0.01311675  0.84153325  0.00347978  1
  O  O59  1  0.60623476  0.15410566  0.78123372  1
  O  O60  1  0.61282371  0.42878649  0.96703072  1
  O  O61  1  0.98688325  0.15846675  0.99652022  1
  O  O62  1  0.44084714  0.53484661  0.61621133  1
  O  O63  1  0.51311675  0.15846675  0.00347978  1
  O  O64  1  0.48688325  0.34153325  0.50347978  1
  O  O65  1  0.94084714  0.96515339  0.88378867  1
  O  O66  1  0.31539359  0.35822799  0.93021823  1
  O  O67  1  0.39376524  0.84589434  0.21876628  1
  O  O68  1  0.98688325  0.65846675  0.50347978  1
  O  O69  1  0.64779834  0.45579803  0.82414339  1
  O  O70  1  0.64208077  0.17560398  0.29521100  1
  O  O71  1  0.26441239  0.29571967  0.59868010  1
  O  O72  1  0.68460641  0.14177201  0.43021823  1
  O  O73  1  0.14208077  0.32439602  0.20478900  1
  O  O74  1  0.23558761  0.29571967  0.40131990  1
  O  O75  1  0.10623476  0.34589434  0.71876628  1
  O  O76  1  0.85220166  0.45579803  0.17585661  1
  O  O77  1  0.31539359  0.85822799  0.56978177  1
  O  O78  1  0.85220166  0.95579803  0.32414339  1
  O  O79  1  0.35220166  0.54420197  0.17585661  1
  O  O80  1  0.35220166  0.04420197  0.32414339  1
  O  O81  1  0.64208077  0.67560398  0.20478900  1
  O  O82  1  0.94084714  0.46515339  0.61621133  1
  O  O83  1  0.38717629  0.07121351  0.46703072  1
  O  O84  1  0.93419969  0.25328587  0.35679032  1
  O  O85  1  0.56580031  0.75328587  0.85679032  1
  O  O86  1  0.18460641  0.85822799  0.43021823  1
  O  O87  1  0.44084714  0.03484661  0.88378867  1
  O  O88  1  0.81539359  0.14177201  0.56978177  1
  O  O89  1  0.88717629  0.42878649  0.03296928  1
  O  O90  1  0.73558761  0.70428033  0.40131990  1
  O  O91  1  0.56580031  0.25328587  0.64320968  1
  O  O92  1  0.06580031  0.74671413  0.64320968  1
  O  O93  1  0.39376524  0.34589434  0.28123372  1
  O  O94  1  0.85791923  0.67560398  0.79521100  1
  O  O95  1  0.11282371  0.57121351  0.96703072  1
  O  O96  1  0.88717629  0.92878649  0.46703072  1
  O  O97  1  0.93419969  0.75328587  0.14320968  1
  O  O98  1  0.89376524  0.15410566  0.21876628  1
  O  O99  1  0.10623476  0.84589434  0.78123372  1
