# generated using pymatgen
data_Sr2La3Ti2Cr3O15
_symmetry_space_group_name_H-M   'P 1'
_cell_length_a   5.55669187
_cell_length_b   5.59772891
_cell_length_c   39.27609684
_cell_angle_alpha   90.03645230
_cell_angle_beta   90.03781163
_cell_angle_gamma   90.04679856
_symmetry_Int_Tables_number   1
_chemical_formula_structural   Sr2La3Ti2Cr3O15
_chemical_formula_sum   'Sr8 La12 Ti8 Cr12 O60'
_cell_volume   1221.67636374
_cell_formula_units_Z   4
loop_
 _symmetry_equiv_pos_site_id
 _symmetry_equiv_pos_as_xyz
  1  'x, y, z'
loop_
 _atom_site_type_symbol
 _atom_site_label
 _atom_site_symmetry_multiplicity
 _atom_site_fract_x
 _atom_site_fract_y
 _atom_site_fract_z
 _atom_site_occupancy
  Sr  Sr0  1  0.00929459  0.99623954  0.04982675  1
  Sr  Sr1  1  0.00885277  0.99755063  0.25043392  1
  Sr  Sr2  1  0.00984292  0.99880987  0.45051697  1
  Sr  Sr3  1  0.01023971  0.99433928  0.65033010  1
  Sr  Sr4  1  0.01113995  0.99370264  0.85010272  1
  Sr  Sr5  1  0.49108895  0.49835634  0.35032573  1
  Sr  Sr6  1  0.49124440  0.49772694  0.15043573  1
  Sr  Sr7  1  0.49200638  0.49917450  0.55039493  1
  La  La8  1  0.48970894  0.49993465  0.74830523  1
  La  La9  1  0.48864208  0.50001692  0.94833181  1
  La  La10  1  0.51049340  0.50459153  0.05077488  1
  La  La11  1  0.51057201  0.50548158  0.25087078  1
  La  La12  1  0.51066206  0.50650689  0.65043577  1
  La  La13  1  0.50897347  0.50214587  0.45068042  1
  La  La14  1  0.51172398  0.50574591  0.85057413  1
  La  La15  1  0.98951914  0.00629185  0.15065279  1
  La  La16  1  0.98900940  0.00754579  0.35087057  1
  La  La17  1  0.98507022  0.00439799  0.55063020  1
  La  La18  1  0.98661678  0.00611928  0.74826101  1
  La  La19  1  0.98552989  0.00624623  0.94798040  1
  Ti  Ti20  1  0.99985499  0.50175862  0.00032241  1
  Ti  Ti21  1  0.99981187  0.50178601  0.39999344  1
  Ti  Ti22  1  0.00025883  0.50020479  0.50052624  1
  Ti  Ti23  1  0.00075876  0.49717774  0.60124678  1
  Ti  Ti24  1  0.00036265  0.50086540  0.80061967  1
  Ti  Ti25  1  0.49982390  0.00010704  0.10035291  1
  Ti  Ti26  1  0.49961353  0.99981547  0.30068840  1
  Ti  Ti27  1  0.00025489  0.49997425  0.20063726  1
  Cr  Cr28  1  0.00035454  0.50006659  0.09999926  1
  Cr  Cr29  1  0.99997889  0.50052825  0.69999255  1
  Cr  Cr30  1  0.99992302  0.50000740  0.89973316  1
  Cr  Cr31  1  0.49910316  0.00014294  0.99967831  1
  Cr  Cr32  1  0.49972582  0.99997738  0.20025446  1
  Cr  Cr33  1  0.49936858  0.99979322  0.50005308  1
  Cr  Cr34  1  0.49951136  0.00027258  0.59994589  1
  Cr  Cr35  1  0.49889540  0.00014798  0.89960328  1
  Cr  Cr36  1  0.49975903  0.99995863  0.40028290  1
  Cr  Cr37  1  0.49892593  0.00018364  0.69970542  1
  Cr  Cr38  1  0.49963153  0.00014588  0.80008271  1
  Cr  Cr39  1  0.00027503  0.50013990  0.30010764  1
  O  O40  1  0.99553417  0.44253940  0.04900803  1
  O  O41  1  0.99587419  0.44440191  0.24933182  1
  O  O42  1  0.99651068  0.44718051  0.44969709  1
  O  O43  1  0.99595917  0.44225095  0.64966512  1
  O  O44  1  0.99521222  0.44019256  0.84914424  1
  O  O45  1  0.23191277  0.23682300  0.19292705  1
  O  O46  1  0.23683655  0.23182590  0.10651153  1
  O  O47  1  0.23611404  0.23138245  0.30681854  1
  O  O48  1  0.23161519  0.23817045  0.39305313  1
  O  O49  1  0.23052021  0.23772878  0.59295411  1
  O  O50  1  0.23128175  0.23918445  0.50652314  1
  O  O51  1  0.23616700  0.23762254  0.70906643  1
  O  O52  1  0.23563207  0.24196141  0.79181185  1
  O  O53  1  0.23519896  0.23643027  0.90899151  1
  O  O54  1  0.23517218  0.24098150  0.99168440  1
  O  O55  1  0.26824369  0.73681687  0.29302165  1
  O  O56  1  0.26565240  0.72821449  0.00644308  1
  O  O57  1  0.26768190  0.73738186  0.09263184  1
  O  O58  1  0.26360471  0.73109144  0.20683425  1
  O  O59  1  0.26284356  0.73174050  0.40655060  1
  O  O60  1  0.26211329  0.73039022  0.49312079  1
  O  O61  1  0.27093882  0.72749118  0.69349900  1
  O  O62  1  0.26214272  0.73056625  0.60675362  1
  O  O63  1  0.26476974  0.72933021  0.80665327  1
  O  O64  1  0.27224904  0.72624752  0.89333258  1
  O  O65  1  0.50453417  0.94615748  0.34943047  1
  O  O66  1  0.50422351  0.94479840  0.14922856  1
  O  O67  1  0.50852096  0.93964132  0.55003249  1
  O  O68  1  0.50399721  0.92605552  0.75014437  1
  O  O69  1  0.50474367  0.92590940  0.95000070  1
  O  O70  1  0.49748854  0.07250488  0.05013836  1
  O  O71  1  0.49732124  0.07250157  0.25042953  1
  O  O72  1  0.49709886  0.08109497  0.65007867  1
  O  O73  1  0.49693067  0.07835685  0.44999326  1
  O  O74  1  0.49694204  0.08105393  0.84981355  1
  O  O75  1  0.74081989  0.25376494  0.10620506  1
  O  O76  1  0.74662833  0.25790791  0.19323788  1
  O  O77  1  0.74110159  0.25351022  0.30644363  1
  O  O78  1  0.74662822  0.25947606  0.39337674  1
  O  O79  1  0.74771449  0.25918434  0.59327982  1
  O  O80  1  0.74651569  0.26068625  0.50609461  1
  O  O81  1  0.74078982  0.26407086  0.79193823  1
  O  O82  1  0.73698083  0.26301227  0.70883728  1
  O  O83  1  0.74022584  0.26346585  0.99185615  1
  O  O84  1  0.73517084  0.26455900  0.90871841  1
  O  O85  1  0.75832898  0.75149834  0.00615251  1
  O  O86  1  0.75404213  0.75851182  0.09297602  1
  O  O87  1  0.75888717  0.75280128  0.20641209  1
  O  O88  1  0.75354012  0.75817069  0.29333331  1
  O  O89  1  0.75994499  0.75169814  0.49344803  1
  O  O90  1  0.75780713  0.75645835  0.69379853  1
  O  O91  1  0.76001375  0.75391869  0.40618442  1
  O  O92  1  0.76053027  0.75220268  0.60638774  1
  O  O93  1  0.75956174  0.75238977  0.80638620  1
  O  O94  1  0.75941391  0.75811163  0.89351600  1
  O  O95  1  0.00290971  0.57244876  0.15029989  1
  O  O96  1  0.00249552  0.57180777  0.35031753  1
  O  O97  1  0.00290781  0.56895864  0.54981943  1
  O  O98  1  0.00440494  0.57048999  0.75063008  1
  O  O99  1  0.00463169  0.57089685  0.95047117  1
