# generated using pymatgen
data_CoPO4
_symmetry_space_group_name_H-M   'P 1'
_cell_length_a   8.94918577
_cell_length_b   8.27856300
_cell_length_c   15.44884529
_cell_angle_alpha   90.00000000
_cell_angle_beta   89.45225285
_cell_angle_gamma   90.00000000
_symmetry_Int_Tables_number   1
_chemical_formula_structural   CoPO4
_chemical_formula_sum   'Co12 P12 O48'
_cell_volume   1144.49700242
_cell_formula_units_Z   12
loop_
 _symmetry_equiv_pos_site_id
 _symmetry_equiv_pos_as_xyz
  1  'x, y, z'
loop_
 _atom_site_type_symbol
 _atom_site_label
 _atom_site_symmetry_multiplicity
 _atom_site_fract_x
 _atom_site_fract_y
 _atom_site_fract_z
 _atom_site_occupancy
  Co  Co0  1  0.89294958  0.33518704  0.92726083  1
  Co  Co1  1  0.43971154  0.16217550  0.09343950  1
  Co  Co2  1  0.08259321  0.83937402  0.76499058  1
  Co  Co3  1  0.60705042  0.83518704  0.57273917  1
  Co  Co4  1  0.58259321  0.66062598  0.26499058  1
  Co  Co5  1  0.10705042  0.66481296  0.07273917  1
  Co  Co6  1  0.93971154  0.33782450  0.59343950  1
  Co  Co7  1  0.56028846  0.83782450  0.90656050  1
  Co  Co8  1  0.06028846  0.66217550  0.40656050  1
  Co  Co9  1  0.41740679  0.33937402  0.73500942  1
  Co  Co10  1  0.91740679  0.16062598  0.23500942  1
  Co  Co11  1  0.39294958  0.16481296  0.42726083  1
  P  P12  1  0.61114462  0.22231907  0.57658701  1
  P  P13  1  0.44288362  0.77502157  0.09269920  1
  P  P14  1  0.88885538  0.72231907  0.92341299  1
  P  P15  1  0.42472009  0.72081805  0.72991366  1
  P  P16  1  0.05711638  0.27502157  0.40730080  1
  P  P17  1  0.92472009  0.77918195  0.22991366  1
  P  P18  1  0.55711638  0.22497843  0.90730080  1
  P  P19  1  0.38885538  0.77768093  0.42341299  1
  P  P20  1  0.07527991  0.22081805  0.77008634  1
  P  P21  1  0.11114462  0.27768093  0.07658701  1
  P  P22  1  0.57527991  0.27918195  0.27008634  1
  P  P23  1  0.94288362  0.72497843  0.59269920  1
  O  O24  1  0.43373072  0.76935262  0.32647052  1
  O  O25  1  0.25932933  0.65856371  0.44194098  1
  O  O26  1  0.03684595  0.84404041  0.64705565  1
  O  O27  1  0.33810761  0.95027447  0.44818948  1
  O  O28  1  0.77613729  0.73995270  0.61901098  1
  O  O29  1  0.53684595  0.65595959  0.14705565  1
  O  O30  1  0.43099162  0.54867402  0.69175608  1
  O  O31  1  0.02527101  0.77276116  0.97913562  1
  O  O32  1  0.77127466  0.74862739  0.27383801  1
  O  O33  1  0.04863570  0.34227330  0.84485637  1
  O  O34  1  0.47472899  0.27276116  0.52086438  1
  O  O35  1  0.56626928  0.23064738  0.67352948  1
  O  O36  1  0.22386271  0.26004730  0.38098902  1
  O  O37  1  0.04044504  0.23078948  0.50475989  1
  O  O38  1  0.06900838  0.04867402  0.80824392  1
  O  O39  1  0.54788902  0.74116213  0.79885374  1
  O  O40  1  0.52527101  0.72723884  0.47913562  1
  O  O41  1  0.45136430  0.84227330  0.65514363  1
  O  O42  1  0.72872534  0.24862739  0.22616199  1
  O  O43  1  0.75932933  0.84143629  0.94194098  1
  O  O44  1  0.27127466  0.75137261  0.77383801  1
  O  O45  1  0.04788902  0.75883787  0.29885374  1
  O  O46  1  0.46315405  0.34404041  0.85294435  1
  O  O47  1  0.49876311  0.05179948  0.89086293  1
  O  O48  1  0.74067067  0.34143629  0.55805902  1
  O  O49  1  0.45955496  0.73078948  0.99524011  1
  O  O50  1  0.95955496  0.76921052  0.49524011  1
  O  O51  1  0.54044504  0.26921052  0.00475989  1
  O  O52  1  0.50123689  0.94820052  0.10913707  1
  O  O53  1  0.27613729  0.76004730  0.11901098  1
  O  O54  1  0.56900838  0.45132598  0.30824392  1
  O  O55  1  0.54863570  0.15772670  0.34485637  1
  O  O56  1  0.96315405  0.15595959  0.35294435  1
  O  O57  1  0.00123689  0.55179948  0.60913707  1
  O  O58  1  0.72386271  0.23995270  0.88098902  1
  O  O59  1  0.24067067  0.15856371  0.05805902  1
  O  O60  1  0.97472899  0.22723884  0.02086438  1
  O  O61  1  0.16189239  0.45027447  0.05181052  1
  O  O62  1  0.93099162  0.95132598  0.19175608  1
  O  O63  1  0.45211098  0.25883787  0.20114626  1
  O  O64  1  0.95211098  0.24116213  0.70114626  1
  O  O65  1  0.83810761  0.54972553  0.94818948  1
  O  O66  1  0.22872534  0.25137261  0.72616199  1
  O  O67  1  0.06626928  0.26935262  0.17352948  1
  O  O68  1  0.95136430  0.65772670  0.15514363  1
  O  O69  1  0.93373072  0.73064738  0.82647052  1
  O  O70  1  0.66189239  0.04972553  0.55181052  1
  O  O71  1  0.99876311  0.44820052  0.39086293  1
