# generated using pymatgen
data_Ca2B5H2ClO10
_symmetry_space_group_name_H-M   'P 1'
_cell_length_a   17.69572225
_cell_length_b   6.56022373
_cell_length_c   6.33500808
_cell_angle_alpha   61.02793506
_cell_angle_beta   79.71533955
_cell_angle_gamma   83.95776155
_symmetry_Int_Tables_number   1
_chemical_formula_structural   Ca2B5H2ClO10
_chemical_formula_sum   'Ca6 B15 H6 Cl3 O30'
_cell_volume   632.89660143
_cell_formula_units_Z   3
loop_
 _symmetry_equiv_pos_site_id
 _symmetry_equiv_pos_as_xyz
  1  'x, y, z'
loop_
 _atom_site_type_symbol
 _atom_site_label
 _atom_site_symmetry_multiplicity
 _atom_site_fract_x
 _atom_site_fract_y
 _atom_site_fract_z
 _atom_site_occupancy
  Ca  Ca0  1  0.99858724  0.99663608  0.00014968  1
  Ca  Ca1  1  0.18458634  0.56696672  0.96829548  1
  Ca  Ca2  1  0.33282167  0.00582539  0.33219556  1
  Ca  Ca3  1  0.51568978  0.42982133  0.87182235  1
  Ca  Ca4  1  0.66534646  0.97489543  0.68098091  1
  Ca  Ca5  1  0.84574218  0.53081686  0.65488174  1
  B  B6  1  0.04078389  0.00252182  0.52089668  1
  B  B7  1  0.15056846  0.89572219  0.30020275  1
  B  B8  1  0.17402498  0.11831064  0.50211940  1
  B  B9  1  0.22459736  0.04579845  0.87592093  1
  B  B10  1  0.18155956  0.45079198  0.56972784  1
  B  B11  1  0.37422330  0.01096367  0.84998718  1
  B  B12  1  0.48378534  0.10614049  0.52714037  1
  B  B13  1  0.50707405  0.88175423  0.95288032  1
  B  B14  1  0.55781117  0.94494091  0.25831751  1
  B  B15  1  0.51365708  0.54689727  0.35407300  1
  B  B16  1  0.70737960  0.96149883  0.20753308  1
  B  B17  1  0.81783324  0.85671904  0.98596871  1
  B  B18  1  0.83949341  0.07884984  0.18945446  1
  B  B19  1  0.89077656  0.01142153  0.55969882  1
  B  B20  1  0.84568161  0.41204582  0.25630209  1
  H  H21  1  0.01116630  0.46706304  0.54256865  1
  H  H22  1  0.00356846  0.50885445  0.77334200  1
  H  H23  1  0.33486339  0.56003050  0.31978514  1
  H  H24  1  0.35336338  0.47880877  0.58397406  1
  H  H25  1  0.68042543  0.42525209  0.22079062  1
  H  H26  1  0.68038675  0.49375172  0.42887951  1
  Cl  Cl27  1  0.02589134  0.53056744  0.11614243  1
  Cl  Cl28  1  0.35035120  0.48085838  0.98580495  1
  Cl  Cl29  1  0.68148183  0.49670850  0.81322289  1
  O  O30  1  0.09372874  0.05069337  0.62831021  1
  O  O31  1  0.96698397  0.99319391  0.63455540  1
  O  O32  1  0.06466287  0.94930677  0.33289516  1
  O  O33  1  0.16392030  0.67302110  0.53025502  1
  O  O34  1  0.17053760  0.87965036  0.07771817  1
  O  O35  1  0.19342990  0.07776330  0.29488410  1
  O  O36  1  0.18086309  0.37666120  0.40098391  1
  O  O37  1  0.22996825  0.99155763  0.67326886  1
  O  O38  1  0.19722181  0.29382047  0.80103120  1
  O  O39  1  0.30041967  0.01322105  0.95761130  1
  O  O40  1  0.42813396  0.96781096  0.00202916  1
  O  O41  1  0.39750049  0.06300151  0.60913376  1
  O  O42  1  0.52641202  0.91742884  0.70677771  1
  O  O43  1  0.50348424  0.11890110  0.28976813  1
  O  O44  1  0.49749836  0.32561664  0.53578768  1
  O  O45  1  0.56369884  0.99834819  0.00143732  1
  O  O46  1  0.51179910  0.62220983  0.11139317  1
  O  O47  1  0.63346475  0.96712586  0.31303865  1
  O  O48  1  0.53024020  0.70047407  0.42970306  1
  O  O49  1  0.76090127  0.99770936  0.32143025  1
  O  O50  1  0.73111647  0.90879717  0.01893095  1
  O  O51  1  0.83221021  0.63673710  0.21436836  1
  O  O52  1  0.83842673  0.83973580  0.76385788  1
  O  O53  1  0.85913427  0.04172018  0.97963562  1
  O  O54  1  0.84220521  0.33811467  0.08933500  1
  O  O55  1  0.89713831  0.95908442  0.35540035  1
  O  O56  1  0.86009163  0.25550874  0.48858521  1
  O  O57  1  0.98236666  0.42295526  0.70619133  1
  O  O58  1  0.33683081  0.61158200  0.43982143  1
  O  O59  1  0.67095891  0.36855573  0.39763253  1
