# generated using pymatgen
data_Na2GeH12S2O7
_symmetry_space_group_name_H-M   'P 1'
_cell_length_a   10.80787574
_cell_length_b   13.93373546
_cell_length_c   14.13237899
_cell_angle_alpha   90.00000000
_cell_angle_beta   90.00000000
_cell_angle_gamma   90.00000000
_symmetry_Int_Tables_number   1
_chemical_formula_structural   Na2GeH12S2O7
_chemical_formula_sum   'Na16 Ge8 H96 S16 O56'
_cell_volume   2128.25263264
_cell_formula_units_Z   8
loop_
 _symmetry_equiv_pos_site_id
 _symmetry_equiv_pos_as_xyz
  1  'x, y, z'
loop_
 _atom_site_type_symbol
 _atom_site_label
 _atom_site_symmetry_multiplicity
 _atom_site_fract_x
 _atom_site_fract_y
 _atom_site_fract_z
 _atom_site_occupancy
  Na  Na0  1  0.00000000  0.50000000  0.50000000  1
  Na  Na1  1  0.50000000  0.00000000  0.00000000  1
  Na  Na2  1  0.50000000  0.00000000  0.50000000  1
  Na  Na3  1  0.00000000  0.50000000  0.00000000  1
  Na  Na4  1  0.49915767  0.51363735  0.87658986  1
  Na  Na5  1  0.00084233  0.98636265  0.37658986  1
  Na  Na6  1  0.99915767  0.98636265  0.12341014  1
  Na  Na7  1  0.50084233  0.51363735  0.62341014  1
  Na  Na8  1  0.50084233  0.48636265  0.12341014  1
  Na  Na9  1  0.99915767  0.01363735  0.62341014  1
  Na  Na10  1  0.00084233  0.01363735  0.87658986  1
  Na  Na11  1  0.49915767  0.48636265  0.37658986  1
  Na  Na12  1  0.00000000  0.44827351  0.75000000  1
  Na  Na13  1  0.50000000  0.05172649  0.25000000  1
  Na  Na14  1  0.00000000  0.55172649  0.25000000  1
  Na  Na15  1  0.50000000  0.94827351  0.75000000  1
  Ge  Ge16  1  0.18837521  0.64797622  0.85584870  1
  Ge  Ge17  1  0.31162479  0.85202378  0.35584870  1
  Ge  Ge18  1  0.68837521  0.85202378  0.14415130  1
  Ge  Ge19  1  0.81162479  0.64797622  0.64415130  1
  Ge  Ge20  1  0.81162479  0.35202378  0.14415130  1
  Ge  Ge21  1  0.68837521  0.14797622  0.64415130  1
  Ge  Ge22  1  0.31162479  0.14797622  0.85584870  1
  Ge  Ge23  1  0.18837521  0.35202378  0.35584870  1
  H  H24  1  0.96724124  0.63132634  0.84240649  1
  H  H25  1  0.53275876  0.86867366  0.34240649  1
  H  H26  1  0.46724124  0.86867366  0.15759351  1
  H  H27  1  0.03275876  0.63132634  0.65759351  1
  H  H28  1  0.03275876  0.36867366  0.15759351  1
  H  H29  1  0.46724124  0.13132634  0.65759351  1
  H  H30  1  0.53275876  0.13132634  0.84240649  1
  H  H31  1  0.96724124  0.36867366  0.34240649  1
  H  H32  1  0.25857106  0.49116224  0.81925065  1
  H  H33  1  0.24142894  0.00883776  0.31925065  1
  H  H34  1  0.75857106  0.00883776  0.18074935  1
  H  H35  1  0.74142894  0.49116224  0.68074935  1
  H  H36  1  0.74142894  0.50883776  0.18074935  1
  H  H37  1  0.75857106  0.99116224  0.68074935  1
  H  H38  1  0.24142894  0.99116224  0.81925065  1
  H  H39  1  0.25857106  0.50883776  0.31925065  1
  H  H40  1  0.54946546  0.81987052  0.92769530  1
  H  H41  1  0.95053454  0.68012948  0.42769530  1
  H  H42  1  0.04946546  0.68012948  0.07230470  1
  H  H43  1  0.45053454  0.81987052  0.57230470  1
  H  H44  1  0.45053454  0.18012948  0.07230470  1
  H  H45  1  0.04946546  0.31987052  0.57230470  1
  H  H46  1  0.95053454  0.31987052  0.92769530  1
  H  H47  1  0.54946546  0.18012948  0.42769530  1
  H  H48  1  0.40456412  0.81951391  0.91813743  1
  H  H49  1  0.09543588  0.68048609  0.41813743  1
  H  H50  1  0.90456412  0.68048609  0.08186257  1
  H  H51  1  0.59543588  0.81951391  0.58186257  1
  H  H52  1  0.59543588  0.18048609  0.08186257  1
  H  H53  1  0.90456412  0.31951391  0.58186257  1
  H  H54  1  0.09543588  0.31951391  0.91813743  1
  H  H55  1  0.40456412  0.18048609  0.41813743  1
  H  H56  1  0.55450562  0.66455375  0.02374130  1
  H  H57  1  0.94549438  0.83544625  0.52374130  1
  H  H58  1  0.05450562  0.83544625  0.97625870  1
  H  H59  1  0.44549438  0.66455375  0.47625870  1
  H  H60  1  0.44549438  0.33544625  0.97625870  1
  H  H61  1  0.05450562  0.16455375  0.47625870  1
  H  H62  1  0.94549438  0.16455375  0.02374130  1
  H  H63  1  0.55450562  0.33544625  0.52374130  1
  H  H64  1  0.41009559  0.65301426  0.01204363  1
  H  H65  1  0.08990441  0.84698574  0.51204363  1
  H  H66  1  0.91009559  0.84698574  0.98795637  1
  H  H67  1  0.58990441  0.65301426  0.48795637  1
  H  H68  1  0.58990441  0.34698574  0.98795637  1
  H  H69  1  0.91009559  0.15301426  0.48795637  1
  H  H70  1  0.08990441  0.15301426  0.01204363  1
  H  H71  1  0.41009559  0.34698574  0.51204363  1
  H  H72  1  0.22517552  0.45325856  0.65701905  1
  H  H73  1  0.27482448  0.04674144  0.15701905  1
  H  H74  1  0.72517552  0.04674144  0.34298095  1
  H  H75  1  0.77482448  0.45325856  0.84298095  1
  H  H76  1  0.77482448  0.54674144  0.34298095  1
  H  H77  1  0.72517552  0.95325856  0.84298095  1
  H  H78  1  0.27482448  0.95325856  0.65701905  1
  H  H79  1  0.22517552  0.54674144  0.15701905  1
  H  H80  1  0.22873370  0.35678281  0.71891647  1
  H  H81  1  0.27126630  0.14321719  0.21891647  1
  H  H82  1  0.72873370  0.14321719  0.28108353  1
  H  H83  1  0.77126630  0.35678281  0.78108353  1
  H  H84  1  0.77126630  0.64321719  0.28108353  1
  H  H85  1  0.72873370  0.85678281  0.78108353  1
  H  H86  1  0.27126630  0.85678281  0.71891647  1
  H  H87  1  0.22873370  0.64321719  0.21891647  1
  H  H88  1  0.24630488  0.40881631  0.06576082  1
  H  H89  1  0.25369512  0.09118369  0.56576082  1
  H  H90  1  0.74630488  0.09118369  0.93423918  1
  H  H91  1  0.75369512  0.40881631  0.43423918  1
  H  H92  1  0.75369512  0.59118369  0.93423918  1
  H  H93  1  0.74630488  0.90881631  0.43423918  1
  H  H94  1  0.25369512  0.90881631  0.06576082  1
  H  H95  1  0.24630488  0.59118369  0.56576082  1
  H  H96  1  0.26215447  0.49197692  0.98783358  1
  H  H97  1  0.23784553  0.00802308  0.48783358  1
  H  H98  1  0.76215447  0.00802308  0.01216642  1
  H  H99  1  0.73784553  0.49197692  0.51216642  1
  H  H100  1  0.73784553  0.50802308  0.01216642  1
  H  H101  1  0.76215447  0.99197692  0.51216642  1
  H  H102  1  0.23784553  0.99197692  0.98783358  1
  H  H103  1  0.26215447  0.50802308  0.48783358  1
  H  H104  1  0.42650023  0.67011945  0.74316956  1
  H  H105  1  0.07349977  0.82988055  0.24316956  1
  H  H106  1  0.92650023  0.82988055  0.25683044  1
  H  H107  1  0.57349977  0.67011945  0.75683044  1
  H  H108  1  0.57349977  0.32988055  0.25683044  1
  H  H109  1  0.92650023  0.17011945  0.75683044  1
  H  H110  1  0.07349977  0.17011945  0.74316956  1
  H  H111  1  0.42650023  0.32988055  0.24316956  1
  H  H112  1  0.07030637  0.84758916  0.74256422  1
  H  H113  1  0.42969363  0.65241084  0.24256422  1
  H  H114  1  0.57030637  0.65241084  0.25743578  1
  H  H115  1  0.92969363  0.84758916  0.75743578  1
  H  H116  1  0.92969363  0.15241084  0.25743578  1
  H  H117  1  0.57030637  0.34758916  0.75743578  1
  H  H118  1  0.42969363  0.34758916  0.74256422  1
  H  H119  1  0.07030637  0.15241084  0.24256422  1
  S  S120  1  0.21226710  0.70747376  0.71413494  1
  S  S121  1  0.28773290  0.79252624  0.21413494  1
  S  S122  1  0.71226710  0.79252624  0.28586506  1
  S  S123  1  0.78773290  0.70747376  0.78586506  1
  S  S124  1  0.78773290  0.29252624  0.28586506  1
  S  S125  1  0.71226710  0.20747376  0.78586506  1
  S  S126  1  0.28773290  0.20747376  0.71413494  1
  S  S127  1  0.21226710  0.29252624  0.21413494  1
  S  S128  1  0.22430160  0.73673702  0.97969907  1
  S  S129  1  0.27569840  0.76326298  0.47969907  1
  S  S130  1  0.72430160  0.76326298  0.02030093  1
  S  S131  1  0.77569840  0.73673702  0.52030093  1
  S  S132  1  0.77569840  0.26326298  0.02030093  1
  S  S133  1  0.72430160  0.23673702  0.52030093  1
  S  S134  1  0.27569840  0.23673702  0.97969907  1
  S  S135  1  0.22430160  0.26326298  0.47969907  1
  O  O136  1  0.03564751  0.58896715  0.86313520  1
  O  O137  1  0.46435249  0.91103285  0.36313520  1
  O  O138  1  0.53564751  0.91103285  0.13686480  1
  O  O139  1  0.96435249  0.58896715  0.63686480  1
  O  O140  1  0.96435249  0.41103285  0.13686480  1
  O  O141  1  0.53564751  0.08896715  0.63686480  1
  O  O142  1  0.46435249  0.08896715  0.86313520  1
  O  O143  1  0.03564751  0.41103285  0.36313520  1
  O  O144  1  0.27885698  0.53598200  0.87254521  1
  O  O145  1  0.22114302  0.96401800  0.37254521  1
  O  O146  1  0.77885698  0.96401800  0.12745479  1
  O  O147  1  0.72114302  0.53598200  0.62745479  1
  O  O148  1  0.72114302  0.46401800  0.12745479  1
  O  O149  1  0.77885698  0.03598200  0.62745479  1
  O  O150  1  0.22114302  0.03598200  0.87254521  1
  O  O151  1  0.27885698  0.46401800  0.37254521  1
  O  O152  1  0.47921388  0.85670792  0.90129299  1
  O  O153  1  0.02078612  0.64329208  0.40129299  1
  O  O154  1  0.97921388  0.64329208  0.09870701  1
  O  O155  1  0.52078612  0.85670792  0.59870701  1
  O  O156  1  0.52078612  0.14329208  0.09870701  1
  O  O157  1  0.97921388  0.35670792  0.59870701  1
  O  O158  1  0.02078612  0.35670792  0.90129299  1
  O  O159  1  0.47921388  0.14329208  0.40129299  1
  O  O160  1  0.48835593  0.61620031  0.01391007  1
  O  O161  1  0.01164407  0.88379969  0.51391007  1
  O  O162  1  0.98835593  0.88379969  0.98608993  1
  O  O163  1  0.51164407  0.61620031  0.48608993  1
  O  O164  1  0.51164407  0.38379969  0.98608993  1
  O  O165  1  0.98835593  0.11620031  0.48608993  1
  O  O166  1  0.01164407  0.11620031  0.01391007  1
  O  O167  1  0.48835593  0.38379969  0.51391007  1
  O  O168  1  0.20929708  0.42651394  0.72124341  1
  O  O169  1  0.29070292  0.07348606  0.22124341  1
  O  O170  1  0.70929708  0.07348606  0.27875659  1
  O  O171  1  0.79070292  0.42651394  0.77875659  1
  O  O172  1  0.79070292  0.57348606  0.27875659  1
  O  O173  1  0.70929708  0.92651394  0.77875659  1
  O  O174  1  0.29070292  0.92651394  0.72124341  1
  O  O175  1  0.20929708  0.57348606  0.22124341  1
  O  O176  1  0.24365407  0.47862946  0.05585884  1
  O  O177  1  0.25634593  0.02137054  0.55585884  1
  O  O178  1  0.74365407  0.02137054  0.94414116  1
  O  O179  1  0.75634593  0.47862946  0.44414116  1
  O  O180  1  0.75634593  0.52137054  0.94414116  1
  O  O181  1  0.74365407  0.97862946  0.44414116  1
  O  O182  1  0.25634593  0.97862946  0.05585884  1
  O  O183  1  0.24365407  0.52137054  0.55585884  1
  O  O184  1  0.50000000  0.62859646  0.75000000  1
  O  O185  1  0.00000000  0.87140354  0.25000000  1
  O  O186  1  0.50000000  0.37140354  0.25000000  1
  O  O187  1  0.00000000  0.12859646  0.75000000  1
  O  O188  1  0.00000000  0.89203932  0.75000000  1
  O  O189  1  0.50000000  0.60796068  0.25000000  1
  O  O190  1  0.00000000  0.10796068  0.25000000  1
  O  O191  1  0.50000000  0.39203932  0.75000000  1
