# generated using pymatgen
data_Mn2Si(H2O3)2
_symmetry_space_group_name_H-M   'P 1'
_cell_length_a   12.84459357
_cell_length_b   7.31232976
_cell_length_c   5.41209346
_cell_angle_alpha   90.00000000
_cell_angle_beta   90.00000000
_cell_angle_gamma   90.00000000
_symmetry_Int_Tables_number   1
_chemical_formula_structural   Mn2Si(H2O3)2
_chemical_formula_sum   'Mn8 Si4 H16 O24'
_cell_volume   508.32494559
_cell_formula_units_Z   4
loop_
 _symmetry_equiv_pos_site_id
 _symmetry_equiv_pos_as_xyz
  1  'x, y, z'
loop_
 _atom_site_type_symbol
 _atom_site_label
 _atom_site_symmetry_multiplicity
 _atom_site_fract_x
 _atom_site_fract_y
 _atom_site_fract_z
 _atom_site_occupancy
  Mn  Mn0  1  0.68816281  0.17741891  0.99882851  1
  Mn  Mn1  1  0.31183719  0.82258109  0.49882851  1
  Mn  Mn2  1  0.81183719  0.17741891  0.49882851  1
  Mn  Mn3  1  0.18816281  0.82258109  0.99882851  1
  Mn  Mn4  1  0.45890727  0.83104303  0.97723807  1
  Mn  Mn5  1  0.54109273  0.16895697  0.47723807  1
  Mn  Mn6  1  0.04109273  0.83104303  0.47723807  1
  Mn  Mn7  1  0.95890727  0.16895697  0.97723807  1
  Si  Si8  1  0.31439506  0.21454759  0.18727547  1
  Si  Si9  1  0.68560494  0.78545241  0.68727547  1
  Si  Si10  1  0.18560494  0.21454759  0.68727547  1
  Si  Si11  1  0.81439506  0.78545241  0.18727547  1
  H  H12  1  0.38138656  0.10969086  0.74948518  1
  H  H13  1  0.61861344  0.89030914  0.24948518  1
  H  H14  1  0.11861344  0.10969086  0.24948518  1
  H  H15  1  0.88138656  0.89030914  0.74948518  1
  H  H16  1  0.18204335  0.54755840  0.35369658  1
  H  H17  1  0.81795665  0.45244160  0.85369658  1
  H  H18  1  0.31795665  0.54755840  0.85369658  1
  H  H19  1  0.68204335  0.45244160  0.35369658  1
  H  H20  1  0.43467022  0.52190658  0.29543689  1
  H  H21  1  0.56532978  0.47809342  0.79543689  1
  H  H22  1  0.06532978  0.52190658  0.79543689  1
  H  H23  1  0.93467022  0.47809342  0.29543689  1
  H  H24  1  0.49838636  0.66551670  0.47378335  1
  H  H25  1  0.50161364  0.33448330  0.97378335  1
  H  H26  1  0.00161364  0.66551670  0.97378335  1
  H  H27  1  0.99838636  0.33448330  0.47378335  1
  O  O28  1  0.31750546  0.99164109  0.17374925  1
  O  O29  1  0.68249454  0.00835891  0.67374925  1
  O  O30  1  0.18249454  0.99164109  0.67374925  1
  O  O31  1  0.81750546  0.00835891  0.17374925  1
  O  O32  1  0.42535748  0.01681183  0.67328506  1
  O  O33  1  0.57464252  0.98318817  0.17328506  1
  O  O34  1  0.07464252  0.01681183  0.17328506  1
  O  O35  1  0.92535748  0.98318817  0.67328506  1
  O  O36  1  0.17730096  0.68126540  0.34603702  1
  O  O37  1  0.82269904  0.31873460  0.84603702  1
  O  O38  1  0.32269904  0.68126540  0.84603702  1
  O  O39  1  0.67730096  0.31873460  0.34603702  1
  O  O40  1  0.44629790  0.65781595  0.33353554  1
  O  O41  1  0.55370210  0.34218405  0.83353554  1
  O  O42  1  0.05370210  0.65781595  0.83353554  1
  O  O43  1  0.94629790  0.34218405  0.33353554  1
  O  O44  1  0.42746748  0.31054817  0.22938321  1
  O  O45  1  0.57253252  0.68945183  0.72938321  1
  O  O46  1  0.07253252  0.31054817  0.72938321  1
  O  O47  1  0.92746748  0.68945183  0.22938321  1
  O  O48  1  0.26832804  0.28542335  0.91006588  1
  O  O49  1  0.73167196  0.71457665  0.41006588  1
  O  O50  1  0.23167196  0.28542335  0.41006588  1
  O  O51  1  0.76832804  0.71457665  0.91006588  1
