# generated using pymatgen
data_NaCaB5(H5O7)2
_symmetry_space_group_name_H-M   'P 1'
_cell_length_a   6.63860710
_cell_length_b   12.67095281
_cell_length_c   13.60216763
_cell_angle_alpha   90.00000000
_cell_angle_beta   99.95714681
_cell_angle_gamma   90.00000000
_symmetry_Int_Tables_number   1
_chemical_formula_structural   NaCaB5(H5O7)2
_chemical_formula_sum   'Na4 Ca4 B20 H40 O56'
_cell_volume   1126.94564775
_cell_formula_units_Z   4
loop_
 _symmetry_equiv_pos_site_id
 _symmetry_equiv_pos_as_xyz
  1  'x, y, z'
loop_
 _atom_site_type_symbol
 _atom_site_label
 _atom_site_symmetry_multiplicity
 _atom_site_fract_x
 _atom_site_fract_y
 _atom_site_fract_z
 _atom_site_occupancy
  Na  Na0  1  0.11907253  0.00454642  0.82382063  1
  Na  Na1  1  0.88092747  0.50454642  0.67617937  1
  Na  Na2  1  0.88092747  0.99545358  0.17617937  1
  Na  Na3  1  0.11907253  0.49545358  0.32382063  1
  Ca  Ca4  1  0.35027488  0.91280115  0.59360083  1
  Ca  Ca5  1  0.64972512  0.41280115  0.90639917  1
  Ca  Ca6  1  0.64972512  0.08719885  0.40639917  1
  Ca  Ca7  1  0.35027488  0.58719885  0.09360083  1
  B  B8  1  0.33607231  0.25723241  0.44931262  1
  B  B9  1  0.66392769  0.75723241  0.05068738  1
  B  B10  1  0.66392769  0.74276759  0.55068738  1
  B  B11  1  0.33607231  0.24276759  0.94931262  1
  B  B12  1  0.49959275  0.14268495  0.60239093  1
  B  B13  1  0.50040725  0.64268495  0.89760907  1
  B  B14  1  0.50040725  0.85731505  0.39760907  1
  B  B15  1  0.49959275  0.35731505  0.10239093  1
  B  B16  1  0.11988588  0.15050141  0.54502777  1
  B  B17  1  0.88011412  0.65050141  0.95497223  1
  B  B18  1  0.88011412  0.84949859  0.45497223  1
  B  B19  1  0.11988588  0.34949859  0.04502777  1
  B  B20  1  0.85247395  0.06066651  0.63296890  1
  B  B21  1  0.14752605  0.56066651  0.86703110  1
  B  B22  1  0.14752605  0.93933349  0.36703110  1
  B  B23  1  0.85247395  0.43933349  0.13296890  1
  B  B24  1  0.75078589  0.19094608  0.75304172  1
  B  B25  1  0.24921411  0.69094608  0.74695828  1
  B  B26  1  0.24921411  0.80905392  0.24695828  1
  B  B27  1  0.75078589  0.30905392  0.25304172  1
  H  H28  1  0.34686166  0.24782375  0.29710688  1
  H  H29  1  0.65313834  0.74782375  0.20289312  1
  H  H30  1  0.65313834  0.75217625  0.70289312  1
  H  H31  1  0.34686166  0.25217625  0.79710688  1
  H  H32  1  0.47978292  0.39789136  0.43295638  1
  H  H33  1  0.52021708  0.89789136  0.06704362  1
  H  H34  1  0.52021708  0.60210864  0.56704362  1
  H  H35  1  0.47978292  0.10210864  0.93295638  1
  H  H36  1  0.92819376  0.24532104  0.88075193  1
  H  H37  1  0.07180624  0.74532104  0.61924807  1
  H  H38  1  0.07180624  0.75467896  0.11924807  1
  H  H39  1  0.92819376  0.25467896  0.38075193  1
  H  H40  1  0.87246605  0.90152110  0.65991206  1
  H  H41  1  0.12753395  0.40152110  0.84008794  1
  H  H42  1  0.12753395  0.09847890  0.34008794  1
  H  H43  1  0.87246605  0.59847890  0.15991206  1
  H  H44  1  0.45206169  0.85197234  0.79412228  1
  H  H45  1  0.54793831  0.35197234  0.70587772  1
  H  H46  1  0.54793831  0.14802766  0.20587772  1
  H  H47  1  0.45206169  0.64802766  0.29412228  1
  H  H48  1  0.55501799  0.96446981  0.80896877  1
  H  H49  1  0.44498201  0.46446981  0.69103123  1
  H  H50  1  0.44498201  0.03553019  0.19103123  1
  H  H51  1  0.55501799  0.53553019  0.30896877  1
  H  H52  1  0.80143311  0.05761108  0.95162114  1
  H  H53  1  0.19856689  0.55761108  0.54837886  1
  H  H54  1  0.19856689  0.94238892  0.04837886  1
  H  H55  1  0.80143311  0.44238892  0.45162114  1
  H  H56  1  0.75031679  0.93977091  0.95581521  1
  H  H57  1  0.24968321  0.43977091  0.54418479  1
  H  H58  1  0.24968321  0.06022909  0.04418479  1
  H  H59  1  0.75031679  0.56022909  0.45581521  1
  H  H60  1  0.04851217  0.82419217  0.94942409  1
  H  H61  1  0.95148783  0.32419217  0.55057591  1
  H  H62  1  0.95148783  0.17580783  0.05057591  1
  H  H63  1  0.04851217  0.67580783  0.44942409  1
  H  H64  1  0.28311700  0.80444978  0.94736464  1
  H  H65  1  0.71688300  0.30444978  0.55263536  1
  H  H66  1  0.71688300  0.19555022  0.05263536  1
  H  H67  1  0.28311700  0.69555022  0.44736464  1
  O  O68  1  0.32995723  0.20059713  0.35223101  1
  O  O69  1  0.67004277  0.70059713  0.14776899  1
  O  O70  1  0.67004277  0.79940287  0.64776899  1
  O  O71  1  0.32995723  0.29940287  0.85223101  1
  O  O72  1  0.34272625  0.37349544  0.43729897  1
  O  O73  1  0.65727375  0.87349544  0.06270103  1
  O  O74  1  0.65727375  0.62650456  0.56270103  1
  O  O75  1  0.34272625  0.12650456  0.93729897  1
  O  O76  1  0.14008895  0.23741750  0.48514722  1
  O  O77  1  0.85991105  0.73741750  0.01485278  1
  O  O78  1  0.85991105  0.76258250  0.51485278  1
  O  O79  1  0.14008895  0.26258250  0.98514722  1
  O  O80  1  0.51241103  0.21438277  0.51804570  1
  O  O81  1  0.48758897  0.71438277  0.98195430  1
  O  O82  1  0.48758897  0.78561723  0.48195430  1
  O  O83  1  0.51241103  0.28561723  0.01804570  1
  O  O84  1  0.28891085  0.10070215  0.59731494  1
  O  O85  1  0.71108915  0.60070215  0.90268506  1
  O  O86  1  0.71108915  0.89929785  0.40268506  1
  O  O87  1  0.28891085  0.39929785  0.09731494  1
  O  O88  1  0.63015053  0.04830165  0.59974153  1
  O  O89  1  0.36984947  0.54830165  0.90025847  1
  O  O90  1  0.36984947  0.95169835  0.40025847  1
  O  O91  1  0.63015053  0.45169835  0.09974153  1
  O  O92  1  0.55737985  0.20267104  0.69827604  1
  O  O93  1  0.44262015  0.70267104  0.80172396  1
  O  O94  1  0.44262015  0.79732896  0.30172396  1
  O  O95  1  0.55737985  0.29732896  0.19827604  1
  O  O96  1  0.92564444  0.11918470  0.55016661  1
  O  O97  1  0.07435556  0.61918470  0.94983339  1
  O  O98  1  0.07435556  0.88081530  0.44983339  1
  O  O99  1  0.92564444  0.38081530  0.05016661  1
  O  O100  1  0.89646609  0.12691956  0.72610255  1
  O  O101  1  0.10353391  0.62691956  0.77389745  1
  O  O102  1  0.10353391  0.87308044  0.27389745  1
  O  O103  1  0.89646609  0.37308044  0.22610255  1
  O  O104  1  0.78966246  0.25110228  0.84056429  1
  O  O105  1  0.21033754  0.75110228  0.65943571  1
  O  O106  1  0.21033754  0.74889772  0.15943571  1
  O  O107  1  0.78966246  0.24889772  0.34056429  1
  O  O108  1  0.96484325  0.96106823  0.65271683  1
  O  O109  1  0.03515675  0.46106823  0.84728317  1
  O  O110  1  0.03515675  0.03893177  0.34728317  1
  O  O111  1  0.96484325  0.53893177  0.15271683  1
  O  O112  1  0.42974867  0.92771965  0.77640944  1
  O  O113  1  0.57025133  0.42771965  0.72359056  1
  O  O114  1  0.57025133  0.07228035  0.22359056  1
  O  O115  1  0.42974867  0.57228035  0.27640944  1
  O  O116  1  0.78140005  0.99413055  0.90786689  1
  O  O117  1  0.21859995  0.49413055  0.59213311  1
  O  O118  1  0.21859995  0.00586945  0.09213311  1
  O  O119  1  0.78140005  0.50586945  0.40786689  1
  O  O120  1  0.17389872  0.85987494  0.93797689  1
  O  O121  1  0.82610128  0.35987494  0.56202311  1
  O  O122  1  0.82610128  0.14012506  0.06202311  1
  O  O123  1  0.17389872  0.64012506  0.43797689  1
