# generated using pymatgen
data_ZnH3CNO3
_symmetry_space_group_name_H-M   'P 1'
_cell_length_a   9.37621310
_cell_length_b   5.23736557
_cell_length_c   8.27338158
_cell_angle_alpha   90.00000000
_cell_angle_beta   90.00000000
_cell_angle_gamma   90.00000000
_symmetry_Int_Tables_number   1
_chemical_formula_structural   ZnH3CNO3
_chemical_formula_sum   'Zn4 H12 C4 N4 O12'
_cell_volume   406.27810045
_cell_formula_units_Z   4
loop_
 _symmetry_equiv_pos_site_id
 _symmetry_equiv_pos_as_xyz
  1  'x, y, z'
loop_
 _atom_site_type_symbol
 _atom_site_label
 _atom_site_symmetry_multiplicity
 _atom_site_fract_x
 _atom_site_fract_y
 _atom_site_fract_z
 _atom_site_occupancy
  Zn  Zn0  1  0.62362127  0.25164391  0.32061129  1
  Zn  Zn1  1  0.37637873  0.75164391  0.67938871  1
  Zn  Zn2  1  0.87637873  0.75164391  0.82061129  1
  Zn  Zn3  1  0.12362127  0.25164391  0.17938871  1
  H  H4  1  0.85381456  0.11773960  0.60365288  1
  H  H5  1  0.14618544  0.61773960  0.39634712  1
  H  H6  1  0.64618544  0.61773960  0.10365288  1
  H  H7  1  0.35381456  0.11773960  0.89634712  1
  H  H8  1  0.01510440  0.98773131  0.59119096  1
  H  H9  1  0.98489560  0.48773131  0.40880904  1
  H  H10  1  0.48489560  0.48773131  0.09119096  1
  H  H11  1  0.51510440  0.98773131  0.90880904  1
  H  H12  1  0.97352835  0.18533660  0.74015507  1
  H  H13  1  0.02647165  0.68533660  0.25984493  1
  H  H14  1  0.52647165  0.68533660  0.24015507  1
  H  H15  1  0.47352835  0.18533660  0.75984493  1
  C  C16  1  0.85510614  0.99149845  0.12514990  1
  C  C17  1  0.14489386  0.49149845  0.87485010  1
  C  C18  1  0.64489386  0.49149845  0.62514990  1
  C  C19  1  0.35510614  0.99149845  0.37485010  1
  N  N20  1  0.93560796  0.03757610  0.67025643  1
  N  N21  1  0.06439204  0.53757610  0.32974357  1
  N  N22  1  0.56439204  0.53757610  0.17025643  1
  N  N23  1  0.43560796  0.03757610  0.82974357  1
  O  O24  1  0.49344197  0.98163643  0.39572100  1
  O  O25  1  0.50655803  0.48163643  0.60427900  1
  O  O26  1  0.00655803  0.48163643  0.89572100  1
  O  O27  1  0.99344197  0.98163643  0.10427900  1
  O  O28  1  0.80464538  0.08869440  0.25538820  1
  O  O29  1  0.19535462  0.58869440  0.74461180  1
  O  O30  1  0.69535462  0.58869440  0.75538820  1
  O  O31  1  0.30464538  0.08869440  0.24461180  1
  O  O32  1  0.72645339  0.39174320  0.51530487  1
  O  O33  1  0.27354661  0.89174320  0.48469513  1
  O  O34  1  0.77354661  0.89174320  0.01530487  1
  O  O35  1  0.22645339  0.39174320  0.98469513  1
