# generated using pymatgen
data_NdBO3
_symmetry_space_group_name_H-M   'P 1'
_cell_length_a   5.08363134
_cell_length_b   5.80358898
_cell_length_c   8.14229350
_cell_angle_alpha   90.00000000
_cell_angle_beta   90.00000000
_cell_angle_gamma   90.00000000
_symmetry_Int_Tables_number   1
_chemical_formula_structural   NdBO3
_chemical_formula_sum   'Nd4 B4 O12'
_cell_volume   240.22458338
_cell_formula_units_Z   4
loop_
 _symmetry_equiv_pos_site_id
 _symmetry_equiv_pos_as_xyz
  1  'x, y, z'
loop_
 _atom_site_type_symbol
 _atom_site_label
 _atom_site_symmetry_multiplicity
 _atom_site_fract_x
 _atom_site_fract_y
 _atom_site_fract_z
 _atom_site_occupancy
  B  B0  1  0.25000000  0.91959680  0.26228882  1
  B  B1  1  0.75000000  0.08040320  0.73771118  1
  B  B2  1  0.25000000  0.41959680  0.23771118  1
  B  B3  1  0.75000000  0.58040320  0.76228882  1
  O  O4  1  0.01540478  0.41476249  0.32365954  1
  O  O5  1  0.51540478  0.58523751  0.67634046  1
  O  O6  1  0.48459522  0.91476249  0.17634046  1
  O  O7  1  0.98459522  0.08523751  0.82365954  1
  O  O8  1  0.75000000  0.59521032  0.93082489  1
  O  O9  1  0.25000000  0.40478968  0.06917511  1
  O  O10  1  0.75000000  0.09521032  0.56917511  1
  O  O11  1  0.25000000  0.90478968  0.43082489  1
  O  O12  1  0.98459522  0.58523751  0.67634046  1
  O  O13  1  0.48459522  0.41476249  0.32365954  1
  O  O14  1  0.51540478  0.08523751  0.82365954  1
  O  O15  1  0.01540478  0.91476249  0.17634046  1
  Nd  Nd16  1  0.25000000  0.75766955  0.91484386  1
  Nd  Nd17  1  0.75000000  0.24233045  0.08515614  1
  Nd  Nd18  1  0.25000000  0.25766955  0.58515614  1
  Nd  Nd19  1  0.75000000  0.74233045  0.41484386  1
