# generated using pymatgen
data_AlP3(HO5)2
_symmetry_space_group_name_H-M   'P 1'
_cell_length_a   7.33273427
_cell_length_b   8.62467365
_cell_length_c   11.80161071
_cell_angle_alpha   90.00000000
_cell_angle_beta   102.30484448
_cell_angle_gamma   90.00000000
_symmetry_Int_Tables_number   1
_chemical_formula_structural   AlP3(HO5)2
_chemical_formula_sum   'Al4 P12 H8 O40'
_cell_volume   729.21688519
_cell_formula_units_Z   4
loop_
 _symmetry_equiv_pos_site_id
 _symmetry_equiv_pos_as_xyz
  1  'x, y, z'
loop_
 _atom_site_type_symbol
 _atom_site_label
 _atom_site_symmetry_multiplicity
 _atom_site_fract_x
 _atom_site_fract_y
 _atom_site_fract_z
 _atom_site_occupancy
  Al  Al0  1  0.03616596  0.57138999  0.29608538  1
  Al  Al1  1  0.53616596  0.92861001  0.79608538  1
  Al  Al2  1  0.96383404  0.42861001  0.70391462  1
  Al  Al3  1  0.46383404  0.07138999  0.20391462  1
  P  P4  1  0.27905912  0.39418520  0.13942130  1
  P  P5  1  0.77905912  0.10581480  0.63942130  1
  P  P6  1  0.72094088  0.60581480  0.86057870  1
  P  P7  1  0.22094088  0.89418520  0.36057870  1
  P  P8  1  0.64995629  0.39038815  0.29308972  1
  P  P9  1  0.14995629  0.10961185  0.79308972  1
  P  P10  1  0.35004371  0.60961185  0.70691028  1
  P  P11  1  0.85004371  0.89038815  0.20691028  1
  P  P12  1  0.76872005  0.61731963  0.47988504  1
  P  P13  1  0.26872005  0.88268037  0.97988504  1
  P  P14  1  0.23127995  0.38268037  0.52011496  1
  P  P15  1  0.73127995  0.11731963  0.02011496  1
  H  H16  1  0.20710664  0.36845504  0.94722735  1
  H  H17  1  0.70710664  0.13154496  0.44722735  1
  H  H18  1  0.79289336  0.63154496  0.05277265  1
  H  H19  1  0.29289336  0.86845504  0.55277265  1
  H  H20  1  0.62965663  0.82772524  0.40727587  1
  H  H21  1  0.12965663  0.67227476  0.90727587  1
  H  H22  1  0.37034337  0.17227476  0.59272413  1
  H  H23  1  0.87034337  0.32772524  0.09272413  1
  O  O24  1  0.47823478  0.46747724  0.20543085  1
  O  O25  1  0.97823478  0.03252276  0.70543085  1
  O  O26  1  0.52176522  0.53252276  0.79456915  1
  O  O27  1  0.02176522  0.96747724  0.29456915  1
  O  O28  1  0.29015943  0.42702624  0.01047876  1
  O  O29  1  0.79015943  0.07297376  0.51047876  1
  O  O30  1  0.70984057  0.57297376  0.98952124  1
  O  O31  1  0.20984057  0.92702624  0.48952124  1
  O  O32  1  0.64823114  0.47259749  0.41362457  1
  O  O33  1  0.14823114  0.02740251  0.91362457  1
  O  O34  1  0.35176886  0.52740251  0.58637543  1
  O  O35  1  0.85176886  0.97259749  0.08637543  1
  O  O36  1  0.12516687  0.48948584  0.17138678  1
  O  O37  1  0.62516687  0.01051416  0.67138678  1
  O  O38  1  0.87483313  0.51051416  0.82861322  1
  O  O39  1  0.37483313  0.98948584  0.32861322  1
  O  O40  1  0.27887030  0.22402677  0.16918217  1
  O  O41  1  0.77887030  0.27597323  0.66918217  1
  O  O42  1  0.72112970  0.77597323  0.83081783  1
  O  O43  1  0.22112970  0.72402677  0.33081783  1
  O  O44  1  0.92280506  0.65151670  0.41659843  1
  O  O45  1  0.42280506  0.84848330  0.91659843  1
  O  O46  1  0.07719494  0.34848330  0.58340157  1
  O  O47  1  0.57719494  0.15151670  0.08340157  1
  O  O48  1  0.61249829  0.22028362  0.31049712  1
  O  O49  1  0.11249829  0.27971638  0.81049712  1
  O  O50  1  0.38750171  0.77971638  0.68950288  1
  O  O51  1  0.88750171  0.72028362  0.18950288  1
  O  O52  1  0.82707974  0.42886905  0.25327171  1
  O  O53  1  0.32707974  0.07113095  0.75327171  1
  O  O54  1  0.17292026  0.57113095  0.74672829  1
  O  O55  1  0.67292026  0.92886905  0.24672829  1
  O  O56  1  0.82097259  0.57212728  0.60541395  1
  O  O57  1  0.32097259  0.92787272  0.10541395  1
  O  O58  1  0.17902741  0.42787272  0.39458605  1
  O  O59  1  0.67902741  0.07212728  0.89458605  1
  O  O60  1  0.62915474  0.75609509  0.47229264  1
  O  O61  1  0.12915474  0.74390491  0.97229264  1
  O  O62  1  0.37084526  0.24390491  0.52770736  1
  O  O63  1  0.87084526  0.25609509  0.02770736  1
