# generated using pymatgen
data_CSe(ClF)3
_symmetry_space_group_name_H-M   'P 1'
_cell_length_a   7.73986463
_cell_length_b   19.53011939
_cell_length_c   19.69018871
_cell_angle_alpha   90.00000000
_cell_angle_beta   90.00000000
_cell_angle_gamma   90.00000000
_symmetry_Int_Tables_number   1
_chemical_formula_structural   CSe(ClF)3
_chemical_formula_sum   'C16 Se16 Cl48 F48'
_cell_volume   2976.37838233
_cell_formula_units_Z   16
loop_
 _symmetry_equiv_pos_site_id
 _symmetry_equiv_pos_as_xyz
  1  'x, y, z'
loop_
 _atom_site_type_symbol
 _atom_site_label
 _atom_site_symmetry_multiplicity
 _atom_site_fract_x
 _atom_site_fract_y
 _atom_site_fract_z
 _atom_site_occupancy
  C  C0  1  0.82123292  0.92306701  0.40331625  1
  C  C1  1  0.32123292  0.57693299  0.59668375  1
  C  C2  1  0.59534816  0.69738742  0.41054408  1
  C  C3  1  0.32123292  0.92306701  0.09668375  1
  C  C4  1  0.67876708  0.42306701  0.40331625  1
  C  C5  1  0.17876708  0.42306701  0.09668375  1
  C  C6  1  0.67876708  0.07693299  0.90331625  1
  C  C7  1  0.09534816  0.69738742  0.08945592  1
  C  C8  1  0.82123292  0.57693299  0.90331625  1
  C  C9  1  0.90465184  0.19738742  0.41054408  1
  C  C10  1  0.90465184  0.30261258  0.91054408  1
  C  C11  1  0.40465184  0.30261258  0.58945592  1
  C  C12  1  0.40465184  0.19738742  0.08945592  1
  C  C13  1  0.09534816  0.80261258  0.58945592  1
  C  C14  1  0.59534816  0.80261258  0.91054408  1
  C  C15  1  0.17876708  0.07693299  0.59668375  1
  Se  Se16  1  0.90784923  0.43360307  0.34180463  1
  Se  Se17  1  0.40784923  0.06639693  0.65819537  1
  Se  Se18  1  0.91025792  0.74273056  0.15737109  1
  Se  Se19  1  0.08974208  0.24273056  0.34262891  1
  Se  Se20  1  0.08974208  0.25726944  0.84262891  1
  Se  Se21  1  0.58974208  0.25726944  0.65737109  1
  Se  Se22  1  0.09215077  0.56639693  0.65819537  1
  Se  Se23  1  0.91025792  0.75726944  0.65737109  1
  Se  Se24  1  0.41025792  0.74273056  0.34262891  1
  Se  Se25  1  0.40784923  0.43360307  0.15819537  1
  Se  Se26  1  0.59215077  0.56639693  0.84180463  1
  Se  Se27  1  0.90784923  0.06639693  0.84180463  1
  Se  Se28  1  0.58974208  0.24273056  0.15737109  1
  Se  Se29  1  0.09215077  0.93360307  0.15819537  1
  Se  Se30  1  0.59215077  0.93360307  0.34180463  1
  Se  Se31  1  0.41025792  0.75726944  0.84262891  1
  Cl  Cl32  1  0.94335668  0.65922093  0.23301828  1
  Cl  Cl33  1  0.51556267  0.47270412  0.90065539  1
  Cl  Cl34  1  0.51556267  0.02729588  0.40065539  1
  Cl  Cl35  1  0.75302572  0.48992375  0.26067501  1
  Cl  Cl36  1  0.75302572  0.01007625  0.76067501  1
  Cl  Cl37  1  0.44335668  0.65922093  0.26698172  1
  Cl  Cl38  1  0.24697428  0.98992375  0.23932499  1
  Cl  Cl39  1  0.48443733  0.52729588  0.09934461  1
  Cl  Cl40  1  0.24697428  0.51007625  0.73932499  1
  Cl  Cl41  1  0.01556267  0.02729588  0.09934461  1
  Cl  Cl42  1  0.85544355  0.31647971  0.27784404  1
  Cl  Cl43  1  0.01556267  0.47270412  0.59934461  1
  Cl  Cl44  1  0.05664332  0.34077907  0.76698172  1
  Cl  Cl45  1  0.98443733  0.52729588  0.40065539  1
  Cl  Cl46  1  0.30466532  0.19286151  0.40130684  1
  Cl  Cl47  1  0.25302572  0.01007625  0.73932499  1
  Cl  Cl48  1  0.19533468  0.69286151  0.40130684  1
  Cl  Cl49  1  0.08402198  0.35573260  0.42212110  1
  Cl  Cl50  1  0.94335668  0.84077907  0.73301828  1
  Cl  Cl51  1  0.35544355  0.18352029  0.72215596  1
  Cl  Cl52  1  0.41597802  0.64426740  0.92212110  1
  Cl  Cl53  1  0.69533468  0.80713849  0.59869316  1
  Cl  Cl54  1  0.74697428  0.98992375  0.26067501  1
  Cl  Cl55  1  0.44335668  0.84077907  0.76698172  1
  Cl  Cl56  1  0.80466532  0.30713849  0.59869316  1
  Cl  Cl57  1  0.14455645  0.81647971  0.22215596  1
  Cl  Cl58  1  0.48443733  0.97270412  0.59934461  1
  Cl  Cl59  1  0.14455645  0.68352029  0.72215596  1
  Cl  Cl60  1  0.80466532  0.19286151  0.09869316  1
  Cl  Cl61  1  0.19533468  0.80713849  0.90130684  1
  Cl  Cl62  1  0.30466532  0.30713849  0.90130684  1
  Cl  Cl63  1  0.05664332  0.15922093  0.26698172  1
  Cl  Cl64  1  0.25302572  0.48992375  0.23932499  1
  Cl  Cl65  1  0.41597802  0.85573260  0.42212110  1
  Cl  Cl66  1  0.91597802  0.64426740  0.57787890  1
  Cl  Cl67  1  0.64455645  0.68352029  0.77784404  1
  Cl  Cl68  1  0.35544355  0.31647971  0.22215596  1
  Cl  Cl69  1  0.98443733  0.97270412  0.90065539  1
  Cl  Cl70  1  0.55664332  0.15922093  0.23301828  1
  Cl  Cl71  1  0.08402198  0.14426740  0.92212110  1
  Cl  Cl72  1  0.64455645  0.81647971  0.27784404  1
  Cl  Cl73  1  0.58402198  0.35573260  0.07787890  1
  Cl  Cl74  1  0.91597802  0.85573260  0.07787890  1
  Cl  Cl75  1  0.74697428  0.51007625  0.76067501  1
  Cl  Cl76  1  0.58402198  0.14426740  0.57787890  1
  Cl  Cl77  1  0.69533468  0.69286151  0.09869316  1
  Cl  Cl78  1  0.55664332  0.34077907  0.73301828  1
  Cl  Cl79  1  0.85544355  0.18352029  0.77784404  1
  F  F80  1  0.77482872  0.59081746  0.96726434  1
  F  F81  1  0.74580998  0.21690921  0.39269564  1
  F  F82  1  0.22517128  0.09081746  0.53273566  1
  F  F83  1  0.74580998  0.28309079  0.89269564  1
  F  F84  1  0.41878416  0.87273026  0.12175251  1
  F  F85  1  0.58121584  0.12726974  0.87824749  1
  F  F86  1  0.41817712  0.12918958  0.09330325  1
  F  F87  1  0.59120437  0.01793133  0.90174288  1
  F  F88  1  0.90879563  0.51793133  0.90174288  1
  F  F89  1  0.77482872  0.90918254  0.46726434  1
  F  F90  1  0.58121584  0.37273026  0.37824749  1
  F  F91  1  0.41817712  0.37081042  0.59330325  1
  F  F92  1  0.44019651  0.21765542  0.02614814  1
  F  F93  1  0.08121584  0.12726974  0.62175251  1
  F  F94  1  0.05980349  0.78234458  0.52614814  1
  F  F95  1  0.91817712  0.37081042  0.90669675  1
  F  F96  1  0.55980349  0.78234458  0.97385186  1
  F  F97  1  0.44019651  0.28234458  0.52614814  1
  F  F98  1  0.24580998  0.21690921  0.10730436  1
  F  F99  1  0.75419002  0.71690921  0.39269564  1
  F  F100  1  0.55980349  0.71765542  0.47385186  1
  F  F101  1  0.91878416  0.87273026  0.37824749  1
  F  F102  1  0.72517128  0.40918254  0.46726434  1
  F  F103  1  0.25419002  0.71690921  0.10730436  1
  F  F104  1  0.75419002  0.78309079  0.89269564  1
  F  F105  1  0.40879563  0.98206867  0.09825712  1
  F  F106  1  0.94019651  0.28234458  0.97385186  1
  F  F107  1  0.91817712  0.12918958  0.40669675  1
  F  F108  1  0.40879563  0.51793133  0.59825712  1
  F  F109  1  0.08182288  0.87081042  0.59330325  1
  F  F110  1  0.09120437  0.01793133  0.59825712  1
  F  F111  1  0.90879563  0.98206867  0.40174288  1
  F  F112  1  0.27482872  0.59081746  0.53273566  1
  F  F113  1  0.09120437  0.48206867  0.09825712  1
  F  F114  1  0.27482872  0.90918254  0.03273566  1
  F  F115  1  0.25419002  0.78309079  0.60730436  1
  F  F116  1  0.94019651  0.21765542  0.47385186  1
  F  F117  1  0.24580998  0.28309079  0.60730436  1
  F  F118  1  0.58182288  0.62918958  0.40669675  1
  F  F119  1  0.41878416  0.62726974  0.62175251  1
  F  F120  1  0.08182288  0.62918958  0.09330325  1
  F  F121  1  0.22517128  0.40918254  0.03273566  1
  F  F122  1  0.05980349  0.71765542  0.02614814  1
  F  F123  1  0.58182288  0.87081042  0.90669675  1
  F  F124  1  0.08121584  0.37273026  0.12175251  1
  F  F125  1  0.91878416  0.62726974  0.87824749  1
  F  F126  1  0.59120437  0.48206867  0.40174288  1
  F  F127  1  0.72517128  0.09081746  0.96726434  1
