# generated using pymatgen
data_K2P3H5O11
_symmetry_space_group_name_H-M   'P 1'
_cell_length_a   16.25093770
_cell_length_b   16.25093770
_cell_length_c   9.37350292
_cell_angle_alpha   80.13306218
_cell_angle_beta   99.86693782
_cell_angle_gamma   153.34633463
_symmetry_Int_Tables_number   1
_chemical_formula_structural   K2P3H5O11
_chemical_formula_sum   'K8 P12 H20 O44'
_cell_volume   1093.13472901
_cell_formula_units_Z   4
loop_
 _symmetry_equiv_pos_site_id
 _symmetry_equiv_pos_as_xyz
  1  'x, y, z'
loop_
 _atom_site_type_symbol
 _atom_site_label
 _atom_site_symmetry_multiplicity
 _atom_site_fract_x
 _atom_site_fract_y
 _atom_site_fract_z
 _atom_site_occupancy
  K  K0  1  0.14618870  0.78964518  0.37852204  1
  K  K1  1  0.78964518  0.14618870  0.12147796  1
  K  K2  1  0.85381130  0.21035482  0.62147796  1
  K  K3  1  0.21035482  0.85381130  0.87852204  1
  K  K4  1  0.50063809  0.50063809  0.75000000  1
  K  K5  1  0.49936191  0.49936191  0.25000000  1
  K  K6  1  0.00000000  0.00000000  0.50000000  1
  K  K7  1  0.00000000  0.00000000  0.00000000  1
  P  P8  1  0.32000147  0.77205495  0.70305931  1
  P  P9  1  0.77205495  0.32000147  0.79694069  1
  P  P10  1  0.67999853  0.22794505  0.29694069  1
  P  P11  1  0.22794505  0.67999853  0.20305931  1
  P  P12  1  0.78115413  0.59182271  0.55668486  1
  P  P13  1  0.59182271  0.78115413  0.94331514  1
  P  P14  1  0.21884587  0.40817729  0.44331514  1
  P  P15  1  0.40817729  0.21884587  0.05668486  1
  P  P16  1  0.37770386  0.20447851  0.55242924  1
  P  P17  1  0.20447851  0.37770386  0.94757076  1
  P  P18  1  0.62229614  0.79552149  0.44757076  1
  P  P19  1  0.79552149  0.62229614  0.05242924  1
  H  H20  1  0.52536829  0.07440943  0.64572432  1
  H  H21  1  0.07440943  0.52536829  0.85427568  1
  H  H22  1  0.47463171  0.92559057  0.35427568  1
  H  H23  1  0.92559057  0.47463171  0.14572432  1
  H  H24  1  0.77374921  0.34255669  0.50020766  1
  H  H25  1  0.34255669  0.77374921  0.99979234  1
  H  H26  1  0.22625079  0.65744331  0.49979234  1
  H  H27  1  0.65744331  0.22625079  0.00020766  1
  H  H28  1  0.57315124  0.89890245  0.83072400  1
  H  H29  1  0.89890245  0.57315124  0.66927600  1
  H  H30  1  0.42684876  0.10109755  0.16927600  1
  H  H31  1  0.10109755  0.42684876  0.33072400  1
  H  H32  1  0.86639397  0.68381897  0.82691791  1
  H  H33  1  0.68381897  0.86639397  0.67308209  1
  H  H34  1  0.13360603  0.31618103  0.17308209  1
  H  H35  1  0.31618103  0.13360603  0.32691791  1
  H  H36  1  0.13680920  0.31773128  0.71317669  1
  H  H37  1  0.31773128  0.13680920  0.78682331  1
  H  H38  1  0.86319080  0.68226872  0.28682331  1
  H  H39  1  0.68226872  0.86319080  0.21317669  1
  O  O40  1  0.50322406  0.88959562  0.71870152  1
  O  O41  1  0.88959562  0.50322406  0.78129848  1
  O  O42  1  0.49677594  0.11040438  0.28129848  1
  O  O43  1  0.11040438  0.49677594  0.21870152  1
  O  O44  1  0.34359937  0.88686113  0.64647619  1
  O  O45  1  0.88686113  0.34359937  0.85352381  1
  O  O46  1  0.65640063  0.11313887  0.35352381  1
  O  O47  1  0.11313887  0.65640063  0.14647619  1
  O  O48  1  0.66917821  0.22260578  0.64735065  1
  O  O49  1  0.22260578  0.66917821  0.85264935  1
  O  O50  1  0.33082179  0.77739422  0.35264935  1
  O  O51  1  0.77739422  0.33082179  0.14735065  1
  O  O52  1  0.17729436  0.60540799  0.60068636  1
  O  O53  1  0.60540799  0.17729436  0.89931364  1
  O  O54  1  0.82270564  0.39459201  0.39931364  1
  O  O55  1  0.39459201  0.82270564  0.10068636  1
  O  O56  1  0.92465905  0.64752886  0.57966696  1
  O  O57  1  0.64752886  0.92465905  0.92033304  1
  O  O58  1  0.07534095  0.35247114  0.42033304  1
  O  O59  1  0.35247114  0.07534095  0.07966696  1
  O  O60  1  0.78376708  0.64424313  0.68013814  1
  O  O61  1  0.64424313  0.78376708  0.81986186  1
  O  O62  1  0.21623292  0.35575687  0.31986186  1
  O  O63  1  0.35575687  0.21623292  0.18013814  1
  O  O64  1  0.79852636  0.66092510  0.40738043  1
  O  O65  1  0.66092510  0.79852636  0.09261957  1
  O  O66  1  0.20147364  0.33907490  0.59261957  1
  O  O67  1  0.33907490  0.20147364  0.90738043  1
  O  O68  1  0.58992556  0.36725208  0.55890579  1
  O  O69  1  0.36725208  0.58992556  0.94109421  1
  O  O70  1  0.41007444  0.63274792  0.44109421  1
  O  O71  1  0.63274792  0.41007444  0.05890579  1
  O  O72  1  0.35329594  0.27588037  0.52561757  1
  O  O73  1  0.27588037  0.35329594  0.97438243  1
  O  O74  1  0.64670406  0.72411963  0.47438243  1
  O  O75  1  0.72411963  0.64670406  0.02561757  1
  O  O76  1  0.28491796  0.07706453  0.43250068  1
  O  O77  1  0.07706453  0.28491796  0.06749932  1
  O  O78  1  0.71508204  0.92293547  0.56749932  1
  O  O79  1  0.92293547  0.71508204  0.93250068  1
  O  O80  1  0.29606114  0.08610425  0.69678627  1
  O  O81  1  0.08610425  0.29606114  0.80321373  1
  O  O82  1  0.70393886  0.91389575  0.30321373  1
  O  O83  1  0.91389575  0.70393886  0.19678627  1
