# generated using pymatgen
data_BaLa2O4
_symmetry_space_group_name_H-M   'P 1'
_cell_length_a   10.79769253
_cell_length_b   3.69976778
_cell_length_c   12.70460838
_cell_angle_alpha   90.00000000
_cell_angle_beta   90.00000000
_cell_angle_gamma   90.00000000
_symmetry_Int_Tables_number   1
_chemical_formula_structural   BaLa2O4
_chemical_formula_sum   'Ba4 La8 O16'
_cell_volume   507.53582746
_cell_formula_units_Z   4
loop_
 _symmetry_equiv_pos_site_id
 _symmetry_equiv_pos_as_xyz
  1  'x, y, z'
loop_
 _atom_site_type_symbol
 _atom_site_label
 _atom_site_symmetry_multiplicity
 _atom_site_fract_x
 _atom_site_fract_y
 _atom_site_fract_z
 _atom_site_occupancy
  Ba  Ba0  1  0.24962475  0.75000000  0.35362004  1
  Ba  Ba1  1  0.25037525  0.25000000  0.85362004  1
  Ba  Ba2  1  0.74962475  0.75000000  0.14637996  1
  Ba  Ba3  1  0.75037525  0.25000000  0.64637996  1
  La  La4  1  0.07540981  0.75000000  0.61335963  1
  La  La5  1  0.08074570  0.75000000  0.11188578  1
  La  La6  1  0.41925430  0.25000000  0.61188578  1
  La  La7  1  0.42459019  0.25000000  0.11335963  1
  La  La8  1  0.57540981  0.75000000  0.88664037  1
  La  La9  1  0.58074570  0.75000000  0.38811422  1
  La  La10  1  0.91925430  0.25000000  0.88811422  1
  La  La11  1  0.92459019  0.25000000  0.38664037  1
  O  O12  1  0.01404935  0.25000000  0.71728558  1
  O  O13  1  0.07079543  0.75000000  0.92381661  1
  O  O14  1  0.12384777  0.25000000  0.48238672  1
  O  O15  1  0.21246967  0.25000000  0.17309642  1
  O  O16  1  0.28753033  0.75000000  0.67309642  1
  O  O17  1  0.37615223  0.75000000  0.98238672  1
  O  O18  1  0.42920457  0.25000000  0.42381661  1
  O  O19  1  0.48595065  0.75000000  0.21728558  1
  O  O20  1  0.51404935  0.25000000  0.78271442  1
  O  O21  1  0.57079543  0.75000000  0.57618339  1
  O  O22  1  0.62384777  0.25000000  0.01761328  1
  O  O23  1  0.71246967  0.25000000  0.32690358  1
  O  O24  1  0.78753033  0.75000000  0.82690358  1
  O  O25  1  0.87615223  0.75000000  0.51761328  1
  O  O26  1  0.92920457  0.25000000  0.07618339  1
  O  O27  1  0.98595065  0.75000000  0.28271442  1
