# generated using pymatgen
data_Hf2P2O9
_symmetry_space_group_name_H-M   'P 1'
_cell_length_a   5.48797871
_cell_length_b   5.48797871
_cell_length_c   11.89418785
_cell_angle_alpha   90.00000000
_cell_angle_beta   90.00000000
_cell_angle_gamma   74.75808013
_symmetry_Int_Tables_number   1
_chemical_formula_structural   Hf2P2O9
_chemical_formula_sum   'Hf4 P4 O18'
_cell_volume   345.62719856
_cell_formula_units_Z   2
loop_
 _symmetry_equiv_pos_site_id
 _symmetry_equiv_pos_as_xyz
  1  'x, y, z'
loop_
 _atom_site_type_symbol
 _atom_site_label
 _atom_site_symmetry_multiplicity
 _atom_site_fract_x
 _atom_site_fract_y
 _atom_site_fract_z
 _atom_site_occupancy
  Hf  Hf0  1  0.79408888  0.79408888  0.56157687  1
  Hf  Hf1  1  0.20591112  0.20591112  0.43842313  1
  Hf  Hf2  1  0.70591112  0.70591112  0.06157687  1
  Hf  Hf3  1  0.29408888  0.29408888  0.93842313  1
  P  P4  1  0.89408714  0.89408714  0.85286454  1
  P  P5  1  0.10591286  0.10591286  0.14713546  1
  P  P6  1  0.60591286  0.60591286  0.35286454  1
  P  P7  1  0.39408714  0.39408714  0.64713546  1
  O  O8  1  0.01402498  0.36574976  0.08320635  1
  O  O9  1  0.51402498  0.86574976  0.41679365  1
  O  O10  1  0.13425024  0.48597502  0.58320635  1
  O  O11  1  0.63425024  0.98597502  0.91679365  1
  O  O12  1  0.50000000  0.50000000  0.00000000  1
  O  O13  1  0.14117916  0.14117916  0.27183332  1
  O  O14  1  0.35882084  0.35882084  0.77183332  1
  O  O15  1  0.00000000  0.00000000  0.50000000  1
  O  O16  1  0.43493024  0.43493024  0.37528167  1
  O  O17  1  0.06506976  0.06506976  0.87528167  1
  O  O18  1  0.56506976  0.56506976  0.62471833  1
  O  O19  1  0.93493024  0.93493024  0.12471833  1
  O  O20  1  0.85882084  0.85882084  0.72816668  1
  O  O21  1  0.64117916  0.64117916  0.22816668  1
  O  O22  1  0.86574976  0.51402498  0.41679365  1
  O  O23  1  0.98597502  0.63425024  0.91679365  1
  O  O24  1  0.36574976  0.01402498  0.08320635  1
  O  O25  1  0.48597502  0.13425024  0.58320635  1
