# generated using pymatgen
data_Ca8V7ZnBiO28
_symmetry_space_group_name_H-M   'P 1'
_cell_length_a   14.17206464
_cell_length_b   14.17421003
_cell_length_c   14.17206488
_cell_angle_alpha   45.39593958
_cell_angle_beta   45.49414176
_cell_angle_gamma   45.39593780
_symmetry_Int_Tables_number   1
_chemical_formula_structural   Ca8V7ZnBiO28
_chemical_formula_sum   'Ca16 V14 Zn2 Bi2 O56'
_cell_volume   1316.15402559
_cell_formula_units_Z   2
loop_
 _symmetry_equiv_pos_site_id
 _symmetry_equiv_pos_as_xyz
  1  'x, y, z'
loop_
 _atom_site_type_symbol
 _atom_site_label
 _atom_site_symmetry_multiplicity
 _atom_site_fract_x
 _atom_site_fract_y
 _atom_site_fract_z
 _atom_site_occupancy
  Ca  Ca0  1  0.06827022  0.65755657  0.07169391  1
  Ca  Ca1  1  0.06619400  0.06956620  0.66261757  1
  Ca  Ca2  1  0.05634042  0.45032089  0.46840328  1
  Ca  Ca3  1  0.65938895  0.07351817  0.06567524  1
  Ca  Ca4  1  0.44891192  0.47363467  0.05483408  1
  Ca  Ca5  1  0.47429209  0.06000539  0.44686034  1
  Ca  Ca6  1  0.16261757  0.56956620  0.56619400  1
  Ca  Ca7  1  0.56567524  0.57351817  0.15938895  1
  Ca  Ca8  1  0.57169391  0.15755657  0.56827022  1
  Ca  Ca9  1  0.44158285  0.40781845  0.84886295  1
  Ca  Ca10  1  0.85015837  0.43779941  0.41070719  1
  Ca  Ca11  1  0.34886295  0.90781845  0.94158285  1
  Ca  Ca12  1  0.91070719  0.93779941  0.35015837  1
  Ca  Ca13  1  0.55483408  0.97363467  0.94891192  1
  Ca  Ca14  1  0.94686034  0.56000539  0.97429209  1
  Ca  Ca15  1  0.96840328  0.95032089  0.55634042  1
  V  V16  1  0.26716368  0.26573900  0.26404024  1
  V  V17  1  0.18636132  0.68510512  0.22369010  1
  V  V18  1  0.22371895  0.18455854  0.68615321  1
  V  V19  1  0.68712223  0.22333099  0.18480366  1
  V  V20  1  0.27587844  0.82278692  0.30904427  1
  V  V21  1  0.31093827  0.27478767  0.82142169  1
  V  V22  1  0.18615321  0.68455854  0.72371895  1
  V  V23  1  0.82194425  0.31019530  0.27601890  1
  V  V24  1  0.68480366  0.72333099  0.18712223  1
  V  V25  1  0.72369010  0.18510512  0.68636132  1
  V  V26  1  0.32142169  0.77478767  0.81093827  1
  V  V27  1  0.77601890  0.81019530  0.32194425  1
  V  V28  1  0.80904427  0.32278692  0.77587844  1
  V  V29  1  0.76404024  0.76573900  0.76716368  1
  Zn  Zn30  1  0.00175042  0.99800584  0.00255449  1
  Zn  Zn31  1  0.50255449  0.49800584  0.50175042  1
  Bi  Bi32  1  0.40562674  0.85699193  0.43942710  1
  Bi  Bi33  1  0.93942710  0.35699193  0.90562674  1
  O  O34  1  0.09938899  0.40357223  0.25775794  1
  O  O35  1  0.26100703  0.09193884  0.40663883  1
  O  O36  1  0.40500262  0.25774637  0.09785084  1
  O  O37  1  0.17398022  0.60285900  0.18577284  1
  O  O38  1  0.18572197  0.17491894  0.60201617  1
  O  O39  1  0.31215895  0.31029419  0.31137912  1
  O  O40  1  0.11652158  0.87417182  0.12920143  1
  O  O41  1  0.13121057  0.11057549  0.87572093  1
  O  O42  1  0.08300813  0.64160306  0.40873293  1
  O  O43  1  0.16421883  0.36702942  0.62787358  1
  O  O44  1  0.60305798  0.18738668  0.17299301  1
  O  O45  1  0.36918604  0.61752621  0.16979596  1
  O  O46  1  0.40896294  0.08290050  0.64110888  1
  O  O47  1  0.09962907  0.83627252  0.40090224  1
  O  O48  1  0.61804679  0.17250827  0.36662676  1
  O  O49  1  0.65028520  0.40842746  0.07559721  1
  O  O50  1  0.11911286  0.35655505  0.88685539  1
  O  O51  1  0.87561986  0.12395646  0.11922922  1
  O  O52  1  0.40090895  0.09864688  0.83647119  1
  O  O53  1  0.10201617  0.67491894  0.68572197  1
  O  O54  1  0.38035252  0.63392843  0.37892206  1
  O  O55  1  0.37880015  0.37962395  0.63291734  1
  O  O56  1  0.35646865  0.88457005  0.12195253  1
  O  O57  1  0.63344903  0.37822465  0.38024892  1
  O  O58  1  0.83510859  0.40667985  0.09531896  1
  O  O59  1  0.26193214  0.90898497  0.36513707  1
  O  O60  1  0.12787358  0.86702942  0.66421883  1
  O  O61  1  0.14110888  0.58290050  0.90896294  1
  O  O62  1  0.36826636  0.26242972  0.90305904  1
  O  O63  1  0.67299301  0.68738668  0.10305798  1
  O  O64  1  0.37572093  0.61057549  0.63121057  1
  O  O65  1  0.68577284  0.10285900  0.67398022  1
  O  O66  1  0.88651604  0.12282397  0.35507300  1
  O  O67  1  0.61922922  0.62395646  0.37561986  1
  O  O68  1  0.62920143  0.37417182  0.61652158  1
  O  O69  1  0.57559721  0.90842746  0.15028520  1
  O  O70  1  0.66979596  0.11752621  0.86918604  1
  O  O71  1  0.13291734  0.87962395  0.87880015  1
  O  O72  1  0.90319767  0.36822396  0.26347551  1
  O  O73  1  0.33647119  0.59864688  0.90090895  1
  O  O74  1  0.86662676  0.67250827  0.11804679  1
  O  O75  1  0.90873293  0.14160306  0.58300813  1
  O  O76  1  0.38685539  0.85655505  0.61911286  1
  O  O77  1  0.59531896  0.90667985  0.33510859  1
  O  O78  1  0.62195253  0.38457005  0.85646865  1
  O  O79  1  0.90090224  0.33627252  0.59962907  1
  O  O80  1  0.40305904  0.76242972  0.86826636  1
  O  O81  1  0.88024892  0.87822465  0.13344903  1
  O  O82  1  0.87892206  0.13392843  0.88035252  1
  O  O83  1  0.85507300  0.62282397  0.38651604  1
  O  O84  1  0.76347551  0.86822396  0.40319767  1
  O  O85  1  0.86513707  0.40898497  0.76193214  1
  O  O86  1  0.59785084  0.75774637  0.90500262  1
  O  O87  1  0.75775794  0.90357223  0.59938899  1
  O  O88  1  0.90663883  0.59193884  0.76100703  1
  O  O89  1  0.81137912  0.81029419  0.81215895  1
