# generated using pymatgen
data_Ca2MnAl2Si3HO13
_symmetry_space_group_name_H-M   'P 1'
_cell_length_a   8.93297725
_cell_length_b   5.76611325
_cell_length_c   10.24898268
_cell_angle_alpha   90.00000000
_cell_angle_beta   115.63800488
_cell_angle_gamma   90.00000000
_symmetry_Int_Tables_number   1
_chemical_formula_structural   Ca2MnAl2Si3HO13
_chemical_formula_sum   'Ca4 Mn2 Al4 Si6 H2 O26'
_cell_volume   475.93529337
_cell_formula_units_Z   2
loop_
 _symmetry_equiv_pos_site_id
 _symmetry_equiv_pos_as_xyz
  1  'x, y, z'
loop_
 _atom_site_type_symbol
 _atom_site_label
 _atom_site_symmetry_multiplicity
 _atom_site_fract_x
 _atom_site_fract_y
 _atom_site_fract_z
 _atom_site_occupancy
  Ca  Ca0  1  0.75554848  0.75000000  0.15274796  1
  Ca  Ca1  1  0.24445152  0.25000000  0.84725204  1
  Ca  Ca2  1  0.59654258  0.75000000  0.42547319  1
  Ca  Ca3  1  0.40345742  0.25000000  0.57452681  1
  Mn  Mn4  1  0.29545428  0.25000000  0.22248690  1
  Mn  Mn5  1  0.70454572  0.75000000  0.77751310  1
  Al  Al6  1  0.00000000  0.50000000  0.00000000  1
  Al  Al7  1  0.00000000  0.00000000  0.00000000  1
  Al  Al8  1  0.00000000  0.50000000  0.50000000  1
  Al  Al9  1  0.00000000  0.00000000  0.50000000  1
  Si  Si10  1  0.33867428  0.75000000  0.04542594  1
  Si  Si11  1  0.66132572  0.25000000  0.95457406  1
  Si  Si12  1  0.68416352  0.25000000  0.27289163  1
  Si  Si13  1  0.31583648  0.75000000  0.72710837  1
  Si  Si14  1  0.18659605  0.75000000  0.31937951  1
  Si  Si15  1  0.81340395  0.25000000  0.68062049  1
  H  H16  1  0.05499595  0.25000000  0.32823889  1
  H  H17  1  0.94500405  0.75000000  0.67176111  1
  O  O18  1  0.22886364  0.51040466  0.03187445  1
  O  O19  1  0.77113636  0.01040466  0.96812555  1
  O  O20  1  0.77113636  0.48959534  0.96812555  1
  O  O21  1  0.22886364  0.98959534  0.03187445  1
  O  O22  1  0.30876619  0.52326821  0.35795684  1
  O  O23  1  0.69123381  0.02326821  0.64204316  1
  O  O24  1  0.69123381  0.47673179  0.64204316  1
  O  O25  1  0.30876619  0.97673179  0.35795684  1
  O  O26  1  0.79770135  0.48250324  0.33509529  1
  O  O27  1  0.20229865  0.98250324  0.66490471  1
  O  O28  1  0.20229865  0.51749676  0.66490471  1
  O  O29  1  0.79770135  0.01749676  0.33509529  1
  O  O30  1  0.05852029  0.25000000  0.13168083  1
  O  O31  1  0.94147971  0.75000000  0.86831917  1
  O  O32  1  0.04415181  0.75000000  0.14459525  1
  O  O33  1  0.95584819  0.25000000  0.85540475  1
  O  O34  1  0.06812885  0.75000000  0.40766209  1
  O  O35  1  0.93187115  0.25000000  0.59233791  1
  O  O36  1  0.51307594  0.75000000  0.18424970  1
  O  O37  1  0.48692406  0.25000000  0.81575030  1
  O  O38  1  0.52998424  0.25000000  0.31485915  1
  O  O39  1  0.47001576  0.75000000  0.68514085  1
  O  O40  1  0.61438301  0.25000000  0.09464549  1
  O  O41  1  0.38561699  0.75000000  0.90535451  1
  O  O42  1  0.08764918  0.25000000  0.43342727  1
  O  O43  1  0.91235082  0.75000000  0.56657273  1
