# generated using pymatgen
data_LiLa(MoO4)2
_symmetry_space_group_name_H-M   'P 1'
_cell_length_a   10.21065202
_cell_length_b   10.03237438
_cell_length_c   13.82228310
_cell_angle_alpha   90.00000000
_cell_angle_beta   90.00000000
_cell_angle_gamma   90.00000000
_symmetry_Int_Tables_number   1
_chemical_formula_structural   LiLa(MoO4)2
_chemical_formula_sum   'Li8 La8 Mo16 O64'
_cell_volume   1415.91437123
_cell_formula_units_Z   8
loop_
 _symmetry_equiv_pos_site_id
 _symmetry_equiv_pos_as_xyz
  1  'x, y, z'
loop_
 _atom_site_type_symbol
 _atom_site_label
 _atom_site_symmetry_multiplicity
 _atom_site_fract_x
 _atom_site_fract_y
 _atom_site_fract_z
 _atom_site_occupancy
  Li  Li0  1  0.22998841  0.07996824  0.47622137  1
  Li  Li1  1  0.72998841  0.42003176  0.52377863  1
  Li  Li2  1  0.77001159  0.57996824  0.02377863  1
  Li  Li3  1  0.27001159  0.92003176  0.97622137  1
  Li  Li4  1  0.77001159  0.92003176  0.52377863  1
  Li  Li5  1  0.27001159  0.57996824  0.47622137  1
  Li  Li6  1  0.22998841  0.42003176  0.97622137  1
  Li  Li7  1  0.72998841  0.07996824  0.02377863  1
  La  La8  1  0.54516468  0.12040667  0.37447211  1
  La  La9  1  0.04516468  0.37959333  0.62552789  1
  La  La10  1  0.45483532  0.62040667  0.12552789  1
  La  La11  1  0.95483532  0.87959333  0.87447211  1
  La  La12  1  0.45483532  0.87959333  0.62552789  1
  La  La13  1  0.95483532  0.62040667  0.37447211  1
  La  La14  1  0.54516468  0.37959333  0.87447211  1
  La  La15  1  0.04516468  0.12040667  0.12552789  1
  Mo  Mo16  1  0.26269677  0.36618224  0.29595349  1
  Mo  Mo17  1  0.76269677  0.13381776  0.70404651  1
  Mo  Mo18  1  0.73730323  0.86618224  0.20404651  1
  Mo  Mo19  1  0.23730323  0.63381776  0.79595349  1
  Mo  Mo20  1  0.73730323  0.63381776  0.70404651  1
  Mo  Mo21  1  0.23730323  0.86618224  0.29595349  1
  Mo  Mo22  1  0.26269677  0.13381776  0.79595349  1
  Mo  Mo23  1  0.76269677  0.36618224  0.20404651  1
  Mo  Mo24  1  0.58195046  0.71272088  0.41850437  1
  Mo  Mo25  1  0.08195046  0.78727912  0.58149563  1
  Mo  Mo26  1  0.41804954  0.21272088  0.08149563  1
  Mo  Mo27  1  0.91804954  0.28727912  0.91850437  1
  Mo  Mo28  1  0.41804954  0.28727912  0.58149563  1
  Mo  Mo29  1  0.91804954  0.21272088  0.41850437  1
  Mo  Mo30  1  0.58195046  0.78727912  0.91850437  1
  Mo  Mo31  1  0.08195046  0.71272088  0.08149563  1
  O  O32  1  0.18894021  0.29531085  0.18921261  1
  O  O33  1  0.68894021  0.20468915  0.81078739  1
  O  O34  1  0.81105979  0.79531085  0.31078739  1
  O  O35  1  0.31105979  0.70468915  0.68921261  1
  O  O36  1  0.81105979  0.70468915  0.81078739  1
  O  O37  1  0.31105979  0.79531085  0.18921261  1
  O  O38  1  0.18894021  0.20468915  0.68921261  1
  O  O39  1  0.68894021  0.29531085  0.31078739  1
  O  O40  1  0.38276359  0.48434440  0.25854643  1
  O  O41  1  0.88276359  0.01565560  0.74145357  1
  O  O42  1  0.61723641  0.98434440  0.24145357  1
  O  O43  1  0.11723641  0.51565560  0.75854643  1
  O  O44  1  0.61723641  0.51565560  0.74145357  1
  O  O45  1  0.11723641  0.98434440  0.25854643  1
  O  O46  1  0.38276359  0.01565560  0.75854643  1
  O  O47  1  0.88276359  0.48434440  0.24145357  1
  O  O48  1  0.33166289  0.24457380  0.37807491  1
  O  O49  1  0.83166289  0.25542620  0.62192509  1
  O  O50  1  0.66833711  0.74457380  0.12192509  1
  O  O51  1  0.16833711  0.75542620  0.87807491  1
  O  O52  1  0.66833711  0.75542620  0.62192509  1
  O  O53  1  0.16833711  0.74457380  0.37807491  1
  O  O54  1  0.33166289  0.25542620  0.87807491  1
  O  O55  1  0.83166289  0.24457380  0.12192509  1
  O  O56  1  0.14541577  0.45921487  0.36449997  1
  O  O57  1  0.64541577  0.04078513  0.63550003  1
  O  O58  1  0.85458423  0.95921487  0.13550003  1
  O  O59  1  0.35458423  0.54078513  0.86449997  1
  O  O60  1  0.85458423  0.54078513  0.63550003  1
  O  O61  1  0.35458423  0.95921487  0.36449997  1
  O  O62  1  0.14541577  0.04078513  0.86449997  1
  O  O63  1  0.64541577  0.45921487  0.13550003  1
  O  O64  1  0.44452259  0.66494589  0.49056986  1
  O  O65  1  0.94452259  0.83505411  0.50943014  1
  O  O66  1  0.55547741  0.16494589  0.00943014  1
  O  O67  1  0.05547741  0.33505411  0.99056986  1
  O  O68  1  0.55547741  0.33505411  0.50943014  1
  O  O69  1  0.05547741  0.16494589  0.49056986  1
  O  O70  1  0.44452259  0.83505411  0.99056986  1
  O  O71  1  0.94452259  0.66494589  0.00943014  1
  O  O72  1  0.53674987  0.70360909  0.29468418  1
  O  O73  1  0.03674987  0.79639091  0.70531582  1
  O  O74  1  0.46325013  0.20360909  0.20531582  1
  O  O75  1  0.96325013  0.29639091  0.79468418  1
  O  O76  1  0.46325013  0.29639091  0.70531582  1
  O  O77  1  0.96325013  0.20360909  0.29468418  1
  O  O78  1  0.53674987  0.79639091  0.79468418  1
  O  O79  1  0.03674987  0.70360909  0.20531582  1
  O  O80  1  0.60171958  0.88846256  0.45544662  1
  O  O81  1  0.10171958  0.61153744  0.54455338  1
  O  O82  1  0.39828042  0.38846256  0.04455338  1
  O  O83  1  0.89828042  0.11153744  0.95544662  1
  O  O84  1  0.39828042  0.11153744  0.54455338  1
  O  O85  1  0.89828042  0.38846256  0.45544662  1
  O  O86  1  0.60171958  0.61153744  0.95544662  1
  O  O87  1  0.10171958  0.88846256  0.04455338  1
  O  O88  1  0.71866243  0.60194538  0.44122300  1
  O  O89  1  0.21866243  0.89805462  0.55877700  1
  O  O90  1  0.28133757  0.10194538  0.05877700  1
  O  O91  1  0.78133757  0.39805462  0.94122300  1
  O  O92  1  0.28133757  0.39805462  0.55877700  1
  O  O93  1  0.78133757  0.10194538  0.44122300  1
  O  O94  1  0.71866243  0.89805462  0.94122300  1
  O  O95  1  0.21866243  0.60194538  0.05877700  1
