# generated using pymatgen
data_La2B4O9
_symmetry_space_group_name_H-M   'P 1'
_cell_length_a   6.39377193
_cell_length_b   6.74158528
_cell_length_c   7.76321819
_cell_angle_alpha   101.59617180
_cell_angle_beta   96.61736179
_cell_angle_gamma   102.41085952
_symmetry_Int_Tables_number   1
_chemical_formula_structural   La2B4O9
_chemical_formula_sum   'La4 B8 O18'
_cell_volume   315.71597858
_cell_formula_units_Z   2
loop_
 _symmetry_equiv_pos_site_id
 _symmetry_equiv_pos_as_xyz
  1  'x, y, z'
loop_
 _atom_site_type_symbol
 _atom_site_label
 _atom_site_symmetry_multiplicity
 _atom_site_fract_x
 _atom_site_fract_y
 _atom_site_fract_z
 _atom_site_occupancy
  La  La0  1  0.11351380  0.32241975  0.64352763  1
  La  La1  1  0.45601540  0.90743433  0.71783152  1
  La  La2  1  0.54398460  0.09256567  0.28216848  1
  La  La3  1  0.88648620  0.67758025  0.35647237  1
  B  B4  1  0.00532696  0.84527134  0.81769058  1
  B  B5  1  0.27419557  0.66342531  0.01905836  1
  B  B6  1  0.37196444  0.64081031  0.34248904  1
  B  B7  1  0.33816835  0.32837142  0.07608573  1
  B  B8  1  0.66183165  0.67162858  0.92391427  1
  B  B9  1  0.62803556  0.35918969  0.65751096  1
  B  B10  1  0.72580443  0.33657469  0.98094164  1
  B  B11  1  0.99467304  0.15472866  0.18230942  1
  O  O12  1  0.06066526  0.94375849  0.68433168  1
  O  O13  1  0.14231910  0.72153627  0.86845671  1
  O  O14  1  0.23111436  0.43696994  0.96534047  1
  O  O15  1  0.22421623  0.59328495  0.46900314  1
  O  O16  1  0.24335899  0.73122008  0.20478611  1
  O  O17  1  0.18472302  0.14631697  0.11529977  1
  O  O18  1  0.43131891  0.19147081  0.56553711  1
  O  O19  1  0.49544059  0.22508590  0.98846913  1
  O  O20  1  0.54813288  0.53565609  0.75052351  1
  O  O21  1  0.45186712  0.46434391  0.24947649  1
  O  O22  1  0.50455941  0.77491410  0.01153087  1
  O  O23  1  0.56868109  0.80852919  0.43446289  1
  O  O24  1  0.81527698  0.85368303  0.88470023  1
  O  O25  1  0.75664101  0.26877992  0.79521389  1
  O  O26  1  0.77578377  0.40671505  0.53099686  1
  O  O27  1  0.76888564  0.56303006  0.03465953  1
  O  O28  1  0.85768090  0.27846373  0.13154329  1
  O  O29  1  0.93933474  0.05624151  0.31566832  1
