# generated using pymatgen
data_Sr3Hf2O7
_symmetry_space_group_name_H-M   'P 1'
_cell_length_a   5.77065526
_cell_length_b   5.77096007
_cell_length_c   11.06580918
_cell_angle_alpha   90.00000000
_cell_angle_beta   105.11412873
_cell_angle_gamma   90.00000000
_symmetry_Int_Tables_number   1
_chemical_formula_structural   Sr3Hf2O7
_chemical_formula_sum   'Sr6 Hf4 O14'
_cell_volume   355.76845140
_cell_formula_units_Z   2
loop_
 _symmetry_equiv_pos_site_id
 _symmetry_equiv_pos_as_xyz
  1  'x, y, z'
loop_
 _atom_site_type_symbol
 _atom_site_label
 _atom_site_symmetry_multiplicity
 _atom_site_fract_x
 _atom_site_fract_y
 _atom_site_fract_z
 _atom_site_occupancy
  Sr  Sr0  1  0.06154193  0.25000000  0.62308487  1
  Sr  Sr1  1  0.43845807  0.25000000  0.37691513  1
  Sr  Sr2  1  0.56154193  0.75000000  0.62308487  1
  Sr  Sr3  1  0.25000000  0.25000000  0.00000000  1
  Sr  Sr4  1  0.75000000  0.75000000  0.00000000  1
  Sr  Sr5  1  0.93845807  0.75000000  0.37691513  1
  Hf  Hf6  1  0.15146179  0.75000000  0.80292458  1
  Hf  Hf7  1  0.65146179  0.25000000  0.80292458  1
  Hf  Hf8  1  0.34853821  0.75000000  0.19707542  1
  Hf  Hf9  1  0.84853821  0.25000000  0.19707542  1
  O  O10  1  0.05378938  0.75000000  0.60757877  1
  O  O11  1  0.04838549  0.54876233  0.19434720  1
  O  O12  1  0.35403829  0.04876233  0.80565280  1
  O  O13  1  0.14596171  0.04876233  0.19434720  1
  O  O14  1  0.45161451  0.54876233  0.80565280  1
  O  O15  1  0.25000000  0.75000000  0.00000000  1
  O  O16  1  0.55378938  0.25000000  0.60757877  1
  O  O17  1  0.44621062  0.75000000  0.39242123  1
  O  O18  1  0.54838549  0.45123767  0.19434720  1
  O  O19  1  0.85403829  0.95123767  0.80565280  1
  O  O20  1  0.95161451  0.45123767  0.80565280  1
  O  O21  1  0.64596171  0.95123767  0.19434720  1
  O  O22  1  0.75000000  0.25000000  0.00000000  1
  O  O23  1  0.94621062  0.25000000  0.39242123  1
