# generated using pymatgen
data_K2Mg2O3
_symmetry_space_group_name_H-M   'P 1'
_cell_length_a   6.72330426
_cell_length_b   6.30246551
_cell_length_c   6.38588612
_cell_angle_alpha   90.00000000
_cell_angle_beta   126.07790895
_cell_angle_gamma   90.00000000
_symmetry_Int_Tables_number   1
_chemical_formula_structural   K2Mg2O3
_chemical_formula_sum   'K4 Mg4 O6'
_cell_volume   218.69678133
_cell_formula_units_Z   2
loop_
 _symmetry_equiv_pos_site_id
 _symmetry_equiv_pos_as_xyz
  1  'x, y, z'
loop_
 _atom_site_type_symbol
 _atom_site_label
 _atom_site_symmetry_multiplicity
 _atom_site_fract_x
 _atom_site_fract_y
 _atom_site_fract_z
 _atom_site_occupancy
  K  K0  1  0.17822596  0.36758341  0.25181307  1
  K  K1  1  0.82177404  0.86758341  0.24818693  1
  K  K2  1  0.17822596  0.13241659  0.75181307  1
  K  K3  1  0.82177404  0.63241659  0.74818693  1
  Mg  Mg4  1  0.33718083  0.60770946  0.76122277  1
  Mg  Mg5  1  0.33718083  0.89229054  0.26122277  1
  Mg  Mg6  1  0.66281917  0.10770946  0.73877723  1
  Mg  Mg7  1  0.66281917  0.39229054  0.23877723  1
  O  O8  1  0.00000000  0.50000000  0.50000000  1
  O  O9  1  0.00000000  0.00000000  0.00000000  1
  O  O10  1  0.41711348  0.85834410  0.62307329  1
  O  O11  1  0.58288652  0.35834410  0.87692671  1
  O  O12  1  0.41711348  0.64165590  0.12307329  1
  O  O13  1  0.58288652  0.14165590  0.37692671  1
