# generated using pymatgen
data_Pd2S9N4
_symmetry_space_group_name_H-M   'P 1'
_cell_length_a   19.46462085
_cell_length_b   19.46462038
_cell_length_c   19.46462048
_cell_angle_alpha   118.71006689
_cell_angle_beta   118.71006615
_cell_angle_gamma   118.71006840
_symmetry_Int_Tables_number   1
_chemical_formula_structural   Pd2S9N4
_chemical_formula_sum   'Pd12 S54 N24'
_cell_volume   2162.72497807
_cell_formula_units_Z   6
loop_
 _symmetry_equiv_pos_site_id
 _symmetry_equiv_pos_as_xyz
  1  'x, y, z'
loop_
 _atom_site_type_symbol
 _atom_site_label
 _atom_site_symmetry_multiplicity
 _atom_site_fract_x
 _atom_site_fract_y
 _atom_site_fract_z
 _atom_site_occupancy
  Pd  Pd0  1  0.12211638  0.70779577  0.75980995  1
  Pd  Pd1  1  0.99325828  0.79379975  0.15311228  1
  Pd  Pd2  1  0.84688772  0.00674172  0.20620025  1
  Pd  Pd3  1  0.20620025  0.84688772  0.00674172  1
  Pd  Pd4  1  0.29220423  0.24019005  0.87788362  1
  Pd  Pd5  1  0.75980995  0.12211638  0.70779577  1
  Pd  Pd6  1  0.87788362  0.29220423  0.24019005  1
  Pd  Pd7  1  0.70779577  0.75980995  0.12211638  1
  Pd  Pd8  1  0.79379975  0.15311228  0.99325828  1
  Pd  Pd9  1  0.15311228  0.99325828  0.79379975  1
  Pd  Pd10  1  0.00674172  0.20620025  0.84688772  1
  Pd  Pd11  1  0.24019005  0.87788362  0.29220423  1
  S  S12  1  0.69108436  0.94809211  0.51897356  1
  S  S13  1  0.57722143  0.02977050  0.90271953  1
  S  S14  1  0.58022659  0.09968442  0.45806012  1
  S  S15  1  0.52151690  0.81889094  0.67611629  1
  S  S16  1  0.69563548  0.09769003  0.15792427  1
  S  S17  1  0.81889094  0.67611629  0.52151690  1
  S  S18  1  0.30436452  0.90230997  0.84207573  1
  S  S19  1  0.09377003  0.01438239  0.28844208  1
  S  S20  1  0.45806012  0.58022659  0.09968442  1
  S  S21  1  0.69659315  0.65442916  0.86309743  1
  S  S22  1  0.15792427  0.69563548  0.09769003  1
  S  S23  1  0.09769003  0.15792427  0.69563548  1
  S  S24  1  0.86309743  0.69659315  0.65442916  1
  S  S25  1  0.92278934  0.23933903  0.66222168  1
  S  S26  1  0.33777832  0.07721066  0.76066097  1
  S  S27  1  0.32388371  0.47848310  0.18110906  1
  S  S28  1  0.56632982  0.57763884  0.18882423  1
  S  S29  1  0.23933903  0.66222168  0.92278934  1
  S  S30  1  0.02977050  0.90271953  0.57722143  1
  S  S31  1  0.05190789  0.48102644  0.30891564  1
  S  S32  1  0.01438239  0.28844208  0.09377004  1
  S  S33  1  0.67611629  0.52151690  0.81889094  1
  S  S34  1  0.66222168  0.92278934  0.23933903  1
  S  S35  1  0.43367018  0.42236116  0.81117577  1
  S  S36  1  0.81117577  0.43367018  0.42236116  1
  S  S37  1  0.90622997  0.98561761  0.71155792  1
  S  S38  1  0.47848310  0.18110906  0.32388371  1
  S  S39  1  0.09728047  0.42277857  0.97022950  1
  S  S40  1  0.54193988  0.41977341  0.90031558  1
  S  S41  1  0.57763884  0.18882423  0.56632982  1
  S  S42  1  0.28844208  0.09377004  0.01438239  1
  S  S43  1  0.76066097  0.33777832  0.07721066  1
  S  S44  1  0.18882423  0.56632982  0.57763884  1
  S  S45  1  0.51897356  0.69108436  0.94809211  1
  S  S46  1  0.90031558  0.54193988  0.41977341  1
  S  S47  1  0.42236116  0.81117577  0.43367018  1
  S  S48  1  0.30340685  0.34557084  0.13690257  1
  S  S49  1  0.65442916  0.86309743  0.69659315  1
  S  S50  1  0.94809211  0.51897356  0.69108436  1
  S  S51  1  0.13690257  0.30340685  0.34557084  1
  S  S52  1  0.84207573  0.30436452  0.90230997  1
  S  S53  1  0.97022950  0.09728047  0.42277857  1
  S  S54  1  0.07721066  0.76066097  0.33777832  1
  S  S55  1  0.90271953  0.57722143  0.02977050  1
  S  S56  1  0.90230997  0.84207573  0.30436452  1
  S  S57  1  0.41977341  0.90031558  0.54193988  1
  S  S58  1  0.09968442  0.45806012  0.58022659  1
  S  S59  1  0.18110906  0.32388371  0.47848310  1
  S  S60  1  0.30891564  0.05190789  0.48102644  1
  S  S61  1  0.34557084  0.13690257  0.30340685  1
  S  S62  1  0.42277857  0.97022950  0.09728047  1
  S  S63  1  0.71155792  0.90622996  0.98561761  1
  S  S64  1  0.48102644  0.30891564  0.05190789  1
  S  S65  1  0.98561761  0.71155792  0.90622996  1
  N  N66  1  0.09068781  0.11239542  0.90241542  1
  N  N67  1  0.09758458  0.90931219  0.88760458  1
  N  N68  1  0.08730425  0.42351129  0.88211696  1
  N  N69  1  0.11239542  0.90241542  0.09068781  1
  N  N70  1  0.23392130  0.36383568  0.85914730  1
  N  N71  1  0.98176334  0.50428306  0.26247514  1
  N  N72  1  0.88760458  0.09758458  0.90931219  1
  N  N73  1  0.73752486  0.01823666  0.49571694  1
  N  N74  1  0.91269575  0.57648871  0.11788304  1
  N  N75  1  0.36383568  0.85914730  0.23392130  1
  N  N76  1  0.90241542  0.09068781  0.11239542  1
  N  N77  1  0.26247514  0.98176334  0.50428306  1
  N  N78  1  0.90931219  0.88760458  0.09758458  1
  N  N79  1  0.85914730  0.23392130  0.36383568  1
  N  N80  1  0.11788304  0.91269575  0.57648871  1
  N  N81  1  0.88211696  0.08730425  0.42351129  1
  N  N82  1  0.14085270  0.76607870  0.63616432  1
  N  N83  1  0.50428306  0.26247514  0.98176334  1
  N  N84  1  0.63616432  0.14085270  0.76607870  1
  N  N85  1  0.76607870  0.63616432  0.14085270  1
  N  N86  1  0.42351129  0.88211696  0.08730425  1
  N  N87  1  0.49571694  0.73752486  0.01823666  1
  N  N88  1  0.57648871  0.11788304  0.91269575  1
  N  N89  1  0.01823666  0.49571694  0.73752486  1
