# generated using pymatgen
data_Li14Mn2S9
_symmetry_space_group_name_H-M   'P 1'
_cell_length_a   7.07329921
_cell_length_b   7.07325416
_cell_length_c   9.91299654
_cell_angle_alpha   89.99943948
_cell_angle_beta   90.00028376
_cell_angle_gamma   119.99996911
_symmetry_Int_Tables_number   1
_chemical_formula_structural   Li14Mn2S9
_chemical_formula_sum   'Li14 Mn2 S9'
_cell_volume   429.51369390
_cell_formula_units_Z   1
loop_
 _symmetry_equiv_pos_site_id
 _symmetry_equiv_pos_as_xyz
  1  'x, y, z'
loop_
 _atom_site_type_symbol
 _atom_site_label
 _atom_site_symmetry_multiplicity
 _atom_site_fract_x
 _atom_site_fract_y
 _atom_site_fract_z
 _atom_site_occupancy
  Li  Li0  1  0.02466466  0.67756469  0.91018375  1
  Li  Li1  1  0.32329155  0.95862024  0.58928334  1
  Li  Li2  1  0.04135736  0.36464566  0.58927545  1
  Li  Li3  1  -0.00000215  0.00000769  0.25195174  1
  Li  Li4  1  -0.00000398  0.99998151  0.74804026  1
  Li  Li5  1  0.32243313  0.34712010  0.91019216  1
  Li  Li6  1  0.65289080  0.97531966  0.91019590  1
  Li  Li7  1  0.36466742  0.32330395  0.41072568  1
  Li  Li8  1  0.63533983  0.67669338  0.58927403  1
  Li  Li9  1  0.34709372  0.02466313  0.08981309  1
  Li  Li10  1  0.67757494  0.65289746  0.08981162  1
  Li  Li11  1  0.95863242  0.63533992  0.41072678  1
  Li  Li12  1  0.67671044  0.04136886  0.41073183  1
  Li  Li13  1  0.97532479  0.32244458  0.08981009  1
  Mn  Mn14  1  0.33333950  0.66664666  0.25550357  1
  Mn  Mn15  1  0.66665064  0.33335954  0.74445036  1
  S  S16  1  0.31044928  0.97160287  0.33847195  1
  S  S17  1  0.02839490  0.33886371  0.33847396  1
  S  S18  1  0.33330945  0.66669265  0.01503240  1
  S  S19  1  0.99994421  0.00004815  0.99999134  1
  S  S20  1  0.33885704  0.31045286  0.66154464  1
  S  S21  1  0.66113434  0.68953733  0.33845915  1
  S  S22  1  0.66662734  0.33333832  0.98497859  1
  S  S23  1  0.97160116  0.66111323  0.66153563  1
  S  S24  1  0.68951823  0.02837387  0.66154267  1
