# generated using pymatgen
data_LiZr2(PO4)3
_symmetry_space_group_name_H-M   'P 1'
_cell_length_a   8.83654717
_cell_length_b   8.89000770
_cell_length_c   9.16696567
_cell_angle_alpha   60.95877208
_cell_angle_beta   118.86093028
_cell_angle_gamma   118.84546596
_symmetry_Int_Tables_number   1
_chemical_formula_structural   LiZr2(PO4)3
_chemical_formula_sum   'Li2 Zr4 P6 O24'
_cell_volume   521.63216329
_cell_formula_units_Z   2
loop_
 _symmetry_equiv_pos_site_id
 _symmetry_equiv_pos_as_xyz
  1  'x, y, z'
loop_
 _atom_site_type_symbol
 _atom_site_label
 _atom_site_symmetry_multiplicity
 _atom_site_fract_x
 _atom_site_fract_y
 _atom_site_fract_z
 _atom_site_occupancy
  Li  Li0  1  0.22488483  0.68250853  0.57312666  1
  Li  Li1  1  0.77511517  0.31749147  0.42687334  1
  Zr  Zr2  1  0.13519917  0.35693283  0.93146001  1
  Zr  Zr3  1  0.36264068  0.14225504  0.57662703  1
  Zr  Zr4  1  0.63735932  0.85774496  0.42337297  1
  Zr  Zr5  1  0.86480083  0.64306717  0.06853999  1
  P  P6  1  0.04170175  0.75280638  0.75386385  1
  P  P7  1  0.24382606  0.95400815  0.25891292  1
  P  P8  1  0.46427568  0.47917845  0.74314138  1
  P  P9  1  0.53572432  0.52082155  0.25685862  1
  P  P10  1  0.75617394  0.04599185  0.74108708  1
  P  P11  1  0.95829825  0.24719362  0.24613615  1
  O  O12  1  0.02769022  0.69019929  0.93700755  1
  O  O13  1  0.19462383  0.93782859  0.72343096  1
  O  O14  1  0.09318291  0.61354598  0.74369485  1
  O  O15  1  0.27403516  0.95725539  0.43931816  1
  O  O16  1  0.09479939  0.76793790  0.24949374  1
  O  O17  1  0.28205393  0.41873375  0.77262750  1
  O  O18  1  0.14357776  0.23458826  0.38799655  1
  O  O19  1  0.42087688  0.96163701  0.25777635  1
  O  O20  1  0.47113074  0.66607753  0.59228819  1
  O  O21  1  0.62826475  0.50175121  0.91028266  1
  O  O22  1  0.81746959  0.88668518  0.89697600  1
  O  O23  1  0.46093102  0.33821625  0.68920142  1
  O  O24  1  0.53906898  0.66178375  0.31079858  1
  O  O25  1  0.18253041  0.11331482  0.10302400  1
  O  O26  1  0.37173525  0.49824879  0.08971734  1
  O  O27  1  0.52886926  0.33392247  0.40771181  1
  O  O28  1  0.57912312  0.03836299  0.74222365  1
  O  O29  1  0.85642224  0.76541174  0.61200345  1
  O  O30  1  0.71794607  0.58126625  0.22737250  1
  O  O31  1  0.90520061  0.23206210  0.75050626  1
  O  O32  1  0.72596484  0.04274461  0.56068184  1
  O  O33  1  0.90681709  0.38645402  0.25630515  1
  O  O34  1  0.80537617  0.06217141  0.27656904  1
  O  O35  1  0.97230978  0.30980071  0.06299245  1
