# generated using pymatgen
data_Y(BO2)3
_symmetry_space_group_name_H-M   'P 1'
_cell_length_a   6.56171777
_cell_length_b   6.29391754
_cell_length_c   6.56171777
_cell_angle_alpha   121.50735989
_cell_angle_beta   104.79649533
_cell_angle_gamma   104.69585034
_symmetry_Int_Tables_number   1
_chemical_formula_structural   Y(BO2)3
_chemical_formula_sum   'Y2 B6 O12'
_cell_volume   197.20736683
_cell_formula_units_Z   2
loop_
 _symmetry_equiv_pos_site_id
 _symmetry_equiv_pos_as_xyz
  1  'x, y, z'
loop_
 _atom_site_type_symbol
 _atom_site_label
 _atom_site_symmetry_multiplicity
 _atom_site_fract_x
 _atom_site_fract_y
 _atom_site_fract_z
 _atom_site_occupancy
  Y  Y0  1  0.29630325  0.25000000  0.04630325  1
  Y  Y1  1  0.70369675  0.75000000  0.95369675  1
  B  B2  1  0.71723640  0.25000000  0.46723640  1
  B  B3  1  0.84047933  0.63796257  0.42643904  1
  B  B4  1  0.71152353  0.13796257  0.79748325  1
  B  B5  1  0.28847647  0.86203743  0.20251675  1
  B  B6  1  0.15952067  0.36203743  0.57356096  1
  B  B7  1  0.28276360  0.75000000  0.53276360  1
  O  O8  1  0.91216857  0.20661269  0.41599994  1
  O  O9  1  0.50206145  0.99640055  0.20864479  1
  O  O10  1  0.70891472  0.59876532  0.20531941  1
  O  O11  1  0.89344592  0.09876532  0.88985061  1
  O  O12  1  0.71224423  0.50359945  0.50566090  1
  O  O13  1  0.70938725  0.29338731  0.70555588  1
  O  O14  1  0.29061275  0.70661269  0.29444412  1
  O  O15  1  0.28775577  0.49640055  0.49433910  1
  O  O16  1  0.10655408  0.90123468  0.11014939  1
  O  O17  1  0.29108528  0.40123468  0.79468059  1
  O  O18  1  0.49793855  0.00359945  0.79135521  1
  O  O19  1  0.08783143  0.79338731  0.58400006  1
