# generated using pymatgen
data_MgH12SeO10
_symmetry_space_group_name_H-M   'P 1'
_cell_length_a   6.36177300
_cell_length_b   6.36177300
_cell_length_c   25.15163279
_cell_angle_alpha   82.90459990
_cell_angle_beta   97.09540010
_cell_angle_gamma   108.55763148
_symmetry_Int_Tables_number   1
_chemical_formula_structural   MgH12SeO10
_chemical_formula_sum   'Mg4 H48 Se4 O40'
_cell_volume   953.77743378
_cell_formula_units_Z   4
loop_
 _symmetry_equiv_pos_site_id
 _symmetry_equiv_pos_as_xyz
  1  'x, y, z'
loop_
 _atom_site_type_symbol
 _atom_site_label
 _atom_site_symmetry_multiplicity
 _atom_site_fract_x
 _atom_site_fract_y
 _atom_site_fract_z
 _atom_site_occupancy
  Mg  Mg0  1  0.44455097  0.44455097  0.75000000  1
  Mg  Mg1  1  0.50000000  0.50000000  0.50000000  1
  Mg  Mg2  1  0.55544903  0.55544903  0.25000000  1
  Mg  Mg3  1  0.50000000  0.50000000  0.00000000  1
  H  H4  1  0.01970363  0.43236295  0.77081994  1
  H  H5  1  0.54060796  0.83666851  0.92048537  1
  H  H6  1  0.44307523  0.77424601  0.80741825  1
  H  H7  1  0.25323191  0.79128154  0.49813725  1
  H  H8  1  0.17249391  0.41957106  0.91486899  1
  H  H9  1  0.16526615  0.49598915  0.66156308  1
  H  H10  1  0.42614147  0.82807795  0.55060583  1
  H  H11  1  0.39150289  0.69944970  0.65613134  1
  H  H12  1  0.78716690  0.84610994  0.94672361  1
  H  H13  1  0.06955225  0.21494681  0.80031544  1
  H  H14  1  0.69178894  0.82082956  0.79623879  1
  H  H15  1  0.21583634  0.19175266  0.93819542  1
  H  H16  1  0.56763705  0.98029637  0.27081994  1
  H  H17  1  0.16333149  0.45939204  0.42048537  1
  H  H18  1  0.22575399  0.55692477  0.30741825  1
  H  H19  1  0.20871846  0.74676809  0.99813725  1
  H  H20  1  0.58042894  0.82750609  0.41486899  1
  H  H21  1  0.50401085  0.83473385  0.16156308  1
  H  H22  1  0.17192205  0.57385853  0.05060483  1
  H  H23  1  0.30055030  0.60849711  0.15613134  1
  H  H24  1  0.19175266  0.21583634  0.56180458  1
  H  H25  1  0.15389006  0.21283310  0.44672361  1
  H  H26  1  0.78505319  0.93044775  0.30031544  1
  H  H27  1  0.82082956  0.69178894  0.70376121  1
  H  H28  1  0.17917044  0.30821106  0.29623879  1
  H  H29  1  0.21494681  0.06955225  0.69968456  1
  H  H30  1  0.84610994  0.78716690  0.55327639  1
  H  H31  1  0.80824734  0.78416366  0.43819542  1
  H  H32  1  0.69944970  0.39150289  0.84386866  1
  H  H33  1  0.82807795  0.42614147  0.94939417  1
  H  H34  1  0.49598915  0.16526615  0.83843692  1
  H  H35  1  0.41957106  0.17249391  0.58513101  1
  H  H36  1  0.79128154  0.25323191  0.00186275  1
  H  H37  1  0.77424601  0.44307523  0.69258175  1
  H  H38  1  0.83666851  0.54060796  0.57951463  1
  H  H39  1  0.43236295  0.01970363  0.72918006  1
  H  H40  1  0.78416366  0.80824734  0.06180458  1
  H  H41  1  0.30821106  0.17917044  0.20376121  1
  H  H42  1  0.93044775  0.78505319  0.19968456  1
  H  H43  1  0.21283310  0.15389006  0.05327639  1
  H  H44  1  0.60849711  0.30055030  0.34386866  1
  H  H45  1  0.57385853  0.17192205  0.44939417  1
  H  H46  1  0.83473385  0.50401085  0.33843692  1
  H  H47  1  0.82750609  0.58042894  0.08513101  1
  H  H48  1  0.74676809  0.20871846  0.50186275  1
  H  H49  1  0.55692477  0.22575399  0.19258175  1
  H  H50  1  0.45939204  0.16333149  0.07951463  1
  H  H51  1  0.98029637  0.56763705  0.22918006  1
  Se  Se52  1  0.08284525  0.81734047  0.87670107  1
  Se  Se53  1  0.18265953  0.91715475  0.37670107  1
  Se  Se54  1  0.81734047  0.08284525  0.62329893  1
  Se  Se55  1  0.91715475  0.18265953  0.12329893  1
  O  O56  1  0.07804143  0.90629287  0.93696419  1
  O  O57  1  0.34977680  0.87867890  0.86309753  1
  O  O58  1  0.09370713  0.92195857  0.43696419  1
  O  O59  1  0.53996706  0.96199963  0.61816550  1
  O  O60  1  0.62711544  0.79181564  0.95273728  1
  O  O61  1  0.12132110  0.65022320  0.36309753  1
  O  O62  1  0.13647254  0.36212496  0.78054434  1
  O  O63  1  0.53558003  0.76184162  0.77975897  1
  O  O64  1  0.30737459  0.57780034  0.68077875  1
  O  O65  1  0.35603378  0.72823687  0.52206128  1
  O  O66  1  0.28046953  0.35600988  0.93707761  1
  O  O67  1  0.94784254  0.94145051  0.82823384  1
  O  O68  1  0.03800037  0.46003294  0.11816550  1
  O  O69  1  0.94145051  0.94784254  0.67176616  1
  O  O70  1  0.20818436  0.37288456  0.45273728  1
  O  O71  1  0.63787504  0.86352746  0.28054434  1
  O  O72  1  0.23815838  0.46441997  0.27975897  1
  O  O73  1  0.42219966  0.69262541  0.18077875  1
  O  O74  1  0.27176313  0.64396622  0.02206128  1
  O  O75  1  0.64399012  0.71953047  0.43707761  1
  O  O76  1  0.35600988  0.28046953  0.56292239  1
  O  O77  1  0.72823687  0.35603378  0.97793872  1
  O  O78  1  0.57780034  0.30737459  0.81922125  1
  O  O79  1  0.76184162  0.53558003  0.72024103  1
  O  O80  1  0.36212496  0.13647254  0.71945566  1
  O  O81  1  0.79181564  0.62711544  0.54726272  1
  O  O82  1  0.05854949  0.05215746  0.32823384  1
  O  O83  1  0.96199963  0.53996706  0.88183450  1
  O  O84  1  0.05215746  0.05854949  0.17176616  1
  O  O85  1  0.71953047  0.64399012  0.06292239  1
  O  O86  1  0.64396622  0.27176313  0.47793872  1
  O  O87  1  0.69262541  0.42219966  0.31922125  1
  O  O88  1  0.46441997  0.23815838  0.22024103  1
  O  O89  1  0.86352746  0.63787504  0.21945566  1
  O  O90  1  0.87867890  0.34977680  0.63690247  1
  O  O91  1  0.37288456  0.20818436  0.04726272  1
  O  O92  1  0.46003294  0.03800037  0.38183450  1
  O  O93  1  0.90629287  0.07804143  0.56303581  1
  O  O94  1  0.65022320  0.12132110  0.13690247  1
  O  O95  1  0.92195857  0.09370713  0.06303581  1
