# generated using pymatgen
data_Te4As2S5(OF6)2
_symmetry_space_group_name_H-M   'P 1'
_cell_length_a   10.92354330
_cell_length_b   13.25940061
_cell_length_c   15.62912506
_cell_angle_alpha   90.00000000
_cell_angle_beta   90.00000000
_cell_angle_gamma   107.93801404
_symmetry_Int_Tables_number   1
_chemical_formula_structural   Te4As2S5(OF6)2
_chemical_formula_sum   'Te16 As8 S20 O8 F48'
_cell_volume   2153.67813994
_cell_formula_units_Z   4
loop_
 _symmetry_equiv_pos_site_id
 _symmetry_equiv_pos_as_xyz
  1  'x, y, z'
loop_
 _atom_site_type_symbol
 _atom_site_label
 _atom_site_symmetry_multiplicity
 _atom_site_fract_x
 _atom_site_fract_y
 _atom_site_fract_z
 _atom_site_occupancy
  Te  Te0  1  0.24376919  0.25691696  0.40755866  1
  Te  Te1  1  0.75623081  0.24308304  0.90755866  1
  Te  Te2  1  0.92128521  0.14223621  0.03036849  1
  Te  Te3  1  0.75623081  0.74308304  0.59244134  1
  Te  Te4  1  0.92128521  0.64223621  0.46963151  1
  Te  Te5  1  0.24376919  0.75691696  0.09244134  1
  Te  Te6  1  0.40767874  0.36384840  0.62491295  1
  Te  Te7  1  0.16314713  0.11755304  0.62659860  1
  Te  Te8  1  0.40767874  0.86384840  0.87508705  1
  Te  Te9  1  0.83685287  0.88244696  0.37340140  1
  Te  Te10  1  0.07871479  0.85776379  0.96963151  1
  Te  Te11  1  0.59232126  0.63615160  0.37508705  1
  Te  Te12  1  0.16314713  0.61755304  0.87340140  1
  Te  Te13  1  0.59232126  0.13615160  0.12491295  1
  Te  Te14  1  0.07871479  0.35776379  0.53036849  1
  Te  Te15  1  0.83685287  0.38244696  0.12659860  1
  As  As16  1  0.74784701  0.19281077  0.38727020  1
  As  As17  1  0.81513872  0.94676702  0.80162188  1
  As  As18  1  0.81513872  0.44676702  0.69837812  1
  As  As19  1  0.25215299  0.30718923  0.88727020  1
  As  As20  1  0.18486128  0.55323298  0.30162188  1
  As  As21  1  0.25215299  0.80718923  0.61272980  1
  As  As22  1  0.18486128  0.05323298  0.19837812  1
  As  As23  1  0.74784701  0.69281077  0.11272980  1
  S  S24  1  0.73814896  0.03397765  0.10975232  1
  S  S25  1  0.17624247  0.58557376  0.02376214  1
  S  S26  1  0.44555593  0.35000638  0.47407550  1
  S  S27  1  0.26185104  0.96602235  0.89024768  1
  S  S28  1  0.82375753  0.41442624  0.97623786  1
  S  S29  1  0.55444407  0.14999362  0.97407550  1
  S  S30  1  0.43958077  0.40057714  0.16775186  1
  S  S31  1  0.73814896  0.53397765  0.39024768  1
  S  S32  1  0.55444407  0.64999362  0.52592450  1
  S  S33  1  0.56041923  0.09942286  0.66775186  1
  S  S34  1  0.26185104  0.46602235  0.60975232  1
  S  S35  1  0.17624247  0.08557376  0.47623786  1
  S  S36  1  0.43958077  0.90057714  0.33224814  1
  S  S37  1  0.44555593  0.85000638  0.02592450  1
  S  S38  1  0.99685902  0.70186444  0.88318287  1
  S  S39  1  0.56041923  0.59942286  0.83224814  1
  S  S40  1  0.99685902  0.20186444  0.61681713  1
  S  S41  1  0.00314098  0.29813556  0.11681713  1
  S  S42  1  0.00314098  0.79813556  0.38318287  1
  S  S43  1  0.82375753  0.91442624  0.52376214  1
  O  O44  1  0.45952120  0.40643924  0.26002666  1
  O  O45  1  0.45952120  0.90643924  0.23997334  1
  O  O46  1  0.54047880  0.59356076  0.73997334  1
  O  O47  1  0.51581104  0.34744788  0.11881825  1
  O  O48  1  0.54047880  0.09356076  0.76002666  1
  O  O49  1  0.51581104  0.84744788  0.38118175  1
  O  O50  1  0.48418896  0.15255212  0.61881825  1
  O  O51  1  0.48418896  0.65255212  0.88118175  1
  F  F52  1  0.77440433  0.80896621  0.05036457  1
  F  F53  1  0.91795718  0.93114971  0.71802944  1
  F  F54  1  0.27366462  0.42311995  0.82288609  1
  F  F55  1  0.95051336  0.98918350  0.87225628  1
  F  F56  1  0.58225650  0.67816249  0.12374143  1
  F  F57  1  0.84226357  0.58111121  0.72879451  1
  F  F58  1  0.21045933  0.68682854  0.33328769  1
  F  F59  1  0.91795718  0.43114971  0.78197056  1
  F  F60  1  0.08204282  0.06885029  0.28197056  1
  F  F61  1  0.95051336  0.48918350  0.62774372  1
  F  F62  1  0.28253883  0.88684179  0.51967036  1
  F  F63  1  0.22010072  0.22823652  0.79195368  1
  F  F64  1  0.08204282  0.56885029  0.21802944  1
  F  F65  1  0.41774350  0.32183751  0.87625857  1
  F  F66  1  0.22559567  0.19103379  0.94963543  1
  F  F67  1  0.22559567  0.69103379  0.55036457  1
  F  F68  1  0.77989928  0.27176348  0.29195368  1
  F  F69  1  0.28253883  0.38684179  0.98032964  1
  F  F70  1  0.41774350  0.82183751  0.62374143  1
  F  F71  1  0.91628707  0.20683296  0.39513058  1
  F  F72  1  0.68042732  0.40478313  0.76796787  1
  F  F73  1  0.21045933  0.18682854  0.16671231  1
  F  F74  1  0.27366462  0.92311995  0.67711391  1
  F  F75  1  0.78954067  0.31317146  0.66671231  1
  F  F76  1  0.77989928  0.77176348  0.20804632  1
  F  F77  1  0.58225650  0.17816249  0.37625857  1
  F  F78  1  0.04948664  0.51081650  0.37225628  1
  F  F79  1  0.04948664  0.01081650  0.12774372  1
  F  F80  1  0.84226357  0.08111121  0.77120549  1
  F  F81  1  0.28496693  0.03563117  0.11347028  1
  F  F82  1  0.71746117  0.61315821  0.01967036  1
  F  F83  1  0.71503307  0.46436883  0.61347028  1
  F  F84  1  0.71503307  0.96436883  0.88652972  1
  F  F85  1  0.15773643  0.91888879  0.22879451  1
  F  F86  1  0.08371293  0.79316704  0.60486942  1
  F  F87  1  0.31957268  0.59521687  0.23203213  1
  F  F88  1  0.28496693  0.53563117  0.38652972  1
  F  F89  1  0.77440433  0.30896621  0.44963543  1
  F  F90  1  0.15773643  0.41888879  0.27120549  1
  F  F91  1  0.91628707  0.70683296  0.10486942  1
  F  F92  1  0.72633538  0.57688005  0.17711391  1
  F  F93  1  0.08371293  0.29316704  0.89513058  1
  F  F94  1  0.71746117  0.11315821  0.48032964  1
  F  F95  1  0.78954067  0.81317146  0.83328769  1
  F  F96  1  0.22010072  0.72823652  0.70804632  1
  F  F97  1  0.72633538  0.07688005  0.32288609  1
  F  F98  1  0.68042732  0.90478313  0.73203213  1
  F  F99  1  0.31957268  0.09521687  0.26796787  1
