# generated using pymatgen
data_Re6Pb6O19
_symmetry_space_group_name_H-M   'P 1'
_cell_length_a   9.42844225
_cell_length_b   9.42978735
_cell_length_c   9.43286275
_cell_angle_alpha   90.00000000
_cell_angle_beta   90.00000000
_cell_angle_gamma   90.00000000
_symmetry_Int_Tables_number   1
_chemical_formula_structural   Re6Pb6O19
_chemical_formula_sum   'Re12 Pb12 O38'
_cell_volume   838.65889945
_cell_formula_units_Z   2
loop_
 _symmetry_equiv_pos_site_id
 _symmetry_equiv_pos_as_xyz
  1  'x, y, z'
loop_
 _atom_site_type_symbol
 _atom_site_label
 _atom_site_symmetry_multiplicity
 _atom_site_fract_x
 _atom_site_fract_y
 _atom_site_fract_z
 _atom_site_occupancy
  Re  Re0  1  0.12006699  0.75000000  0.25000000  1
  Re  Re1  1  0.25046068  0.11936607  0.74937994  1
  Re  Re2  1  0.25046068  0.38063393  0.75062006  1
  Re  Re3  1  0.24969835  0.74914867  0.61953779  1
  Re  Re4  1  0.24969835  0.75085133  0.88046221  1
  Re  Re5  1  0.38132848  0.75000000  0.25000000  1
  Re  Re6  1  0.62006699  0.25000000  0.75000000  1
  Re  Re7  1  0.74969835  0.24914867  0.38046221  1
  Re  Re8  1  0.74969835  0.25085133  0.11953779  1
  Re  Re9  1  0.75046068  0.61936607  0.25062006  1
  Re  Re10  1  0.75046068  0.88063393  0.24937994  1
  Re  Re11  1  0.88132848  0.25000000  0.75000000  1
  Pb  Pb12  1  0.10231717  0.39476807  0.39420867  1
  Pb  Pb13  1  0.10231717  0.10523193  0.10579133  1
  Pb  Pb14  1  0.39265084  0.10221177  0.39600555  1
  Pb  Pb15  1  0.39265084  0.39778823  0.10399445  1
  Pb  Pb16  1  0.48968413  0.49010136  0.49087560  1
  Pb  Pb17  1  0.48968413  0.00989864  0.00912440  1
  Pb  Pb18  1  0.60231717  0.60523193  0.89420867  1
  Pb  Pb19  1  0.60231717  0.89476807  0.60579133  1
  Pb  Pb20  1  0.89265084  0.60221177  0.60399445  1
  Pb  Pb21  1  0.89265084  0.89778823  0.89600555  1
  Pb  Pb22  1  0.98968413  0.50989864  0.99087560  1
  Pb  Pb23  1  0.98968413  0.99010136  0.50912440  1
  O  O24  1  0.03699094  0.10313494  0.75041091  1
  O  O25  1  0.03699094  0.39686506  0.74958909  1
  O  O26  1  0.07887863  0.75000000  0.75000000  1
  O  O27  1  0.10297476  0.74849433  0.46296759  1
  O  O28  1  0.10297476  0.75150567  0.03703241  1
  O  O29  1  0.24943750  0.96377652  0.89657597  1
  O  O30  1  0.24943750  0.53622348  0.60342403  1
  O  O31  1  0.24942071  0.25000000  0.25000000  1
  O  O32  1  0.25088832  0.92071839  0.25017304  1
  O  O33  1  0.25088832  0.57928161  0.24982696  1
  O  O34  1  0.25147540  0.25098780  0.57942892  1
  O  O35  1  0.25147540  0.24901220  0.92057108  1
  O  O36  1  0.24728525  0.53646134  0.89906330  1
  O  O37  1  0.24728525  0.96353866  0.60093670  1
  O  O38  1  0.39854508  0.75333981  0.03604017  1
  O  O39  1  0.39854508  0.74666019  0.46395983  1
  O  O40  1  0.41997640  0.75000000  0.75000000  1
  O  O41  1  0.46436497  0.10083864  0.75279024  1
  O  O42  1  0.46436497  0.39916136  0.74720976  1
  O  O43  1  0.53699094  0.60313494  0.24958909  1
  O  O44  1  0.53699094  0.89686506  0.25041091  1
  O  O45  1  0.57887863  0.25000000  0.25000000  1
  O  O46  1  0.60297476  0.24849433  0.53703241  1
  O  O47  1  0.60297476  0.25150567  0.96296759  1
  O  O48  1  0.74943750  0.03622348  0.39657597  1
  O  O49  1  0.74943750  0.46377652  0.10342403  1
  O  O50  1  0.75088832  0.07928161  0.75017304  1
  O  O51  1  0.75088832  0.42071839  0.74982696  1
  O  O52  1  0.75147540  0.74901220  0.07942892  1
  O  O53  1  0.75147540  0.75098780  0.42057108  1
  O  O54  1  0.74942071  0.75000000  0.75000000  1
  O  O55  1  0.74728525  0.03646134  0.10093670  1
  O  O56  1  0.74728525  0.46353866  0.39906330  1
  O  O57  1  0.89854508  0.25333981  0.96395983  1
  O  O58  1  0.89854508  0.24666019  0.53604017  1
  O  O59  1  0.91997640  0.25000000  0.25000000  1
  O  O60  1  0.96436497  0.60083864  0.24720976  1
  O  O61  1  0.96436497  0.89916136  0.25279024  1
