# generated using pymatgen
data_LiP4WO12
_symmetry_space_group_name_H-M   'P 1'
_cell_length_a   7.37294468
_cell_length_b   7.36990310
_cell_length_c   9.88445682
_cell_angle_alpha   80.66234374
_cell_angle_beta   70.44356125
_cell_angle_gamma   109.51747617
_symmetry_Int_Tables_number   1
_chemical_formula_structural   LiP4WO12
_chemical_formula_sum   'Li2 P8 W2 O24'
_cell_volume   453.75204777
_cell_formula_units_Z   2
loop_
 _symmetry_equiv_pos_site_id
 _symmetry_equiv_pos_as_xyz
  1  'x, y, z'
loop_
 _atom_site_type_symbol
 _atom_site_label
 _atom_site_symmetry_multiplicity
 _atom_site_fract_x
 _atom_site_fract_y
 _atom_site_fract_z
 _atom_site_occupancy
  Li  Li0  1  0.99888648  0.49855762  0.00326094  1
  Li  Li1  1  0.99996093  0.99640998  0.50036959  1
  P  P2  1  0.99234918  0.68868011  0.30088111  1
  P  P3  1  0.26295209  0.72073670  0.47899390  1
  P  P4  1  0.70067838  0.74215195  0.02134726  1
  P  P5  1  0.51226128  0.70665932  0.79881934  1
  P  P6  1  0.48674330  0.29355294  0.20096166  1
  P  P7  1  0.29945446  0.25822913  0.97846467  1
  P  P8  1  0.73571839  0.27789059  0.52272029  1
  P  P9  1  0.00719287  0.30965131  0.70065053  1
  W  W10  1  0.19411706  0.94293722  0.75062398  1
  W  W11  1  0.80499815  0.05612882  0.25014166  1
  O  O12  1  0.03680132  0.65048950  0.15398054  1
  O  O13  1  0.12935870  0.80074425  0.58439751  1
  O  O14  1  0.18547595  0.69544164  0.34725495  1
  O  O15  1  0.49744847  0.83529364  0.41082997  1
  O  O16  1  0.30405936  0.72085720  0.82043325  1
  O  O17  1  0.21524976  0.49464380  0.56359106  1
  O  O18  1  0.11411076  0.28699230  0.08326938  1
  O  O19  1  0.74553384  0.90940917  0.08901549  1
  O  O20  1  0.56193527  0.77946731  0.93457356  1
  O  O21  1  0.69594961  0.81019284  0.65173217  1
  O  O22  1  0.54044468  0.53329389  0.15296625  1
  O  O23  1  0.04214922  0.12244233  0.68009920  1
  O  O24  1  0.95587671  0.87532652  0.32090464  1
  O  O25  1  0.45933831  0.46693971  0.84626538  1
  O  O26  1  0.30151804  0.19131364  0.34734693  1
  O  O27  1  0.43979226  0.22130910  0.06411446  1
  O  O28  1  0.25299840  0.09077605  0.91118660  1
  O  O29  1  0.88652367  0.71268706  0.91802403  1
  O  O30  1  0.78492621  0.50449841  0.43799305  1
  O  O31  1  0.69401256  0.27836511  0.18154363  1
  O  O32  1  0.50073449  0.16618581  0.59074124  1
  O  O33  1  0.81441727  0.30405025  0.65394362  1
  O  O34  1  0.86714919  0.19661230  0.41731205  1
  O  O35  1  0.96454637  0.34757048  0.84751510  1
