# generated using pymatgen
data_LiSn3Sb(PO4)6
_symmetry_space_group_name_H-M   'P 1'
_cell_length_a   8.78419655
_cell_length_b   8.79899167
_cell_length_c   8.79757147
_cell_angle_alpha   59.68232524
_cell_angle_beta   59.71870671
_cell_angle_gamma   59.84483740
_symmetry_Int_Tables_number   1
_chemical_formula_structural   LiSn3Sb(PO4)6
_chemical_formula_sum   'Li1 Sn3 Sb1 P6 O24'
_cell_volume   478.07346174
_cell_formula_units_Z   1
loop_
 _symmetry_equiv_pos_site_id
 _symmetry_equiv_pos_as_xyz
  1  'x, y, z'
loop_
 _atom_site_type_symbol
 _atom_site_label
 _atom_site_symmetry_multiplicity
 _atom_site_fract_x
 _atom_site_fract_y
 _atom_site_fract_z
 _atom_site_occupancy
  Li  Li0  1  0.48655306  0.50116341  0.50804134  1
  Sn  Sn1  1  0.13491151  0.14265354  0.13871327  1
  Sn  Sn2  1  0.36105108  0.35598866  0.35424998  1
  Sn  Sn3  1  0.64014545  0.64592797  0.63908233  1
  Sb  Sb4  1  0.86096505  0.86067557  0.85784925  1
  P  P5  1  0.04656731  0.74465650  0.46096955  1
  P  P6  1  0.46088858  0.04471103  0.74610786  1
  P  P7  1  0.24671276  0.54445950  0.95512041  1
  P  P8  1  0.74620781  0.46419598  0.04064485  1
  P  P9  1  0.54315839  0.96177481  0.24718171  1
  P  P10  1  0.95247858  0.25016308  0.53711244  1
  O  O11  1  0.18441099  0.39056255  0.99673945  1
  O  O12  1  0.12034207  0.29003224  0.50320616  1
  O  O13  1  0.37752923  0.01652218  0.19465624  1
  O  O14  1  0.08146525  0.89905425  0.27214734  1
  O  O15  1  0.29596763  0.51866040  0.11320531  1
  O  O16  1  0.00496230  0.80530614  0.62053254  1
  O  O17  1  0.27416594  0.07423932  0.90394353  1
  O  O18  1  0.22731277  0.57066781  0.46554711  1
  O  O19  1  0.53331893  0.11498603  0.29246706  1
  O  O20  1  0.46300368  0.22819220  0.57525720  1
  O  O21  1  0.08748090  0.73785360  0.92694052  1
  O  O22  1  0.57614298  0.46513164  0.22476840  1
  O  O23  1  0.62137032  0.99876188  0.80800030  1
  O  O24  1  0.41325169  0.55367038  0.76737175  1
  O  O25  1  0.54944699  0.77440032  0.41337541  1
  O  O26  1  0.90331229  0.27650732  0.06474647  1
  O  O27  1  0.48665999  0.88831196  0.69568106  1
  O  O28  1  0.80966818  0.62187538  0.99898169  1
  O  O29  1  0.76839971  0.41877839  0.55162193  1
  O  O30  1  0.73225886  0.92907630  0.08478117  1
  O  O31  1  0.97813687  0.19480928  0.38476184  1
  O  O32  1  0.69237787  0.49711948  0.88317107  1
  O  O33  1  0.92629942  0.08983837  0.73043573  1
  O  O34  1  0.88596958  0.69836953  0.48873772  1
