# generated using pymatgen
data_MnCd9O10
_symmetry_space_group_name_H-M   'P 1'
_cell_length_a   6.73663247
_cell_length_b   5.83263926
_cell_length_c   7.53099112
_cell_angle_alpha   97.40999291
_cell_angle_beta   77.08203965
_cell_angle_gamma   73.16509674
_symmetry_Int_Tables_number   1
_chemical_formula_structural   MnCd9O10
_chemical_formula_sum   'Mn1 Cd9 O10'
_cell_volume   270.04358257
_cell_formula_units_Z   1
loop_
 _symmetry_equiv_pos_site_id
 _symmetry_equiv_pos_as_xyz
  1  'x, y, z'
loop_
 _atom_site_type_symbol
 _atom_site_label
 _atom_site_symmetry_multiplicity
 _atom_site_fract_x
 _atom_site_fract_y
 _atom_site_fract_z
 _atom_site_occupancy
  Mn  Mn0  1  0.00000000  0.00000000  0.00000000  1
  Cd  Cd1  1  0.19835104  0.40070807  0.79994766  1
  Cd  Cd2  1  0.69949338  0.40559167  0.80298775  1
  Cd  Cd3  1  0.60164015  0.19922831  0.39822976  1
  Cd  Cd4  1  0.39835985  0.80077169  0.60177024  1
  Cd  Cd5  1  0.90051483  0.80354939  0.59917978  1
  Cd  Cd6  1  0.09948517  0.19645061  0.40082022  1
  Cd  Cd7  1  0.50000000  0.00000000  0.00000000  1
  Cd  Cd8  1  0.30050662  0.59440833  0.19701225  1
  Cd  Cd9  1  0.80164896  0.59929193  0.20005234  1
  O  O10  1  0.54961404  0.10358509  0.69933759  1
  O  O11  1  0.04801513  0.09859773  0.70934319  1
  O  O12  1  0.33812656  0.70772729  0.90465668  1
  O  O13  1  0.85564874  0.71483575  0.90391361  1
  O  O14  1  0.74963454  0.50244039  0.50508715  1
  O  O15  1  0.25036546  0.49755961  0.49491285  1
  O  O16  1  0.14435126  0.28516425  0.09608639  1
  O  O17  1  0.66187344  0.29227271  0.09534332  1
  O  O18  1  0.95198487  0.90140227  0.29065681  1
  O  O19  1  0.45038596  0.89641491  0.30066241  1
