# generated using pymatgen
data_Mn6Cr9O20
_symmetry_space_group_name_H-M   'P 1'
_cell_length_a   6.08249948
_cell_length_b   6.08249948
_cell_length_c   25.12227071
_cell_angle_alpha   96.95316185
_cell_angle_beta   90.00000000
_cell_angle_gamma   60.00000000
_symmetry_Int_Tables_number   1
_chemical_formula_structural   Mn6Cr9O20
_chemical_formula_sum   'Mn12 Cr18 O40'
_cell_volume   797.01889722
_cell_formula_units_Z   2
loop_
 _symmetry_equiv_pos_site_id
 _symmetry_equiv_pos_as_xyz
  1  'x, y, z'
loop_
 _atom_site_type_symbol
 _atom_site_label
 _atom_site_symmetry_multiplicity
 _atom_site_fract_x
 _atom_site_fract_y
 _atom_site_fract_z
 _atom_site_occupancy
  Mn  Mn0  1  0.82491413  0.85017175  0.02525762  1
  Mn  Mn1  1  0.49999993  0.49999913  0.99999920  1
  Mn  Mn2  1  0.77502156  0.94995688  0.17493432  1
  Mn  Mn3  1  0.42497844  0.65004312  0.22506568  1
  Mn  Mn4  1  0.37508587  0.74982825  0.37474238  1
  Mn  Mn5  1  0.02491372  0.45017255  0.42525883  1
  Mn  Mn6  1  0.70000007  0.10000087  0.40000080  1
  Mn  Mn7  1  0.97500586  0.54998828  0.57498241  1
  Mn  Mn8  1  0.62500163  0.24999673  0.62499410  1
  Mn  Mn9  1  0.57499837  0.35000327  0.77500590  1
  Mn  Mn10  1  0.22499414  0.05001172  0.82501759  1
  Mn  Mn11  1  0.17508628  0.14982745  0.97474117  1
  Cr  Cr12  1  0.29972544  0.90054911  0.10024864  1
  Cr  Cr13  1  0.29972544  0.39997409  0.10024864  1
  Cr  Cr14  1  0.80030147  0.39997409  0.10024864  1
  Cr  Cr15  1  0.90027456  0.69945089  0.29975136  1
  Cr  Cr16  1  0.10000000  0.30000000  0.20000000  1
  Cr  Cr17  1  0.39969853  0.20002591  0.29975136  1
  Cr  Cr18  1  0.90027456  0.20002591  0.29975136  1
  Cr  Cr19  1  0.49970870  0.50058260  0.50025308  1
  Cr  Cr20  1  0.29997272  0.90005456  0.60008184  1
  Cr  Cr21  1  0.00032952  0.99996178  0.50025308  1
  Cr  Cr22  1  0.60000000  0.80000000  0.70000000  1
  Cr  Cr23  1  0.10000000  0.80000000  0.70000000  1
  Cr  Cr24  1  0.49970870  0.99996178  0.50025308  1
  Cr  Cr25  1  0.10000000  0.30000000  0.70000000  1
  Cr  Cr26  1  0.90002728  0.69994544  0.79991816  1
  Cr  Cr27  1  0.70029130  0.60003822  0.89974692  1
  Cr  Cr28  1  0.19967048  0.60003822  0.89974692  1
  Cr  Cr29  1  0.70029130  0.09941740  0.89974692  1
  O  O30  1  0.18026772  0.68679057  0.05384886  1
  O  O31  1  0.63294171  0.68679057  0.05384886  1
  O  O32  1  0.63294171  0.23411658  0.05384886  1
  O  O33  1  0.45268924  0.59462252  0.14193329  1
  O  O34  1  0.14731923  0.20536154  0.05804231  1
  O  O35  1  0.96914471  0.56171058  0.14738467  1
  O  O36  1  0.01973228  0.91320943  0.34615114  1
  O  O37  1  0.96914471  0.11652938  0.14738467  1
  O  O38  1  0.41432590  0.11652938  0.14738467  1
  O  O39  1  0.56705829  0.91320943  0.34615114  1
  O  O40  1  0.78567410  0.48347062  0.25261533  1
  O  O41  1  0.23085529  0.48347062  0.25261533  1
  O  O42  1  0.23085529  0.03828942  0.25261533  1
  O  O43  1  0.05268077  0.39463846  0.34195769  1
  O  O44  1  0.83294088  0.83411825  0.45384913  1
  O  O45  1  0.34732025  0.80535949  0.45803924  1
  O  O46  1  0.74731076  0.00537748  0.25806671  1
  O  O47  1  0.56705829  0.36588342  0.34615114  1
  O  O48  1  0.61425313  0.71657631  0.54740575  1
  O  O49  1  0.16917056  0.71657631  0.54740575  1
  O  O50  1  0.83294088  0.28679000  0.45384913  1
  O  O51  1  0.38026912  0.28679000  0.45384913  1
  O  O52  1  0.65269579  0.19460842  0.54191262  1
  O  O53  1  0.25271330  0.99457340  0.74185910  1
  O  O54  1  0.43097924  0.63804152  0.65274688  1
  O  O55  1  0.94728670  0.60542660  0.65814090  1
  O  O56  1  0.76902076  0.96195848  0.74725312  1
  O  O57  1  0.16917056  0.16165788  0.54740575  1
  O  O58  1  0.21470536  0.51627388  0.74725312  1
  O  O59  1  0.76902076  0.51627388  0.74725312  1
  O  O60  1  0.43097924  0.08372612  0.65274688  1
  O  O61  1  0.03082944  0.88342369  0.85259425  1
  O  O62  1  0.98529464  0.08372612  0.65274688  1
  O  O63  1  0.58574687  0.88342369  0.85259425  1
  O  O64  1  0.85267975  0.79464051  0.94196076  1
  O  O65  1  0.03082944  0.43834212  0.85259425  1
  O  O66  1  0.54730421  0.40539158  0.85808738  1
  O  O67  1  0.36705912  0.76588175  0.94615087  1
  O  O68  1  0.81973088  0.31321000  0.94615087  1
  O  O69  1  0.36705912  0.31321000  0.94615087  1
