# generated using pymatgen
data_Tl4Fe(CN)6
_symmetry_space_group_name_H-M   'P 1'
_cell_length_a   7.36155664
_cell_length_b   7.80870547
_cell_length_c   13.48306146
_cell_angle_alpha   105.20192129
_cell_angle_beta   90.52830177
_cell_angle_gamma   97.93636943
_symmetry_Int_Tables_number   1
_chemical_formula_structural   Tl4Fe(CN)6
_chemical_formula_sum   'Tl8 Fe2 C12 N12'
_cell_volume   739.94117563
_cell_formula_units_Z   2
loop_
 _symmetry_equiv_pos_site_id
 _symmetry_equiv_pos_as_xyz
  1  'x, y, z'
loop_
 _atom_site_type_symbol
 _atom_site_label
 _atom_site_symmetry_multiplicity
 _atom_site_fract_x
 _atom_site_fract_y
 _atom_site_fract_z
 _atom_site_occupancy
  Tl  Tl0  1  0.11956012  0.96728052  0.63418433  1
  Tl  Tl1  1  0.71771514  0.46256361  0.58168030  1
  Tl  Tl2  1  0.88043988  0.03271948  0.36581567  1
  Tl  Tl3  1  0.24337341  0.43264724  0.06834572  1
  Tl  Tl4  1  0.75662659  0.56735276  0.93165428  1
  Tl  Tl5  1  0.64952121  0.02462161  0.85214788  1
  Tl  Tl6  1  0.28228486  0.53743639  0.41831970  1
  Tl  Tl7  1  0.35047879  0.97537839  0.14785212  1
  Fe  Fe8  1  0.77317347  0.49998940  0.25227598  1
  Fe  Fe9  1  0.22682653  0.50001060  0.74772402  1
  C  C10  1  0.58230263  0.64231259  0.25421897  1
  C  C11  1  0.95690087  0.35222458  0.24363419  1
  C  C12  1  0.13936037  0.37227229  0.61360260  1
  C  C13  1  0.41769737  0.35768741  0.74578103  1
  C  C14  1  0.07302932  0.34883337  0.81084200  1
  C  C15  1  0.92697068  0.65116663  0.18915800  1
  C  C16  1  0.04309913  0.64777542  0.75636581  1
  C  C17  1  0.62387478  0.34809755  0.31754454  1
  C  C18  1  0.37612522  0.65190245  0.68245546  1
  C  C19  1  0.32079479  0.63164437  0.87998824  1
  C  C20  1  0.86063963  0.62772771  0.38639740  1
  C  C21  1  0.67920521  0.36835563  0.12001176  1
  N  N22  1  0.97953553  0.25929331  0.85501203  1
  N  N23  1  0.46381151  0.74093706  0.63577106  1
  N  N24  1  0.53618849  0.25906294  0.36422894  1
  N  N25  1  0.08746678  0.29754604  0.52732809  1
  N  N26  1  0.91253322  0.70245396  0.47267191  1
  N  N27  1  0.92939362  0.74378760  0.75976834  1
  N  N28  1  0.02046447  0.74070669  0.14498797  1
  N  N29  1  0.07060638  0.25621240  0.24023166  1
  N  N30  1  0.38472805  0.70404526  0.96416856  1
  N  N31  1  0.54145355  0.27559163  0.74863542  1
  N  N32  1  0.45854645  0.72440837  0.25136458  1
  N  N33  1  0.61527195  0.29595474  0.03583144  1
