# generated using pymatgen
data_V3Zn7H3SO19
_symmetry_space_group_name_H-M   'P 1'
_cell_length_a   12.96712650
_cell_length_b   12.96716643
_cell_length_c   5.27397511
_cell_angle_alpha   89.99972437
_cell_angle_beta   90.00100747
_cell_angle_gamma   120.00184815
_symmetry_Int_Tables_number   1
_chemical_formula_structural   V3Zn7H3SO19
_chemical_formula_sum   'V6 Zn14 H6 S2 O38'
_cell_volume   767.97918954
_cell_formula_units_Z   2
loop_
 _symmetry_equiv_pos_site_id
 _symmetry_equiv_pos_as_xyz
  1  'x, y, z'
loop_
 _atom_site_type_symbol
 _atom_site_label
 _atom_site_symmetry_multiplicity
 _atom_site_fract_x
 _atom_site_fract_y
 _atom_site_fract_z
 _atom_site_occupancy
  V  V0  1  0.15092118  0.84909126  0.02645874  1
  V  V1  1  0.15091275  0.30183028  0.02649966  1
  V  V2  1  0.30183102  0.15091786  0.52644919  1
  V  V3  1  0.69817366  0.84908889  0.02652338  1
  V  V4  1  0.84908369  0.69815860  0.52650298  1
  V  V5  1  0.84908965  0.15091602  0.52651007  1
  Zn  Zn6  1  0.07918840  0.65460131  0.50329724  1
  Zn  Zn7  1  0.07918266  0.42459021  0.50331864  1
  Zn  Zn8  1  0.34540536  0.92081779  0.50329495  1
  Zn  Zn9  1  0.99999835  0.99999167  0.32124371  1
  Zn  Zn10  1  -0.00000061  0.99999630  0.82123945  1
  Zn  Zn11  1  0.57541479  0.92082199  0.50331797  1
  Zn  Zn12  1  0.34539814  0.42458691  0.50330793  1
  Zn  Zn13  1  0.57541695  0.65460199  0.50331716  1
  Zn  Zn14  1  0.42458562  0.34540279  0.00329103  1
  Zn  Zn15  1  0.65460071  0.57542052  0.00331107  1
  Zn  Zn16  1  0.42459066  0.07919097  0.00329588  1
  Zn  Zn17  1  0.65459834  0.07918795  0.00331368  1
  Zn  Zn18  1  0.92081965  0.57541053  0.00331792  1
  Zn  Zn19  1  0.92081990  0.34540982  0.00331446  1
  H  H20  1  0.13422819  0.56711305  0.13732612  1
  H  H21  1  0.43288459  0.86577617  0.13732600  1
  H  H22  1  0.43288878  0.56711878  0.13732836  1
  H  H23  1  0.56711427  0.43289092  0.63732866  1
  H  H24  1  0.56711859  0.13423154  0.63732613  1
  H  H25  1  0.86577356  0.43289057  0.63732729  1
  S  S26  1  0.33333576  0.66667406  0.74584055  1
  S  S27  1  0.66666445  0.33333167  0.24583865  1
  O  O28  1  0.07411891  0.92590249  0.06999847  1
  O  O29  1  0.06716357  0.72029717  0.84590270  1
  O  O30  1  0.19153897  0.80846449  0.31467068  1
  O  O31  1  0.05824350  0.52911932  0.22976170  1
  O  O32  1  0.27970889  0.93283971  0.84589573  1
  O  O33  1  0.06716299  0.34686493  0.84592313  1
  O  O34  1  0.20824652  0.60413077  0.64354714  1
  O  O35  1  0.07410309  0.14821345  0.07002472  1
  O  O36  1  0.19153806  0.38308429  0.31471689  1
  O  O37  1  0.47087813  0.94175833  0.22976112  1
  O  O38  1  0.33333685  0.66667033  0.02349490  1
  O  O39  1  0.39588819  0.79176424  0.64356307  1
  O  O40  1  0.39587699  0.60412469  0.64355347  1
  O  O41  1  0.27969646  0.34686259  0.84592034  1
  O  O42  1  0.14821069  0.07411453  0.56999832  1
  O  O43  1  0.65314343  0.93283698  0.84593960  1
  O  O44  1  0.34687001  0.27971162  0.34589329  1
  O  O45  1  0.47087859  0.52912758  0.22977797  1
  O  O46  1  0.61691600  0.80846133  0.31473373  1
  O  O47  1  0.38307517  0.19153943  0.81466285  1
  O  O48  1  0.52912385  0.47088163  0.72977109  1
  O  O49  1  0.65313567  0.72030421  0.84593495  1
  O  O50  1  0.34686408  0.06716551  0.34589966  1
  O  O51  1  0.85179160  0.92588688  0.07002715  1
  O  O52  1  0.72029577  0.65313206  0.34592750  1
  O  O53  1  0.60412909  0.39588846  0.14355664  1
  O  O54  1  0.60411352  0.20824455  0.14355058  1
  O  O55  1  0.66666702  0.33333482  0.52349886  1
  O  O56  1  0.80845663  0.61690949  0.81472542  1
  O  O57  1  0.52912797  0.05824833  0.72976126  1
  O  O58  1  0.92589537  0.85177311  0.57002309  1
  O  O59  1  0.79176001  0.39587537  0.14355701  1
  O  O60  1  0.93283309  0.65312679  0.34592469  1
  O  O61  1  0.72030595  0.06716183  0.34592441  1
  O  O62  1  0.94175850  0.47088396  0.72976192  1
  O  O63  1  0.80846252  0.19154243  0.81471251  1
  O  O64  1  0.93283840  0.27969761  0.34592745  1
  O  O65  1  0.92590088  0.07410828  0.57002809  1
