# generated using pymatgen
data_NaGa3P2(HO3)4
_symmetry_space_group_name_H-M   'P 1'
_cell_length_a   11.66156809
_cell_length_b   7.35680463
_cell_length_c   10.40912218
_cell_angle_alpha   90.00000000
_cell_angle_beta   90.00000000
_cell_angle_gamma   98.13576968
_symmetry_Int_Tables_number   1
_chemical_formula_structural   NaGa3P2(HO3)4
_chemical_formula_sum   'Na4 Ga12 P8 H16 O48'
_cell_volume   884.03036077
_cell_formula_units_Z   4
loop_
 _symmetry_equiv_pos_site_id
 _symmetry_equiv_pos_as_xyz
  1  'x, y, z'
loop_
 _atom_site_type_symbol
 _atom_site_label
 _atom_site_symmetry_multiplicity
 _atom_site_fract_x
 _atom_site_fract_y
 _atom_site_fract_z
 _atom_site_occupancy
  Na  Na0  1  0.19390124  0.45097059  0.57605902  1
  Na  Na1  1  0.30609876  0.04902941  0.07605902  1
  Na  Na2  1  0.69390124  0.95097059  0.92394098  1
  Na  Na3  1  0.80609876  0.54902941  0.42394098  1
  Ga  Ga4  1  0.03852664  0.55230847  0.22001675  1
  Ga  Ga5  1  0.03972977  0.06396504  0.75399707  1
  Ga  Ga6  1  0.23742911  0.99062023  0.56261061  1
  Ga  Ga7  1  0.26257089  0.50937977  0.06261061  1
  Ga  Ga8  1  0.46147336  0.94769153  0.72001675  1
  Ga  Ga9  1  0.46027023  0.43603496  0.25399707  1
  Ga  Ga10  1  0.53972977  0.56396504  0.74600293  1
  Ga  Ga11  1  0.53852664  0.05230847  0.27998325  1
  Ga  Ga12  1  0.73742911  0.49062023  0.93738939  1
  Ga  Ga13  1  0.76257089  0.00937977  0.43738939  1
  Ga  Ga14  1  0.96027023  0.93603496  0.24600293  1
  Ga  Ga15  1  0.96147336  0.44769153  0.77998325  1
  P  P16  1  0.19183590  0.74965954  0.82457474  1
  P  P17  1  0.18243439  0.23756095  0.30974073  1
  P  P18  1  0.30816410  0.75034046  0.32457474  1
  P  P19  1  0.31756561  0.26243905  0.80974073  1
  P  P20  1  0.68243439  0.73756095  0.19025927  1
  P  P21  1  0.69183590  0.24965954  0.67542526  1
  P  P22  1  0.81756561  0.76243905  0.69025927  1
  P  P23  1  0.80816410  0.25034046  0.17542526  1
  H  H24  1  0.02956231  0.81842124  0.58528593  1
  H  H25  1  0.05735366  0.82862765  0.05253283  1
  H  H26  1  0.07670438  0.75834603  0.39514505  1
  H  H27  1  0.06403536  0.35464651  0.00958772  1
  H  H28  1  0.42329562  0.74165397  0.89514505  1
  H  H29  1  0.44264634  0.67137235  0.55253283  1
  H  H30  1  0.47043769  0.68157876  0.08528593  1
  H  H31  1  0.43596464  0.14535349  0.50958772  1
  H  H32  1  0.56403536  0.85464651  0.49041228  1
  H  H33  1  0.52956231  0.31842124  0.91471407  1
  H  H34  1  0.55735366  0.32862765  0.44746717  1
  H  H35  1  0.57670438  0.25834603  0.10485495  1
  H  H36  1  0.93596464  0.64535349  0.99041228  1
  H  H37  1  0.92329562  0.24165397  0.60485495  1
  H  H38  1  0.94264634  0.17137235  0.94746717  1
  H  H39  1  0.97043769  0.18157876  0.41471407  1
  O  O40  1  0.00101459  0.71814555  0.35412616  1
  O  O41  1  0.00352573  0.23038880  0.89003200  1
  O  O42  1  0.07473135  0.93976379  0.59660753  1
  O  O43  1  0.11149915  0.88985209  0.86767948  1
  O  O44  1  0.10020175  0.44905420  0.07202763  1
  O  O45  1  0.09860117  0.37979876  0.34072225  1
  O  O46  1  0.12159147  0.56935230  0.77483424  1
  O  O47  1  0.12033832  0.06827144  0.23702342  1
  O  O48  1  0.23047449  0.78207291  0.44241944  1
  O  O49  1  0.22358933  0.67791657  0.21333716  1
  O  O50  1  0.21484662  0.18071486  0.71894538  1
  O  O51  1  0.27641067  0.82208343  0.71333716  1
  O  O52  1  0.26952551  0.71792709  0.94241944  1
  O  O53  1  0.23125032  0.19299368  0.44186966  1
  O  O54  1  0.26874968  0.30700632  0.94186966  1
  O  O55  1  0.28515338  0.31928514  0.21894538  1
  O  O56  1  0.37840853  0.93064770  0.27483424  1
  O  O57  1  0.38850085  0.61014791  0.36767848  1
  O  O58  1  0.37966168  0.43172856  0.73702342  1
  O  O59  1  0.42526865  0.56023621  0.09660753  1
  O  O60  1  0.40139883  0.12020124  0.84072225  1
  O  O61  1  0.39979825  0.05094580  0.57202763  1
  O  O62  1  0.49898541  0.78185445  0.85412616  1
  O  O63  1  0.50352573  0.73038880  0.60996800  1
  O  O64  1  0.49647427  0.26961120  0.39003200  1
  O  O65  1  0.50101459  0.21814555  0.14587384  1
  O  O66  1  0.60020175  0.94905420  0.42797237  1
  O  O67  1  0.59860117  0.87979876  0.15927775  1
  O  O68  1  0.57473135  0.43976379  0.90339247  1
  O  O69  1  0.62033832  0.56827144  0.26297658  1
  O  O70  1  0.61149915  0.38985209  0.63232052  1
  O  O71  1  0.62159147  0.06935230  0.72516576  1
  O  O72  1  0.71484662  0.68071486  0.78105462  1
  O  O73  1  0.73125032  0.69299368  0.05813034  1
  O  O74  1  0.76874968  0.80700632  0.55813034  1
  O  O75  1  0.73047449  0.28207291  0.05758056  1
  O  O76  1  0.72358933  0.17791657  0.28666284  1
  O  O77  1  0.78515338  0.81928514  0.28105462  1
  O  O78  1  0.77641067  0.32208343  0.78666284  1
  O  O79  1  0.76952551  0.21792709  0.55758056  1
  O  O80  1  0.87966168  0.93172856  0.76297658  1
  O  O81  1  0.87840853  0.43064770  0.22516576  1
  O  O82  1  0.90139883  0.62020124  0.65927775  1
  O  O83  1  0.89979825  0.55094580  0.92797237  1
  O  O84  1  0.88850085  0.11014791  0.13232052  1
  O  O85  1  0.92526865  0.06023621  0.40339247  1
  O  O86  1  0.99647427  0.76961120  0.10996800  1
  O  O87  1  0.99898541  0.28185445  0.64587384  1
