# generated using pymatgen
data_LiMn(PO3)3
_symmetry_space_group_name_H-M   'P 1'
_cell_length_a   8.69315869
_cell_length_b   8.57620743
_cell_length_c   9.00241126
_cell_angle_alpha   90.00000000
_cell_angle_beta   90.00000000
_cell_angle_gamma   90.00000000
_symmetry_Int_Tables_number   1
_chemical_formula_structural   LiMn(PO3)3
_chemical_formula_sum   'Li4 Mn4 P12 O36'
_cell_volume   671.16875921
_cell_formula_units_Z   4
loop_
 _symmetry_equiv_pos_site_id
 _symmetry_equiv_pos_as_xyz
  1  'x, y, z'
loop_
 _atom_site_type_symbol
 _atom_site_label
 _atom_site_symmetry_multiplicity
 _atom_site_fract_x
 _atom_site_fract_y
 _atom_site_fract_z
 _atom_site_occupancy
  Li  Li0  1  0.10562661  0.87755021  0.41623115  1
  Li  Li1  1  0.39437339  0.12244979  0.91623115  1
  Li  Li2  1  0.60562661  0.62244979  0.58376885  1
  Li  Li3  1  0.89437339  0.37755021  0.08376885  1
  Mn  Mn4  1  0.11954880  0.09683190  0.14226469  1
  Mn  Mn5  1  0.38045120  0.90316810  0.64226469  1
  Mn  Mn6  1  0.61954880  0.40316810  0.85773531  1
  Mn  Mn7  1  0.88045120  0.59683190  0.35773531  1
  P  P8  1  0.05546635  0.95001551  0.81784259  1
  P  P9  1  0.06726296  0.72037633  0.06887329  1
  P  P10  1  0.22990355  0.55973179  0.55830332  1
  P  P11  1  0.27009645  0.44026821  0.05830332  1
  P  P12  1  0.43273704  0.27962367  0.56887329  1
  P  P13  1  0.44453365  0.04998449  0.31784259  1
  P  P14  1  0.55546635  0.54998449  0.18215741  1
  P  P15  1  0.56726296  0.77962367  0.93112671  1
  P  P16  1  0.72990355  0.94026821  0.44169668  1
  P  P17  1  0.77009645  0.05973179  0.94169668  1
  P  P18  1  0.93273704  0.22037633  0.43112671  1
  P  P19  1  0.94453365  0.45001551  0.68215741  1
  O  O20  1  0.01887122  0.79075488  0.91011192  1
  O  O21  1  0.06031733  0.11765735  0.37399785  1
  O  O22  1  0.11213232  0.90805175  0.66534775  1
  O  O23  1  0.11601868  0.52081231  0.69686939  1
  O  O24  1  0.12107291  0.84866820  0.17048774  1
  O  O25  1  0.13856265  0.34397614  0.11606643  1
  O  O26  1  0.13653763  0.62226068  0.43049113  1
  O  O27  1  0.15468180  0.05705220  0.90992964  1
  O  O28  1  0.20880423  0.61193382  0.01660665  1
  O  O29  1  0.29119577  0.38806618  0.51660665  1
  O  O30  1  0.34531820  0.94294780  0.40992964  1
  O  O31  1  0.36346237  0.37773932  0.93049113  1
  O  O32  1  0.36143735  0.65602386  0.61606643  1
  O  O33  1  0.37892709  0.15133180  0.67048774  1
  O  O34  1  0.38398132  0.47918769  0.19686939  1
  O  O35  1  0.38786768  0.09194825  0.16534775  1
  O  O36  1  0.43968267  0.88234265  0.87399785  1
  O  O37  1  0.48112878  0.20924512  0.41011192  1
  O  O38  1  0.51887122  0.70924512  0.08988808  1
  O  O39  1  0.56031733  0.38234265  0.62600215  1
  O  O40  1  0.61213232  0.59194825  0.33465225  1
  O  O41  1  0.61601868  0.97918769  0.30313061  1
  O  O42  1  0.62107291  0.65133180  0.82951226  1
  O  O43  1  0.63856265  0.15602386  0.88393357  1
  O  O44  1  0.63653763  0.87773932  0.56950887  1
  O  O45  1  0.65468180  0.44294780  0.09007036  1
  O  O46  1  0.70880423  0.88806618  0.98339335  1
  O  O47  1  0.79119577  0.11193382  0.48339335  1
  O  O48  1  0.84531820  0.55705220  0.59007036  1
  O  O49  1  0.86346237  0.12226068  0.06950887  1
  O  O50  1  0.86143735  0.84397614  0.38393357  1
  O  O51  1  0.87892709  0.34866820  0.32951226  1
  O  O52  1  0.88398132  0.02081231  0.80313061  1
  O  O53  1  0.88786768  0.40805175  0.83465225  1
  O  O54  1  0.93968267  0.61765735  0.12600215  1
  O  O55  1  0.98112878  0.29075488  0.58988808  1
