# generated using pymatgen
data_Li4MnFe3O8
_symmetry_space_group_name_H-M   'P 1'
_cell_length_a   5.90944804
_cell_length_b   6.02498270
_cell_length_c   6.01901554
_cell_angle_alpha   120.64261186
_cell_angle_beta   119.43813379
_cell_angle_gamma   60.58151255
_symmetry_Int_Tables_number   1
_chemical_formula_structural   Li4MnFe3O8
_chemical_formula_sum   'Li4 Mn1 Fe3 O8'
_cell_volume   152.06300325
_cell_formula_units_Z   1
loop_
 _symmetry_equiv_pos_site_id
 _symmetry_equiv_pos_as_xyz
  1  'x, y, z'
loop_
 _atom_site_type_symbol
 _atom_site_label
 _atom_site_symmetry_multiplicity
 _atom_site_fract_x
 _atom_site_fract_y
 _atom_site_fract_z
 _atom_site_occupancy
  Li  Li0  1  0.99996333  0.00002147  0.49999958  1
  Li  Li1  1  0.99997086  0.50001860  0.49998543  1
  Li  Li2  1  0.50000547  0.00001179  0.49999661  1
  Li  Li3  1  0.49999443  0.49999137  0.49997746  1
  Mn  Mn4  1  0.00014898  0.99991388  0.00010797  1
  Fe  Fe5  1  -0.00001669  0.49999141  0.00000074  1
  Fe  Fe6  1  0.49999224  0.00005033  0.00001248  1
  Fe  Fe7  1  0.50001706  0.49997213  0.99998744  1
  O  O8  1  0.26047071  0.25039140  0.76993760  1
  O  O9  1  0.23438747  0.23899702  0.22260048  1
  O  O10  1  0.24898837  0.76301527  0.77877221  1
  O  O11  1  0.25810828  0.72399647  0.24095364  1
  O  O12  1  0.74189716  0.27597441  0.75902846  1
  O  O13  1  0.75100647  0.23699415  0.22121856  1
  O  O14  1  0.76559191  0.76101421  0.77739141  1
  O  O15  1  0.73950794  0.74961409  0.23002594  1
