# generated using pymatgen
data_Rb3NaV4H2O13
_symmetry_space_group_name_H-M   'P 1'
_cell_length_a   11.41226537
_cell_length_b   8.44491525
_cell_length_c   16.08618286
_cell_angle_alpha   90.00000000
_cell_angle_beta   90.00000000
_cell_angle_gamma   90.00000000
_symmetry_Int_Tables_number   1
_chemical_formula_structural   Rb3NaV4H2O13
_chemical_formula_sum   'Rb12 Na4 V16 H8 O52'
_cell_volume   1550.31574780
_cell_formula_units_Z   4
loop_
 _symmetry_equiv_pos_site_id
 _symmetry_equiv_pos_as_xyz
  1  'x, y, z'
loop_
 _atom_site_type_symbol
 _atom_site_label
 _atom_site_symmetry_multiplicity
 _atom_site_fract_x
 _atom_site_fract_y
 _atom_site_fract_z
 _atom_site_occupancy
  Rb  Rb0  1  0.01477419  0.25000000  0.12112980  1
  Rb  Rb1  1  0.01887804  0.75000000  0.19632552  1
  Rb  Rb2  1  0.02609296  0.75000000  0.60168449  1
  Rb  Rb3  1  0.47390704  0.25000000  0.10168449  1
  Rb  Rb4  1  0.48112196  0.25000000  0.69632552  1
  Rb  Rb5  1  0.48522581  0.75000000  0.62112980  1
  Rb  Rb6  1  0.51477419  0.25000000  0.37887020  1
  Rb  Rb7  1  0.51887804  0.75000000  0.30367448  1
  Rb  Rb8  1  0.52609296  0.75000000  0.89831551  1
  Rb  Rb9  1  0.97390704  0.25000000  0.39831551  1
  Rb  Rb10  1  0.98112196  0.25000000  0.80367448  1
  Rb  Rb11  1  0.98522581  0.75000000  0.87887020  1
  Na  Na12  1  0.18410063  0.25000000  0.58449161  1
  Na  Na13  1  0.31589937  0.75000000  0.08449161  1
  Na  Na14  1  0.68410063  0.25000000  0.91550839  1
  Na  Na15  1  0.81589937  0.75000000  0.41550839  1
  V  V16  1  0.21487904  0.03997188  0.97346632  1
  V  V17  1  0.21487904  0.46002812  0.97346632  1
  V  V18  1  0.24213078  0.95016289  0.76774229  1
  V  V19  1  0.24213078  0.54983711  0.76774229  1
  V  V20  1  0.25786922  0.04983711  0.26774229  1
  V  V21  1  0.25786922  0.45016289  0.26774229  1
  V  V22  1  0.28512096  0.96002812  0.47346632  1
  V  V23  1  0.28512096  0.53997188  0.47346632  1
  V  V24  1  0.71487904  0.03997188  0.52653368  1
  V  V25  1  0.71487904  0.46002812  0.52653368  1
  V  V26  1  0.74213078  0.54983711  0.73225771  1
  V  V27  1  0.74213078  0.95016289  0.73225771  1
  V  V28  1  0.75786922  0.04983711  0.23225771  1
  V  V29  1  0.75786922  0.45016289  0.23225771  1
  V  V30  1  0.78512096  0.53997188  0.02653368  1
  V  V31  1  0.78512096  0.96002812  0.02653368  1
  H  H32  1  0.06611228  0.65645118  0.41466646  1
  H  H33  1  0.06611228  0.84354882  0.41466646  1
  H  H34  1  0.43388772  0.15645118  0.91466646  1
  H  H35  1  0.43388772  0.34354882  0.91466646  1
  H  H36  1  0.56611228  0.65645118  0.08533354  1
  H  H37  1  0.56611228  0.84354882  0.08533354  1
  H  H38  1  0.93388772  0.15645118  0.58533354  1
  H  H39  1  0.93388772  0.34354882  0.58533354  1
  O  O40  1  0.02490983  0.75000000  0.39328231  1
  O  O41  1  0.11104370  0.04737968  0.27226601  1
  O  O42  1  0.11104370  0.45262032  0.27226601  1
  O  O43  1  0.12818297  0.56524976  0.03579914  1
  O  O44  1  0.12818297  0.93475024  0.03579914  1
  O  O45  1  0.14551194  0.02183011  0.48490376  1
  O  O46  1  0.14551194  0.47816989  0.48490376  1
  O  O47  1  0.16988016  0.00993569  0.86564408  1
  O  O48  1  0.16988016  0.49006431  0.86564408  1
  O  O49  1  0.19031730  0.75000000  0.74354667  1
  O  O50  1  0.19589155  0.43033531  0.69251247  1
  O  O51  1  0.19589155  0.06966469  0.69251247  1
  O  O52  1  0.20382083  0.25000000  0.00099311  1
  O  O53  1  0.29617917  0.75000000  0.50099311  1
  O  O54  1  0.30410845  0.93033531  0.19251247  1
  O  O55  1  0.30410845  0.56966469  0.19251247  1
  O  O56  1  0.30968270  0.25000000  0.24354667  1
  O  O57  1  0.33011984  0.99006431  0.36564408  1
  O  O58  1  0.33011984  0.50993569  0.36564408  1
  O  O59  1  0.35448806  0.97816989  0.98490376  1
  O  O60  1  0.35448806  0.52183011  0.98490376  1
  O  O61  1  0.37181703  0.06524976  0.53579914  1
  O  O62  1  0.37181703  0.43475024  0.53579914  1
  O  O63  1  0.38895630  0.54737968  0.77226601  1
  O  O64  1  0.38895630  0.95262032  0.77226601  1
  O  O65  1  0.47509017  0.25000000  0.89328231  1
  O  O66  1  0.52490983  0.75000000  0.10671769  1
  O  O67  1  0.61104370  0.04737968  0.22773399  1
  O  O68  1  0.61104370  0.45262032  0.22773399  1
  O  O69  1  0.62818297  0.56524976  0.46420086  1
  O  O70  1  0.62818297  0.93475024  0.46420086  1
  O  O71  1  0.64551194  0.02183011  0.01509624  1
  O  O72  1  0.64551194  0.47816989  0.01509624  1
  O  O73  1  0.66988016  0.00993569  0.63435592  1
  O  O74  1  0.66988016  0.49006431  0.63435592  1
  O  O75  1  0.69031730  0.75000000  0.75645333  1
  O  O76  1  0.69589155  0.06966469  0.80748753  1
  O  O77  1  0.69589155  0.43033531  0.80748753  1
  O  O78  1  0.70382083  0.25000000  0.49900689  1
  O  O79  1  0.79617917  0.75000000  0.99900689  1
  O  O80  1  0.80410845  0.56966469  0.30748753  1
  O  O81  1  0.80410845  0.93033531  0.30748753  1
  O  O82  1  0.80968270  0.25000000  0.25645333  1
  O  O83  1  0.83011984  0.50993569  0.13435592  1
  O  O84  1  0.83011984  0.99006431  0.13435592  1
  O  O85  1  0.85448806  0.52183011  0.51509624  1
  O  O86  1  0.85448806  0.97816989  0.51509624  1
  O  O87  1  0.87181703  0.06524976  0.96420086  1
  O  O88  1  0.87181703  0.43475024  0.96420086  1
  O  O89  1  0.88895630  0.54737968  0.72773399  1
  O  O90  1  0.88895630  0.95262032  0.72773399  1
  O  O91  1  0.97509017  0.25000000  0.60671769  1
