# generated using pymatgen
data_RuC4(IO2)2
_symmetry_space_group_name_H-M   'P 1'
_cell_length_a   6.64031657
_cell_length_b   6.64031593
_cell_length_c   12.85154123
_cell_angle_alpha   90.57019201
_cell_angle_beta   90.57019191
_cell_angle_gamma   114.11912924
_symmetry_Int_Tables_number   1
_chemical_formula_structural   RuC4(IO2)2
_chemical_formula_sum   'Ru2 C8 I4 O8'
_cell_volume   517.11484035
_cell_formula_units_Z   2
loop_
 _symmetry_equiv_pos_site_id
 _symmetry_equiv_pos_as_xyz
  1  'x, y, z'
loop_
 _atom_site_type_symbol
 _atom_site_label
 _atom_site_symmetry_multiplicity
 _atom_site_fract_x
 _atom_site_fract_y
 _atom_site_fract_z
 _atom_site_occupancy
  Ru  Ru0  1  0.98333924  0.01666076  0.25000000  1
  Ru  Ru1  1  0.01666076  0.98333924  0.75000000  1
  C  C2  1  0.21927590  0.23576392  0.33822828  1
  C  C3  1  0.24275900  0.98492816  0.65725263  1
  C  C4  1  0.76423608  0.78072410  0.16177172  1
  C  C5  1  0.23576392  0.21927590  0.83822828  1
  C  C6  1  0.78072410  0.76423608  0.66177172  1
  C  C7  1  0.75724100  0.01507184  0.34274737  1
  C  C8  1  0.01507184  0.75724100  0.84274737  1
  C  C9  1  0.98492816  0.24275900  0.15725263  1
  I  I10  1  0.99959404  0.31673665  0.62475325  1
  I  I11  1  0.00040596  0.68326335  0.37524675  1
  I  I12  1  0.31673665  0.99959404  0.12475325  1
  I  I13  1  0.68326335  0.00040596  0.87524675  1
  O  O14  1  0.01262860  0.62321048  0.89979961  1
  O  O15  1  0.63421736  0.64238367  0.11249056  1
  O  O16  1  0.64238367  0.63421736  0.61249056  1
  O  O17  1  0.98737140  0.37678952  0.10020039  1
  O  O18  1  0.36578264  0.35761633  0.88750944  1
  O  O19  1  0.35761633  0.36578264  0.38750944  1
  O  O20  1  0.37678952  0.98737140  0.60020039  1
  O  O21  1  0.62321048  0.01262860  0.39979961  1
