# generated using pymatgen
data_LiVCrP2(O4F)2
_symmetry_space_group_name_H-M   'P 1'
_cell_length_a   7.94267753
_cell_length_b   10.27503049
_cell_length_c   7.33360227
_cell_angle_alpha   74.82823483
_cell_angle_beta   87.36012778
_cell_angle_gamma   67.36671264
_symmetry_Int_Tables_number   1
_chemical_formula_structural   LiVCrP2(O4F)2
_chemical_formula_sum   'Li3 V3 Cr3 P6 O24 F6'
_cell_volume   532.15322085
_cell_formula_units_Z   3
loop_
 _symmetry_equiv_pos_site_id
 _symmetry_equiv_pos_as_xyz
  1  'x, y, z'
loop_
 _atom_site_type_symbol
 _atom_site_label
 _atom_site_symmetry_multiplicity
 _atom_site_fract_x
 _atom_site_fract_y
 _atom_site_fract_z
 _atom_site_occupancy
  Li  Li0  1  0.06997960  0.50118726  0.31726379  1
  Li  Li1  1  0.59748053  0.16348493  0.01704328  1
  Li  Li2  1  0.26221236  0.83331671  0.35052665  1
  V  V3  1  0.00074799  0.00033867  0.99030629  1
  V  V4  1  0.33357824  0.33269245  0.66893907  1
  V  V5  1  0.66694345  0.66558643  0.33594828  1
  Cr  Cr6  1  0.50041688  0.00194527  0.50339517  1
  Cr  Cr7  1  0.16669785  0.66636930  0.83226897  1
  Cr  Cr8  1  0.83351278  0.33320364  0.16538437  1
  P  P9  1  0.06869449  0.18429045  0.56833751  1
  P  P10  1  0.26209749  0.14912656  0.09611128  1
  P  P11  1  0.59824651  0.48276574  0.76178043  1
  P  P12  1  0.40264811  0.51814106  0.24104291  1
  P  P13  1  0.73307768  0.85014506  0.90936283  1
  P  P14  1  0.93112078  0.81553047  0.42255611  1
  O  O15  1  0.23638805  0.05369298  0.54263601  1
  O  O16  1  0.21704091  0.01216984  0.11285688  1
  O  O17  1  0.33548934  0.19305438  0.89406223  1
  O  O18  1  0.11655996  0.32044765  0.55788086  1
  O  O19  1  0.09714114  0.28033454  0.12146308  1
  O  O20  1  0.43167484  0.11049699  0.22640661  1
  O  O21  1  0.55133971  0.34498460  0.77432102  1
  O  O22  1  0.32793754  0.47017426  0.44098655  1
  O  O23  1  0.09751158  0.77562254  0.55824261  1
  O  O24  1  0.00492639  0.13688358  0.77566022  1
  O  O25  1  0.23482172  0.55742398  0.10790347  1
  O  O26  1  0.42818953  0.61267383  0.78312724  1
  O  O27  1  0.56944028  0.39107868  0.21110801  1
  O  O28  1  0.76087980  0.44163524  0.89717702  1
  O  O29  1  0.00951063  0.86298194  0.22466135  1
  O  O30  1  0.90474066  0.22501346  0.43532815  1
  O  O31  1  0.66522287  0.52949384  0.55671071  1
  O  O32  1  0.43959593  0.65636406  0.24091631  1
  O  O33  1  0.57232579  0.89331477  0.77055549  1
  O  O34  1  0.90481787  0.72452584  0.88286098  1
  O  O35  1  0.89508004  0.67600944  0.42441931  1
  O  O36  1  0.66469337  0.79956400  0.11204570  1
  O  O37  1  0.77322962  0.98813348  0.91485722  1
  O  O38  1  0.76180484  0.94184659  0.44794599  1
  F  F39  1  0.17089903  0.48683584  0.77457645  1
  F  F40  1  0.49733592  0.17984092  0.56068194  1
  F  F41  1  0.16384201  0.84498229  0.89015756  1
  F  F42  1  0.82943663  0.15594493  0.10429559  1
  F  F43  1  0.49629471  0.82351274  0.44053661  1
  F  F44  1  0.83808756  0.51002075  0.22711385  1
