# generated using pymatgen
data_LiVFe(P2O7)2
_symmetry_space_group_name_H-M   'P 1'
_cell_length_a   13.69715363
_cell_length_b   8.09736729
_cell_length_c   7.17115847
_cell_angle_alpha   90.06676957
_cell_angle_beta   97.23918920
_cell_angle_gamma   90.08922579
_symmetry_Int_Tables_number   1
_chemical_formula_structural   LiVFe(P2O7)2
_chemical_formula_sum   'Li3 V3 Fe3 P12 O42'
_cell_volume   789.01780889
_cell_formula_units_Z   3
loop_
 _symmetry_equiv_pos_site_id
 _symmetry_equiv_pos_as_xyz
  1  'x, y, z'
loop_
 _atom_site_type_symbol
 _atom_site_label
 _atom_site_symmetry_multiplicity
 _atom_site_fract_x
 _atom_site_fract_y
 _atom_site_fract_z
 _atom_site_occupancy
  Li  Li0  1  0.16692107  0.86406257  0.84014899  1
  Li  Li1  1  0.49890438  0.36161445  0.82658110  1
  Li  Li2  1  0.83251173  0.36085704  0.16147592  1
  V  V3  1  0.16264828  0.49482203  0.88402250  1
  V  V4  1  0.49556720  0.50749527  0.22503506  1
  V  V5  1  0.83028916  0.50668036  0.55620787  1
  Fe  Fe6  1  0.17196532  0.00985335  0.43727386  1
  Fe  Fe7  1  0.50610720  0.99374519  0.77963608  1
  Fe  Fe8  1  0.83746820  0.99496044  0.11523927  1
  P  P9  1  0.04356185  0.77941511  0.13089203  1
  P  P10  1  0.04223173  0.67793852  0.52187069  1
  P  P11  1  0.29051184  0.28533014  0.20448348  1
  P  P12  1  0.29379921  0.18075272  0.81754954  1
  P  P13  1  0.37595478  0.78199018  0.46164869  1
  P  P14  1  0.37359019  0.68189475  0.85074026  1
  P  P15  1  0.62568073  0.17925299  0.14743939  1
  P  P16  1  0.62405530  0.28530322  0.53463933  1
  P  P17  1  0.70696961  0.68070986  0.18473296  1
  P  P18  1  0.71104142  0.78058258  0.79483565  1
  P  P19  1  0.95980942  0.17731116  0.47983145  1
  P  P20  1  0.95566932  0.28368708  0.86732534  1
  O  O21  1  0.05297653  0.64794004  0.30395427  1
  O  O22  1  0.10655766  0.93208817  0.18612534  1
  O  O23  1  0.06855107  0.17857868  0.46189129  1
  O  O24  1  0.08490373  0.84713022  0.57960145  1
  O  O25  1  0.09834955  0.53748862  0.62962275  1
  O  O26  1  0.22795478  0.43561110  0.13166649  1
  O  O27  1  0.06471985  0.33225123  0.91582097  1
  O  O28  1  0.28426099  0.14967880  0.03752992  1
  O  O29  1  0.08622651  0.68519728  0.97236450  1
  O  O30  1  0.25620073  0.19377992  0.36673056  1
  O  O31  1  0.26818879  0.82566620  0.41103316  1
  O  O32  1  0.23357069  0.04062534  0.71866432  1
  O  O33  1  0.24770217  0.35135489  0.76825973  1
  O  O34  1  0.26230535  0.67342487  0.87034108  1
  O  O35  1  0.39900558  0.33957700  0.24842399  1
  O  O36  1  0.41413297  0.68094937  0.30447756  1
  O  O37  1  0.38468679  0.64639903  0.63409699  1
  O  O38  1  0.43993354  0.93075710  0.52643042  1
  O  O39  1  0.40268164  0.18424824  0.79235698  1
  O  O40  1  0.56942134  0.04023289  0.04221667  1
  O  O41  1  0.57626795  0.34848510  0.09533804  1
  O  O42  1  0.41411404  0.85183693  0.90453493  1
  O  O43  1  0.43272012  0.54017080  0.95425759  1
  O  O44  1  0.59667967  0.66385815  0.20585527  1
  O  O45  1  0.56015887  0.43732147  0.47206112  1
  O  O46  1  0.61598067  0.15133578  0.36883741  1
  O  O47  1  0.58579634  0.20102353  0.70055267  1
  O  O48  1  0.60282647  0.82079086  0.74081964  1
  O  O49  1  0.73548462  0.18627676  0.12820156  1
  O  O50  1  0.74604251  0.85075336  0.23823016  1
  O  O51  1  0.76772898  0.53986299  0.28759553  1
  O  O52  1  0.73269987  0.33750161  0.58019937  1
  O  O53  1  0.74918268  0.67947471  0.63812114  1
  O  O54  1  0.91717098  0.20015855  0.03318588  1
  O  O55  1  0.71774250  0.64540628  0.96759231  1
  O  O56  1  0.93541208  0.81870281  0.07621486  1
  O  O57  1  0.77354513  0.93018141  0.85974982  1
  O  O58  1  0.90055371  0.04008575  0.37564562  1
  O  O59  1  0.91081542  0.34776548  0.42859661  1
  O  O60  1  0.93070190  0.66560486  0.53767566  1
  O  O61  1  0.89336518  0.43749290  0.80470942  1
  O  O62  1  0.94828413  0.15016588  0.70193549  1
