# generated using pymatgen
data_LiVFe(P2O7)2
_symmetry_space_group_name_H-M   'P 1'
_cell_length_a   9.76212540
_cell_length_b   8.09231511
_cell_length_c   13.32471531
_cell_angle_alpha   90.13985001
_cell_angle_beta   88.04609753
_cell_angle_gamma   89.99921622
_symmetry_Int_Tables_number   1
_chemical_formula_structural   LiVFe(P2O7)2
_chemical_formula_sum   'Li4 V4 Fe4 P16 O56'
_cell_volume   1052.01330000
_cell_formula_units_Z   4
loop_
 _symmetry_equiv_pos_site_id
 _symmetry_equiv_pos_as_xyz
  1  'x, y, z'
loop_
 _atom_site_type_symbol
 _atom_site_label
 _atom_site_symmetry_multiplicity
 _atom_site_fract_x
 _atom_site_fract_y
 _atom_site_fract_z
 _atom_site_occupancy
  Li  Li0  1  0.16801953  0.86435806  0.83613472  1
  Li  Li1  1  0.41822991  0.86425205  0.33656886  1
  Li  Li2  1  0.58093827  0.36076004  0.66499273  1
  Li  Li3  1  0.83084272  0.36132653  0.16464670  1
  V  V4  1  0.17359947  0.49461798  0.86078129  1
  V  V5  1  0.42216954  0.49594139  0.36139861  1
  V  V6  1  0.67631789  0.50785060  0.86394963  1
  V  V7  1  0.92776738  0.50613136  0.36316148  1
  Fe  Fe8  1  0.07255803  0.00941992  0.63290545  1
  Fe  Fe9  1  0.32406594  0.01052676  0.13239584  1
  Fe  Fe10  1  0.57809623  0.99431785  0.63751789  1
  Fe  Fe11  1  0.82649582  0.99353553  0.13796956  1
  P  P12  1  0.06966398  0.17757596  0.25984671  1
  P  P13  1  0.08786712  0.77905683  0.04375406  1
  P  P14  1  0.16099765  0.28361160  0.45686829  1
  P  P15  1  0.18307660  0.67857580  0.23977778  1
  P  P16  1  0.32153903  0.18042556  0.76156045  1
  P  P17  1  0.33585988  0.78067977  0.54386100  1
  P  P18  1  0.41438810  0.28549245  0.95671589  1
  P  P19  1  0.42936092  0.68171916  0.73849680  1
  P  P20  1  0.57115880  0.18052726  0.26205489  1
  P  P21  1  0.58557888  0.78172500  0.04315745  1
  P  P22  1  0.66443734  0.28577151  0.45570593  1
  P  P23  1  0.67895482  0.68162154  0.23882818  1
  P  P24  1  0.81911461  0.17766752  0.76028149  1
  P  P25  1  0.83771437  0.77964711  0.54285032  1
  P  P26  1  0.91112849  0.28356510  0.95595071  1
  P  P27  1  0.93277082  0.67844277  0.73996086  1
  O  O28  1  0.00064380  0.84750668  0.74825652  1
  O  O29  1  0.03072949  0.53791953  0.76561634  1
  O  O30  1  0.04742745  0.66616877  0.30308202  1
  O  O31  1  0.06750341  0.43686199  0.45479061  1
  O  O32  1  0.05955339  0.33165190  0.92537056  1
  O  O33  1  0.11184798  0.15125366  0.37566998  1
  O  O34  1  0.10169916  0.68469782  0.94304882  1
  O  O35  1  0.14249821  0.64771208  0.12534430  1
  O  O36  1  0.16069911  0.19094850  0.55476176  1
  O  O37  1  0.17964135  0.93191871  0.03971458  1
  O  O38  1  0.18860587  0.82310503  0.57292653  1
  O  O39  1  0.20076696  0.17923443  0.19600782  1
  O  O40  1  0.22118993  0.04071264  0.74232665  1
  O  O41  1  0.25079351  0.84748524  0.24707004  1
  O  O42  1  0.25200949  0.35161848  0.76016077  1
  O  O43  1  0.28052264  0.53746972  0.26487182  1
  O  O44  1  0.29530618  0.67364337  0.80355636  1
  O  O45  1  0.30943985  0.33617189  0.42651197  1
  O  O46  1  0.31720821  0.43574229  0.95173247  1
  O  O47  1  0.34857821  0.68742941  0.44246820  1
  O  O48  1  0.36541643  0.14959587  0.87609845  1
  O  O49  1  0.41190649  0.19432551  0.05481472  1
  O  O50  1  0.39038870  0.64461219  0.62379622  1
  O  O51  1  0.43833122  0.82602947  0.07152637  1
  O  O52  1  0.43179805  0.93031045  0.54099368  1
  O  O53  1  0.45086361  0.18357657  0.69426264  1
  O  O54  1  0.47137374  0.04084671  0.24258612  1
  O  O55  1  0.50138393  0.35130334  0.26162775  1
  O  O56  1  0.49227289  0.85181225  0.74413485  1
  O  O57  1  0.52964977  0.54021468  0.76050567  1
  O  O58  1  0.54484204  0.67271614  0.30434351  1
  O  O59  1  0.56769612  0.43684428  0.45314030  1
  O  O60  1  0.56070058  0.34052053  0.92435927  1
  O  O61  1  0.61475994  0.14831712  0.37732683  1
  O  O62  1  0.59421843  0.68106358  0.94506249  1
  O  O63  1  0.63896492  0.64553521  0.12490050  1
  O  O64  1  0.65636030  0.20299129  0.55785486  1
  O  O65  1  0.68207441  0.92974667  0.04379604  1
  O  O66  1  0.68851651  0.82041508  0.56884384  1
  O  O67  1  0.70077255  0.18448861  0.19514704  1
  O  O68  1  0.71972615  0.04019244  0.73744293  1
  O  O69  1  0.74203624  0.85167246  0.24577692  1
  O  O70  1  0.74438959  0.34784060  0.75960721  1
  O  O71  1  0.77943121  0.54007604  0.26086281  1
  O  O72  1  0.79755868  0.66522570  0.80396824  1
  O  O73  1  0.81090885  0.33719242  0.42351267  1
  O  O74  1  0.81787492  0.43808769  0.95593115  1
  O  O75  1  0.84666696  0.67790988  0.44568323  1
  O  O76  1  0.86040742  0.14995377  0.87690815  1
  O  O77  1  0.90437406  0.20014711  0.05791211  1
  O  O78  1  0.89116245  0.64834840  0.62642525  1
  O  O79  1  0.93862971  0.81762499  0.07006989  1
  O  O80  1  0.93024120  0.93095582  0.54240844  1
  O  O81  1  0.95086657  0.18004187  0.69699124  1
  O  O82  1  0.96934521  0.04051228  0.23734369  1
  O  O83  1  0.99484183  0.34818981  0.25850225  1
