# generated using pymatgen
data_LiVFe(P2O7)2
_symmetry_space_group_name_H-M   'P 1'
_cell_length_a   4.87953335
_cell_length_b   8.08029294
_cell_length_c   7.01166602
_cell_angle_alpha   90.25066056
_cell_angle_beta   108.54898739
_cell_angle_gamma   89.70744606
_symmetry_Int_Tables_number   1
_chemical_formula_structural   LiVFe(P2O7)2
_chemical_formula_sum   'Li1 V1 Fe1 P4 O14'
_cell_volume   262.09050941
_cell_formula_units_Z   1
loop_
 _symmetry_equiv_pos_site_id
 _symmetry_equiv_pos_as_xyz
  1  'x, y, z'
loop_
 _atom_site_type_symbol
 _atom_site_label
 _atom_site_symmetry_multiplicity
 _atom_site_fract_x
 _atom_site_fract_y
 _atom_site_fract_z
 _atom_site_occupancy
  Li  Li0  1  0.17347707  0.86411159  0.67363339  1
  V  V1  1  0.20581138  0.49457537  0.72094298  1
  Fe  Fe2  1  0.77986765  0.00871401  0.26615159  1
  P  P3  1  0.40317059  0.17945892  0.52266181  1
  P  P4  1  0.21553256  0.78040448  0.08756307  1
  P  P5  1  0.78220807  0.28449015  0.91562229  1
  P  P6  1  0.60241562  0.67879597  0.47931279  1
  O  O7  1  0.04732251  0.33426936  0.85362359  1
  O  O8  1  0.14057206  0.68680564  0.88499342  1
  O  O9  1  0.18064091  0.04043007  0.48661870  1
  O  O10  1  0.26194978  0.35123985  0.52051266  1
  O  O11  1  0.39344707  0.67468705  0.60579840  1
  O  O12  1  0.58764138  0.43702192  0.90452209  1
  O  O13  1  0.60379825  0.14872965  0.75434514  1
  O  O14  1  0.40946829  0.64819872  0.24950915  1
  O  O15  1  0.39921197  0.93202200  0.07963599  1
  O  O16  1  0.59374270  0.17818478  0.39025997  1
  O  O17  1  0.74906987  0.84753092  0.49420907  1
  O  O18  1  0.82124442  0.53682902  0.53142627  1
  O  O19  1  0.87680999  0.19246530  0.11253507  1
  O  O20  1  0.94783986  0.82317523  0.14356158  1
