# generated using pymatgen
data_Ba8Bi4O17
_symmetry_space_group_name_H-M   'P 1'
_cell_length_a   6.39804725
_cell_length_b   11.06123534
_cell_length_c   8.96228124
_cell_angle_alpha   66.10128223
_cell_angle_beta   90.00000000
_cell_angle_gamma   73.81317741
_symmetry_Int_Tables_number   1
_chemical_formula_structural   Ba8Bi4O17
_chemical_formula_sum   'Ba8 Bi4 O17'
_cell_volume   552.26971767
_cell_formula_units_Z   1
loop_
 _symmetry_equiv_pos_site_id
 _symmetry_equiv_pos_as_xyz
  1  'x, y, z'
loop_
 _atom_site_type_symbol
 _atom_site_label
 _atom_site_symmetry_multiplicity
 _atom_site_fract_x
 _atom_site_fract_y
 _atom_site_fract_z
 _atom_site_occupancy
  Ba  Ba0  1  0.17127303  0.62239522  0.96104691  1
  Ba  Ba1  1  0.45850749  0.00423112  0.75896272  1
  Ba  Ba2  1  0.17127303  0.62239522  0.41655787  1
  Ba  Ba3  1  0.83124429  0.29391377  0.58741025  1
  Ba  Ba4  1  0.98688022  0.95092817  0.52453541  1
  Ba  Ba5  1  0.65746378  0.66752315  0.16623843  1
  Ba  Ba6  1  0.45850749  0.00423112  0.23680616  1
  Ba  Ba7  1  0.83124429  0.29391377  0.11867498  1
  Bi  Bi8  1  0.32680853  0.33002615  0.83498693  1
  Bi  Bi9  1  0.68259889  0.66646956  0.66676572  1
  Bi  Bi10  1  0.32268875  0.31358425  0.34320788  1
  Bi  Bi11  1  0.98524808  0.00612909  0.99693495  1
  O  O12  1  0.73960071  0.72624760  0.85416471  1
  O  O13  1  0.03389041  0.55746975  0.72126512  1
  O  O14  1  0.40275420  0.84407924  0.57796038  1
  O  O15  1  0.54855343  0.50331752  0.74834124  1
  O  O16  1  0.65465456  0.16479346  0.91760327  1
  O  O17  1  0.13018648  0.18646357  0.90676771  1
  O  O18  1  0.99827825  0.02565822  0.75339572  1
  O  O19  1  0.73960071  0.72624760  0.41958869  1
  O  O20  1  0.31876790  0.32789064  0.57973876  1
  O  O21  1  0.30748196  0.86584048  0.06707926  1
  O  O22  1  0.62472237  0.15089331  0.42455334  1
  O  O23  1  0.02911266  0.48669189  0.25665455  1
  O  O24  1  0.49214457  0.46775749  0.26612076  1
  O  O25  1  0.84038798  0.85065596  0.07467202  1
  O  O26  1  0.12901281  0.17663583  0.41168159  1
  O  O27  1  0.31876790  0.32789064  0.09237060  1
  O  O28  1  0.99827825  0.02565822  0.22094706  1
