# generated using pymatgen
data_LiVCrP2(O4F)2
_symmetry_space_group_name_H-M   'P 1'
_cell_length_a   5.16306364
_cell_length_b   14.65600207
_cell_length_c   7.33087909
_cell_angle_alpha   87.95805776
_cell_angle_beta   106.09823789
_cell_angle_gamma   86.46795280
_symmetry_Int_Tables_number   1
_chemical_formula_structural   LiVCrP2(O4F)2
_chemical_formula_sum   'Li3 V3 Cr3 P6 O24 F6'
_cell_volume   531.15786278
_cell_formula_units_Z   3
loop_
 _symmetry_equiv_pos_site_id
 _symmetry_equiv_pos_as_xyz
  1  'x, y, z'
loop_
 _atom_site_type_symbol
 _atom_site_label
 _atom_site_symmetry_multiplicity
 _atom_site_fract_x
 _atom_site_fract_y
 _atom_site_fract_z
 _atom_site_occupancy
  Li  Li0  1  0.06953797  0.85400319  0.32742991  1
  Li  Li1  1  0.40122522  0.52185148  0.65817537  1
  Li  Li2  1  0.93232730  0.14697369  0.67411954  1
  V  V3  1  0.99975604  0.00022953  0.00003279  1
  V  V4  1  0.33342272  0.66514540  0.32811303  1
  V  V5  1  0.66606323  0.33362645  0.66665121  1
  Cr  Cr6  1  0.00465636  0.49942614  0.00315601  1
  Cr  Cr7  1  0.32698731  0.16793182  0.32904364  1
  Cr  Cr8  1  0.67162742  0.83296076  0.66987529  1
  P  P9  1  0.27040131  0.29331689  0.94574497  1
  P  P10  1  0.06214084  0.37336253  0.38706668  1
  P  P11  1  0.40020662  0.03709790  0.71666922  1
  P  P12  1  0.59905500  0.96301771  0.28284144  1
  P  P13  1  0.93270106  0.62883289  0.61423713  1
  P  P14  1  0.72989170  0.70573383  0.05138517  1
  O  O15  1  0.09243594  0.55998376  0.77662912  1
  O  O16  1  0.23302436  0.04586418  0.86743067  1
  O  O17  1  0.25197254  0.39297992  0.99561546  1
  O  O18  1  0.07921163  0.27357049  0.33692878  1
  O  O19  1  0.10660152  0.61806476  0.46777975  1
  O  O20  1  0.23948145  0.10716767  0.55759991  1
  O  O21  1  0.01136267  0.73808692  0.16321076  1
  O  O22  1  0.44955956  0.28675980  0.80236442  1
  O  O23  1  0.34333739  0.40633188  0.49652242  1
  O  O24  1  0.40403171  0.93896451  0.65572705  1
  O  O25  1  0.58378924  0.77411816  0.88922206  1
  O  O26  1  0.69064363  0.06764499  0.80748488  1
  O  O27  1  0.30896663  0.93198065  0.19243115  1
  O  O28  1  0.41565595  0.22647846  0.11178903  1
  O  O29  1  0.59419401  0.06103627  0.34330303  1
  O  O30  1  0.64296119  0.59786931  0.52607645  1
  O  O31  1  0.55676946  0.71076594  0.19980618  1
  O  O32  1  0.98952741  0.25991183  0.83673415  1
  O  O33  1  0.75997897  0.89283471  0.44234800  1
  O  O34  1  0.88376118  0.37940287  0.53112274  1
  O  O35  1  0.92852094  0.72834607  0.66592202  1
  O  O36  1  0.74601507  0.60734997  0.99320601  1
  O  O37  1  0.76732534  0.95362858  0.13293298  1
  O  O38  1  0.91727970  0.44013499  0.22134013  1
  F  F39  1  0.03548874  0.10545113  0.15402455  1
  F  F40  1  0.36989258  0.77512726  0.48629666  1
  F  F41  1  0.29808322  0.55973719  0.17713155  1
  F  F42  1  0.70074234  0.44281966  0.82152369  1
  F  F43  1  0.63014768  0.22404402  0.51150820  1
  F  F44  1  0.96281582  0.89452386  0.84590277  1
