# generated using pymatgen
data_VOF2
_symmetry_space_group_name_H-M   'P 1'
_cell_length_a   5.26172389
_cell_length_b   5.38312902
_cell_length_c   12.84971300
_cell_angle_alpha   92.61765428
_cell_angle_beta   90.24499795
_cell_angle_gamma   60.40271613
_symmetry_Int_Tables_number   1
_chemical_formula_structural   VOF2
_chemical_formula_sum   'V6 O6 F12'
_cell_volume   316.07155491
_cell_formula_units_Z   6
loop_
 _symmetry_equiv_pos_site_id
 _symmetry_equiv_pos_as_xyz
  1  'x, y, z'
loop_
 _atom_site_type_symbol
 _atom_site_label
 _atom_site_symmetry_multiplicity
 _atom_site_fract_x
 _atom_site_fract_y
 _atom_site_fract_z
 _atom_site_occupancy
  V  V0  1  0.67707280  0.63346835  0.65978696  1
  V  V1  1  0.67741249  0.64932245  0.16030760  1
  V  V2  1  0.36740625  0.29758880  0.82735282  1
  V  V3  1  0.33791477  0.30441558  0.32623388  1
  V  V4  1  0.02514444  0.96749651  0.49311686  1
  V  V5  1  0.96641873  0.01975947  0.99675907  1
  O  O6  1  0.90135108  0.34464951  0.08884760  1
  O  O7  1  0.75442902  0.33933503  0.58558635  1
  O  O8  1  0.62734515  0.18869945  0.94614479  1
  O  O9  1  0.57636296  0.00828930  0.75057406  1
  O  O10  1  0.24180052  0.67065930  0.41969634  1
  O  O11  1  0.41582628  0.00827507  0.25204271  1
  F  F12  1  0.86574562  0.86679239  0.11695361  1
  F  F13  1  0.92836877  0.53615308  0.28477321  1
  F  F14  1  0.78549268  0.81971877  0.55271475  1
  F  F15  1  0.72926146  0.15363676  0.38544802  1
  F  F16  1  0.53533349  0.53581753  0.78443542  1
  F  F17  1  0.38207583  0.82011156  0.05292123  1
  F  F18  1  0.44469113  0.49023742  0.22019060  1
  F  F19  1  0.26590849  0.86612351  0.61819238  1
  F  F20  1  0.09322731  0.65492051  0.91874353  1
  F  F21  1  0.20315052  0.19772906  0.45065573  1
  F  F22  1  0.06137307  0.48837187  0.72204091  1
  F  F23  1  0.13688514  0.13842670  0.88648159  1
