# generated using pymatgen
data_NaMgH4SO6F
_symmetry_space_group_name_H-M   'P 1'
_cell_length_a   7.27248081
_cell_length_b   7.26465703
_cell_length_c   5.75266196
_cell_angle_alpha   90.00000000
_cell_angle_beta   112.44569171
_cell_angle_gamma   90.00000000
_symmetry_Int_Tables_number   1
_chemical_formula_structural   NaMgH4SO6F
_chemical_formula_sum   'Na2 Mg2 H8 S2 O12 F2'
_cell_volume   280.90028680
_cell_formula_units_Z   2
loop_
 _symmetry_equiv_pos_site_id
 _symmetry_equiv_pos_as_xyz
  1  'x, y, z'
loop_
 _atom_site_type_symbol
 _atom_site_label
 _atom_site_symmetry_multiplicity
 _atom_site_fract_x
 _atom_site_fract_y
 _atom_site_fract_z
 _atom_site_occupancy
  Na  Na0  1  0.19898077  0.25000000  0.63538337  1
  Na  Na1  1  0.80101923  0.75000000  0.36461663  1
  Mg  Mg2  1  0.00000000  0.00000000  0.00000000  1
  Mg  Mg3  1  0.00000000  0.50000000  0.00000000  1
  H  H4  1  0.30127381  0.56834604  0.42879267  1
  H  H5  1  0.30127381  0.93165396  0.42879267  1
  H  H6  1  0.36660986  0.09539051  0.29462478  1
  H  H7  1  0.36660986  0.40460949  0.29462478  1
  H  H8  1  0.63339014  0.59539051  0.70537522  1
  H  H9  1  0.63339014  0.90460949  0.70537522  1
  H  H10  1  0.69872619  0.06834604  0.57120733  1
  H  H11  1  0.69872619  0.43165396  0.57120733  1
  S  S12  1  0.30899568  0.75000000  0.85457928  1
  S  S13  1  0.69100432  0.25000000  0.14542072  1
  O  O14  1  0.17877903  0.58275025  0.80300506  1
  O  O15  1  0.17877903  0.91724975  0.80300506  1
  O  O16  1  0.25317066  0.04540419  0.32837332  1
  O  O17  1  0.25317066  0.45459581  0.32837332  1
  O  O18  1  0.40806669  0.75000000  0.66391183  1
  O  O19  1  0.54068980  0.25000000  0.88936417  1
  O  O20  1  0.45931020  0.75000000  0.11063583  1
  O  O21  1  0.59193331  0.25000000  0.33608817  1
  O  O22  1  0.74682934  0.95459581  0.67162668  1
  O  O23  1  0.74682934  0.54540419  0.67162668  1
  O  O24  1  0.82122097  0.08275025  0.19699494  1
  O  O25  1  0.82122097  0.41724975  0.19699494  1
  F  F26  1  0.02122468  0.25000000  0.88223313  1
  F  F27  1  0.97877532  0.75000000  0.11776687  1
