# generated using pymatgen
data_Li2VCrO4
_symmetry_space_group_name_H-M   'P 1'
_cell_length_a   5.14486327
_cell_length_b   6.00266496
_cell_length_c   5.14759746
_cell_angle_alpha   90.00099701
_cell_angle_beta   71.00414898
_cell_angle_gamma   89.99939761
_symmetry_Int_Tables_number   1
_chemical_formula_structural   Li2VCrO4
_chemical_formula_sum   'Li4 V2 Cr2 O8'
_cell_volume   150.31537761
_cell_formula_units_Z   2
loop_
 _symmetry_equiv_pos_site_id
 _symmetry_equiv_pos_as_xyz
  1  'x, y, z'
loop_
 _atom_site_type_symbol
 _atom_site_label
 _atom_site_symmetry_multiplicity
 _atom_site_fract_x
 _atom_site_fract_y
 _atom_site_fract_z
 _atom_site_occupancy
  Li  Li0  1  0.00040819  0.00487769  0.00105593  1
  Li  Li1  1  0.99954983  0.49707989  0.99918102  1
  Li  Li2  1  0.99950609  0.25289371  0.49915894  1
  Li  Li3  1  0.00034074  0.74517928  0.50117287  1
  V  V4  1  0.49936879  0.75074656  0.99979246  1
  V  V5  1  0.49937330  0.99922826  0.49972953  1
  Cr  Cr6  1  0.50053136  0.25193721  0.99988968  1
  Cr  Cr7  1  0.50053054  0.49809748  0.49988221  1
  O  O8  1  0.27123883  0.00601060  0.24290033  1
  O  O9  1  0.27583285  0.49974704  0.23958091  1
  O  O10  1  0.72697314  0.25329178  0.25624500  1
  O  O11  1  0.27583106  0.25023776  0.73953451  1
  O  O12  1  0.72615781  0.74892488  0.26134663  1
  O  O13  1  0.72614223  0.00106741  0.76129575  1
  O  O14  1  0.27124342  0.74396979  0.74293045  1
  O  O15  1  0.72697083  0.49671267  0.75630480  1
