# generated using pymatgen
data_UH12(NO7)2
_symmetry_space_group_name_H-M   'P 1'
_cell_length_a   7.72672866
_cell_length_b   7.72672866
_cell_length_c   11.25616222
_cell_angle_alpha   90.00000000
_cell_angle_beta   90.00000000
_cell_angle_gamma   116.08839812
_symmetry_Int_Tables_number   1
_chemical_formula_structural   UH12(NO7)2
_chemical_formula_sum   'U2 H24 N4 O28'
_cell_volume   603.55160593
_cell_formula_units_Z   2
loop_
 _symmetry_equiv_pos_site_id
 _symmetry_equiv_pos_as_xyz
  1  'x, y, z'
loop_
 _atom_site_type_symbol
 _atom_site_label
 _atom_site_symmetry_multiplicity
 _atom_site_fract_x
 _atom_site_fract_y
 _atom_site_fract_z
 _atom_site_occupancy
  U  U0  1  0.12962326  0.12962326  0.24800358  1
  U  U1  1  0.87037674  0.87037674  0.74800358  1
  H  H2  1  0.05407164  0.60399978  0.67268596  1
  H  H3  1  0.39600022  0.94592836  0.17268596  1
  H  H4  1  0.31030286  0.85177124  0.30332254  1
  H  H5  1  0.14822876  0.68969714  0.80332254  1
  H  H6  1  0.18179662  0.65222416  0.98995432  1
  H  H7  1  0.34777584  0.81820338  0.48995432  1
  H  H8  1  0.13117458  0.53559937  0.49925759  1
  H  H9  1  0.46440063  0.86882542  0.99925759  1
  H  H10  1  0.42917952  0.69261769  0.42255443  1
  H  H11  1  0.30738231  0.57082048  0.92255443  1
  H  H12  1  0.62382939  0.89750839  0.09204035  1
  H  H13  1  0.10249161  0.37617061  0.59204035  1
  H  H14  1  0.37617061  0.10249161  0.59204035  1
  H  H15  1  0.89750839  0.62382939  0.09204035  1
  H  H16  1  0.69261769  0.42917952  0.42255443  1
  H  H17  1  0.57082048  0.30738231  0.92255443  1
  H  H18  1  0.53559937  0.13117458  0.49925759  1
  H  H19  1  0.86882542  0.46440063  0.99925759  1
  H  H20  1  0.65222416  0.18179662  0.98995432  1
  H  H21  1  0.81820338  0.34777584  0.48995432  1
  H  H22  1  0.68969714  0.14822876  0.80332254  1
  H  H23  1  0.85177124  0.31030286  0.30332254  1
  H  H24  1  0.94592836  0.39600022  0.17268596  1
  H  H25  1  0.60399978  0.05407164  0.67268596  1
  N  N26  1  0.52511119  0.52511119  0.66009335  1
  N  N27  1  0.47488881  0.47488881  0.16009335  1
  N  N28  1  0.79281904  0.79281904  0.35881564  1
  N  N29  1  0.20718096  0.20718096  0.85881564  1
  O  O30  1  0.30527744  0.93894181  0.23899871  1
  O  O31  1  0.06105819  0.69472256  0.73899871  1
  O  O32  1  0.28294927  0.68577630  0.92726783  1
  O  O33  1  0.31422370  0.71705073  0.42726783  1
  O  O34  1  0.54585860  0.95989953  0.06268287  1
  O  O35  1  0.04010047  0.45414140  0.56268287  1
  O  O36  1  0.31135181  0.47683183  0.17624841  1
  O  O37  1  0.52316817  0.68864819  0.67624841  1
  O  O38  1  0.78386300  0.94941897  0.33377876  1
  O  O39  1  0.05058103  0.21613700  0.83377876  1
  O  O40  1  0.65323092  0.65323092  0.40442198  1
  O  O41  1  0.78548359  0.78548359  0.89501009  1
  O  O42  1  0.62066591  0.62066591  0.13134033  1
  O  O43  1  0.04643028  0.04643028  0.09949252  1
  O  O44  1  0.21451641  0.21451641  0.39501009  1
  O  O45  1  0.37933409  0.37933409  0.63134033  1
  O  O46  1  0.34676908  0.34676908  0.90442198  1
  O  O47  1  0.95356972  0.95356972  0.59949252  1
  O  O48  1  0.94941897  0.78386300  0.33377876  1
  O  O49  1  0.21613700  0.05058103  0.83377876  1
  O  O50  1  0.68864819  0.52316817  0.67624841  1
  O  O51  1  0.47683183  0.31135181  0.17624841  1
  O  O52  1  0.95989953  0.54585860  0.06268287  1
  O  O53  1  0.45414140  0.04010047  0.56268287  1
  O  O54  1  0.68577630  0.28294927  0.92726783  1
  O  O55  1  0.71705073  0.31422370  0.42726783  1
  O  O56  1  0.93894181  0.30527744  0.23899871  1
  O  O57  1  0.69472256  0.06105819  0.73899871  1
