# generated using pymatgen
data_LiVFe(P2O7)2
_symmetry_space_group_name_H-M   'P 1'
_cell_length_a   4.87691192
_cell_length_b   8.10118371
_cell_length_c   7.00919931
_cell_angle_alpha   89.87036379
_cell_angle_beta   108.37120291
_cell_angle_gamma   90.32290083
_symmetry_Int_Tables_number   1
_chemical_formula_structural   LiVFe(P2O7)2
_chemical_formula_sum   'Li1 V1 Fe1 P4 O14'
_cell_volume   262.80696220
_cell_formula_units_Z   1
loop_
 _symmetry_equiv_pos_site_id
 _symmetry_equiv_pos_as_xyz
  1  'x, y, z'
loop_
 _atom_site_type_symbol
 _atom_site_label
 _atom_site_symmetry_multiplicity
 _atom_site_fract_x
 _atom_site_fract_y
 _atom_site_fract_z
 _atom_site_occupancy
  Li  Li0  1  0.82564625  0.36112877  0.32815265  1
  V  V1  1  0.21780487  0.50701348  0.72779974  1
  Fe  Fe2  1  0.79225898  0.99479566  0.27546238  1
  P  P3  1  0.40018221  0.17891132  0.52153946  1
  P  P4  1  0.21582855  0.78107551  0.08417016  1
  P  P5  1  0.78259532  0.28497640  0.91081675  1
  P  P6  1  0.60039705  0.68090186  0.47737669  1
  O  O7  1  0.04561410  0.33728893  0.84766769  1
  O  O8  1  0.13540468  0.67958005  0.88955110  1
  O  O9  1  0.18199187  0.03992707  0.47313425  1
  O  O10  1  0.24967223  0.34815988  0.51826317  1
  O  O11  1  0.40033602  0.66437999  0.60909702  1
  O  O12  1  0.59244919  0.43691173  0.91159267  1
  O  O13  1  0.60048860  0.15094892  0.75325723  1
  O  O14  1  0.40320207  0.64569389  0.24974629  1
  O  O15  1  0.40600689  0.93101817  0.08611061  1
  O  O16  1  0.60146149  0.18581713  0.39293711  1
  O  O17  1  0.73226701  0.85116325  0.49153270  1
  O  O18  1  0.82332182  0.53994385  0.52015366  1
  O  O19  1  0.87210299  0.20101237  0.11524846  1
  O  O20  1  0.94577281  0.82103178  0.13880020  1
