# generated using pymatgen
data_LiVF5
_symmetry_space_group_name_H-M   'P 1'
_cell_length_a   8.07674762
_cell_length_b   5.47731490
_cell_length_c   10.67648957
_cell_angle_alpha   91.90785970
_cell_angle_beta   143.45192519
_cell_angle_gamma   113.10497430
_symmetry_Int_Tables_number   1
_chemical_formula_structural   LiVF5
_chemical_formula_sum   'Li2 V2 F10'
_cell_volume   199.56481606
_cell_formula_units_Z   2
loop_
 _symmetry_equiv_pos_site_id
 _symmetry_equiv_pos_as_xyz
  1  'x, y, z'
loop_
 _atom_site_type_symbol
 _atom_site_label
 _atom_site_symmetry_multiplicity
 _atom_site_fract_x
 _atom_site_fract_y
 _atom_site_fract_z
 _atom_site_occupancy
  Li  Li0  1  0.16226559  0.60397949  0.93046005  1
  Li  Li1  1  0.83653895  0.39645865  0.07495850  1
  V  V2  1  0.99772564  0.50151556  0.50133512  1
  V  V3  1  0.99641189  0.99884228  0.00017790  1
  F  F4  1  0.09590625  0.44653611  0.71740061  1
  F  F5  1  0.31316467  0.96916174  0.73444930  1
  F  F6  1  0.68280972  0.03323885  0.26922601  1
  F  F7  1  0.07871357  0.22165326  0.19751141  1
  F  F8  1  0.45352827  0.60222169  0.71582062  1
  F  F9  1  0.90033664  0.55610654  0.28595245  1
  F  F10  1  0.14021785  0.79778947  0.16623148  1
  F  F11  1  0.85254739  0.19997445  0.83415793  1
  F  F12  1  0.54006725  0.39812091  0.28525820  1
  F  F13  1  0.91567231  0.77626200  0.80344340  1
