# generated using pymatgen
data_NaMnPCO7
_symmetry_space_group_name_H-M   'P 1'
_cell_length_a   18.15090448
_cell_length_b   6.25644562
_cell_length_c   5.23075898
_cell_angle_alpha   90.00000000
_cell_angle_beta   88.00206459
_cell_angle_gamma   90.00000000
_symmetry_Int_Tables_number   1
_chemical_formula_structural   NaMnPCO7
_chemical_formula_sum   'Na4 Mn4 P4 C4 O28'
_cell_volume   593.64465231
_cell_formula_units_Z   4
loop_
 _symmetry_equiv_pos_site_id
 _symmetry_equiv_pos_as_xyz
  1  'x, y, z'
loop_
 _atom_site_type_symbol
 _atom_site_label
 _atom_site_symmetry_multiplicity
 _atom_site_fract_x
 _atom_site_fract_y
 _atom_site_fract_z
 _atom_site_occupancy
  Na  Na0  1  0.11935696  0.46984926  0.24291990  1
  Na  Na1  1  0.38064304  0.53015074  0.75708010  1
  Na  Na2  1  0.61935696  0.03015074  0.24291990  1
  Na  Na3  1  0.88064304  0.96984926  0.75708010  1
  Mn  Mn4  1  0.17123026  0.75312872  0.78305938  1
  Mn  Mn5  1  0.32876974  0.24687128  0.21694062  1
  Mn  Mn6  1  0.67123026  0.74687128  0.78305938  1
  Mn  Mn7  1  0.82876974  0.25312872  0.21694062  1
  P  P8  1  0.21672925  0.25143130  0.71875794  1
  P  P9  1  0.28327075  0.74856870  0.28124206  1
  P  P10  1  0.71672925  0.24856870  0.71875794  1
  P  P11  1  0.78327075  0.75143130  0.28124206  1
  C  C12  1  0.03901574  0.74347955  0.72948147  1
  C  C13  1  0.46098426  0.25652045  0.27051853  1
  C  C14  1  0.53901574  0.75652045  0.72948147  1
  C  C15  1  0.96098426  0.24347955  0.27051853  1
  O  O16  1  0.02776832  0.23800361  0.30058948  1
  O  O17  1  0.07120261  0.74657021  0.95225685  1
  O  O18  1  0.08985771  0.74761061  0.54002913  1
  O  O19  1  0.16817618  0.05646267  0.78454042  1
  O  O20  1  0.16354324  0.44135554  0.78386604  1
  O  O21  1  0.23804198  0.26063769  0.42812346  1
  O  O22  1  0.21272593  0.73689959  0.12740494  1
  O  O23  1  0.28727407  0.26310041  0.87259506  1
  O  O24  1  0.26195802  0.73936231  0.57187654  1
  O  O25  1  0.33645676  0.55864446  0.21613396  1
  O  O26  1  0.33182382  0.94353733  0.21545958  1
  O  O27  1  0.41014229  0.25238939  0.45997087  1
  O  O28  1  0.42879739  0.25342979  0.04774315  1
  O  O29  1  0.47223268  0.76199639  0.69941052  1
  O  O30  1  0.52776832  0.26199639  0.30058948  1
  O  O31  1  0.57120261  0.75342979  0.95225685  1
  O  O32  1  0.58985771  0.75238939  0.54002913  1
  O  O33  1  0.66354324  0.05864446  0.78386604  1
  O  O34  1  0.66817618  0.44353733  0.78454042  1
  O  O35  1  0.73804198  0.23936231  0.42812346  1
  O  O36  1  0.71272593  0.76310041  0.12740494  1
  O  O37  1  0.78727407  0.23689959  0.87259506  1
  O  O38  1  0.76195802  0.76063769  0.57187654  1
  O  O39  1  0.83182382  0.55646267  0.21545958  1
  O  O40  1  0.83645676  0.94135554  0.21613396  1
  O  O41  1  0.91014229  0.24761061  0.45997087  1
  O  O42  1  0.92879739  0.24657021  0.04774315  1
  O  O43  1  0.97223168  0.73800361  0.69941052  1
