# generated using pymatgen
data_Mn3Fe(PO4)4
_symmetry_space_group_name_H-M   'P 1'
_cell_length_a   4.92890139
_cell_length_b   11.53337119
_cell_length_c   11.53341871
_cell_angle_alpha   117.16324800
_cell_angle_beta   89.99707761
_cell_angle_gamma   90.00215081
_symmetry_Int_Tables_number   1
_chemical_formula_structural   Mn3Fe(PO4)4
_chemical_formula_sum   'Mn6 Fe2 P8 O32'
_cell_volume   583.32774452
_cell_formula_units_Z   2
loop_
 _symmetry_equiv_pos_site_id
 _symmetry_equiv_pos_as_xyz
  1  'x, y, z'
loop_
 _atom_site_type_symbol
 _atom_site_label
 _atom_site_symmetry_multiplicity
 _atom_site_fract_x
 _atom_site_fract_y
 _atom_site_fract_z
 _atom_site_occupancy
  Mn  Mn0  1  0.93076551  0.48293418  0.76647420  1
  Mn  Mn1  1  0.93077550  0.98351882  0.26706435  1
  Mn  Mn2  1  0.56880046  0.73454695  0.51794488  1
  Mn  Mn3  1  0.56880264  0.23205608  0.01545057  1
  Mn  Mn4  1  0.42889389  0.26769509  0.48231159  1
  Mn  Mn5  1  0.07379376  0.01830778  0.73168449  1
  Fe  Fe6  1  0.45782738  0.76305424  0.98695010  1
  Fe  Fe7  1  0.04028050  0.51246313  0.23753583  1
  P  P8  1  0.91558468  0.17491332  0.57509536  1
  P  P9  1  0.91186472  0.67351544  0.07647747  1
  P  P10  1  0.58596037  0.42302378  0.32698624  1
  P  P11  1  0.58699115  0.92536178  0.82463175  1
  P  P12  1  0.41684526  0.07352820  0.17295288  1
  P  P13  1  0.41682185  0.57704581  0.67648074  1
  P  P14  1  0.08294933  0.32766112  0.92705486  1
  P  P15  1  0.08297509  0.82293922  0.42234078  1
  O  O16  1  0.85569955  0.09823617  0.65175378  1
  O  O17  1  0.84331484  0.59791246  0.15207457  1
  O  O18  1  0.76407036  0.61222939  0.93991154  1
  O  O19  1  0.77259883  0.11025087  0.43926523  1
  O  O20  1  0.77259247  0.31073911  0.63974691  1
  O  O21  1  0.76407025  0.81008478  0.13777361  1
  O  O22  1  0.77210157  0.31661809  0.93509008  1
  O  O23  1  0.77210746  0.81492100  0.43339142  1
  O  O24  1  0.72774048  0.56596114  0.68454695  1
  O  O25  1  0.72774883  0.06544615  0.18403260  1
  O  O26  1  0.73516559  0.36088032  0.19125186  1
  O  O27  1  0.73516303  0.55876563  0.38913378  1
  O  O28  1  0.72847175  0.86155891  0.68797853  1
  O  O29  1  0.72847138  0.06201732  0.88843580  1
  O  O30  1  0.64814561  0.84937131  0.90063322  1
  O  O31  1  0.65303650  0.34677828  0.40323306  1
  O  O32  1  0.35752566  0.15269321  0.09839397  1
  O  O33  1  0.35753115  0.65158547  0.59729383  1
  O  O34  1  0.27456416  0.44071292  0.61243977  1
  O  O35  1  0.27766832  0.93724045  0.10662643  1
  O  O36  1  0.27765183  0.64337828  0.81276439  1
  O  O37  1  0.27457033  0.13756926  0.30928400  1
  O  O38  1  0.27683999  0.93578488  0.81421913  1
  O  O39  1  0.28052368  0.43382807  0.31617933  1
  O  O40  1  0.22549303  0.18497135  0.56502366  1
  O  O41  1  0.21721126  0.68490868  0.06507738  1
  O  O42  1  0.22153682  0.68620466  0.35683530  1
  O  O43  1  0.22594615  0.19164348  0.86230990  1
  O  O44  1  0.22153113  0.39316666  0.06378744  1
  O  O45  1  0.22594734  0.88768697  0.55836137  1
  O  O46  1  0.14250441  0.40473722  0.85044704  1
  O  O47  1  0.14252415  0.89955157  0.34526901  1
