# generated using pymatgen
data_K6Na2MnH24(WO6)6
_symmetry_space_group_name_H-M   'P 1'
_cell_length_a   9.82044809
_cell_length_b   9.82044809
_cell_length_c   9.82044851
_cell_angle_alpha   84.39754898
_cell_angle_beta   84.39754898
_cell_angle_gamma   84.39755069
_symmetry_Int_Tables_number   1
_chemical_formula_structural   K6Na2MnH24(WO6)6
_chemical_formula_sum   'K6 Na2 Mn1 H24 W6 O36'
_cell_volume   934.35154478
_cell_formula_units_Z   1
loop_
 _symmetry_equiv_pos_site_id
 _symmetry_equiv_pos_as_xyz
  1  'x, y, z'
loop_
 _atom_site_type_symbol
 _atom_site_label
 _atom_site_symmetry_multiplicity
 _atom_site_fract_x
 _atom_site_fract_y
 _atom_site_fract_z
 _atom_site_occupancy
  K  K0  1  0.10149659  0.66701333  0.66701333  1
  K  K1  1  0.33298667  0.89850341  0.33298667  1
  K  K2  1  0.66701333  0.66701333  0.10149659  1
  K  K3  1  0.33298667  0.33298667  0.89850341  1
  K  K4  1  0.66701333  0.10149659  0.66701333  1
  K  K5  1  0.89850341  0.33298667  0.33298667  1
  Na  Na6  1  0.73954850  0.73954850  0.73954850  1
  Na  Na7  1  0.26045150  0.26045150  0.26045150  1
  Mn  Mn8  1  0.00000000  0.00000000  0.00000000  1
  H  H9  1  0.52640532  0.90197721  0.90197721  1
  H  H10  1  0.09802279  0.47359468  0.09802279  1
  H  H11  1  0.15714496  0.51734336  0.39811418  1
  H  H12  1  0.48265664  0.84285504  0.60188582  1
  H  H13  1  0.03698588  0.35250875  0.03698588  1
  H  H14  1  0.64749125  0.96301412  0.96301412  1
  H  H15  1  0.15714496  0.39811418  0.51734336  1
  H  H16  1  0.60188582  0.84285504  0.48265664  1
  H  H17  1  0.48265664  0.60188582  0.84285504  1
  H  H18  1  0.39811418  0.51734336  0.15714496  1
  H  H19  1  0.09802279  0.09802279  0.47359468  1
  H  H20  1  0.03698588  0.03698588  0.35250875  1
  H  H21  1  0.96301412  0.96301412  0.64749125  1
  H  H22  1  0.90197721  0.90197721  0.52640532  1
  H  H23  1  0.51734336  0.39811418  0.15714496  1
  H  H24  1  0.60188582  0.48265664  0.84285504  1
  H  H25  1  0.84285504  0.60188582  0.48265664  1
  H  H26  1  0.39811418  0.15714496  0.51734336  1
  H  H27  1  0.35250875  0.03698588  0.03698588  1
  H  H28  1  0.96301412  0.64749125  0.96301412  1
  H  H29  1  0.84285504  0.48265664  0.60188582  1
  H  H30  1  0.51734336  0.15714496  0.39811418  1
  H  H31  1  0.47359468  0.09802279  0.09802279  1
  H  H32  1  0.90197721  0.52640532  0.90197721  1
  W  W33  1  1.00000000  0.75459998  0.24540002  1
  W  W34  1  0.24540002  0.75459998  0.00000000  1
  W  W35  1  0.00000000  0.24540002  0.75459998  1
  W  W36  1  0.24540002  0.00000000  0.75459998  1
  W  W37  1  0.75459998  0.24540002  0.00000000  1
  W  W38  1  0.75459998  1.00000000  0.24540002  1
  O  O39  1  0.10019852  0.87374977  0.87374977  1
  O  O40  1  0.12625023  0.89980148  0.12625023  1
  O  O41  1  0.12519616  0.70870482  0.36804501  1
  O  O42  1  0.29129518  0.87480384  0.63195499  1
  O  O43  1  0.34805082  0.90948403  0.90948403  1
  O  O44  1  0.09051597  0.65194918  0.09051597  1
  O  O45  1  0.36804501  0.70870482  0.12519616  1
  O  O46  1  0.29129518  0.63195499  0.87480384  1
  O  O47  1  0.62789784  0.89832751  0.89832751  1
  O  O48  1  0.10167249  0.37210216  0.10167249  1
  O  O49  1  0.15627923  0.41695267  0.41695267  1
  O  O50  1  0.58304733  0.84372077  0.58304733  1
  O  O51  1  0.63195499  0.87480384  0.29129518  1
  O  O52  1  0.12519616  0.36804501  0.70870482  1
  O  O53  1  0.12625023  0.12625023  0.89980148  1
  O  O54  1  0.10167249  0.10167249  0.37210216  1
  O  O55  1  0.58304733  0.58304733  0.84372077  1
  O  O56  1  0.89832751  0.89832751  0.62789784  1
  O  O57  1  0.09051597  0.09051597  0.65194918  1
  O  O58  1  0.41695267  0.41695267  0.15627923  1
  O  O59  1  0.90948403  0.90948403  0.34805082  1
  O  O60  1  0.87374977  0.87374977  0.10019852  1
  O  O61  1  0.87480384  0.63195499  0.29129518  1
  O  O62  1  0.36804501  0.12519616  0.70870482  1
  O  O63  1  0.84372077  0.58304733  0.58304733  1
  O  O64  1  0.41695267  0.15627923  0.41695267  1
  O  O65  1  0.37210216  0.10167249  0.10167249  1
  O  O66  1  0.89832751  0.62789784  0.89832751  1
  O  O67  1  0.63195499  0.29129518  0.87480384  1
  O  O68  1  0.70870482  0.36804501  0.12519616  1
  O  O69  1  0.90948403  0.34805082  0.90948403  1
  O  O70  1  0.65194918  0.09051597  0.09051597  1
  O  O71  1  0.87480384  0.29129518  0.63195499  1
  O  O72  1  0.70870482  0.12519616  0.36804501  1
  O  O73  1  0.87374977  0.10019852  0.87374977  1
  O  O74  1  0.89980148  0.12625023  0.12625023  1
