# generated using pymatgen
data_Li2VCrO4
_symmetry_space_group_name_H-M   'P 1'
_cell_length_a   5.17009969
_cell_length_b   6.00615756
_cell_length_c   5.14209759
_cell_angle_alpha   90.02622537
_cell_angle_beta   79.97803901
_cell_angle_gamma   73.14946221
_symmetry_Int_Tables_number   1
_chemical_formula_structural   Li2VCrO4
_chemical_formula_sum   'Li4 V2 Cr2 O8'
_cell_volume   150.26737427
_cell_formula_units_Z   2
loop_
 _symmetry_equiv_pos_site_id
 _symmetry_equiv_pos_as_xyz
  1  'x, y, z'
loop_
 _atom_site_type_symbol
 _atom_site_label
 _atom_site_symmetry_multiplicity
 _atom_site_fract_x
 _atom_site_fract_y
 _atom_site_fract_z
 _atom_site_occupancy
  Li  Li0  1  0.00076401  0.00094101  0.99873707  1
  Li  Li1  1  0.00338941  0.24496176  0.50167860  1
  Li  Li2  1  0.99947451  0.49847808  0.00153706  1
  Li  Li3  1  0.99660997  0.75556448  0.49853287  1
  V  V4  1  0.50058574  0.37538061  0.24979428  1
  V  V5  1  0.50117226  0.62408663  0.74902307  1
  Cr  Cr6  1  0.49891699  0.12327229  0.75040366  1
  Cr  Cr7  1  0.49934828  0.87723194  0.24990650  1
  O  O8  1  0.27227972  0.17800890  0.12022197  1
  O  O9  1  0.72390674  0.06886722  0.37714585  1
  O  O10  1  0.27395434  0.43107196  0.62515211  1
  O  O11  1  0.72839964  0.31124759  0.87950454  1
  O  O12  1  0.27431659  0.68183290  0.12414527  1
  O  O13  1  0.72941430  0.57464447  0.37861269  1
  O  O14  1  0.27267676  0.93541045  0.61923950  1
  O  O15  1  0.72479075  0.81900169  0.87636497  1
