# generated using pymatgen
data_Bi2O3
_symmetry_space_group_name_H-M   'P 1'
_cell_length_a   3.98330562
_cell_length_b   3.79682309
_cell_length_c   8.26922220
_cell_angle_alpha   62.66765507
_cell_angle_beta   60.95606944
_cell_angle_gamma   61.53694136
_symmetry_Int_Tables_number   1
_chemical_formula_structural   Bi2O3
_chemical_formula_sum   'Bi2 O3'
_cell_volume   91.80185941
_cell_formula_units_Z   1
loop_
 _symmetry_equiv_pos_site_id
 _symmetry_equiv_pos_as_xyz
  1  'x, y, z'
loop_
 _atom_site_type_symbol
 _atom_site_label
 _atom_site_symmetry_multiplicity
 _atom_site_fract_x
 _atom_site_fract_y
 _atom_site_fract_z
 _atom_site_occupancy
  Bi  Bi0  1  0.02875326  0.97036643  0.01525694  1
  Bi  Bi1  1  0.94467342  0.01578305  0.51188024  1
  O  O2  1  0.13841740  0.26318329  0.16760801  1
  O  O3  1  0.61136559  0.69338010  0.50093711  1
  O  O4  1  0.68679033  0.80728713  0.84931770  1
