# generated using pymatgen
data_NaMnPCO7
_symmetry_space_group_name_H-M   'P 1'
_cell_length_a   9.04495317
_cell_length_b   6.25809444
_cell_length_c   5.25329253
_cell_angle_alpha   90.00000000
_cell_angle_beta   87.51359647
_cell_angle_gamma   90.00000000
_symmetry_Int_Tables_number   1
_chemical_formula_structural   NaMnPCO7
_chemical_formula_sum   'Na2 Mn2 P2 C2 O14'
_cell_volume   297.07832015
_cell_formula_units_Z   2
loop_
 _symmetry_equiv_pos_site_id
 _symmetry_equiv_pos_as_xyz
  1  'x, y, z'
loop_
 _atom_site_type_symbol
 _atom_site_label
 _atom_site_symmetry_multiplicity
 _atom_site_fract_x
 _atom_site_fract_y
 _atom_site_fract_z
 _atom_site_occupancy
  Na  Na0  1  0.23583238  0.47575206  0.23913115  1
  Na  Na1  1  0.76416762  0.97575206  0.76086885  1
  Mn  Mn2  1  0.34305503  0.76130019  0.78441176  1
  Mn  Mn3  1  0.65694497  0.26130019  0.21558824  1
  P  P4  1  0.43323276  0.25514553  0.72144454  1
  P  P5  1  0.56676724  0.75514553  0.27855546  1
  C  C6  1  0.07883258  0.74458390  0.72565393  1
  C  C7  1  0.92116742  0.24458390  0.27434607  1
  O  O8  1  0.05501636  0.23916363  0.30870272  1
  O  O9  1  0.13989067  0.74978082  0.94884426  1
  O  O10  1  0.18314916  0.74721349  0.53993128  1
  O  O11  1  0.32944493  0.06402715  0.78462231  1
  O  O12  1  0.33318715  0.44913095  0.79523707  1
  O  O13  1  0.42445061  0.74754674  0.12867524  1
  O  O14  1  0.47483023  0.26420654  0.43079180  1
  O  O15  1  0.52516977  0.76420654  0.56920820  1
  O  O16  1  0.57554939  0.24754674  0.87132476  1
  O  O17  1  0.66681285  0.94913095  0.20476293  1
  O  O18  1  0.67055507  0.56402715  0.21537769  1
  O  O19  1  0.81685084  0.24721349  0.46006872  1
  O  O20  1  0.86010933  0.24978082  0.05115574  1
  O  O21  1  0.94498364  0.73916363  0.69129728  1
