# generated using pymatgen
data_P5(WO6)4
_symmetry_space_group_name_H-M   'P 1'
_cell_length_a   8.51796637
_cell_length_b   9.59852178
_cell_length_c   14.16382660
_cell_angle_alpha   78.35204256
_cell_angle_beta   72.50068553
_cell_angle_gamma   63.65901182
_symmetry_Int_Tables_number   1
_chemical_formula_structural   P5(WO6)4
_chemical_formula_sum   'P10 W8 O48'
_cell_volume   986.58323725
_cell_formula_units_Z   2
loop_
 _symmetry_equiv_pos_site_id
 _symmetry_equiv_pos_as_xyz
  1  'x, y, z'
loop_
 _atom_site_type_symbol
 _atom_site_label
 _atom_site_symmetry_multiplicity
 _atom_site_fract_x
 _atom_site_fract_y
 _atom_site_fract_z
 _atom_site_occupancy
  P  P0  1  0.33657667  0.37560543  0.10453742  1
  P  P1  1  0.31934335  0.12276822  0.39734500  1
  P  P2  1  0.23584198  0.05098554  0.96013014  1
  P  P3  1  0.25304234  0.55098554  0.46013014  1
  P  P4  1  0.09778867  0.75044409  0.75036473  1
  P  P5  1  0.90140251  0.25044409  0.25036473  1
  P  P6  1  0.75004929  0.44923348  0.53985110  1
  P  P7  1  0.76086513  0.94923348  0.03985110  1
  P  P8  1  0.66054342  0.62276822  0.89734500  1
  P  P9  1  0.68328049  0.87560543  0.60453742  1
  W  W10  1  0.02707244  0.50814890  0.31884929  1
  W  W11  1  0.34922531  0.99078519  0.18196835  1
  W  W12  1  0.79148002  0.28829499  0.02072043  1
  W  W13  1  0.59815167  0.21266483  0.48224767  1
  W  W14  1  0.20693684  0.71266483  0.98224767  1
  W  W15  1  0.39950456  0.78829499  0.52072043  1
  W  W16  1  0.64592838  0.00814890  0.81884929  1
  W  W17  1  0.97802116  0.49078519  0.68196835  1
  O  O18  1  0.08749179  0.10766869  0.22720409  1
  O  O19  1  0.23708834  0.48282338  0.02574964  1
  O  O20  1  0.25336768  0.00876434  0.47992755  1
  O  O21  1  0.34436898  0.21355035  0.11103751  1
  O  O22  1  0.16627645  0.28297602  0.39577052  1
  O  O23  1  0.38030276  0.05161143  0.29595258  1
  O  O24  1  0.24128818  0.44384212  0.20867572  1
  O  O25  1  0.10077172  0.30965380  0.73289409  1
  O  O26  1  0.21221358  0.74097488  0.09838094  1
  O  O27  1  0.14668485  0.59250317  0.37932103  1
  O  O28  1  0.15328592  0.48022166  0.55343173  1
  O  O29  1  0.06265416  0.20222209  0.98627765  1
  O  O30  1  0.53107786  0.36828830  0.08287408  1
  O  O31  1  0.48828870  0.11969081  0.41514554  1
  O  O32  1  0.07763542  0.60766869  0.72720409  1
  O  O33  1  0.24884609  0.70222209  0.48627765  1
  O  O34  1  0.31306070  0.98022166  0.05343173  1
  O  O35  1  0.38149195  0.09250317  0.87932103  1
  O  O36  1  0.44842960  0.24097488  0.59838094  1
  O  O37  1  0.35668139  0.80965380  0.23289409  1
  O  O38  1  0.44703365  0.43589020  0.42396849  1
  O  O39  1  0.80046915  0.07284732  0.07365342  1
  O  O40  1  0.17385880  0.70228842  0.84116294  1
  O  O41  1  0.21648649  0.80221669  0.65912133  1
  O  O42  1  0.82217649  0.30221669  0.15912133  1
  O  O43  1  0.78268983  0.20228842  0.34116294  1
  O  O44  1  0.55302911  0.57284732  0.57365342  1
  O  O45  1  0.19310766  0.93589020  0.92396849  1
  O  O46  1  0.64328268  0.18702719  0.76624937  1
  O  O47  1  0.54846771  0.75991989  0.40531232  1
  O  O48  1  0.61229414  0.91508914  0.12298570  1
  O  O49  1  0.68371024  0.02303327  0.94641271  1
  O  O50  1  0.75804222  0.29741018  0.51895078  1
  O  O51  1  0.47687395  0.61969081  0.91514554  1
  O  O52  1  0.51775875  0.86828830  0.58287408  1
  O  O53  1  0.93341013  0.38921699  0.27007116  1
  O  O54  1  0.92559582  0.79741018  0.01895078  1
  O  O55  1  0.84684278  0.52303327  0.44641271  1
  O  O56  1  0.84963202  0.41508914  0.62298570  1
  O  O57  1  0.78630108  0.25991989  0.90531232  1
  O  O58  1  0.90344075  0.68702719  0.26624937  1
  O  O59  1  0.60619398  0.94384212  0.70867572  1
  O  O60  1  0.77213323  0.55161143  0.79595258  1
  O  O61  1  0.65497702  0.78297602  0.89577052  1
  O  O62  1  0.83104317  0.71355035  0.61103751  1
  O  O63  1  0.75793944  0.50876434  0.97992755  1
  O  O64  1  0.75433864  0.98282338  0.52574964  1
  O  O65  1  0.90730172  0.88921699  0.77007116  1
