# generated using pymatgen
data_Li4Ni3BiO8
_symmetry_space_group_name_H-M   'P 1'
_cell_length_a   6.06625427
_cell_length_b   6.06625437
_cell_length_c   6.04781010
_cell_angle_alpha   59.89907188
_cell_angle_beta   59.89906523
_cell_angle_gamma   59.99999599
_symmetry_Int_Tables_number   1
_chemical_formula_structural   Li4Ni3BiO8
_chemical_formula_sum   'Li4 Ni3 Bi1 O8'
_cell_volume   157.13036695
_cell_formula_units_Z   1
loop_
 _symmetry_equiv_pos_site_id
 _symmetry_equiv_pos_as_xyz
  1  'x, y, z'
loop_
 _atom_site_type_symbol
 _atom_site_label
 _atom_site_symmetry_multiplicity
 _atom_site_fract_x
 _atom_site_fract_y
 _atom_site_fract_z
 _atom_site_occupancy
  Li  Li0  1  0.00000000  0.00000000  0.50000000  1
  Li  Li1  1  0.50000000  0.00000000  0.50000000  1
  Li  Li2  1  0.00000000  0.50000000  0.50000000  1
  Li  Li3  1  0.50000000  0.50000000  0.50000000  1
  Ni  Ni4  1  0.50000000  0.00000000  0.00000000  1
  Ni  Ni5  1  0.00000000  0.50000000  0.00000000  1
  Ni  Ni6  1  0.50000000  0.50000000  0.00000000  1
  Bi  Bi7  1  0.00000000  0.00000000  0.00000000  1
  O  O8  1  0.24846510  0.24846510  0.75808138  1
  O  O9  1  0.74498943  0.24846510  0.75808138  1
  O  O10  1  0.24846510  0.74498943  0.75808138  1
  O  O11  1  0.73806967  0.73806967  0.78579000  1
  O  O12  1  0.26193033  0.26193033  0.21421000  1
  O  O13  1  0.75153490  0.25501057  0.24191862  1
  O  O14  1  0.25501057  0.75153490  0.24191862  1
  O  O15  1  0.75153490  0.75153490  0.24191862  1
