# generated using pymatgen
data_VCrO3
_symmetry_space_group_name_H-M   'P 1'
_cell_length_a   5.49680453
_cell_length_b   5.11649909
_cell_length_c   7.50623851
_cell_angle_alpha   89.95014890
_cell_angle_beta   95.78358333
_cell_angle_gamma   90.01474353
_symmetry_Int_Tables_number   1
_chemical_formula_structural   VCrO3
_chemical_formula_sum   'V4 Cr4 O12'
_cell_volume   210.03371595
_cell_formula_units_Z   4
loop_
 _symmetry_equiv_pos_site_id
 _symmetry_equiv_pos_as_xyz
  1  'x, y, z'
loop_
 _atom_site_type_symbol
 _atom_site_label
 _atom_site_symmetry_multiplicity
 _atom_site_fract_x
 _atom_site_fract_y
 _atom_site_fract_z
 _atom_site_occupancy
  V  V0  1  0.79982505  0.49892467  0.85069699  1
  V  V1  1  0.29771415  0.99959043  0.85077181  1
  V  V2  1  0.20551435  0.50052398  0.64756274  1
  V  V3  1  0.69945502  0.99958979  0.14946699  1
  Cr  Cr4  1  0.69964924  0.99899395  0.64924637  1
  Cr  Cr5  1  0.79906304  0.50030381  0.35081245  1
  Cr  Cr6  1  0.30081393  0.00052981  0.34900819  1
  Cr  Cr7  1  0.19644263  0.50088251  0.15273805  1
  O  O8  1  0.50405270  0.30100584  0.74817983  1
  O  O9  1  0.65394961  0.85116200  0.90055445  1
  O  O10  1  0.85004638  0.65079781  0.59882120  1
  O  O11  1  0.00156857  0.19511642  0.74880558  1
  O  O12  1  0.64950541  0.15126244  0.40087515  1
  O  O13  1  0.15432056  0.65001663  0.90272549  1
  O  O14  1  0.35135455  0.84871338  0.59658631  1
  O  O15  1  0.84702278  0.35151088  0.10033155  1
  O  O16  1  0.14877136  0.34753377  0.40022356  1
  O  O17  1  0.34461657  0.15373188  0.09993837  1
  O  O18  1  0.49703847  0.69749398  0.25116223  1
  O  O19  1  0.99927462  0.80231500  0.25149167  1
