# generated using pymatgen
data_Li2VCrO4
_symmetry_space_group_name_H-M   'P 1'
_cell_length_a   5.15992029
_cell_length_b   8.94967411
_cell_length_c   5.17925807
_cell_angle_alpha   90.10136609
_cell_angle_beta   80.51103146
_cell_angle_gamma   73.31362594
_symmetry_Int_Tables_number   1
_chemical_formula_structural   Li2VCrO4
_chemical_formula_sum   'Li6 V3 Cr3 O12'
_cell_volume   225.66440019
_cell_formula_units_Z   3
loop_
 _symmetry_equiv_pos_site_id
 _symmetry_equiv_pos_as_xyz
  1  'x, y, z'
loop_
 _atom_site_type_symbol
 _atom_site_label
 _atom_site_symmetry_multiplicity
 _atom_site_fract_x
 _atom_site_fract_y
 _atom_site_fract_z
 _atom_site_occupancy
  Li  Li0  1  0.99787602  0.00111787  0.00763920  1
  Li  Li1  1  0.99850022  0.16723493  0.49484159  1
  Li  Li2  1  0.00090304  0.33190198  0.00133791  1
  Li  Li3  1  0.00216105  0.49639724  0.50210145  1
  Li  Li4  1  0.00141487  0.66740746  0.99910615  1
  Li  Li5  1  0.99923479  0.83625621  0.49467275  1
  V  V6  1  0.50010436  0.08202257  0.75014202  1
  V  V7  1  0.49997297  0.58377425  0.25069439  1
  V  V8  1  0.49944626  0.75070744  0.74933250  1
  Cr  Cr9  1  0.50038789  0.24929019  0.25075488  1
  Cr  Cr10  1  0.50035417  0.41499417  0.75057033  1
  Cr  Cr11  1  0.49955671  0.91871995  0.24893489  1
  O  O12  1  0.27175877  0.12165360  0.12782251  1
  O  O13  1  0.72761055  0.04546460  0.37219862  1
  O  O14  1  0.27656977  0.28609360  0.62043166  1
  O  O15  1  0.72343386  0.21219740  0.88137260  1
  O  O16  1  0.27577679  0.45323592  0.12071678  1
  O  O17  1  0.72616273  0.37692140  0.38346453  1
  O  O18  1  0.27334238  0.61784094  0.62039807  1
  O  O19  1  0.72540339  0.54524497  0.87856159  1
  O  O20  1  0.72657631  0.71403077  0.37785651  1
  O  O21  1  0.27221814  0.79150842  0.11796200  1
  O  O22  1  0.27305662  0.95528556  0.61779241  1
  O  O23  1  0.72817831  0.88069856  0.88129564  1
