# generated using pymatgen
data_Na3Mn2P2(CO7)2
_symmetry_space_group_name_H-M   'P 1'
_cell_length_a   8.99428439
_cell_length_b   6.57994484
_cell_length_c   10.40309468
_cell_angle_alpha   90.00000000
_cell_angle_beta   88.44739451
_cell_angle_gamma   90.00000000
_symmetry_Int_Tables_number   1
_chemical_formula_structural   Na3Mn2P2(CO7)2
_chemical_formula_sum   'Na6 Mn4 P4 C4 O28'
_cell_volume   615.44882594
_cell_formula_units_Z   2
loop_
 _symmetry_equiv_pos_site_id
 _symmetry_equiv_pos_as_xyz
  1  'x, y, z'
loop_
 _atom_site_type_symbol
 _atom_site_label
 _atom_site_symmetry_multiplicity
 _atom_site_fract_x
 _atom_site_fract_y
 _atom_site_fract_z
 _atom_site_occupancy
  Na  Na0  1  0.24165581  0.01115559  0.62287262  1
  Na  Na1  1  0.23928444  0.49253010  0.62123548  1
  Na  Na2  1  0.24166168  0.47327980  0.12130376  1
  Na  Na3  1  0.75834419  0.51115559  0.87712738  1
  Na  Na4  1  0.76071556  0.99253010  0.87876452  1
  Na  Na5  1  0.75833832  0.97327980  0.37869624  1
  Mn  Mn6  1  0.34555594  0.75917494  0.89607691  1
  Mn  Mn7  1  0.34827187  0.75392075  0.38865681  1
  Mn  Mn8  1  0.65444406  0.25917494  0.60392309  1
  Mn  Mn9  1  0.65172813  0.25392075  0.11134319  1
  P  P10  1  0.42549374  0.25377553  0.85386656  1
  P  P11  1  0.42815702  0.25085093  0.35986069  1
  P  P12  1  0.57450626  0.75377553  0.64613344  1
  P  P13  1  0.57184298  0.75085093  0.14013931  1
  C  C14  1  0.07694755  0.74884914  0.86612398  1
  C  C15  1  0.07844549  0.74576184  0.36519602  1
  C  C16  1  0.92305245  0.24884914  0.63387602  1
  C  C17  1  0.92155451  0.24576184  0.13480398  1
  O  O18  1  0.06019860  0.24906576  0.64866123  1
  O  O19  1  0.05803088  0.24486784  0.14572617  1
  O  O20  1  0.14143824  0.74602542  0.97721061  1
  O  O21  1  0.14681113  0.75296195  0.47727424  1
  O  O22  1  0.17602980  0.75268310  0.76914482  1
  O  O23  1  0.17675737  0.74039329  0.26893476  1
  O  O24  1  0.32765763  0.06619307  0.88059574  1
  O  O25  1  0.32936504  0.44136644  0.88894639  1
  O  O26  1  0.33047276  0.06478887  0.39638044  1
  O  O27  1  0.33246137  0.43886351  0.39684273  1
  O  O28  1  0.46423178  0.25919332  0.70491884  1
  O  O29  1  0.42664523  0.75081547  0.57242845  1
  O  O30  1  0.46682541  0.25709736  0.21293617  1
  O  O31  1  0.42324358  0.74428598  0.06865850  1
  O  O32  1  0.57335477  0.25081547  0.92757155  1
  O  O33  1  0.53576822  0.75919332  0.79508116  1
  O  O34  1  0.57675642  0.24428598  0.43134150  1
  O  O35  1  0.53317459  0.75709736  0.28706383  1
  O  O36  1  0.67234237  0.56619307  0.61940426  1
  O  O37  1  0.67063496  0.94136644  0.61105361  1
  O  O38  1  0.66952724  0.56478887  0.10361956  1
  O  O39  1  0.66753863  0.93886351  0.10315727  1
  O  O40  1  0.82397020  0.25268310  0.73085518  1
  O  O41  1  0.82324263  0.24039329  0.23106524  1
  O  O42  1  0.85856176  0.24602542  0.52278939  1
  O  O43  1  0.85318887  0.25296195  0.02272576  1
  O  O44  1  0.93980140  0.74906576  0.85133877  1
  O  O45  1  0.94196912  0.74486784  0.35427383  1
