# generated using pymatgen
data_Sb2(SO4)3
_symmetry_space_group_name_H-M   'P 1'
_cell_length_a   9.23031391
_cell_length_b   12.77332140
_cell_length_c   9.21486637
_cell_angle_alpha   90.00000000
_cell_angle_beta   90.00000000
_cell_angle_gamma   90.01983907
_symmetry_Int_Tables_number   1
_chemical_formula_structural   Sb2(SO4)3
_chemical_formula_sum   'Sb8 S12 O48'
_cell_volume   1086.44895499
_cell_formula_units_Z   4
loop_
 _symmetry_equiv_pos_site_id
 _symmetry_equiv_pos_as_xyz
  1  'x, y, z'
loop_
 _atom_site_type_symbol
 _atom_site_label
 _atom_site_symmetry_multiplicity
 _atom_site_fract_x
 _atom_site_fract_y
 _atom_site_fract_z
 _atom_site_occupancy
  Sb  Sb0  1  0.24909650  0.61860882  0.53645831  1
  Sb  Sb1  1  0.25090350  0.88139118  0.03645831  1
  Sb  Sb2  1  0.25168934  0.11643620  0.46437126  1
  Sb  Sb3  1  0.24831066  0.38356380  0.96437126  1
  Sb  Sb4  1  0.75168934  0.61643620  0.03562874  1
  Sb  Sb5  1  0.74831066  0.88356380  0.53562874  1
  Sb  Sb6  1  0.74909650  0.11860882  0.96354169  1
  Sb  Sb7  1  0.75090350  0.38139118  0.46354169  1
  S  S8  1  0.03783626  0.49372280  0.24553400  1
  S  S9  1  0.10014491  0.84615215  0.38281942  1
  S  S10  1  0.10163687  0.15378551  0.10672766  1
  S  S11  1  0.39985509  0.65384785  0.88281942  1
  S  S12  1  0.39836313  0.34621449  0.60672766  1
  S  S13  1  0.46216374  0.00627720  0.74553400  1
  S  S14  1  0.53783626  0.99372280  0.25446600  1
  S  S15  1  0.60163687  0.65378551  0.39327234  1
  S  S16  1  0.60014491  0.34615215  0.11718058  1
  S  S17  1  0.89836313  0.84621449  0.89327234  1
  S  S18  1  0.89985509  0.15384785  0.61718058  1
  S  S19  1  0.96216374  0.50627720  0.75446600  1
  O  O20  1  0.03546230  0.44107447  0.86654465  1
  O  O21  1  0.05971498  0.85031915  0.88307475  1
  O  O22  1  0.06172570  0.58861704  0.69859439  1
  O  O23  1  0.05732867  0.17428951  0.59572986  1
  O  O24  1  0.08702992  0.56334860  0.36458392  1
  O  O25  1  0.13860052  0.81076583  0.23313036  1
  O  O26  1  0.13271956  0.95889657  0.40148791  1
  O  O27  1  0.14303551  0.23053459  0.98920722  1
  O  O28  1  0.16109355  0.18999712  0.24737262  1
  O  O29  1  0.16727105  0.44089967  0.17999375  1
  O  O30  1  0.16007206  0.05006696  0.06509792  1
  O  O31  1  0.18591260  0.78530683  0.49256101  1
  O  O32  1  0.31408740  0.71469317  0.99256101  1
  O  O33  1  0.33992794  0.44993304  0.56509792  1
  O  O34  1  0.33272895  0.05910033  0.67999375  1
  O  O35  1  0.33890645  0.31000288  0.74737262  1
  O  O36  1  0.36728044  0.54110343  0.90148791  1
  O  O37  1  0.35696449  0.26946541  0.48920722  1
  O  O38  1  0.36139948  0.68923417  0.73313036  1
  O  O39  1  0.41297008  0.93665140  0.86458392  1
  O  O40  1  0.43827430  0.91138296  0.19859439  1
  O  O41  1  0.44028502  0.64968085  0.38307475  1
  O  O42  1  0.44267133  0.32571049  0.09572986  1
  O  O43  1  0.46453770  0.05892553  0.36654465  1
  O  O44  1  0.53546230  0.94107447  0.63345535  1
  O  O45  1  0.55732867  0.67428951  0.90427014  1
  O  O46  1  0.55971498  0.35031915  0.61692525  1
  O  O47  1  0.56172570  0.08861704  0.80140561  1
  O  O48  1  0.58702992  0.06334860  0.13541608  1
  O  O49  1  0.63860052  0.31076583  0.26686964  1
  O  O50  1  0.64303551  0.73053459  0.51079278  1
  O  O51  1  0.63271956  0.45889657  0.09851209  1
  O  O52  1  0.66109355  0.68999712  0.25262738  1
  O  O53  1  0.66727105  0.94089967  0.32000625  1
  O  O54  1  0.66007206  0.55006696  0.43490208  1
  O  O55  1  0.68591260  0.28530683  0.00743899  1
  O  O56  1  0.81408740  0.21469317  0.50743899  1
  O  O57  1  0.83992794  0.94993304  0.93490208  1
  O  O58  1  0.83272895  0.55910033  0.82000625  1
  O  O59  1  0.83890645  0.81000288  0.75262738  1
  O  O60  1  0.85696449  0.76946541  0.01079278  1
  O  O61  1  0.86728044  0.04110343  0.59851209  1
  O  O62  1  0.86139948  0.18923417  0.76686964  1
  O  O63  1  0.91297008  0.43665140  0.63541608  1
  O  O64  1  0.94267133  0.82571049  0.40427014  1
  O  O65  1  0.93827430  0.41138296  0.30140561  1
  O  O66  1  0.94028502  0.14968085  0.11692525  1
  O  O67  1  0.96453770  0.55892553  0.13345535  1
