# generated using pymatgen
data_Cu2S
_symmetry_space_group_name_H-M   'P 1'
_cell_length_a   4.02241891
_cell_length_b   4.61841845
_cell_length_c   17.73405821
_cell_angle_alpha   94.68603066
_cell_angle_beta   87.87342858
_cell_angle_gamma   114.32978270
_symmetry_Int_Tables_number   1
_chemical_formula_structural   Cu2S
_chemical_formula_sum   'Cu12 S6'
_cell_volume   299.18514485
_cell_formula_units_Z   6
loop_
 _symmetry_equiv_pos_site_id
 _symmetry_equiv_pos_as_xyz
  1  'x, y, z'
loop_
 _atom_site_type_symbol
 _atom_site_label
 _atom_site_symmetry_multiplicity
 _atom_site_fract_x
 _atom_site_fract_y
 _atom_site_fract_z
 _atom_site_occupancy
  Cu  Cu0  1  0.38915666  0.48209822  0.56397026  1
  Cu  Cu1  1  0.08600277  0.98935818  0.98833166  1
  Cu  Cu2  1  0.71362806  0.11660416  0.55212933  1
  Cu  Cu3  1  0.58462596  0.91174162  0.69057337  1
  Cu  Cu4  1  0.05599430  0.06775246  0.23716434  1
  Cu  Cu5  1  0.46413710  0.61184136  0.32697983  1
  Cu  Cu6  1  0.26925256  0.27929183  0.68779477  1
  Cu  Cu7  1  0.82603066  0.38181830  0.81231436  1
  Cu  Cu8  1  0.00608257  0.70575537  0.50613050  1
  Cu  Cu9  1  0.76435297  0.36487551  0.15893838  1
  Cu  Cu10  1  0.91028228  0.55372065  0.64760159  1
  Cu  Cu11  1  0.37320627  0.62852281  0.05159018  1
  S  S12  1  0.52209023  0.82951423  0.94131521  1
  S  S13  1  0.96075302  0.58578804  0.27612877  1
  S  S14  1  0.31323171  0.38095835  0.87833008  1
  S  S15  1  0.53296294  0.74709706  0.45316510  1
  S  S16  1  0.04753357  0.85896610  0.75731253  1
  S  S17  1  0.20667635  0.19696272  0.11089574  1
