# generated using pymatgen
data_Li7Mn10Cr6O32
_symmetry_space_group_name_H-M   'P 1'
_cell_length_a   5.87735066
_cell_length_b   5.90732210
_cell_length_c   19.56192104
_cell_angle_alpha   99.13015153
_cell_angle_beta   89.94415543
_cell_angle_gamma   119.66877861
_symmetry_Int_Tables_number   1
_chemical_formula_structural   Li7Mn10Cr6O32
_chemical_formula_sum   'Li7 Mn10 Cr6 O32'
_cell_volume   580.27548443
_cell_formula_units_Z   1
loop_
 _symmetry_equiv_pos_site_id
 _symmetry_equiv_pos_as_xyz
  1  'x, y, z'
loop_
 _atom_site_type_symbol
 _atom_site_label
 _atom_site_symmetry_multiplicity
 _atom_site_fract_x
 _atom_site_fract_y
 _atom_site_fract_z
 _atom_site_occupancy
  Li  Li0  1  0.90335480  0.80555451  0.21879298  1
  Li  Li1  1  0.58980818  0.19075028  0.28030296  1
  Li  Li2  1  0.34700665  0.69348066  0.52965031  1
  Li  Li3  1  0.65990490  0.30902162  0.46919416  1
  Li  Li4  1  0.40016384  0.80427715  0.71849494  1
  Li  Li5  1  0.09879602  0.19708039  0.78258225  1
  Li  Li6  1  0.15231050  0.30494818  0.97025078  1
  Mn  Mn7  1  0.12472883  0.74976723  0.37467901  1
  Mn  Mn8  1  0.37519876  0.24762376  0.12445154  1
  Mn  Mn9  1  0.50079370  0.00093284  0.00138462  1
  Mn  Mn10  1  0.24746320  0.49810686  0.24998195  1
  Mn  Mn11  1  0.87241773  0.24745492  0.12420151  1
  Mn  Mn12  1  0.00308241  0.00174384  0.49926398  1
  Mn  Mn13  1  0.37689154  0.25139324  0.62475043  1
  Mn  Mn14  1  0.12300769  0.74945953  0.87604281  1
  Mn  Mn15  1  0.87488222  0.25160147  0.62455276  1
  Mn  Mn16  1  0.62663593  0.74961001  0.87610795  1
  Cr  Cr17  1  0.37491723  0.75003096  0.12447002  1
  Cr  Cr18  1  0.62492588  0.74983509  0.37468406  1
  Cr  Cr19  1  0.12483858  0.24970807  0.37462388  1
  Cr  Cr20  1  0.87499503  0.75002204  0.62417688  1
  Cr  Cr21  1  0.74939954  0.49995185  0.75012511  1
  Cr  Cr22  1  0.62652380  0.25294903  0.87651226  1
  O  O23  1  0.23214877  0.90644293  0.06554156  1
  O  O24  1  0.67448857  0.90558451  0.06548309  1
  O  O25  1  0.18745743  0.37317987  0.07292677  1
  O  O26  1  0.07276935  0.59631086  0.18446654  1
  O  O27  1  0.52194949  0.59730457  0.18522489  1
  O  O28  1  0.07740758  0.15576010  0.18352983  1
  O  O29  1  0.66805756  0.33760072  0.06648886  1
  O  O30  1  0.41291196  0.84074321  0.31444221  1
  O  O31  1  0.17774413  0.90328248  0.56459310  1
  O  O32  1  0.41687475  0.39403444  0.31243812  1
  O  O33  1  0.56260021  0.12588506  0.17750417  1
  O  O34  1  0.30412799  0.62358078  0.42728340  1
  O  O35  1  0.94541692  0.87570904  0.32192236  1
  O  O36  1  0.83668039  0.65875617  0.43498383  1
  O  O37  1  0.02649211  0.59761198  0.68239901  1
  O  O38  1  0.27825007  0.09944651  0.43452167  1
  O  O39  1  0.97150878  0.39991039  0.31476931  1
  O  O40  1  0.72844228  0.90282200  0.56362935  1
  O  O41  1  0.17330722  0.34267210  0.56492421  1
  O  O42  1  0.06290616  0.12621845  0.67710020  1
  O  O43  1  0.56971277  0.59792852  0.68225812  1
  O  O44  1  0.68692957  0.37420754  0.57161748  1
  O  O45  1  0.43739117  0.87473254  0.82362485  1
  O  O46  1  0.83318930  0.10551389  0.43690158  1
  O  O47  1  0.33021188  0.65948277  0.93530820  1
  O  O48  1  0.57525441  0.15168863  0.68239557  1
  O  O49  1  0.47278365  0.40355576  0.81792817  1
  O  O50  1  0.92375038  0.84832953  0.81842127  1
  O  O51  1  0.81461903  0.62902165  0.92679506  1
  O  O52  1  0.93006298  0.40321007  0.81769695  1
  O  O53  1  0.32517797  0.09839031  0.93620314  1
  O  O54  1  0.77357722  0.09827811  0.93614798  1
