# generated using pymatgen
data_Li7Mn2(CoO4)3
_symmetry_space_group_name_H-M   'P 1'
_cell_length_a   2.96027886
_cell_length_b   14.46496704
_cell_length_c   5.08959000
_cell_angle_alpha   90.84542499
_cell_angle_beta   87.82876839
_cell_angle_gamma   91.96747517
_symmetry_Int_Tables_number   1
_chemical_formula_structural   Li7Mn2(CoO4)3
_chemical_formula_sum   'Li7 Mn2 Co3 O12'
_cell_volume   217.63335064
_cell_formula_units_Z   1
loop_
 _symmetry_equiv_pos_site_id
 _symmetry_equiv_pos_as_xyz
  1  'x, y, z'
loop_
 _atom_site_type_symbol
 _atom_site_label
 _atom_site_symmetry_multiplicity
 _atom_site_fract_x
 _atom_site_fract_y
 _atom_site_fract_z
 _atom_site_occupancy
  Li  Li0  1  -0.00002999  0.17529069  0.67506607  1
  Li  Li1  1  0.50875857  0.49029094  0.49924417  1
  Li  Li2  1  0.00000000  0.83333300  0.33333300  1
  Li  Li3  1  0.49124143  0.17637606  0.16742283  1
  Li  Li4  1  0.00002999  0.49137631  0.99160093  1
  Li  Li5  1  0.50000000  0.83333300  0.83333300  1
  Li  Li6  1  0.50000000  0.33333300  0.83333300  1
  Mn  Mn7  1  0.99831779  0.00198617  0.00065552  1
  Mn  Mn8  1  0.00168221  0.66468083  0.66601148  1
  Co  Co9  1  0.49718237  0.00134528  0.50057047  1
  Co  Co10  1  0.00000000  0.33333300  0.33333300  1
  Co  Co11  1  0.50281763  0.66532172  0.16609653  1
  O  O12  1  0.47066218  0.08106868  0.83799766  1
  O  O13  1  0.99341270  0.40693837  0.62235924  1
  O  O14  1  0.47151766  0.74484258  0.50478709  1
  O  O15  1  0.98272041  0.07599157  0.33472078  1
  O  O16  1  0.51801516  0.40573657  0.18201236  1
  O  O17  1  0.98181510  0.74239546  0.99613219  1
  O  O18  1  0.48198484  0.26093043  0.48465464  1
  O  O19  1  0.01727959  0.59067543  0.33194622  1
  O  O20  1  0.52848234  0.92182342  0.16187891  1
  O  O21  1  0.00658730  0.25972863  0.04430776  1
  O  O22  1  0.52933782  0.58559832  0.82866934  1
  O  O23  1  0.01818490  0.92427054  0.67053381  1
