# generated using pymatgen
data_Na2Mn(SO4)2
_symmetry_space_group_name_H-M   'P 1'
_cell_length_a   6.48121454
_cell_length_b   6.48121454
_cell_length_c   8.73317564
_cell_angle_alpha   70.31244661
_cell_angle_beta   109.68755339
_cell_angle_gamma   102.02244170
_symmetry_Int_Tables_number   1
_chemical_formula_structural   Na2Mn(SO4)2
_chemical_formula_sum   'Na4 Mn2 S4 O16'
_cell_volume   323.34677883
_cell_formula_units_Z   2
loop_
 _symmetry_equiv_pos_site_id
 _symmetry_equiv_pos_as_xyz
  1  'x, y, z'
loop_
 _atom_site_type_symbol
 _atom_site_label
 _atom_site_symmetry_multiplicity
 _atom_site_fract_x
 _atom_site_fract_y
 _atom_site_fract_z
 _atom_site_occupancy
  Na  Na0  1  0.30665527  0.58079395  0.56296293  1
  Na  Na1  1  0.58079395  0.30665527  0.93703707  1
  Na  Na2  1  0.41920605  0.69334473  0.06296293  1
  Na  Na3  1  0.69334473  0.41920605  0.43703707  1
  Mn  Mn4  1  0.92934129  0.92934129  0.75000000  1
  Mn  Mn5  1  0.07065871  0.07065871  0.25000000  1
  S  S6  1  0.02618128  0.40028840  0.81719574  1
  S  S7  1  0.59971160  0.97381872  0.31719574  1
  S  S8  1  0.40028840  0.02618128  0.68280426  1
  S  S9  1  0.97381872  0.59971160  0.18280426  1
  O  O10  1  0.30307931  0.98692951  0.82577674  1
  O  O11  1  0.22603215  0.95889880  0.54164553  1
  O  O12  1  0.01307049  0.69692069  0.32577674  1
  O  O13  1  0.26348934  0.48317863  0.86780323  1
  O  O14  1  0.58476581  0.88511164  0.74624563  1
  O  O15  1  0.04110120  0.77396785  0.04164553  1
  O  O16  1  0.51682137  0.73651066  0.36780323  1
  O  O17  1  0.11488836  0.41523419  0.24624563  1
  O  O18  1  0.88511164  0.58476581  0.75375437  1
  O  O19  1  0.48317863  0.26348934  0.63219677  1
  O  O20  1  0.95889880  0.22603215  0.95835447  1
  O  O21  1  0.41523419  0.11488836  0.25375437  1
  O  O22  1  0.73651066  0.51682137  0.13219677  1
  O  O23  1  0.98692951  0.30307931  0.67422326  1
  O  O24  1  0.77396785  0.04110120  0.45835447  1
  O  O25  1  0.69692069  0.01307049  0.17422326  1
