# generated using pymatgen
data_Gd3TaO7
_symmetry_space_group_name_H-M   'P 1'
_cell_length_a   7.57195086
_cell_length_b   10.75702640
_cell_length_c   7.61344179
_cell_angle_alpha   90.00000000
_cell_angle_beta   90.00000000
_cell_angle_gamma   90.00000000
_symmetry_Int_Tables_number   1
_chemical_formula_structural   Gd3TaO7
_chemical_formula_sum   'Gd12 Ta4 O28'
_cell_volume   620.12758860
_cell_formula_units_Z   4
loop_
 _symmetry_equiv_pos_site_id
 _symmetry_equiv_pos_as_xyz
  1  'x, y, z'
loop_
 _atom_site_type_symbol
 _atom_site_label
 _atom_site_symmetry_multiplicity
 _atom_site_fract_x
 _atom_site_fract_y
 _atom_site_fract_z
 _atom_site_occupancy
  Gd  Gd0  1  0.01149035  0.25000000  0.79140318  1
  Gd  Gd1  1  0.25221007  0.52018156  0.96591928  1
  Gd  Gd2  1  0.25221007  0.97981844  0.96591928  1
  Gd  Gd3  1  0.24778993  0.02018156  0.46591928  1
  Gd  Gd4  1  0.24778993  0.47981844  0.46591928  1
  Gd  Gd5  1  0.48850965  0.75000000  0.29140318  1
  Gd  Gd6  1  0.51149035  0.25000000  0.70859682  1
  Gd  Gd7  1  0.75221007  0.52018156  0.53408072  1
  Gd  Gd8  1  0.75221007  0.97981844  0.53408072  1
  Gd  Gd9  1  0.74778993  0.02018156  0.03408072  1
  Gd  Gd10  1  0.74778993  0.47981844  0.03408072  1
  Gd  Gd11  1  0.98850965  0.75000000  0.20859682  1
  Ta  Ta12  1  0.99878689  0.75000000  0.74873346  1
  Ta  Ta13  1  0.50121311  0.25000000  0.24873346  1
  Ta  Ta14  1  0.49878689  0.75000000  0.75126654  1
  Ta  Ta15  1  0.00121311  0.25000000  0.25126654  1
  O  O16  1  0.03419742  0.12565684  0.04873749  1
  O  O17  1  0.03419742  0.37434316  0.04873749  1
  O  O18  1  0.03790297  0.61446371  0.58324151  1
  O  O19  1  0.03790297  0.88553629  0.58324151  1
  O  O20  1  0.24815095  0.25000000  0.32623674  1
  O  O21  1  0.25479279  0.11674392  0.73160217  1
  O  O22  1  0.25479279  0.38325608  0.73160217  1
  O  O23  1  0.24520721  0.61674392  0.23160217  1
  O  O24  1  0.24520721  0.88325608  0.23160217  1
  O  O25  1  0.25184905  0.75000000  0.82623674  1
  O  O26  1  0.46209703  0.11446371  0.08324151  1
  O  O27  1  0.46209703  0.38553629  0.08324151  1
  O  O28  1  0.46580258  0.62565684  0.54873749  1
  O  O29  1  0.46580258  0.87434316  0.54873749  1
  O  O30  1  0.53419742  0.12565684  0.45126251  1
  O  O31  1  0.53419742  0.37434316  0.45126251  1
  O  O32  1  0.53790297  0.61446371  0.91675849  1
  O  O33  1  0.53790297  0.88553629  0.91675849  1
  O  O34  1  0.74815095  0.25000000  0.17376326  1
  O  O35  1  0.75479279  0.11674392  0.76839783  1
  O  O36  1  0.75479279  0.38325608  0.76839783  1
  O  O37  1  0.74520721  0.61674392  0.26839783  1
  O  O38  1  0.74520721  0.88325608  0.26839783  1
  O  O39  1  0.75184905  0.75000000  0.67376326  1
  O  O40  1  0.96209703  0.11446371  0.41675849  1
  O  O41  1  0.96209703  0.38553629  0.41675849  1
  O  O42  1  0.96580258  0.62565684  0.95126251  1
  O  O43  1  0.96580258  0.87434316  0.95126251  1
