# generated using pymatgen
data_Li4AlCr3O8
_symmetry_space_group_name_H-M   'P 1'
_cell_length_a   5.11271710
_cell_length_b   5.86885017
_cell_length_c   5.08069996
_cell_angle_alpha   89.99999421
_cell_angle_beta   70.66390154
_cell_angle_gamma   90.00006252
_symmetry_Int_Tables_number   1
_chemical_formula_structural   Li4AlCr3O8
_chemical_formula_sum   'Li4 Al1 Cr3 O8'
_cell_volume   143.85098066
_cell_formula_units_Z   1
loop_
 _symmetry_equiv_pos_site_id
 _symmetry_equiv_pos_as_xyz
  1  'x, y, z'
loop_
 _atom_site_type_symbol
 _atom_site_label
 _atom_site_symmetry_multiplicity
 _atom_site_fract_x
 _atom_site_fract_y
 _atom_site_fract_z
 _atom_site_occupancy
  Li  Li0  1  0.99999991  0.00114241  0.99999961  1
  Li  Li1  1  0.00000009  0.49885759  0.00000039  1
  Li  Li2  1  0.00000000  0.25000000  0.50000000  1
  Li  Li3  1  0.00000000  0.75000000  0.50000000  1
  Al  Al4  1  0.50000000  0.25000000  0.00000000  1
  Cr  Cr5  1  0.50000000  0.75000000  0.00000000  1
  Cr  Cr6  1  0.49999972  0.00220895  0.49999982  1
  Cr  Cr7  1  0.50000028  0.49779105  0.50000118  1
  O  O8  1  0.27875297  0.00895967  0.23470213  1
  O  O9  1  0.27875266  0.49104210  0.23469937  1
  O  O10  1  0.72034531  0.25000154  0.24716905  1
  O  O11  1  0.27965469  0.24999846  0.75283195  1
  O  O12  1  0.72678624  0.74999958  0.25894858  1
  O  O13  1  0.72124634  0.00895790  0.76530063  1
  O  O14  1  0.27321376  0.75000042  0.74105242  1
  O  O15  1  0.72124803  0.49104133  0.76529687  1
