# generated using pymatgen
data_Mn2PO5
_symmetry_space_group_name_H-M   'P 1'
_cell_length_a   6.66665899
_cell_length_b   7.46380429
_cell_length_c   9.18179020
_cell_angle_alpha   108.32715323
_cell_angle_beta   111.28682562
_cell_angle_gamma   63.47429540
_symmetry_Int_Tables_number   1
_chemical_formula_structural   Mn2PO5
_chemical_formula_sum   'Mn8 P4 O20'
_cell_volume   374.48057842
_cell_formula_units_Z   4
loop_
 _symmetry_equiv_pos_site_id
 _symmetry_equiv_pos_as_xyz
  1  'x, y, z'
loop_
 _atom_site_type_symbol
 _atom_site_label
 _atom_site_symmetry_multiplicity
 _atom_site_fract_x
 _atom_site_fract_y
 _atom_site_fract_z
 _atom_site_occupancy
  Mn  Mn0  1  0.25556494  0.93790324  0.66562958  1
  Mn  Mn1  1  0.78361930  0.89826627  0.97844156  1
  Mn  Mn2  1  0.70344501  0.60173373  0.52155844  1
  Mn  Mn3  1  0.47216039  0.43790324  0.16562958  1
  Mn  Mn4  1  0.52783961  0.56209676  0.83437042  1
  Mn  Mn5  1  0.29655499  0.39826627  0.47844156  1
  Mn  Mn6  1  0.21638070  0.10173373  0.02155844  1
  Mn  Mn7  1  0.74443406  0.06209676  0.33437042  1
  P  P8  1  0.26871724  0.94514306  0.30934815  1
  P  P9  1  0.90451216  0.55485694  0.19065185  1
  P  P10  1  0.09548784  0.44514306  0.80934815  1
  P  P11  1  0.73128276  0.05485694  0.69065185  1
  O  O12  1  0.10577548  0.97022422  0.14173448  1
  O  O13  1  0.87100509  0.98891114  0.56690538  1
  O  O14  1  0.59323879  0.91546231  0.64762478  1
  O  O15  1  0.84710186  0.78197430  0.19232117  1
  O  O16  1  0.43675499  0.71802570  0.30767883  1
  O  O17  1  0.41742983  0.85687963  0.88515472  1
  O  O18  1  0.38915374  0.64312037  0.61484528  1
  O  O19  1  0.93426421  0.52977578  0.35826552  1
  O  O20  1  0.70698915  0.48891114  0.06690538  1
  O  O21  1  0.86107632  0.58453769  0.85237522  1
  O  O22  1  0.13892368  0.41546231  0.14762478  1
  O  O23  1  0.29301085  0.51108886  0.93309462  1
  O  O24  1  0.06573579  0.47022422  0.64173448  1
  O  O25  1  0.61084626  0.35687963  0.38515472  1
  O  O26  1  0.58257017  0.14312037  0.11484528  1
  O  O27  1  0.56324501  0.28197430  0.69232117  1
  O  O28  1  0.15289814  0.21802570  0.80767883  1
  O  O29  1  0.40676121  0.08453769  0.35237522  1
  O  O30  1  0.12899491  0.01108886  0.43309462  1
  O  O31  1  0.89422452  0.02977578  0.85826552  1
