# generated using pymatgen
data_VCrO3
_symmetry_space_group_name_H-M   'P 1'
_cell_length_a   5.50336304
_cell_length_b   5.10522850
_cell_length_c   7.50375387
_cell_angle_alpha   90.06115028
_cell_angle_beta   95.83462533
_cell_angle_gamma   90.04417283
_symmetry_Int_Tables_number   1
_chemical_formula_structural   VCrO3
_chemical_formula_sum   'V4 Cr4 O12'
_cell_volume   209.73252294
_cell_formula_units_Z   4
loop_
 _symmetry_equiv_pos_site_id
 _symmetry_equiv_pos_as_xyz
  1  'x, y, z'
loop_
 _atom_site_type_symbol
 _atom_site_label
 _atom_site_symmetry_multiplicity
 _atom_site_fract_x
 _atom_site_fract_y
 _atom_site_fract_z
 _atom_site_occupancy
  V  V0  1  0.29866810  0.99961148  0.85157100  1
  V  V1  1  0.20394941  0.50007054  0.65183679  1
  V  V2  1  0.70012400  0.99910474  0.14614420  1
  V  V3  1  0.29733715  0.00100238  0.35090673  1
  Cr  Cr4  1  0.80384545  0.49969470  0.84842659  1
  Cr  Cr5  1  0.69801058  0.99961170  0.64961012  1
  Cr  Cr6  1  0.79999383  0.50015629  0.34925253  1
  Cr  Cr7  1  0.19716198  0.50034115  0.15277534  1
  O  O8  1  0.50368213  0.30216562  0.74891945  1
  O  O9  1  0.65390830  0.84678575  0.89897241  1
  O  O10  1  0.85077340  0.65152082  0.59945364  1
  O  O11  1  0.99860883  0.19602819  0.75001633  1
  O  O12  1  0.65159733  0.15123661  0.39989578  1
  O  O13  1  0.15057245  0.65141260  0.90484985  1
  O  O14  1  0.35026893  0.84807611  0.59868525  1
  O  O15  1  0.84933333  0.35067727  0.09839145  1
  O  O16  1  0.14968495  0.34973039  0.40207298  1
  O  O17  1  0.34506559  0.15337235  0.09759564  1
  O  O18  1  0.49937612  0.69759035  0.24973297  1
  O  O19  1  0.99803514  0.80181297  0.25089196  1
