# generated using pymatgen
data_Ni2(SO4)3
_symmetry_space_group_name_H-M   'P 1'
_cell_length_a   8.30790341
_cell_length_b   8.93641601
_cell_length_c   8.30790377
_cell_angle_alpha   117.69949334
_cell_angle_beta   60.00000543
_cell_angle_gamma   117.69949528
_symmetry_Int_Tables_number   1
_chemical_formula_structural   Ni2(SO4)3
_chemical_formula_sum   'Ni4 S6 O24'
_cell_volume   450.70056681
_cell_formula_units_Z   2
loop_
 _symmetry_equiv_pos_site_id
 _symmetry_equiv_pos_as_xyz
  1  'x, y, z'
loop_
 _atom_site_type_symbol
 _atom_site_label
 _atom_site_symmetry_multiplicity
 _atom_site_fract_x
 _atom_site_fract_y
 _atom_site_fract_z
 _atom_site_occupancy
  Ni  Ni0  1  0.14305274  0.42915923  0.14305274  1
  Ni  Ni1  1  0.34754879  0.04264738  0.34754879  1
  Ni  Ni2  1  0.65245121  0.95735262  0.65245121  1
  Ni  Ni3  1  0.85694726  0.57084077  0.85694726  1
  S  S4  1  0.04297777  0.24783605  0.45889385  1
  S  S5  1  0.54110615  0.75216395  0.25403557  1
  S  S6  1  0.25403557  0.75216395  0.95702223  1
  S  S7  1  0.74596443  0.24783605  0.04297777  1
  S  S8  1  0.45889385  0.24783605  0.74596443  1
  S  S9  1  0.95702223  0.75216395  0.54110615  1
  O  O10  1  0.21571065  0.89314248  0.14976692  1
  O  O11  1  0.14976692  0.89314248  0.52766491  1
  O  O12  1  0.01766533  0.41810207  0.60488659  1
  O  O13  1  0.13119990  0.26164133  0.25936488  1
  O  O14  1  0.52766491  0.89314248  0.21571065  1
  O  O15  1  0.12892345  0.73835867  0.86880010  1
  O  O16  1  0.39511341  0.58189793  0.20444984  1
  O  O17  1  0.16945819  0.19963159  0.49227960  1
  O  O18  1  0.50772040  0.80036841  0.46210620  1
  O  O19  1  0.20444984  0.58189793  0.98233467  1
  O  O20  1  0.74063512  0.73835867  0.12892345  1
  O  O21  1  0.46210620  0.80036841  0.83054181  1
  O  O22  1  0.53789380  0.19963159  0.16945819  1
  O  O23  1  0.25936488  0.26164133  0.87107655  1
  O  O24  1  0.79555016  0.41810207  0.01766533  1
  O  O25  1  0.49227960  0.19963159  0.53789380  1
  O  O26  1  0.83054181  0.80036841  0.50772040  1
  O  O27  1  0.60488659  0.41810207  0.79555016  1
  O  O28  1  0.87107655  0.26164133  0.13119990  1
  O  O29  1  0.47233509  0.10685752  0.78428935  1
  O  O30  1  0.86880010  0.73835867  0.74063512  1
  O  O31  1  0.98233467  0.58189793  0.39511341  1
  O  O32  1  0.85023308  0.10685752  0.47233509  1
  O  O33  1  0.78428935  0.10685752  0.85023308  1
