# generated using pymatgen
data_Li13(Mn3As4)2
_symmetry_space_group_name_H-M   'P 1'
_cell_length_a   6.03869468
_cell_length_b   12.08580346
_cell_length_c   8.61995652
_cell_angle_alpha   45.38442622
_cell_angle_beta   89.95989687
_cell_angle_gamma   89.99091475
_symmetry_Int_Tables_number   1
_chemical_formula_structural   Li13(Mn3As4)2
_chemical_formula_sum   'Li13 Mn6 As8'
_cell_volume   447.81945678
_cell_formula_units_Z   1
loop_
 _symmetry_equiv_pos_site_id
 _symmetry_equiv_pos_as_xyz
  1  'x, y, z'
loop_
 _atom_site_type_symbol
 _atom_site_label
 _atom_site_symmetry_multiplicity
 _atom_site_fract_x
 _atom_site_fract_y
 _atom_site_fract_z
 _atom_site_occupancy
  Li  Li0  1  0.01618107  0.99725373  0.01748436  1
  Li  Li1  1  0.01238982  0.75202635  0.50816949  1
  Li  Li2  1  0.98340653  0.99754642  0.49361118  1
  Li  Li3  1  0.24748561  0.00669165  0.74886006  1
  Li  Li4  1  0.47201896  0.49828929  0.50234822  1
  Li  Li5  1  0.51720987  0.99881292  0.49324642  1
  Li  Li6  1  0.49988816  0.26209838  0.47745337  1
  Li  Li7  1  0.48860049  0.75226558  0.50852911  1
  Li  Li8  1  0.48309973  0.99690229  0.01614487  1
  Li  Li9  1  0.74972193  0.23994674  0.75650369  1
  Li  Li10  1  0.75032971  0.75388833  0.25364536  1
  Li  Li11  1  0.99818427  0.26237423  0.47639849  1
  Li  Li12  1  0.02611002  0.49783920  0.50259402  1
  Mn  Mn13  1  0.49058825  0.24733052  0.00934817  1
  Mn  Mn14  1  0.49997870  0.74164745  0.00081920  1
  Mn  Mn15  1  0.50198304  0.50017451  0.00027176  1
  Mn  Mn16  1  0.00574790  0.24756554  0.01022837  1
  Mn  Mn17  1  0.99637953  0.50041481  0.99935991  1
  Mn  Mn18  1  -0.00019069  0.74034181  0.00171209  1
  As  As19  1  0.24877639  0.24382026  0.75714605  1
  As  As20  1  0.24944248  0.74074856  0.76886322  1
  As  As21  1  0.24964998  0.25514485  0.24420571  1
  As  As22  1  0.24929432  0.75177937  0.23501373  1
  As  As23  1  0.74908140  0.00471814  0.23524954  1
  As  As24  1  0.74936628  0.50291877  0.24313545  1
  As  As25  1  0.74992358  0.99121510  0.76992597  1
  As  As26  1  0.74815569  0.49353020  0.76009217  1
