# generated using pymatgen
data_Li4AlCr3O8
_symmetry_space_group_name_H-M   'P 1'
_cell_length_a   5.10998224
_cell_length_b   7.75798227
_cell_length_c   7.76484294
_cell_angle_alpha   81.76656088
_cell_angle_beta   71.03584291
_cell_angle_gamma   83.80274869
_symmetry_Int_Tables_number   1
_chemical_formula_structural   Li4AlCr3O8
_chemical_formula_sum   'Li8 Al2 Cr6 O16'
_cell_volume   287.49342191
_cell_formula_units_Z   2
loop_
 _symmetry_equiv_pos_site_id
 _symmetry_equiv_pos_as_xyz
  1  'x, y, z'
loop_
 _atom_site_type_symbol
 _atom_site_label
 _atom_site_symmetry_multiplicity
 _atom_site_fract_x
 _atom_site_fract_y
 _atom_site_fract_z
 _atom_site_occupancy
  Li  Li0  1  -0.00000007  0.00000011  0.99999904  1
  Li  Li1  1  0.99954198  0.25063967  0.25108273  1
  Li  Li2  1  0.99963035  0.62476985  0.12630092  1
  Li  Li3  1  0.00003489  0.12586412  0.62457372  1
  Li  Li4  1  0.99999971  0.50000030  0.49999981  1
  Li  Li5  1  -0.00003585  0.87413608  0.37542553  1
  Li  Li6  1  0.00036875  0.37523009  0.87369863  1
  Li  Li7  1  0.00045761  0.74936044  0.74891680  1
  Al  Al8  1  0.49998602  0.31452117  0.56167080  1
  Al  Al9  1  0.50001030  0.68547822  0.43832916  1
  Cr  Cr10  1  0.50024283  0.06152094  0.31446058  1
  Cr  Cr11  1  0.50062735  0.43784036  0.19059967  1
  Cr  Cr12  1  0.50036041  0.81161740  0.06428473  1
  Cr  Cr13  1  0.49963306  0.18839168  0.93571683  1
  Cr  Cr14  1  0.49937893  0.56215229  0.80940836  1
  Cr  Cr15  1  0.49976908  0.93847409  0.68553518  1
  O  O16  1  0.27268923  0.03059562  0.15180015  1
  O  O17  1  0.72696319  0.21945587  0.09876318  1
  O  O18  1  0.27275815  0.40609816  0.02729519  1
  O  O19  1  0.72187074  0.10405860  0.47597271  1
  O  O20  1  0.28005103  0.28088328  0.40831057  1
  O  O21  1  0.27975183  0.65626628  0.28365893  1
  O  O22  1  0.71716221  0.47175043  0.35851345  1
  O  O23  1  0.27830572  0.16231696  0.76786537  1
  O  O24  1  0.28283551  0.52824905  0.64148676  1
  O  O25  1  0.72169485  0.83768411  0.23213315  1
  O  O26  1  0.72024806  0.34373305  0.71633985  1
  O  O27  1  0.27813177  0.89593975  0.52402502  1
  O  O28  1  0.71995047  0.71911492  0.59168914  1
  O  O29  1  0.27303744  0.78054534  0.90123499  1
  O  O30  1  0.72723663  0.59390187  0.97270612  1
  O  O31  1  0.72730883  0.96940790  0.84819992  1
