# generated using pymatgen
data_Mn7(PO4)6
_symmetry_space_group_name_H-M   'P 1'
_cell_length_a   6.30985919
_cell_length_b   8.24325031
_cell_length_c   9.54833638
_cell_angle_alpha   104.41424008
_cell_angle_beta   71.98663532
_cell_angle_gamma   78.99813154
_symmetry_Int_Tables_number   1
_chemical_formula_structural   Mn7(PO4)6
_chemical_formula_sum   'Mn7 P6 O24'
_cell_volume   437.66863829
_cell_formula_units_Z   1
loop_
 _symmetry_equiv_pos_site_id
 _symmetry_equiv_pos_as_xyz
  1  'x, y, z'
loop_
 _atom_site_type_symbol
 _atom_site_label
 _atom_site_symmetry_multiplicity
 _atom_site_fract_x
 _atom_site_fract_y
 _atom_site_fract_z
 _atom_site_occupancy
  Mn  Mn0  1  0.95252551  0.72470864  0.53086655  1
  Mn  Mn1  1  0.73107670  0.80611214  0.27900838  1
  Mn  Mn2  1  0.38153811  0.54816085  0.88535311  1
  Mn  Mn3  1  0.61846189  0.45183915  0.11464689  1
  Mn  Mn4  1  0.26892330  0.19388786  0.72099162  1
  Mn  Mn5  1  0.04747449  0.27529136  0.46913345  1
  Mn  Mn6  1  0.00000000  0.00000000  0.00000000  1
  P  P7  1  0.90403291  0.59665248  0.83250137  1
  P  P8  1  0.76949444  0.14327989  0.76983029  1
  P  P9  1  0.39906908  0.76854779  0.62911963  1
  P  P10  1  0.60093092  0.23145221  0.37088037  1
  P  P11  1  0.23050556  0.85672011  0.23016971  1
  P  P12  1  0.09596709  0.40334752  0.16749863  1
  O  O13  1  0.88489715  0.78120033  0.91992570  1
  O  O14  1  0.92999919  0.55844759  0.65962755  1
  O  O15  1  0.79162312  0.95191943  0.70528860  1
  O  O16  1  0.97986318  0.19256726  0.66446062  1
  O  O17  1  0.78026961  0.19001028  0.93534232  1
  O  O18  1  0.68733725  0.53837226  0.91528943  1
  O  O19  1  0.87865647  0.53290096  0.16288300  1
  O  O20  1  0.63952228  0.76068319  0.50572557  1
  O  O21  1  0.74413723  0.27887605  0.47145142  1
  O  O22  1  0.53910110  0.25570790  0.77253988  1
  O  O23  1  0.44573937  0.63752986  0.71056046  1
  O  O24  1  0.28102984  0.95555459  0.75194419  1
  O  O25  1  0.71897016  0.04444541  0.24805581  1
  O  O26  1  0.55426063  0.36247014  0.28943954  1
  O  O27  1  0.46089890  0.74429210  0.22746012  1
  O  O28  1  0.25586277  0.72112395  0.52854858  1
  O  O29  1  0.36047772  0.23931681  0.49427443  1
  O  O30  1  0.12134353  0.46709904  0.83711700  1
  O  O31  1  0.31266275  0.46162774  0.08471057  1
  O  O32  1  0.21973039  0.80998972  0.06465768  1
  O  O33  1  0.02013682  0.80743274  0.33554038  1
  O  O34  1  0.20837688  0.04808057  0.29471140  1
  O  O35  1  0.07000081  0.44155241  0.34037245  1
  O  O36  1  0.11510285  0.21879967  0.08007430  1
