# generated using pymatgen
data_Li4AlCr3O8
_symmetry_space_group_name_H-M   'P 1'
_cell_length_a   5.11264433
_cell_length_b   5.86782786
_cell_length_c   5.08153574
_cell_angle_alpha   90.00876936
_cell_angle_beta   80.47252277
_cell_angle_gamma   73.32489292
_symmetry_Int_Tables_number   1
_chemical_formula_structural   Li4AlCr3O8
_chemical_formula_sum   'Li4 Al1 Cr3 O8'
_cell_volume   143.83820074
_cell_formula_units_Z   1
loop_
 _symmetry_equiv_pos_site_id
 _symmetry_equiv_pos_as_xyz
  1  'x, y, z'
loop_
 _atom_site_type_symbol
 _atom_site_label
 _atom_site_symmetry_multiplicity
 _atom_site_fract_x
 _atom_site_fract_y
 _atom_site_fract_z
 _atom_site_occupancy
  Li  Li0  1  0.00010537  0.99938671  0.00065295  1
  Li  Li1  1  -0.00007844  0.24943439  0.49900669  1
  Li  Li2  1  0.00007822  0.50054547  0.00100607  1
  Li  Li3  1  0.99988093  0.75058465  0.49935360  1
  Al  Al4  1  0.49999038  0.87499027  0.25000131  1
  Cr  Cr5  1  0.49975109  0.12291399  0.75003093  1
  Cr  Cr6  1  0.50003032  0.37498262  0.24999476  1
  Cr  Cr7  1  0.50023349  0.62713278  0.74996251  1
  O  O8  1  0.27866143  0.17132023  0.12607295  1
  O  O9  1  0.72000039  0.06090984  0.37437281  1
  O  O10  1  0.27317943  0.43188427  0.62207925  1
  O  O11  1  0.72681697  0.31816673  0.87789698  1
  O  O12  1  0.28002115  0.68903197  0.12564636  1
  O  O13  1  0.72134188  0.57866884  0.37391949  1
  O  O14  1  0.27845364  0.93025555  0.60761321  1
  O  O15  1  0.72153273  0.81979170  0.89238913  1
