# generated using pymatgen
data_Ti2Cu(PO4)3
_symmetry_space_group_name_H-M   'P 1'
_cell_length_a   8.65622384
_cell_length_b   8.65622399
_cell_length_c   8.65622421
_cell_angle_alpha   60.00300966
_cell_angle_beta   60.00300812
_cell_angle_gamma   60.00300990
_symmetry_Int_Tables_number   1
_chemical_formula_structural   Ti2Cu(PO4)3
_chemical_formula_sum   'Ti4 Cu2 P6 O24'
_cell_volume   458.66974315
_cell_formula_units_Z   2
loop_
 _symmetry_equiv_pos_site_id
 _symmetry_equiv_pos_as_xyz
  1  'x, y, z'
loop_
 _atom_site_type_symbol
 _atom_site_label
 _atom_site_symmetry_multiplicity
 _atom_site_fract_x
 _atom_site_fract_y
 _atom_site_fract_z
 _atom_site_occupancy
  Ti  Ti0  1  0.14166475  0.14166475  0.14166475  1
  Ti  Ti1  1  0.35833525  0.35833525  0.35833525  1
  Ti  Ti2  1  0.64166475  0.64166475  0.64166475  1
  Ti  Ti3  1  0.85833525  0.85833525  0.85833525  1
  Cu  Cu4  1  0.00000000  0.00000000  0.00000000  1
  Cu  Cu5  1  0.50000000  0.50000000  0.50000000  1
  P  P6  1  0.03901409  0.75000000  0.46098591  1
  P  P7  1  0.46098591  0.03901409  0.75000000  1
  P  P8  1  0.75000000  0.46098591  0.03901409  1
  P  P9  1  0.25000000  0.53901409  0.96098591  1
  P  P10  1  0.53901409  0.96098591  0.25000000  1
  P  P11  1  0.96098591  0.25000000  0.53901409  1
  O  O12  1  0.12564789  0.30301515  0.49965285  1
  O  O13  1  0.30301515  0.49965285  0.12564789  1
  O  O14  1  0.05795521  0.91666958  0.27119509  1
  O  O15  1  0.49965285  0.12564789  0.30301515  1
  O  O16  1  0.99965285  0.80301515  0.62564789  1
  O  O17  1  0.22880491  0.58333042  0.44204479  1
  O  O18  1  0.27119509  0.05795521  0.91666958  1
  O  O19  1  0.44204479  0.22880491  0.58333042  1
  O  O20  1  0.19698485  0.37435211  0.00034715  1
  O  O21  1  0.58333042  0.44204479  0.22880491  1
  O  O22  1  0.08333042  0.72880491  0.94204479  1
  O  O23  1  0.37435211  0.00034715  0.19698485  1
  O  O24  1  0.62564789  0.99965285  0.80301515  1
  O  O25  1  0.91666958  0.27119509  0.05795521  1
  O  O26  1  0.41666958  0.55795521  0.77119509  1
  O  O27  1  0.80301515  0.62564789  0.99965285  1
  O  O28  1  0.55795521  0.77119509  0.41666958  1
  O  O29  1  0.72880491  0.94204479  0.08333042  1
  O  O30  1  0.77119509  0.41666958  0.55795521  1
  O  O31  1  0.00034715  0.19698485  0.37435211  1
  O  O32  1  0.50034715  0.87435211  0.69698485  1
  O  O33  1  0.94204479  0.08333042  0.72880491  1
  O  O34  1  0.69698485  0.50034715  0.87435211  1
  O  O35  1  0.87435211  0.69698485  0.50034715  1
