# generated using pymatgen
data_Li3Fe(NiO2)4
_symmetry_space_group_name_H-M   'P 1'
_cell_length_a   5.87466495
_cell_length_b   5.87466447
_cell_length_c   5.92484059
_cell_angle_alpha   89.27303367
_cell_angle_beta   59.66062821
_cell_angle_gamma   59.77739885
_symmetry_Int_Tables_number   1
_chemical_formula_structural   Li3Fe(NiO2)4
_chemical_formula_sum   'Li3 Fe1 Ni4 O8'
_cell_volume   144.26399434
_cell_formula_units_Z   1
loop_
 _symmetry_equiv_pos_site_id
 _symmetry_equiv_pos_as_xyz
  1  'x, y, z'
loop_
 _atom_site_type_symbol
 _atom_site_label
 _atom_site_symmetry_multiplicity
 _atom_site_fract_x
 _atom_site_fract_y
 _atom_site_fract_z
 _atom_site_occupancy
  Li  Li0  1  0.00000000  0.00000000  0.50000000  1
  Li  Li1  1  0.50000000  0.00000000  0.50000000  1
  Li  Li2  1  0.50000000  0.50000000  0.50000000  1
  Fe  Fe3  1  0.50000000  0.50000000  0.00000000  1
  Ni  Ni4  1  0.00000000  0.50000000  0.50000000  1
  Ni  Ni5  1  0.00000000  0.00000000  0.00000000  1
  Ni  Ni6  1  0.50000000  0.00000000  0.00000000  1
  Ni  Ni7  1  0.00000000  0.50000000  0.00000000  1
  O  O8  1  0.47998617  0.25925170  0.77926553  1
  O  O9  1  0.98808888  0.25572142  0.75511080  1
  O  O10  1  0.50061062  0.74319868  0.75511080  1
  O  O11  1  0.97546894  0.75099061  0.77552167  1
  O  O12  1  0.02453106  0.24900939  0.22447833  1
  O  O13  1  0.49938938  0.25680132  0.24488920  1
  O  O14  1  0.01191112  0.74427858  0.24488920  1
  O  O15  1  0.52001383  0.74074830  0.22073447  1
