# generated using pymatgen
data_RbBiF4
_symmetry_space_group_name_H-M   'P 1'
_cell_length_a   4.68789206
_cell_length_b   4.31847513
_cell_length_c   27.77839288
_cell_angle_alpha   55.74684414
_cell_angle_beta   58.26958754
_cell_angle_gamma   56.83848367
_symmetry_Int_Tables_number   1
_chemical_formula_structural   RbBiF4
_chemical_formula_sum   'Rb3 Bi3 F12'
_cell_volume   369.29444214
_cell_formula_units_Z   3
loop_
 _symmetry_equiv_pos_site_id
 _symmetry_equiv_pos_as_xyz
  1  'x, y, z'
loop_
 _atom_site_type_symbol
 _atom_site_label
 _atom_site_symmetry_multiplicity
 _atom_site_fract_x
 _atom_site_fract_y
 _atom_site_fract_z
 _atom_site_occupancy
  Rb  Rb0  1  0.04419819  0.95171132  0.15608806  1
  Rb  Rb1  1  0.01655654  0.00527814  0.32672994  1
  Rb  Rb2  1  0.95796531  0.05827417  0.49919508  1
  Bi  Bi3  1  0.93653684  0.03292869  0.99718240  1
  Bi  Bi4  1  0.90388787  0.92707740  0.67510695  1
  Bi  Bi5  1  0.91597209  0.96855667  0.83373696  1
  F  F6  1  0.35017607  0.25443999  0.03180240  1
  F  F7  1  0.79972901  0.78782356  0.10131042  1
  F  F8  1  0.76695439  0.83954465  0.27279030  1
  F  F9  1  0.30875247  0.24383874  0.69957482  1
  F  F10  1  0.71160109  0.89443033  0.44326835  1
  F  F11  1  0.10166012  0.19477721  0.57782001  1
  F  F12  1  0.74912469  0.66329985  0.64853456  1
  F  F13  1  0.37714126  0.24755352  0.88673646  1
  F  F14  1  0.61230022  0.43077852  0.76884872  1
  F  F15  1  0.88783236  0.66011729  0.79646668  1
  F  F16  1  0.70833071  0.47994333  0.91468035  1
  F  F17  1  0.78727877  0.67162863  0.98479353  1
