# generated using pymatgen
data_Mn2V3Ni(PO4)6
_symmetry_space_group_name_H-M   'P 1'
_cell_length_a   8.59442880
_cell_length_b   8.62278039
_cell_length_c   8.62278061
_cell_angle_alpha   60.00000033
_cell_angle_beta   59.89081601
_cell_angle_gamma   59.89080884
_symmetry_Int_Tables_number   1
_chemical_formula_structural   Mn2V3Ni(PO4)6
_chemical_formula_sum   'Mn2 V3 Ni1 P6 O24'
_cell_volume   451.10533374
_cell_formula_units_Z   1
loop_
 _symmetry_equiv_pos_site_id
 _symmetry_equiv_pos_as_xyz
  1  'x, y, z'
loop_
 _atom_site_type_symbol
 _atom_site_label
 _atom_site_symmetry_multiplicity
 _atom_site_fract_x
 _atom_site_fract_y
 _atom_site_fract_z
 _atom_site_occupancy
  Mn  Mn0  1  0.98895651  0.00368150  0.00368150  1
  Mn  Mn1  1  0.49793945  0.50068685  0.50068685  1
  V  V2  1  0.06561052  0.64479616  0.64479616  1
  V  V3  1  0.42859843  0.85713386  0.85713386  1
  V  V4  1  0.93641403  0.35452866  0.35452866  1
  Ni  Ni5  1  0.57009503  0.14330199  0.14330199  1
  P  P6  1  0.25409270  0.24815577  0.54075883  1
  P  P7  1  0.25409270  0.95699269  0.24815577  1
  P  P8  1  0.25409270  0.54075883  0.95699269  1
  P  P9  1  0.75058543  0.45923813  0.04155114  1
  P  P10  1  0.75058543  0.04155114  0.74862531  1
  P  P11  1  0.75058543  0.74862531  0.45923813  1
  O  O12  1  0.06843796  0.12154414  0.30549700  1
  O  O13  1  0.06843796  0.50452090  0.12154414  1
  O  O14  1  0.06843796  0.30549700  0.50452090  1
  O  O15  1  0.23522353  0.08510301  0.73900193  1
  O  O16  1  0.43473599  0.19577460  0.38601298  1
  O  O17  1  0.25356987  0.41522808  0.56873412  1
  O  O18  1  0.23522353  0.94067153  0.08510301  1
  O  O19  1  0.25356987  0.76246892  0.41522808  1
  O  O20  1  0.56747169  0.62245036  0.00331360  1
  O  O21  1  0.25356987  0.56873412  0.76246892  1
  O  O22  1  0.77217366  0.26813392  0.05211320  1
  O  O23  1  0.56747169  0.00331360  0.80676435  1
  O  O24  1  0.43473599  0.98347543  0.19577460  1
  O  O25  1  0.23522353  0.73900193  0.94067153  1
  O  O26  1  0.73767732  0.44729740  0.23472446  1
  O  O27  1  0.43473599  0.38601298  0.98347543  1
  O  O28  1  0.73767732  0.23472446  0.58030083  1
  O  O29  1  0.77217366  0.05211320  0.90758021  1
  O  O30  1  0.73767732  0.58030083  0.44729740  1
  O  O31  1  0.56747169  0.80676435  0.62245036  1
  O  O32  1  0.77217366  0.90758021  0.26813392  1
  O  O33  1  0.93015985  0.67971674  0.50723637  1
  O  O34  1  0.93015985  0.50723637  0.88288604  1
  O  O35  1  0.93015985  0.88288604  0.67971674  1
