# generated using pymatgen
data_LiTi2(PO4)3
_symmetry_space_group_name_H-M   'P 1'
_cell_length_a   8.64471818
_cell_length_b   12.03365641
_cell_length_c   8.70349188
_cell_angle_alpha   90.00000000
_cell_angle_beta   90.00000000
_cell_angle_gamma   90.00000000
_symmetry_Int_Tables_number   1
_chemical_formula_structural   LiTi2(PO4)3
_chemical_formula_sum   'Li4 Ti8 P12 O48'
_cell_volume   905.40309634
_cell_formula_units_Z   4
loop_
 _symmetry_equiv_pos_site_id
 _symmetry_equiv_pos_as_xyz
  1  'x, y, z'
loop_
 _atom_site_type_symbol
 _atom_site_label
 _atom_site_symmetry_multiplicity
 _atom_site_fract_x
 _atom_site_fract_y
 _atom_site_fract_z
 _atom_site_occupancy
  Li  Li0  1  0.71156208  0.32036490  0.77851859  1
  Li  Li1  1  0.71156208  0.67963510  0.72148141  1
  Li  Li2  1  0.78843792  0.17963510  0.27851859  1
  Li  Li3  1  0.78843792  0.82036490  0.22148141  1
  Ti  Ti4  1  0.25034093  0.87981337  0.03494261  1
  Ti  Ti5  1  0.25034093  0.12018563  0.46505739  1
  Ti  Ti6  1  0.24965907  0.37981337  0.96505739  1
  Ti  Ti7  1  0.24965907  0.62018663  0.53494261  1
  Ti  Ti8  1  0.75283892  0.38840342  0.46113255  1
  Ti  Ti9  1  0.75283892  0.61159658  0.03886745  1
  Ti  Ti10  1  0.74716108  0.11159658  0.96113255  1
  Ti  Ti11  1  0.74716108  0.88840342  0.53886745  1
  P  P12  1  0.04151909  0.50000000  0.25000000  1
  P  P13  1  0.45848091  0.00000000  0.75000000  1
  P  P14  1  0.53559118  0.00000000  0.25000000  1
  P  P15  1  0.96440882  0.50000000  0.75000000  1
  P  P16  1  0.10675332  0.14520510  0.10821664  1
  P  P17  1  0.10675332  0.85479490  0.39178336  1
  P  P18  1  0.39324668  0.35479490  0.60821664  1
  P  P19  1  0.39324668  0.64520510  0.89178336  1
  P  P20  1  0.60329857  0.35198301  0.10788797  1
  P  P21  1  0.60329857  0.64801699  0.39211203  1
  P  P22  1  0.89670143  0.14801699  0.60788797  1
  P  P23  1  0.89670143  0.85198301  0.89211203  1
  O  O24  1  0.05984621  0.42625910  0.85572668  1
  O  O25  1  0.05984621  0.57374090  0.64427332  1
  O  O26  1  0.07200203  0.15479313  0.59797526  1
  O  O27  1  0.07200203  0.84520687  0.90202474  1
  O  O28  1  0.14107898  0.42428318  0.15102606  1
  O  O29  1  0.14107898  0.57571682  0.34897394  1
  O  O30  1  0.15212537  0.17137148  0.27635469  1
  O  O31  1  0.15212537  0.82862852  0.22364531  1
  O  O32  1  0.16145961  0.02825849  0.06381026  1
  O  O33  1  0.16145961  0.97174151  0.43618974  1
  O  O34  1  0.17540040  0.23065851  0.99533216  1
  O  O35  1  0.17540040  0.76934149  0.50466784  1
  O  O36  1  0.32459960  0.26934149  0.49533216  1
  O  O37  1  0.32459960  0.73065851  0.00466784  1
  O  O38  1  0.33854039  0.47174151  0.56381026  1
  O  O39  1  0.33854039  0.52825849  0.93618974  1
  O  O40  1  0.34787463  0.67137148  0.72364531  1
  O  O41  1  0.34787463  0.32862852  0.77635469  1
  O  O42  1  0.35892102  0.07571682  0.65102606  1
  O  O43  1  0.35892102  0.92428318  0.84897394  1
  O  O44  1  0.42799797  0.34520687  0.09797526  1
  O  O45  1  0.42799797  0.65479313  0.40202474  1
  O  O46  1  0.44015379  0.07374090  0.35572668  1
  O  O47  1  0.44015379  0.92625910  0.14427332  1
  O  O48  1  0.56583239  0.92702361  0.64697629  1
  O  O49  1  0.56583239  0.07297639  0.85302371  1
  O  O50  1  0.57373884  0.34655588  0.59921419  1
  O  O51  1  0.57373884  0.65344412  0.90078581  1
  O  O52  1  0.64839155  0.07778894  0.15869226  1
  O  O53  1  0.64839155  0.92221106  0.34130774  1
  O  O54  1  0.66067364  0.32030578  0.27102774  1
  O  O55  1  0.66067364  0.67969422  0.22897226  1
  O  O56  1  0.66155758  0.47085926  0.06789314  1
  O  O57  1  0.66155758  0.52914074  0.43210686  1
  O  O58  1  0.67784774  0.27242809  0.98846264  1
  O  O59  1  0.67784774  0.72757191  0.51153736  1
  O  O60  1  0.82215226  0.22757191  0.48846264  1
  O  O61  1  0.82215226  0.77242809  0.01153736  1
  O  O62  1  0.83844242  0.02914074  0.56789314  1
  O  O63  1  0.83844242  0.97085926  0.93210686  1
  O  O64  1  0.83932636  0.17969422  0.77102774  1
  O  O65  1  0.83932636  0.82030578  0.72897226  1
  O  O66  1  0.85160845  0.42221106  0.65869226  1
  O  O67  1  0.85160845  0.57778894  0.84130774  1
  O  O68  1  0.92626116  0.15344412  0.09921419  1
  O  O69  1  0.92626116  0.84655588  0.40078581  1
  O  O70  1  0.93416761  0.42702361  0.35302371  1
  O  O71  1  0.93416761  0.57297639  0.14697629  1
