# generated using pymatgen
data_Li3Co(NiO2)4
_symmetry_space_group_name_H-M   'P 1'
_cell_length_a   10.07791886
_cell_length_b   10.07791886
_cell_length_c   14.29362580
_cell_angle_alpha   19.34720343
_cell_angle_beta   19.34720343
_cell_angle_gamma   33.19626339
_symmetry_Int_Tables_number   1
_chemical_formula_structural   Li3Co(NiO2)4
_chemical_formula_sum   'Li3 Co1 Ni4 O8'
_cell_volume   139.16546333
_cell_formula_units_Z   1
loop_
 _symmetry_equiv_pos_site_id
 _symmetry_equiv_pos_as_xyz
  1  'x, y, z'
loop_
 _atom_site_type_symbol
 _atom_site_label
 _atom_site_symmetry_multiplicity
 _atom_site_fract_x
 _atom_site_fract_y
 _atom_site_fract_z
 _atom_site_occupancy
  Li  Li0  1  0.00000000  0.50000000  0.50000000  1
  Li  Li1  1  0.50000000  0.50000000  0.50000000  1
  Li  Li2  1  0.50000000  0.00000000  0.50000000  1
  Co  Co3  1  0.50000000  0.50000000  0.00000000  1
  Ni  Ni4  1  0.00000000  0.50000000  0.00000000  1
  Ni  Ni5  1  0.00000000  0.00000000  0.00000000  1
  Ni  Ni6  1  0.00000000  0.00000000  0.50000000  1
  Ni  Ni7  1  0.50000000  0.00000000  0.00000000  1
  O  O8  1  0.97319912  0.49930512  0.76423677  1
  O  O9  1  0.02680088  0.50069488  0.23576323  1
  O  O10  1  0.97854529  0.97854529  0.29133636  1
  O  O11  1  0.02145471  0.02145471  0.70866364  1
  O  O12  1  0.47233876  0.47233876  0.77730589  1
  O  O13  1  0.52766124  0.52766124  0.22269411  1
  O  O14  1  0.49930512  0.97319912  0.76423677  1
  O  O15  1  0.50069488  0.02680088  0.23576323  1
