# generated using pymatgen
data_MgCr3(SO4)6
_symmetry_space_group_name_H-M   'P 1'
_cell_length_a   8.85711066
_cell_length_b   8.85711065
_cell_length_c   8.85711101
_cell_angle_alpha   55.91041818
_cell_angle_beta   55.91041819
_cell_angle_gamma   55.91041752
_symmetry_Int_Tables_number   1
_chemical_formula_structural   MgCr3(SO4)6
_chemical_formula_sum   'Mg1 Cr3 S6 O24'
_cell_volume   444.74852187
_cell_formula_units_Z   1
loop_
 _symmetry_equiv_pos_site_id
 _symmetry_equiv_pos_as_xyz
  1  'x, y, z'
loop_
 _atom_site_type_symbol
 _atom_site_label
 _atom_site_symmetry_multiplicity
 _atom_site_fract_x
 _atom_site_fract_y
 _atom_site_fract_z
 _atom_site_occupancy
  Mg  Mg0  1  0.35825104  0.35825104  0.35825104  1
  Cr  Cr1  1  0.15081739  0.15081739  0.15081739  1
  Cr  Cr2  1  0.64424972  0.64424972  0.64424972  1
  Cr  Cr3  1  0.84968530  0.84968530  0.84968530  1
  S  S4  1  0.03943548  0.75416428  0.46036101  1
  S  S5  1  0.53875669  0.95567972  0.25330989  1
  S  S6  1  0.25330989  0.53875669  0.95567972  1
  S  S7  1  0.75416428  0.46036101  0.03943548  1
  S  S8  1  0.46036101  0.03943548  0.75416428  1
  S  S9  1  0.95567972  0.25330989  0.53875669  1
  O  O10  1  0.00660521  0.96165017  0.32948290  1
  O  O11  1  0.01811620  0.72221282  0.65716828  1
  O  O12  1  0.34895948  0.97155497  0.27999403  1
  O  O13  1  0.04535339  0.67581454  0.97719790  1
  O  O14  1  0.48932899  0.88816368  0.70494060  1
  O  O15  1  0.23420134  0.62549788  0.38072177  1
  O  O16  1  0.67581454  0.97719790  0.04535339  1
  O  O17  1  0.38374986  0.62158148  0.75700762  1
  O  O18  1  0.29372631  0.51521232  0.10704774  1
  O  O19  1  0.10704774  0.29372631  0.51521232  1
  O  O20  1  0.62158148  0.75700762  0.38374986  1
  O  O21  1  0.27999403  0.34895948  0.97155497  1
  O  O22  1  0.72221282  0.65716828  0.01811620  1
  O  O23  1  0.38072177  0.23420134  0.62549788  1
  O  O24  1  0.88816368  0.70494060  0.48932899  1
  O  O25  1  0.70494060  0.48932899  0.88816368  1
  O  O26  1  0.62549788  0.38072177  0.23420134  1
  O  O27  1  0.32948290  0.00660521  0.96165017  1
  O  O28  1  0.75700762  0.38374986  0.62158148  1
  O  O29  1  0.51521232  0.10704774  0.29372631  1
  O  O30  1  0.96165017  0.32948290  0.00660521  1
  O  O31  1  0.65716828  0.01811620  0.72221282  1
  O  O32  1  0.97155497  0.27999403  0.34895948  1
  O  O33  1  0.97719790  0.04535339  0.67581454  1
