# generated using pymatgen
data_VCrO3
_symmetry_space_group_name_H-M   'P 1'
_cell_length_a   5.13285609
_cell_length_b   5.49306965
_cell_length_c   9.07916790
_cell_angle_alpha   85.30061363
_cell_angle_beta   73.54763771
_cell_angle_gamma   117.76773229
_symmetry_Int_Tables_number   1
_chemical_formula_structural   VCrO3
_chemical_formula_sum   'V4 Cr4 O12'
_cell_volume   210.22287484
_cell_formula_units_Z   4
loop_
 _symmetry_equiv_pos_site_id
 _symmetry_equiv_pos_as_xyz
  1  'x, y, z'
loop_
 _atom_site_type_symbol
 _atom_site_label
 _atom_site_symmetry_multiplicity
 _atom_site_fract_x
 _atom_site_fract_y
 _atom_site_fract_z
 _atom_site_occupancy
  V  V0  1  0.14887068  0.37052922  0.07679146  1
  V  V1  1  0.35376915  0.38198621  0.67700816  1
  V  V2  1  0.64323544  0.62182961  0.32675631  1
  V  V3  1  0.84887700  0.13043202  0.42607102  1
  Cr  Cr4  1  0.15094381  0.88059710  0.57644842  1
  Cr  Cr5  1  0.34717121  0.87224411  0.17673537  1
  Cr  Cr6  1  0.65345958  0.12735691  0.82732812  1
  Cr  Cr7  1  0.85258212  0.62482045  0.92614737  1
  O  O8  1  0.05373754  0.52978683  0.72558292  1
  O  O9  1  0.05034180  0.02167778  0.22474885  1
  O  O10  1  0.44223045  0.87856082  0.37630994  1
  O  O11  1  0.55328299  0.62343346  0.12707391  1
  O  O12  1  0.25262660  0.77663319  0.97470205  1
  O  O13  1  0.25064259  0.27780538  0.47610059  1
  O  O14  1  0.75402765  0.72868631  0.52695691  1
  O  O15  1  0.75063776  0.22187092  0.02741630  1
  O  O16  1  0.45363532  0.37651095  0.87682887  1
  O  O17  1  0.55236269  0.12430918  0.62745522  1
  O  O18  1  0.94952682  0.97558460  0.77923111  1
  O  O19  1  0.95100280  0.47562795  0.27813912  1
