# generated using pymatgen
data_Mn3Fe(PO4)4
_symmetry_space_group_name_H-M   'P 1'
_cell_length_a   4.92070642
_cell_length_b   9.85369814
_cell_length_c   6.01260687
_cell_angle_alpha   90.00000000
_cell_angle_beta   90.00000000
_cell_angle_gamma   89.72637131
_symmetry_Int_Tables_number   1
_chemical_formula_structural   Mn3Fe(PO4)4
_chemical_formula_sum   'Mn3 Fe1 P4 O16'
_cell_volume   291.53088097
_cell_formula_units_Z   1
loop_
 _symmetry_equiv_pos_site_id
 _symmetry_equiv_pos_as_xyz
  1  'x, y, z'
loop_
 _atom_site_type_symbol
 _atom_site_label
 _atom_site_symmetry_multiplicity
 _atom_site_fract_x
 _atom_site_fract_y
 _atom_site_fract_z
 _atom_site_occupancy
  Mn  Mn0  1  0.07097860  0.71467772  0.75000000  1
  Mn  Mn1  1  0.43319101  0.21770958  0.75000000  1
  Mn  Mn2  1  0.56889476  0.78513472  0.25000000  1
  Fe  Fe3  1  0.95652542  0.27701754  0.25000000  1
  P  P4  1  0.08733579  0.60034927  0.25000000  1
  P  P5  1  0.41299179  0.09679271  0.25000000  1
  P  P6  1  0.58298526  0.90062627  0.75000000  1
  P  P7  1  0.91370810  0.40022385  0.75000000  1
  O  O8  1  0.14735845  0.44779607  0.25000000  1
  O  O9  1  0.22910824  0.67200426  0.04941237  1
  O  O10  1  0.22910824  0.67200426  0.45058763  1
  O  O11  1  0.22626114  0.38089257  0.75000000  1
  O  O12  1  0.27303989  0.88017588  0.75000000  1
  O  O13  1  0.26312951  0.17082251  0.05196006  1
  O  O14  1  0.26312951  0.17082251  0.44803994  1
  O  O15  1  0.34602919  0.94495961  0.25000000  1
  O  O16  1  0.64092255  0.05439020  0.75000000  1
  O  O17  1  0.72738961  0.83040201  0.54945250  1
  O  O18  1  0.72738961  0.83040201  0.95054750  1
  O  O19  1  0.71847734  0.11954835  0.25000000  1
  O  O20  1  0.77658922  0.62138217  0.25000000  1
  O  O21  1  0.77529645  0.32903335  0.54719685  1
  O  O22  1  0.77529645  0.32903335  0.95280315  1
  O  O23  1  0.85486585  0.55380124  0.75000000  1
