# generated using pymatgen
data_Rb2CoB12(H2O3)10
_symmetry_space_group_name_H-M   'P 1'
_cell_length_a   7.57697290
_cell_length_b   7.91744080
_cell_length_c   11.13535536
_cell_angle_alpha   107.41684434
_cell_angle_beta   93.51607209
_cell_angle_gamma   92.14368944
_symmetry_Int_Tables_number   1
_chemical_formula_structural   Rb2CoB12(H2O3)10
_chemical_formula_sum   'Rb2 Co1 B12 H20 O30'
_cell_volume   635.09451624
_cell_formula_units_Z   1
loop_
 _symmetry_equiv_pos_site_id
 _symmetry_equiv_pos_as_xyz
  1  'x, y, z'
loop_
 _atom_site_type_symbol
 _atom_site_label
 _atom_site_symmetry_multiplicity
 _atom_site_fract_x
 _atom_site_fract_y
 _atom_site_fract_z
 _atom_site_occupancy
  Rb  Rb0  1  0.23293176  0.36401564  0.40512556  1
  Rb  Rb1  1  0.76706824  0.63598436  0.59487444  1
  Co  Co2  1  0.50000000  0.00000000  0.00000000  1
  B  B3  1  0.04564366  0.24734873  0.95307508  1
  B  B4  1  0.17329433  0.99206801  0.79774082  1
  B  B5  1  0.15011759  0.86383048  0.56400115  1
  B  B6  1  0.34238389  0.30230464  0.88415493  1
  B  B7  1  0.38384385  0.11277711  0.65135029  1
  B  B8  1  0.39682725  0.43795705  0.71284078  1
  B  B9  1  0.60317275  0.56204295  0.28715822  1
  B  B10  1  0.61615615  0.88722289  0.34864971  1
  B  B11  1  0.65761611  0.69769536  0.11584507  1
  B  B12  1  0.84988241  0.13616952  0.43599885  1
  B  B13  1  0.82670567  0.00793199  0.20225918  1
  B  B14  1  0.95435634  0.75265127  0.04692492  1
  H  H15  1  0.11464688  0.57058248  0.94929430  1
  H  H16  1  0.10959898  0.71157999  0.37909167  1
  H  H17  1  0.20960358  0.81477781  0.89720101  1
  H  H18  1  0.22918640  0.55546962  0.16526939  1
  H  H19  1  0.19685768  0.01789634  0.12470036  1
  H  H20  1  0.28425319  0.75091465  0.24830853  1
  H  H21  1  0.36758826  0.69810120  0.74363038  1
  H  H22  1  0.36665086  0.01751819  0.21554490  1
  H  H23  1  0.37313340  0.95768965  0.40799426  1
  H  H24  1  0.49028074  0.64740139  0.95627646  1
  H  H25  1  0.50971926  0.35259861  0.04372354  1
  H  H26  1  0.62686660  0.04231035  0.59200574  1
  H  H27  1  0.63334914  0.98248181  0.78445510  1
  H  H28  1  0.63241174  0.30189880  0.25636962  1
  H  H29  1  0.71574681  0.24908535  0.75169147  1
  H  H30  1  0.80314232  0.98210366  0.87529964  1
  H  H31  1  0.77081360  0.44453038  0.83473061  1
  H  H32  1  0.79039642  0.18522219  0.10279899  1
  H  H33  1  0.89040102  0.28842001  0.62090833  1
  H  H34  1  0.88535312  0.42941752  0.05070570  1
  O  O35  1  0.04072021  0.07241603  0.88419576  1
  O  O36  1  0.08668686  0.69723070  0.96587632  1
  O  O37  1  0.08563214  0.88274596  0.67932939  1
  O  O38  1  0.06945726  0.72785982  0.46474874  1
  O  O39  1  0.18079871  0.36621362  0.94820099  1
  O  O40  1  0.29314095  0.13721914  0.77382106  1
  O  O41  1  0.28802400  0.88333462  0.85638325  1
  O  O42  1  0.18908071  0.65509659  0.23190807  1
  O  O43  1  0.28605585  0.97386899  0.54825422  1
  O  O44  1  0.38406833  0.27899306  0.61950717  1
  O  O45  1  0.32131824  0.06569316  0.14600336  1
  O  O46  1  0.39629669  0.58958429  0.67592252  1
  O  O47  1  0.46963085  0.25015463  0.96929640  1
  O  O48  1  0.58722934  0.55389193  0.16104444  1
  O  O49  1  0.43272942  0.93567354  0.32742034  1
  O  O50  1  0.56727058  0.06432646  0.67257966  1
  O  O51  1  0.41277066  0.44610807  0.83895556  1
  O  O52  1  0.53036915  0.74984537  0.03070360  1
  O  O53  1  0.60370331  0.41041571  0.32407748  1
  O  O54  1  0.67868176  0.93430684  0.85399664  1
  O  O55  1  0.61593167  0.72100694  0.38049283  1
  O  O56  1  0.71394415  0.02613101  0.45174578  1
  O  O57  1  0.81091929  0.34490341  0.76809193  1
  O  O58  1  0.71197600  0.11666538  0.14361675  1
  O  O59  1  0.70685905  0.86278086  0.22617894  1
  O  O60  1  0.81920129  0.63378638  0.05179901  1
  O  O61  1  0.93054274  0.27214018  0.53525126  1
  O  O62  1  0.91436786  0.11725404  0.32067061  1
  O  O63  1  0.91331314  0.30276930  0.03412368  1
  O  O64  1  0.95927979  0.92758397  0.11580424  1
