# generated using pymatgen
data_Na4P3H3O11
_symmetry_space_group_name_H-M   'P 1'
_cell_length_a   6.95621786
_cell_length_b   12.08497584
_cell_length_c   11.96465956
_cell_angle_alpha   90.00000000
_cell_angle_beta   90.00000000
_cell_angle_gamma   90.00000000
_symmetry_Int_Tables_number   1
_chemical_formula_structural   Na4P3H3O11
_chemical_formula_sum   'Na16 P12 H12 O44'
_cell_volume   1005.81777761
_cell_formula_units_Z   4
loop_
 _symmetry_equiv_pos_site_id
 _symmetry_equiv_pos_as_xyz
  1  'x, y, z'
loop_
 _atom_site_type_symbol
 _atom_site_label
 _atom_site_symmetry_multiplicity
 _atom_site_fract_x
 _atom_site_fract_y
 _atom_site_fract_z
 _atom_site_occupancy
  Na  Na0  1  0.18633327  0.19146984  0.00422567  1
  Na  Na1  1  0.18633327  0.80853016  0.50422567  1
  Na  Na2  1  0.20910713  0.09221718  0.31498154  1
  Na  Na3  1  0.20910713  0.90778282  0.81498154  1
  Na  Na4  1  0.29089287  0.40778282  0.81498154  1
  Na  Na5  1  0.29089287  0.59221718  0.31498154  1
  Na  Na6  1  0.31366673  0.69146984  0.00422567  1
  Na  Na7  1  0.31366673  0.30853016  0.50422567  1
  Na  Na8  1  0.68633327  0.30853016  0.99577433  1
  Na  Na9  1  0.68633327  0.69146984  0.49577433  1
  Na  Na10  1  0.70910713  0.59221718  0.18501846  1
  Na  Na11  1  0.70910713  0.40778282  0.68501846  1
  Na  Na12  1  0.79089287  0.09221718  0.18501846  1
  Na  Na13  1  0.79089287  0.90778282  0.68501846  1
  Na  Na14  1  0.81366673  0.19146984  0.49577433  1
  Na  Na15  1  0.81366673  0.80853016  0.99577433  1
  P  P16  1  0.00000000  0.33812424  0.25000000  1
  P  P17  1  0.00000000  0.66187576  0.75000000  1
  P  P18  1  0.20887741  0.06377469  0.59715840  1
  P  P19  1  0.20887741  0.93622531  0.09715840  1
  P  P20  1  0.29112259  0.43622531  0.09715840  1
  P  P21  1  0.29112259  0.56377469  0.59715840  1
  P  P22  1  0.50000000  0.83812424  0.25000000  1
  P  P23  1  0.50000000  0.16187576  0.75000000  1
  P  P24  1  0.70887741  0.43622531  0.40284160  1
  P  P25  1  0.70887741  0.56377469  0.90284160  1
  P  P26  1  0.79112259  0.06377469  0.90284160  1
  P  P27  1  0.79112259  0.93622531  0.40284160  1
  H  H28  1  0.00000000  0.50000000  0.00000000  1
  H  H29  1  0.00000000  0.50000000  0.50000000  1
  H  H30  1  0.02791959  0.73233033  0.18777348  1
  H  H31  1  0.02791959  0.26766967  0.68777348  1
  H  H32  1  0.47208041  0.23233033  0.18777348  1
  H  H33  1  0.47208041  0.76766967  0.68777348  1
  H  H34  1  0.50000000  0.00000000  0.00000000  1
  H  H35  1  0.50000000  0.00000000  0.50000000  1
  H  H36  1  0.52791959  0.76766967  0.81222652  1
  H  H37  1  0.52791959  0.23233033  0.31222652  1
  H  H38  1  0.97208041  0.26766967  0.81222652  1
  H  H39  1  0.97208041  0.73233033  0.31222652  1
  O  O40  1  0.00000000  0.68015019  0.25000000  1
  O  O41  1  0.00000000  0.31984981  0.75000000  1
  O  O42  1  0.07722676  0.27507498  0.34908580  1
  O  O43  1  0.07722676  0.72492502  0.84908580  1
  O  O44  1  0.09400814  0.03957327  0.12096722  1
  O  O45  1  0.09400814  0.96042673  0.62096722  1
  O  O46  1  0.10290778  0.17378682  0.58597527  1
  O  O47  1  0.10290778  0.82621318  0.08597527  1
  O  O48  1  0.15075001  0.44982714  0.99553638  1
  O  O49  1  0.15075001  0.55017286  0.49553638  1
  O  O50  1  0.15811794  0.42803493  0.21045854  1
  O  O51  1  0.15811794  0.57196507  0.71045854  1
  O  O52  1  0.34188206  0.07196507  0.71045854  1
  O  O53  1  0.34188206  0.92803493  0.21045854  1
  O  O54  1  0.34924999  0.05017286  0.49553638  1
  O  O55  1  0.34924999  0.94982714  0.99553638  1
  O  O56  1  0.39709222  0.32621318  0.08597527  1
  O  O57  1  0.39709222  0.67378682  0.58597527  1
  O  O58  1  0.40599186  0.53957327  0.12096722  1
  O  O59  1  0.40599186  0.46042673  0.62096722  1
  O  O60  1  0.42277324  0.22492502  0.84908580  1
  O  O61  1  0.42277324  0.77507498  0.34908580  1
  O  O62  1  0.50000000  0.18015019  0.25000000  1
  O  O63  1  0.50000000  0.81984981  0.75000000  1
  O  O64  1  0.57722676  0.22492502  0.65091420  1
  O  O65  1  0.57722676  0.77507498  0.15091420  1
  O  O66  1  0.59400814  0.53957327  0.37903278  1
  O  O67  1  0.59400814  0.46042673  0.87903278  1
  O  O68  1  0.60290778  0.32621318  0.41402473  1
  O  O69  1  0.60290778  0.67378682  0.91402473  1
  O  O70  1  0.65075001  0.05017286  0.00446362  1
  O  O71  1  0.65075001  0.94982714  0.50446362  1
  O  O72  1  0.65811794  0.07196507  0.78954146  1
  O  O73  1  0.65811794  0.92803493  0.28954146  1
  O  O74  1  0.84188206  0.42803493  0.28954146  1
  O  O75  1  0.84188206  0.57196507  0.78954146  1
  O  O76  1  0.84924999  0.55017286  0.00446362  1
  O  O77  1  0.84924999  0.44982714  0.50446362  1
  O  O78  1  0.89709222  0.17378682  0.91402473  1
  O  O79  1  0.89709222  0.82621318  0.41402473  1
  O  O80  1  0.90599186  0.03957327  0.37903278  1
  O  O81  1  0.90599186  0.96042673  0.87903278  1
  O  O82  1  0.92277324  0.27507498  0.15091420  1
  O  O83  1  0.92277324  0.72492502  0.65091420  1
