# generated using pymatgen
data_CoPS3
_symmetry_space_group_name_H-M   'P 1'
_cell_length_a   5.77042499
_cell_length_b   5.76961539
_cell_length_c   6.85962210
_cell_angle_alpha   81.91295629
_cell_angle_beta   73.66343166
_cell_angle_gamma   59.99603164
_symmetry_Int_Tables_number   1
_chemical_formula_structural   CoPS3
_chemical_formula_sum   'Co2 P2 S6'
_cell_volume   189.78859386
_cell_formula_units_Z   2
loop_
 _symmetry_equiv_pos_site_id
 _symmetry_equiv_pos_as_xyz
  1  'x, y, z'
loop_
 _atom_site_type_symbol
 _atom_site_label
 _atom_site_symmetry_multiplicity
 _atom_site_fract_x
 _atom_site_fract_y
 _atom_site_fract_z
 _atom_site_occupancy
  Co  Co0  1  0.33328401  0.33342372  0.00000078  1
  Co  Co1  1  0.66671599  0.66657628  -0.00000078  1
  P  P2  1  0.05564573  0.00001059  0.83567951  1
  P  P3  1  0.94435427  -0.00001059  0.16432049  1
  S  S4  1  0.07270049  0.35467826  0.78260801  1
  S  S5  1  0.57261988  0.35467635  0.21739202  1
  S  S6  1  0.28109858  0.99999469  0.21815349  1
  S  S7  1  0.71890142  0.00000531  0.78184651  1
  S  S8  1  0.42738012  0.64532365  0.78260798  1
  S  S9  1  0.92729951  0.64532174  0.21739199  1
