# generated using pymatgen
data_Na5CoO4
_symmetry_space_group_name_H-M   'P 1'
_cell_length_a   10.65766904
_cell_length_b   10.49163148
_cell_length_c   10.36135417
_cell_angle_alpha   90.00000000
_cell_angle_beta   90.00000000
_cell_angle_gamma   90.00000000
_symmetry_Int_Tables_number   1
_chemical_formula_structural   Na5CoO4
_chemical_formula_sum   'Na40 Co8 O32'
_cell_volume   1158.56865932
_cell_formula_units_Z   8
loop_
 _symmetry_equiv_pos_site_id
 _symmetry_equiv_pos_as_xyz
  1  'x, y, z'
loop_
 _atom_site_type_symbol
 _atom_site_label
 _atom_site_symmetry_multiplicity
 _atom_site_fract_x
 _atom_site_fract_y
 _atom_site_fract_z
 _atom_site_occupancy
  Na  Na0  1  0.10505402  0.61395549  0.14826359  1
  Na  Na1  1  0.10505402  0.88604451  0.64826359  1
  Na  Na2  1  0.11272075  0.10629278  0.83754253  1
  Na  Na3  1  0.11272075  0.39370722  0.33754253  1
  Na  Na4  1  0.11722927  0.84498168  0.36469900  1
  Na  Na5  1  0.11722927  0.65501832  0.86469900  1
  Na  Na6  1  0.14742101  0.87955690  0.08974872  1
  Na  Na7  1  0.14742101  0.62044310  0.58974872  1
  Na  Na8  1  0.16144290  0.12130912  0.39956072  1
  Na  Na9  1  0.16144290  0.37869088  0.89955972  1
  Na  Na10  1  0.33855710  0.87869088  0.89955972  1
  Na  Na11  1  0.33855710  0.62130912  0.39956072  1
  Na  Na12  1  0.35257899  0.12044310  0.58974872  1
  Na  Na13  1  0.35257899  0.37955690  0.08974872  1
  Na  Na14  1  0.38277073  0.34498168  0.36469900  1
  Na  Na15  1  0.38277073  0.15501832  0.86469900  1
  Na  Na16  1  0.38727925  0.60629278  0.83754253  1
  Na  Na17  1  0.38727925  0.89370722  0.33754253  1
  Na  Na18  1  0.39494598  0.38604451  0.64826359  1
  Na  Na19  1  0.39494598  0.11395549  0.14826359  1
  Na  Na20  1  0.60505402  0.61395549  0.35173641  1
  Na  Na21  1  0.60505402  0.88604451  0.85173641  1
  Na  Na22  1  0.61272075  0.10629278  0.66245747  1
  Na  Na23  1  0.61272075  0.39370722  0.16245747  1
  Na  Na24  1  0.61722927  0.65501832  0.63530100  1
  Na  Na25  1  0.61722927  0.84498168  0.13530100  1
  Na  Na26  1  0.64742101  0.62044310  0.91025128  1
  Na  Na27  1  0.64742101  0.87955690  0.41025128  1
  Na  Na28  1  0.66144290  0.12130912  0.10044028  1
  Na  Na29  1  0.66144290  0.37869088  0.60044028  1
  Na  Na30  1  0.83855710  0.62130912  0.10044028  1
  Na  Na31  1  0.83855710  0.87869088  0.60044028  1
  Na  Na32  1  0.85257899  0.37955690  0.41025128  1
  Na  Na33  1  0.85257899  0.12044310  0.91025128  1
  Na  Na34  1  0.88277073  0.15501832  0.63530100  1
  Na  Na35  1  0.88277073  0.34498168  0.13530100  1
  Na  Na36  1  0.88727925  0.60629278  0.66245747  1
  Na  Na37  1  0.88727925  0.89370722  0.16245747  1
  Na  Na38  1  0.89494598  0.11395549  0.35173641  1
  Na  Na39  1  0.89494598  0.38604451  0.85173641  1
  Co  Co40  1  0.12583989  0.14774279  0.11652523  1
  Co  Co41  1  0.12583989  0.35225721  0.61652523  1
  Co  Co42  1  0.37416011  0.64774279  0.11652523  1
  Co  Co43  1  0.37416011  0.85225721  0.61652523  1
  Co  Co44  1  0.62583989  0.14774279  0.38347477  1
  Co  Co45  1  0.62583989  0.35225721  0.88347477  1
  Co  Co46  1  0.87416011  0.64774279  0.38347477  1
  Co  Co47  1  0.87416011  0.85225721  0.88347477  1
  O  O48  1  0.02104907  0.26319588  0.50336573  1
  O  O49  1  0.02104907  0.23680412  0.00336573  1
  O  O50  1  0.05111224  0.02408848  0.23074648  1
  O  O51  1  0.05111224  0.47591152  0.73074648  1
  O  O52  1  0.24239279  0.05254535  0.00505764  1
  O  O53  1  0.24239279  0.44745465  0.50505764  1
  O  O54  1  0.23507800  0.24451711  0.22500298  1
  O  O55  1  0.23507800  0.25548289  0.72500298  1
  O  O56  1  0.26492200  0.74451711  0.22500298  1
  O  O57  1  0.26492200  0.75548289  0.72500298  1
  O  O58  1  0.25760721  0.55254535  0.00505764  1
  O  O59  1  0.25760721  0.94745465  0.50505764  1
  O  O60  1  0.44888776  0.52408848  0.23074648  1
  O  O61  1  0.44888776  0.97591152  0.73074648  1
  O  O62  1  0.47895093  0.76319588  0.50336573  1
  O  O63  1  0.47895093  0.73680412  0.00336573  1
  O  O64  1  0.52104907  0.26319588  0.99663427  1
  O  O65  1  0.52104907  0.23680412  0.49663427  1
  O  O66  1  0.55111224  0.02408848  0.26925352  1
  O  O67  1  0.55111224  0.47591152  0.76925352  1
  O  O68  1  0.74239279  0.05254535  0.49494236  1
  O  O69  1  0.74239279  0.44745465  0.99494236  1
  O  O70  1  0.73507800  0.24451711  0.27499702  1
  O  O71  1  0.73507800  0.25548289  0.77499702  1
  O  O72  1  0.76492200  0.74451711  0.27499702  1
  O  O73  1  0.76492200  0.75548289  0.77499702  1
  O  O74  1  0.75760721  0.94745465  0.99494236  1
  O  O75  1  0.75760721  0.55254535  0.49494236  1
  O  O76  1  0.94888776  0.97591152  0.76925352  1
  O  O77  1  0.94888776  0.52408848  0.26925352  1
  O  O78  1  0.97895093  0.76319588  0.99663427  1
  O  O79  1  0.97895093  0.73680412  0.49663427  1
