# generated using pymatgen
data_Na5Ni2P2(CO7)2
_symmetry_space_group_name_H-M   'P 1'
_cell_length_a   10.11685453
_cell_length_b   10.38428052
_cell_length_c   8.44879777
_cell_angle_alpha   108.93573775
_cell_angle_beta   72.43714231
_cell_angle_gamma   61.01041275
_symmetry_Int_Tables_number   1
_chemical_formula_structural   Na5Ni2P2(CO7)2
_chemical_formula_sum   'Na10 Ni4 P4 C4 O28'
_cell_volume   610.98782710
_cell_formula_units_Z   2
loop_
 _symmetry_equiv_pos_site_id
 _symmetry_equiv_pos_as_xyz
  1  'x, y, z'
loop_
 _atom_site_type_symbol
 _atom_site_label
 _atom_site_symmetry_multiplicity
 _atom_site_fract_x
 _atom_site_fract_y
 _atom_site_fract_z
 _atom_site_occupancy
  Na  Na0  1  0.75525505  0.97370235  0.48683926  1
  Na  Na1  1  0.99809586  0.73901808  0.00721019  1
  Na  Na2  1  0.74474495  0.52629765  0.51316074  1
  Na  Na3  1  0.50190414  0.76098192  0.99278981  1
  Na  Na4  1  0.77564875  0.30797773  0.75185181  1
  Na  Na5  1  0.72435125  0.19202227  0.24814819  1
  Na  Na6  1  0.47982881  0.25098588  0.01437605  1
  Na  Na7  1  0.24395037  0.49641919  0.49260391  1
  Na  Na8  1  0.02017119  0.24901412  0.98562395  1
  Na  Na9  1  0.25604963  0.00358081  0.50739609  1
  Ni  Ni10  1  0.83986473  0.81413088  0.75110711  1
  Ni  Ni11  1  0.66013527  0.68586912  0.24889289  1
  Ni  Ni12  1  0.34270969  0.31087798  0.74856022  1
  Ni  Ni13  1  0.15729031  0.18912202  0.25143978  1
  P  P14  1  0.47443300  0.94416901  0.74965763  1
  P  P15  1  0.97517310  0.44393125  0.75035670  1
  P  P16  1  0.02556700  0.55583099  0.25034237  1
  P  P17  1  0.52482690  0.05606875  0.24964330  1
  C  C18  1  0.94757315  0.98816277  0.75013275  1
  C  C19  1  0.55242685  0.51183723  0.24986725  1
  C  C20  1  0.45039625  0.48517548  0.74944463  1
  C  C21  1  0.04960375  0.01482452  0.25055537  1
  O  O22  1  0.98805196  0.93364524  0.25276940  1
  O  O23  1  0.70285125  0.97860417  0.06404378  1
  O  O24  1  0.97930287  0.59035303  0.75147462  1
  O  O25  1  0.85984381  0.68514264  0.24807489  1
  O  O26  1  0.64015619  0.81485736  0.75192511  1
  O  O27  1  0.52069713  0.90964697  0.24852538  1
  O  O28  1  0.48729042  0.83639335  0.56108449  1
  O  O29  1  0.79714875  0.52139583  0.93595622  1
  O  O30  1  0.98023425  0.33828788  0.56623534  1
  O  O31  1  0.19411130  0.96657857  0.25090865  1
  O  O32  1  0.69919646  0.46016219  0.24926326  1
  O  O33  1  0.47190416  0.65270715  0.24822775  1
  O  O34  1  0.96484474  0.15913407  0.25276100  1
  O  O35  1  0.51194804  0.56635476  0.74723060  1
  O  O36  1  0.49875017  0.42294539  0.24712737  1
  O  O37  1  0.02809584  0.84729285  0.75177225  1
  O  O38  1  0.53515526  0.34086593  0.74723900  1
  O  O39  1  0.30588870  0.53342143  0.74909135  1
  O  O40  1  0.80080354  0.03983781  0.75073674  1
  O  O41  1  0.01270958  0.66360665  0.43891551  1
  O  O42  1  0.20261362  0.47370700  0.06272918  1
  O  O43  1  0.51976575  0.16171212  0.43376466  1
  O  O44  1  0.48178045  0.08934812  0.74858830  1
  O  O45  1  0.35873658  0.18785508  0.25179996  1
  O  O46  1  0.14126342  0.31214492  0.74820004  1
  O  O47  1  0.01821955  0.41065188  0.25141170  1
  O  O48  1  0.29738638  0.02629300  0.93727082  1
  O  O49  1  0.00124983  0.07705461  0.75287263  1
