# generated using pymatgen
data_Li4Mn3Cr3(SnO8)2
_symmetry_space_group_name_H-M   'P 1'
_cell_length_a   5.93930620
_cell_length_b   5.99312526
_cell_length_c   9.71241081
_cell_angle_alpha   89.96401628
_cell_angle_beta   89.43329634
_cell_angle_gamma   120.28189317
_symmetry_Int_Tables_number   1
_chemical_formula_structural   Li4Mn3Cr3(SnO8)2
_chemical_formula_sum   'Li4 Mn3 Cr3 Sn2 O16'
_cell_volume   298.52153479
_cell_formula_units_Z   1
loop_
 _symmetry_equiv_pos_site_id
 _symmetry_equiv_pos_as_xyz
  1  'x, y, z'
loop_
 _atom_site_type_symbol
 _atom_site_label
 _atom_site_symmetry_multiplicity
 _atom_site_fract_x
 _atom_site_fract_y
 _atom_site_fract_z
 _atom_site_occupancy
  Li  Li0  1  0.34109760  0.67069180  0.89261333  1
  Li  Li1  1  0.99929111  0.99961519  0.99417577  1
  Li  Li2  1  0.99406853  0.99705214  0.49456310  1
  Li  Li3  1  0.67157305  0.33581263  0.38989815  1
  Mn  Mn4  1  0.66142390  0.83066450  0.21517897  1
  Mn  Mn5  1  0.83112036  0.65983592  0.71516947  1
  Mn  Mn6  1  0.83130057  0.17133797  0.71507453  1
  Cr  Cr7  1  0.16940318  0.83082838  0.21481966  1
  Cr  Cr8  1  0.16945585  0.33858848  0.21480663  1
  Cr  Cr9  1  0.33769847  0.16882826  0.71510264  1
  Sn  Sn10  1  0.32848846  0.66405002  0.49086997  1
  Sn  Sn11  1  0.66646950  0.33320675  0.99314888  1
  O  O12  1  0.15411679  0.83737394  0.60093433  1
  O  O13  1  0.03524051  0.51762188  0.33853893  1
  O  O14  1  0.34558216  0.67282030  0.11002764  1
  O  O15  1  0.99047817  0.99521760  0.30921014  1
  O  O16  1  0.98843425  0.99391746  0.80756639  1
  O  O17  1  0.15417029  0.31674225  0.60081349  1
  O  O18  1  0.48944294  0.96677487  0.33452408  1
  O  O19  1  0.48944633  0.52267699  0.33445742  1
  O  O20  1  0.31846964  0.15929949  0.09768182  1
  O  O21  1  0.67112026  0.83472141  0.60160975  1
  O  O22  1  0.52154617  0.48476198  0.83499874  1
  O  O23  1  0.52151579  0.03689594  0.83518179  1
  O  O24  1  0.67653759  0.33861698  0.61011466  1
  O  O25  1  0.83521081  0.68112847  0.10173555  1
  O  O26  1  0.97197513  0.48700984  0.84332067  1
  O  O27  1  0.83532160  0.15420659  0.10170448  1
