# generated using pymatgen
data_Na3Mn2P2(CO7)2
_symmetry_space_group_name_H-M   'P 1'
_cell_length_a   8.97902213
_cell_length_b   6.58578714
_cell_length_c   10.38326276
_cell_angle_alpha   90.00000000
_cell_angle_beta   88.48816082
_cell_angle_gamma   90.00000000
_symmetry_Int_Tables_number   1
_chemical_formula_structural   Na3Mn2P2(CO7)2
_chemical_formula_sum   'Na6 Mn4 P4 C4 O28'
_cell_volume   613.78937970
_cell_formula_units_Z   2
loop_
 _symmetry_equiv_pos_site_id
 _symmetry_equiv_pos_as_xyz
  1  'x, y, z'
loop_
 _atom_site_type_symbol
 _atom_site_label
 _atom_site_symmetry_multiplicity
 _atom_site_fract_x
 _atom_site_fract_y
 _atom_site_fract_z
 _atom_site_occupancy
  Na  Na0  1  0.24045097  0.47407267  0.61910206  1
  Na  Na1  1  0.24152044  0.01092749  0.12699500  1
  Na  Na2  1  0.24051111  0.49225432  0.12246085  1
  Na  Na3  1  0.75847956  0.51092749  0.87300500  1
  Na  Na4  1  0.75948889  0.99225432  0.87753915  1
  Na  Na5  1  0.75954903  0.97407267  0.38089794  1
  Mn  Mn6  1  0.34763136  0.75686680  0.88849850  1
  Mn  Mn7  1  0.34604432  0.75660623  0.39575877  1
  Mn  Mn8  1  0.65395568  0.25660623  0.60424123  1
  Mn  Mn9  1  0.65236864  0.25686680  0.11150150  1
  P  P10  1  0.42762507  0.25385746  0.85711285  1
  P  P11  1  0.42525117  0.25039456  0.35710508  1
  P  P12  1  0.57474883  0.75039456  0.64289492  1
  P  P13  1  0.57237493  0.75385746  0.14288715  1
  C  C14  1  0.07755869  0.75015654  0.86466520  1
  C  C15  1  0.07652372  0.74455345  0.36605739  1
  C  C16  1  0.92347628  0.24455345  0.63394261  1
  C  C17  1  0.92244131  0.25015654  0.13533480  1
  O  O18  1  0.05886459  0.24521038  0.64990066  1
  O  O19  1  0.06079516  0.24996716  0.14392019  1
  O  O20  1  0.14578020  0.75681846  0.97620774  1
  O  O21  1  0.14260409  0.74293701  0.47737691  1
  O  O22  1  0.17296687  0.74400176  0.76757402  1
  O  O23  1  0.17805950  0.74762653  0.26929166  1
  O  O24  1  0.33255750  0.06749200  0.89605602  1
  O  O25  1  0.33132983  0.44092678  0.89444658  1
  O  O26  1  0.32437247  0.06382966  0.38114805  1
  O  O27  1  0.33049877  0.43917213  0.39243741  1
  O  O28  1  0.46721027  0.25937471  0.71030141  1
  O  O29  1  0.42770443  0.73928444  0.57068963  1
  O  O30  1  0.46259684  0.25764121  0.20732038  1
  O  O31  1  0.42235689  0.75392824  0.07040386  1
  O  O32  1  0.57764311  0.25392824  0.92959614  1
  O  O33  1  0.53740316  0.75764121  0.79267962  1
  O  O34  1  0.57229557  0.23928444  0.42931037  1
  O  O35  1  0.53278973  0.75937471  0.28969859  1
  O  O36  1  0.67562753  0.56382966  0.61885195  1
  O  O37  1  0.66950123  0.93917213  0.60756259  1
  O  O38  1  0.66744250  0.56749200  0.10394398  1
  O  O39  1  0.66867017  0.94092678  0.10555342  1
  O  O40  1  0.82194050  0.24762653  0.73070834  1
  O  O41  1  0.82703313  0.24400176  0.23242598  1
  O  O42  1  0.85739591  0.24293701  0.52262309  1
  O  O43  1  0.85421980  0.25681846  0.02379226  1
  O  O44  1  0.93920484  0.74996716  0.85607981  1
  O  O45  1  0.94113541  0.74521038  0.35009934  1
