# generated using pymatgen
data_NaMnPCO7
_symmetry_space_group_name_H-M   'P 1'
_cell_length_a   8.15845433
_cell_length_b   8.14249363
_cell_length_c   10.75754886
_cell_angle_alpha   69.33964130
_cell_angle_beta   108.69585510
_cell_angle_gamma   79.90960130
_symmetry_Int_Tables_number   1
_chemical_formula_structural   NaMnPCO7
_chemical_formula_sum   'Na4 Mn4 P4 C4 O28'
_cell_volume   598.93938762
_cell_formula_units_Z   4
loop_
 _symmetry_equiv_pos_site_id
 _symmetry_equiv_pos_as_xyz
  1  'x, y, z'
loop_
 _atom_site_type_symbol
 _atom_site_label
 _atom_site_symmetry_multiplicity
 _atom_site_fract_x
 _atom_site_fract_y
 _atom_site_fract_z
 _atom_site_occupancy
  Na  Na0  1  0.02326740  0.01900050  0.75727707  1
  Na  Na1  1  0.72757690  0.72378869  0.75693300  1
  Na  Na2  1  0.48298180  0.48846342  0.23644432  1
  Na  Na3  1  0.98166038  0.98581709  0.23731842  1
  Mn  Mn4  1  0.58910064  0.16071046  0.65587281  1
  Mn  Mn5  1  0.10138674  0.64832735  0.65939619  1
  Mn  Mn6  1  0.91151280  0.35196936  0.34313819  1
  Mn  Mn7  1  0.41065687  0.85166845  0.34288048  1
  P  P8  1  0.77024897  0.48298005  0.56532621  1
  P  P9  1  0.26826511  0.98032703  0.56558270  1
  P  P10  1  0.73621519  0.01970600  0.43604253  1
  P  P11  1  0.23199605  0.52381464  0.43325358  1
  C  C12  1  0.69242020  0.04952836  0.91691065  1
  C  C13  1  0.19427395  0.54825107  0.91984661  1
  C  C14  1  0.80177804  0.44448711  0.08335182  1
  C  C15  1  0.30728920  0.95170727  0.08253687  1
  O  O16  1  0.25355702  0.99651431  0.95092499  1
  O  O17  1  0.74618799  0.48700429  0.95185794  1
  O  O18  1  0.27449169  0.46598237  0.85992104  1
  O  O19  1  0.77254157  0.96853952  0.85350545  1
  O  O20  1  0.54798654  0.19339535  0.81614291  1
  O  O21  1  0.04765929  0.69471699  0.81502342  1
  O  O22  1  0.94391743  0.49838966  0.66684875  1
  O  O23  1  0.75941234  0.29773300  0.66740209  1
  O  O24  1  0.45026060  0.99166453  0.66109386  1
  O  O25  1  0.25325003  0.80345019  0.67318757  1
  O  O26  1  0.73117370  0.02202770  0.57801170  1
  O  O27  1  0.10203351  0.14834287  0.52239096  1
  O  O28  1  0.60274995  0.64950434  0.52219233  1
  O  O29  1  0.22174494  0.53122506  0.57042551  1
  O  O30  1  0.77694097  0.47551434  0.42629530  1
  O  O31  1  0.90631104  0.85747139  0.47792390  1
  O  O32  1  0.40317530  0.36033818  0.47673228  1
  O  O33  1  0.27123193  0.96861879  0.42692756  1
  O  O34  1  0.55741136  0.00886044  0.33754720  1
  O  O35  1  0.74542044  0.20562700  0.33418467  1
  O  O36  1  0.05769753  0.50855468  0.33196238  1
  O  O37  1  0.24566970  0.70559937  0.32870842  1
  O  O38  1  0.94925600  0.30221075  0.18592229  1
  O  O39  1  0.45391354  0.80808146  0.18526753  1
  O  O40  1  0.72524018  0.53116822  0.14372259  1
  O  O41  1  0.22854055  0.03521791  0.14366696  1
  O  O42  1  0.74644625  0.99839040  0.04927618  1
  O  O43  1  0.24304936  0.50321405  0.05082578  1
