# generated using pymatgen
data_NaMnPCO7
_symmetry_space_group_name_H-M   'P 1'
_cell_length_a   9.08028478
_cell_length_b   6.25515589
_cell_length_c   10.44533697
_cell_angle_alpha   90.00000000
_cell_angle_beta   88.12736979
_cell_angle_gamma   90.00000000
_symmetry_Int_Tables_number   1
_chemical_formula_structural   NaMnPCO7
_chemical_formula_sum   'Na4 Mn4 P4 C4 O28'
_cell_volume   592.96363586
_cell_formula_units_Z   4
loop_
 _symmetry_equiv_pos_site_id
 _symmetry_equiv_pos_as_xyz
  1  'x, y, z'
loop_
 _atom_site_type_symbol
 _atom_site_label
 _atom_site_symmetry_multiplicity
 _atom_site_fract_x
 _atom_site_fract_y
 _atom_site_fract_z
 _atom_site_occupancy
  Na  Na0  1  0.24044861  0.03045290  0.62429052  1
  Na  Na1  1  0.24044861  0.46954710  0.12429052  1
  Na  Na2  1  0.75955139  0.96954710  0.87570948  1
  Na  Na3  1  0.75955139  0.53045290  0.37570948  1
  Mn  Mn4  1  0.34218550  0.74987829  0.89138886  1
  Mn  Mn5  1  0.34218550  0.75012171  0.39138886  1
  Mn  Mn6  1  0.65781450  0.25012171  0.60861114  1
  Mn  Mn7  1  0.65781450  0.24987829  0.10861114  1
  P  P8  1  0.43299040  0.24879984  0.85862747  1
  P  P9  1  0.43299040  0.25120016  0.35862747  1
  P  P10  1  0.56700960  0.75120016  0.64137253  1
  P  P11  1  0.56700960  0.74879984  0.14137253  1
  C  C12  1  0.07734182  0.74024780  0.86479500  1
  C  C13  1  0.07734182  0.75975220  0.36479500  1
  C  C14  1  0.92265818  0.25975220  0.63520500  1
  C  C15  1  0.92265818  0.24024780  0.13520500  1
  O  O16  1  0.05613316  0.26244283  0.65012614  1
  O  O17  1  0.05613316  0.23755717  0.15012614  1
  O  O18  1  0.14200014  0.73883619  0.97619289  1
  O  O19  1  0.14200014  0.76116381  0.47619289  1
  O  O20  1  0.17843960  0.74700184  0.76995439  1
  O  O21  1  0.17843960  0.75299816  0.26995439  1
  O  O22  1  0.32834881  0.05634143  0.88432291  1
  O  O23  1  0.33350095  0.44091768  0.89691668  1
  O  O24  1  0.33350095  0.05908232  0.39691668  1
  O  O25  1  0.32834881  0.44365857  0.38432291  1
  O  O26  1  0.47569865  0.25079446  0.71311750  1
  O  O27  1  0.42591686  0.75973180  0.56436397  1
  O  O28  1  0.47569865  0.24920554  0.21311750  1
  O  O29  1  0.42591686  0.74026820  0.06436397  1
  O  O30  1  0.57408314  0.24026820  0.93563603  1
  O  O31  1  0.52430135  0.74920554  0.78688250  1
  O  O32  1  0.57408314  0.25973180  0.43563603  1
  O  O33  1  0.52430135  0.75079446  0.28688250  1
  O  O34  1  0.66649905  0.55908232  0.60308332  1
  O  O35  1  0.67165119  0.94365857  0.61567709  1
  O  O36  1  0.67165119  0.55634143  0.11567809  1
  O  O37  1  0.66649905  0.94091768  0.10308332  1
  O  O38  1  0.82156040  0.25299816  0.73004561  1
  O  O39  1  0.82156040  0.24700184  0.23004561  1
  O  O40  1  0.85799986  0.26116381  0.52380711  1
  O  O41  1  0.85799986  0.23883619  0.02380711  1
  O  O42  1  0.94386684  0.73755717  0.84987386  1
  O  O43  1  0.94386684  0.76244283  0.34987386  1
