# generated using pymatgen
data_SrLa11Mg3Ga9O34
_symmetry_space_group_name_H-M   'P 1'
_cell_length_a   5.58448634
_cell_length_b   5.62461553
_cell_length_c   33.64216622
_cell_angle_alpha   59.82736602
_cell_angle_beta   59.59824908
_cell_angle_gamma   59.68065990
_symmetry_Int_Tables_number   1
_chemical_formula_structural   SrLa11Mg3Ga9O34
_chemical_formula_sum   'Sr1 La11 Mg3 Ga9 O34'
_cell_volume   742.15160014
_cell_formula_units_Z   1
loop_
 _symmetry_equiv_pos_site_id
 _symmetry_equiv_pos_as_xyz
  1  'x, y, z'
loop_
 _atom_site_type_symbol
 _atom_site_label
 _atom_site_symmetry_multiplicity
 _atom_site_fract_x
 _atom_site_fract_y
 _atom_site_fract_z
 _atom_site_occupancy
  Sr  Sr0  1  0.23307035  0.75102315  0.13058693  1
  La  La1  1  0.74031697  0.28490805  0.03830335  1
  La  La2  1  0.25637685  0.69508207  0.29788819  1
  La  La3  1  0.73648747  0.28213309  0.20693576  1
  La  La4  1  0.25138661  0.73990791  0.45941948  1
  La  La5  1  0.75624775  0.24725832  0.37319557  1
  La  La6  1  0.25000196  0.74099848  0.62645459  1
  La  La7  1  0.74894395  0.25793404  0.54077609  1
  La  La8  1  0.24890755  0.73995942  0.79362783  1
  La  La9  1  0.74984052  0.25904167  0.70693904  1
  La  La10  1  0.25683064  0.73937627  0.95847541  1
  La  La11  1  0.75391201  0.26209872  0.87179560  1
  Mg  Mg12  1  0.52693681  0.97988315  0.99431052  1
  Mg  Mg13  1  0.52153309  0.98750521  0.16113764  1
  Mg  Mg14  1  0.97317788  0.53775647  0.25265332  1
  Ga  Ga15  1  0.96971607  0.53689755  0.08751980  1
  Ga  Ga16  1  0.00021161  0.50015045  0.58323186  1
  Ga  Ga17  1  0.49973816  0.99951766  0.50015593  1
  Ga  Ga18  1  0.50532334  0.99422423  0.33300838  1
  Ga  Ga19  1  0.49966989  0.99987820  0.66682632  1
  Ga  Ga20  1  0.99884315  0.49561245  0.41777808  1
  Ga  Ga21  1  0.50115486  0.99787275  0.83326212  1
  Ga  Ga22  1  0.00072697  0.50076864  0.74956844  1
  Ga  Ga23  1  0.99803074  0.49769680  0.91791153  1
  O  O24  1  0.29425620  0.69080700  0.03225700  1
  O  O25  1  0.20567182  0.30445923  0.13010175  1
  O  O26  1  0.29119369  0.70493523  0.20235929  1
  O  O27  1  0.80852261  0.67279281  0.03601113  1
  O  O28  1  0.21703088  0.29621617  0.29821588  1
  O  O29  1  0.71408430  0.28692710  0.13638166  1
  O  O30  1  0.25344036  0.17130974  0.38733280  1
  O  O31  1  0.75502264  0.86288909  0.10506574  1
  O  O32  1  0.28458009  0.70530207  0.36657202  1
  O  O33  1  0.77754141  0.67855276  0.20536105  1
  O  O34  1  0.21583625  0.30562447  0.46446339  1
  O  O35  1  0.73141682  0.26593267  0.30113068  1
  O  O36  1  0.25030814  0.16737854  0.55532687  1
  O  O37  1  0.73335383  0.85144894  0.27955952  1
  O  O38  1  0.28371989  0.71582971  0.53186554  1
  O  O39  1  0.78522393  0.68161872  0.37047671  1
  O  O40  1  0.21771790  0.30710402  0.63039502  1
  O  O41  1  0.71769826  0.28131415  0.46824335  1
  O  O42  1  0.25022618  0.16762740  0.72200334  1
  O  O43  1  0.74992340  0.83081727  0.44485411  1
  O  O44  1  0.28459043  0.71585492  0.69861184  1
  O  O45  1  0.78453432  0.69273576  0.53576460  1
  O  O46  1  0.21818746  0.30590714  0.79710186  1
  O  O47  1  0.71693020  0.28410169  0.63423921  1
  O  O48  1  0.24452769  0.17517062  0.88913454  1
  O  O49  1  0.75047596  0.83126775  0.61133747  1
  O  O50  1  0.29052091  0.71270411  0.86506685  1
  O  O51  1  0.78430725  0.69304921  0.70239467  1
  O  O52  1  0.20200180  0.30840594  0.96779689  1
  O  O53  1  0.71629588  0.28351540  0.80060045  1
  O  O54  1  0.75237486  0.83136643  0.77742903  1
  O  O55  1  0.78316303  0.69220161  0.86888136  1
  O  O56  1  0.69599447  0.28984912  0.97098796  1
  O  O57  1  0.76194193  0.83189846  0.94018164  1
