# generated using pymatgen
data_NaScP2(HO4)2
_symmetry_space_group_name_H-M   'P 1'
_cell_length_a   9.77250474
_cell_length_b   9.77250474
_cell_length_c   9.18436067
_cell_angle_alpha   73.12987162
_cell_angle_beta   106.87012838
_cell_angle_gamma   64.92808094
_symmetry_Int_Tables_number   1
_chemical_formula_structural   NaScP2(HO4)2
_chemical_formula_sum   'Na4 Sc4 P8 H8 O32'
_cell_volume   668.35403739
_cell_formula_units_Z   4
loop_
 _symmetry_equiv_pos_site_id
 _symmetry_equiv_pos_as_xyz
  1  'x, y, z'
loop_
 _atom_site_type_symbol
 _atom_site_label
 _atom_site_symmetry_multiplicity
 _atom_site_fract_x
 _atom_site_fract_y
 _atom_site_fract_z
 _atom_site_occupancy
  Na  Na0  1  0.21456633  0.13142146  0.63439446  1
  Na  Na1  1  0.79153932  0.58541323  0.71381838  1
  Na  Na2  1  0.86857854  0.78543367  0.13439446  1
  Na  Na3  1  0.41458677  0.20846068  0.21381838  1
  Sc  Sc4  1  0.58422524  0.63921944  0.96338760  1
  Sc  Sc5  1  0.36078056  0.41577476  0.46338760  1
  Sc  Sc6  1  0.86380245  0.86701052  0.49717179  1
  Sc  Sc7  1  0.13298948  0.13619755  0.99717179  1
  P  P8  1  0.15505472  0.84237801  0.84783113  1
  P  P9  1  0.58068607  0.96835622  0.67423364  1
  P  P10  1  0.15762199  0.84494528  0.34783113  1
  P  P11  1  0.17990156  0.43465929  0.74603040  1
  P  P12  1  0.03164378  0.41931393  0.17423364  1
  P  P13  1  0.56534071  0.82009844  0.24603040  1
  P  P14  1  0.69121177  0.33993098  0.81928294  1
  P  P15  1  0.66006902  0.30878823  0.31928294  1
  H  H16  1  0.32735798  0.50988835  0.89900141  1
  H  H17  1  0.34673117  0.78125952  0.59548925  1
  H  H18  1  0.49011165  0.67264202  0.39900141  1
  H  H19  1  0.21874048  0.65326883  0.09548925  1
  H  H20  1  0.68120097  0.09047212  0.79334435  1
  H  H21  1  0.87347106  0.16052929  0.57947617  1
  H  H22  1  0.90952788  0.31879903  0.29334435  1
  H  H23  1  0.83947071  0.12652894  0.07947617  1
  O  O24  1  0.16482675  0.98989297  0.86492969  1
  O  O25  1  0.11443815  0.75413066  0.99087648  1
  O  O26  1  0.00232914  0.91808460  0.67181955  1
  O  O27  1  0.00847230  0.60451484  0.67200475  1
  O  O28  1  0.32708241  0.70041530  0.87485589  1
  O  O29  1  0.01010703  0.83517325  0.36492969  1
  O  O30  1  0.24586934  0.88556185  0.49087648  1
  O  O31  1  0.69590405  0.97667676  0.83334924  1
  O  O32  1  0.08191540  0.99767086  0.17181955  1
  O  O33  1  0.51140322  0.86707972  0.75096117  1
  O  O34  1  0.31691121  0.40960115  0.91625071  1
  O  O35  1  0.16600355  0.28013147  0.80686457  1
  O  O36  1  0.24626880  0.43329330  0.61445440  1
  O  O37  1  0.39548516  0.99152770  0.17200475  1
  O  O38  1  0.69398218  0.87704292  0.60466809  1
  O  O39  1  0.29958470  0.67291759  0.37485589  1
  O  O40  1  0.58997461  0.52229222  0.79752655  1
  O  O41  1  0.02332324  0.30409595  0.33334924  1
  O  O42  1  0.13292028  0.48859678  0.25096117  1
  O  O43  1  0.59039885  0.68308879  0.41625071  1
  O  O44  1  0.71894279  0.19728285  0.98585418  1
  O  O45  1  0.71986853  0.83399645  0.30686457  1
  O  O46  1  0.59342351  0.32131516  0.66949469  1
  O  O47  1  0.56670670  0.75373120  0.11445440  1
  O  O48  1  0.12295708  0.30601782  0.10466809  1
  O  O49  1  0.43291235  0.15528595  0.53615562  1
  O  O50  1  0.47770778  0.41002539  0.29752655  1
  O  O51  1  0.86810471  0.29696211  0.83936591  1
  O  O52  1  0.80271715  0.28105721  0.48585418  1
  O  O53  1  0.67868484  0.40657649  0.16949469  1
  O  O54  1  0.84471405  0.56708765  0.03615562  1
  O  O55  1  0.70303789  0.13189529  0.33936591  1
