# generated using pymatgen
data_MnVP2(O4F)2
_symmetry_space_group_name_H-M   'P 1'
_cell_length_a   5.11388682
_cell_length_b   5.21195687
_cell_length_c   7.36427369
_cell_angle_alpha   108.44120551
_cell_angle_beta   104.91855091
_cell_angle_gamma   95.49953442
_symmetry_Int_Tables_number   1
_chemical_formula_structural   MnVP2(O4F)2
_chemical_formula_sum   'Mn1 V1 P2 O8 F2'
_cell_volume   176.53018283
_cell_formula_units_Z   1
loop_
 _symmetry_equiv_pos_site_id
 _symmetry_equiv_pos_as_xyz
  1  'x, y, z'
loop_
 _atom_site_type_symbol
 _atom_site_label
 _atom_site_symmetry_multiplicity
 _atom_site_fract_x
 _atom_site_fract_y
 _atom_site_fract_z
 _atom_site_occupancy
  Mn  Mn0  1  0.50000000  0.50000000  0.50000000  1
  V  V1  1  0.00000000  0.00000000  0.00000000  1
  P  P2  1  0.43585169  0.11616563  0.75784254  1
  P  P3  1  0.56414831  0.88383437  0.24215746  1
  O  O4  1  0.27497836  0.14346243  0.91555948  1
  O  O5  1  0.35120321  0.82250889  0.60540811  1
  O  O6  1  0.36257781  0.33356905  0.66564395  1
  O  O7  1  0.24960479  0.81519813  0.12364474  1
  O  O8  1  0.75039521  0.18480187  0.87635526  1
  O  O9  1  0.63742219  0.66643095  0.33435605  1
  O  O10  1  0.64879679  0.17749111  0.39459189  1
  O  O11  1  0.72502164  0.85653757  0.08444052  1
  F  F12  1  0.11521375  0.30083715  0.23757212  1
  F  F13  1  0.88478625  0.69916285  0.76242788  1
