# generated using pymatgen
data_Li32Mn11Cr5O48
_symmetry_space_group_name_H-M   'P 1'
_cell_length_a   5.00668737
_cell_length_b   5.00652211
_cell_length_c   38.44843430
_cell_angle_alpha   88.97610104
_cell_angle_beta   91.02927402
_cell_angle_gamma   60.32778892
_symmetry_Int_Tables_number   1
_chemical_formula_structural   Li32Mn11Cr5O48
_chemical_formula_sum   'Li32 Mn11 Cr5 O48'
_cell_volume   836.84433540
_cell_formula_units_Z   1
loop_
 _symmetry_equiv_pos_site_id
 _symmetry_equiv_pos_as_xyz
  1  'x, y, z'
loop_
 _atom_site_type_symbol
 _atom_site_label
 _atom_site_symmetry_multiplicity
 _atom_site_fract_x
 _atom_site_fract_y
 _atom_site_fract_z
 _atom_site_occupancy
  Li  Li0  1  0.08576795  0.09172748  0.24998246  1
  Li  Li1  1  0.00119852  0.50005991  0.99988443  1
  Li  Li2  1  0.06036346  0.43589264  0.18754482  1
  Li  Li3  1  0.12590844  0.37489346  0.37492019  1
  Li  Li4  1  0.18535379  0.30984950  0.56249727  1
  Li  Li5  1  0.25077162  0.24937795  0.74985540  1
  Li  Li6  1  0.31250882  0.18756319  0.93751285  1
  Li  Li7  1  0.02964667  0.79253420  0.12504218  1
  Li  Li8  1  0.37450747  0.12515721  0.12514034  1
  Li  Li9  1  0.16109515  0.66280763  0.50005731  1
  Li  Li10  1  0.28989004  0.53398941  0.87507421  1
  Li  Li11  1  0.43747876  0.06232637  0.31251803  1
  Li  Li12  1  0.50078876  0.99868926  0.49994960  1
  Li  Li13  1  0.41629316  0.40825624  0.25018576  1
  Li  Li14  1  0.53941544  0.28464285  0.62498064  1
  Li  Li15  1  0.21230401  0.96580679  0.62513369  1
  Li  Li16  1  0.33310673  0.84278884  0.99976311  1
  Li  Li17  1  0.66471239  0.15704912  0.99996054  1
  Li  Li18  1  0.78320959  0.03985359  0.37478975  1
  Li  Li19  1  0.46637033  0.71070286  0.37502504  1
  Li  Li20  1  0.59116140  0.58699544  0.74977150  1
  Li  Li21  1  0.56255522  0.93756299  0.68746814  1
  Li  Li22  1  0.72089319  0.45692792  0.12526318  1
  Li  Li23  1  0.83839872  0.33978030  0.49991300  1
  Li  Li24  1  0.62479275  0.87500250  0.87510185  1
  Li  Li25  1  0.96117141  0.21613482  0.87521640  1
  Li  Li26  1  0.68987954  0.81494613  0.06241488  1
  Li  Li27  1  0.74869597  0.74971809  0.25007971  1
  Li  Li28  1  0.81078450  0.68705449  0.43746614  1
  Li  Li29  1  0.87415652  0.62488671  0.62503543  1
  Li  Li30  1  0.93438022  0.56077134  0.81246841  1
  Li  Li31  1  0.90881325  0.91443710  0.74988394  1
  Mn  Mn32  1  0.01990793  0.14524709  0.06243868  1
  Mn  Mn33  1  0.10486771  0.72967298  0.31250879  1
  Mn  Mn34  1  0.22964747  0.60465561  0.68747099  1
  Mn  Mn35  1  0.47952454  0.35484117  0.43750248  1
  Mn  Mn36  1  0.60497273  0.22988618  0.81247202  1
  Mn  Mn37  1  0.72986952  0.10482409  0.18752537  1
  Mn  Mn38  1  0.64514066  0.52032413  0.93753214  1
  Mn  Mn39  1  0.77062527  0.39528544  0.31252995  1
  Mn  Mn40  1  0.89536167  0.27025725  0.68747695  1
  Mn  Mn41  1  0.85523629  0.97976239  0.56256368  1
  Mn  Mn42  1  0.97956120  0.85455833  0.93750388  1
  Cr  Cr43  1  0.14200701  0.01741368  0.43750362  1
  Cr  Cr44  1  0.35775197  0.48320931  0.06246380  1
  Cr  Cr45  1  0.26710383  0.89212501  0.81250050  1
  Cr  Cr46  1  0.39220878  0.76705928  0.18749571  1
  Cr  Cr47  1  0.51745685  0.64190338  0.56253498  1
  O  O48  1  0.08859990  0.05421025  0.34050858  1
  O  O49  1  0.04821044  0.09399310  0.15921713  1
  O  O50  1  0.07106897  0.42912707  0.28402257  1
  O  O51  1  0.19591236  0.30410690  0.65900313  1
  O  O52  1  0.05568995  0.44367058  0.09098315  1
  O  O53  1  0.18053026  0.32024955  0.46600966  1
  O  O54  1  0.30622885  0.19471511  0.84098972  1
  O  O55  1  0.31893478  0.17992901  0.03395373  1
  O  O56  1  0.44494778  0.05579365  0.40895705  1
  O  O57  1  0.07279048  0.78865300  0.21541050  1
  O  O58  1  0.43086488  0.07012377  0.21597710  1
  O  O59  1  0.19840082  0.66365434  0.59050037  1
  O  O60  1  0.32069358  0.53656764  0.96550725  1
  O  O61  1  0.03087642  0.82740381  0.03405917  1
  O  O62  1  0.16368739  0.69742067  0.40954901  1
  O  O63  1  0.28903430  0.57300054  0.78451183  1
  O  O64  1  0.21351454  0.92920135  0.71548324  1
  O  O65  1  0.17266738  0.96881185  0.53414247  1
  O  O66  1  0.30396746  0.83844424  0.90952841  1
  O  O67  1  0.44577996  0.41155042  0.34043890  1
  O  O68  1  0.57050874  0.28655490  0.71539598  1
  O  O69  1  0.41359290  0.44780347  0.15954054  1
  O  O70  1  0.53886082  0.32251049  0.53465006  1
  O  O71  1  0.66124211  0.19532126  0.90961374  1
  O  O72  1  0.33596473  0.80202868  0.09047013  1
  O  O73  1  0.46818576  0.67334493  0.46585003  1
  O  O74  1  0.59385063  0.54765969  0.84088840  1
  O  O75  1  0.42943080  0.71345938  0.28450268  1
  O  O76  1  0.55416600  0.58854679  0.65947850  1
  O  O77  1  0.70225338  0.15612020  0.09083610  1
  O  O78  1  0.82182302  0.03862387  0.46541820  1
  O  O79  1  0.78676190  0.07049077  0.28456723  1
  O  O80  1  0.71874250  0.42291471  0.21585107  1
  O  O81  1  0.84436225  0.29789530  0.59089997  1
  O  O82  1  0.96344611  0.17953570  0.96544244  1
  O  O83  1  0.67669917  0.46126504  0.03451758  1
  O  O84  1  0.79820351  0.34348857  0.40920592  1
  O  O85  1  0.56990619  0.93108358  0.78394865  1
  O  O86  1  0.92279733  0.21896575  0.78411408  1
  O  O87  1  0.55584802  0.94537240  0.59104431  1
  O  O88  1  0.67891656  0.82079314  0.96599276  1
  O  O89  1  0.69521506  0.80545550  0.15901524  1
  O  O90  1  0.81999075  0.68094383  0.53405710  1
  O  O91  1  0.94591682  0.55399193  0.90905509  1
  O  O92  1  0.80446023  0.69594558  0.34098329  1
  O  O93  1  0.92926365  0.57095749  0.71596106  1
  O  O94  1  0.94802557  0.91366663  0.84045919  1
  O  O95  1  0.91155076  0.94542689  0.65956096  1
