# generated using pymatgen
data_Li32Mn11Cr5O48
_symmetry_space_group_name_H-M   'P 1'
_cell_length_a   5.00867900
_cell_length_b   5.00700875
_cell_length_c   38.34902289
_cell_angle_alpha   88.98590341
_cell_angle_beta   91.08725107
_cell_angle_gamma   60.19654573
_symmetry_Int_Tables_number   1
_chemical_formula_structural   Li32Mn11Cr5O48
_chemical_formula_sum   'Li32 Mn11 Cr5 O48'
_cell_volume   833.97412708
_cell_formula_units_Z   1
loop_
 _symmetry_equiv_pos_site_id
 _symmetry_equiv_pos_as_xyz
  1  'x, y, z'
loop_
 _atom_site_type_symbol
 _atom_site_label
 _atom_site_symmetry_multiplicity
 _atom_site_fract_x
 _atom_site_fract_y
 _atom_site_fract_z
 _atom_site_occupancy
  Li  Li0  1  0.08481066  0.09141105  0.24991484  1
  Li  Li1  1  0.00209921  0.50032649  0.99984381  1
  Li  Li2  1  0.06024717  0.43684162  0.18750424  1
  Li  Li3  1  0.12432573  0.37498773  0.37495590  1
  Li  Li4  1  0.19010054  0.31008729  0.56248013  1
  Li  Li5  1  0.24874131  0.24935864  0.74996246  1
  Li  Li6  1  0.31264157  0.18760880  0.93749023  1
  Li  Li7  1  0.03429569  0.78944346  0.12502865  1
  Li  Li8  1  0.37806433  0.12307698  0.12511940  1
  Li  Li9  1  0.16527354  0.65886124  0.50011622  1
  Li  Li10  1  0.28603799  0.53913691  0.87492063  1
  Li  Li11  1  0.43739690  0.06237902  0.31250929  1
  Li  Li12  1  0.49762920  0.00352937  0.50001096  1
  Li  Li13  1  0.41599745  0.40893463  0.25015219  1
  Li  Li14  1  0.53570847  0.28593483  0.62502245  1
  Li  Li15  1  0.21411017  0.96232144  0.62518291  1
  Li  Li16  1  0.33780803  0.83849827  0.99973410  1
  Li  Li17  1  0.66064604  0.16119940  0.99990912  1
  Li  Li18  1  0.78395737  0.04096241  0.37482218  1
  Li  Li19  1  0.46646861  0.70969020  0.37507105  1
  Li  Li20  1  0.58637065  0.58960809  0.74982502  1
  Li  Li21  1  0.56261299  0.93760448  0.68751104  1
  Li  Li22  1  0.71331151  0.46282730  0.12524903  1
  Li  Li23  1  0.83741204  0.33820448  0.49988953  1
  Li  Li24  1  0.62349767  0.87443626  0.87502137  1
  Li  Li25  1  0.96523635  0.21177120  0.87518918  1
  Li  Li26  1  0.68557433  0.81408575  0.06247568  1
  Li  Li27  1  0.74977756  0.74949866  0.25001786  1
  Li  Li28  1  0.81203305  0.68511348  0.43749885  1
  Li  Li29  1  0.87493112  0.62744620  0.62506936  1
  Li  Li30  1  0.93742508  0.56119128  0.81249731  1
  Li  Li31  1  0.91484941  0.91092709  0.75007267  1
  Mn  Mn32  1  0.10466651  0.72965122  0.31250882  1
  Mn  Mn33  1  0.22953364  0.60450656  0.68750671  1
  Mn  Mn34  1  0.35381705  0.47992496  0.06252714  1
  Mn  Mn35  1  0.47990089  0.35429460  0.43743742  1
  Mn  Mn36  1  0.27141500  0.89538368  0.81249797  1
  Mn  Mn37  1  0.72945909  0.10477769  0.18753748  1
  Mn  Mn38  1  0.64543230  0.52029158  0.93753555  1
  Mn  Mn39  1  0.77052185  0.39553274  0.31250958  1
  Mn  Mn40  1  0.89529404  0.27044040  0.68748497  1
  Mn  Mn41  1  0.85478439  0.97884041  0.56244205  1
  Mn  Mn42  1  0.97950275  0.85454228  0.93751467  1
  Cr  Cr43  1  0.01530420  0.14826781  0.06252419  1
  Cr  Cr44  1  0.14337002  0.01623222  0.43741549  1
  Cr  Cr45  1  0.60963728  0.22740673  0.81252651  1
  Cr  Cr46  1  0.39142613  0.76806348  0.18755549  1
  Cr  Cr47  1  0.52449533  0.64037914  0.56245892  1
  O  O48  1  0.08872354  0.05413263  0.34055524  1
  O  O49  1  0.04827025  0.09328720  0.15925090  1
  O  O50  1  0.07102460  0.42913780  0.28402376  1
  O  O51  1  0.19553330  0.30431203  0.65901105  1
  O  O52  1  0.05678395  0.44208698  0.09101988  1
  O  O53  1  0.18015132  0.32146082  0.46600075  1
  O  O54  1  0.30098159  0.19557344  0.84122724  1
  O  O55  1  0.32417753  0.17993799  0.03373679  1
  O  O56  1  0.44377756  0.05600573  0.40893493  1
  O  O57  1  0.07202381  0.78790489  0.21551949  1
  O  O58  1  0.43096780  0.06914952  0.21603579  1
  O  O59  1  0.19676513  0.66426781  0.59043462  1
  O  O60  1  0.32087387  0.53641039  0.96547099  1
  O  O61  1  0.03917816  0.82202413  0.03452006  1
  O  O62  1  0.16280022  0.69677354  0.40942471  1
  O  O63  1  0.28392686  0.57429899  0.78428786  1
  O  O64  1  0.21397443  0.92909742  0.71547352  1
  O  O65  1  0.17582304  0.96570033  0.53423061  1
  O  O66  1  0.30390390  0.83880063  0.90957332  1
  O  O67  1  0.44590633  0.41140894  0.34047852  1
  O  O68  1  0.57109065  0.28623888  0.71553102  1
  O  O69  1  0.41357570  0.44767567  0.15963271  1
  O  O70  1  0.53758216  0.31692222  0.53425656  1
  O  O71  1  0.66141630  0.19595027  0.90949422  1
  O  O72  1  0.34147654  0.80033056  0.09080074  1
  O  O73  1  0.46812218  0.67346349  0.46573853  1
  O  O74  1  0.58630937  0.55418140  0.84055426  1
  O  O75  1  0.42904209  0.71373458  0.28449604  1
  O  O76  1  0.55385836  0.58829356  0.65947054  1
  O  O77  1  0.69324888  0.16264696  0.09064959  1
  O  O78  1  0.82288383  0.03882473  0.46531607  1
  O  O79  1  0.78635686  0.07082768  0.28455760  1
  O  O80  1  0.71884921  0.42282545  0.21590161  1
  O  O81  1  0.83789255  0.30376785  0.59047173  1
  O  O82  1  0.96336018  0.17894190  0.96556591  1
  O  O83  1  0.67756250  0.46410909  0.03443906  1
  O  O84  1  0.79775872  0.34385904  0.40906600  1
  O  O85  1  0.56904655  0.93165227  0.78399013  1
  O  O86  1  0.93184572  0.21222583  0.78433337  1
  O  O87  1  0.55517606  0.94992103  0.59127719  1
  O  O88  1  0.67931011  0.82071197  0.96601732  1
  O  O89  1  0.69634547  0.80496826  0.15899435  1
  O  O90  1  0.81644798  0.68184391  0.53398283  1
  O  O91  1  0.94575145  0.55406486  0.90903029  1
  O  O92  1  0.80423364  0.69610171  0.34101848  1
  O  O93  1  0.92896725  0.57106657  0.71600397  1
  O  O94  1  0.94755345  0.91139320  0.84059116  1
  O  O95  1  0.91141984  0.94584937  0.65955805  1
