# generated using pymatgen
data_InP2H6NO8
_symmetry_space_group_name_H-M   'P 1'
_cell_length_a   10.06254897
_cell_length_b   8.61790937
_cell_length_c   9.52459864
_cell_angle_alpha   90.00000000
_cell_angle_beta   118.90800057
_cell_angle_gamma   90.00000000
_symmetry_Int_Tables_number   1
_chemical_formula_structural   InP2H6NO8
_chemical_formula_sum   'In4 P8 H24 N4 O32'
_cell_volume   723.03893586
_cell_formula_units_Z   4
loop_
 _symmetry_equiv_pos_site_id
 _symmetry_equiv_pos_as_xyz
  1  'x, y, z'
loop_
 _atom_site_type_symbol
 _atom_site_label
 _atom_site_symmetry_multiplicity
 _atom_site_fract_x
 _atom_site_fract_y
 _atom_site_fract_z
 _atom_site_occupancy
  In  In0  1  0.25628373  0.11722360  0.51192940  1
  In  In1  1  0.25628373  0.38277640  0.01192940  1
  In  In2  1  0.74371627  0.61722360  0.98807060  1
  In  In3  1  0.74371627  0.88277640  0.48807060  1
  P  P4  1  0.99811836  0.18511193  0.63421253  1
  P  P5  1  0.99811836  0.31488807  0.13421253  1
  P  P6  1  0.39088914  0.44897986  0.74230636  1
  P  P7  1  0.60911086  0.94897986  0.75769364  1
  P  P8  1  0.39088914  0.05102014  0.24230636  1
  P  P9  1  0.60911086  0.55102014  0.25769364  1
  P  P10  1  0.00188164  0.68511193  0.86578747  1
  P  P11  1  0.00188164  0.81488807  0.36578747  1
  H  H12  1  0.99444470  0.79292841  0.12228608  1
  H  H13  1  0.99444470  0.70707159  0.62228608  1
  H  H14  1  0.28379450  0.76801954  0.88083678  1
  H  H15  1  0.33415716  0.94789633  0.96262673  1
  H  H16  1  0.38382575  0.89024177  0.82535676  1
  H  H17  1  0.19495949  0.62478385  0.60328531  1
  H  H18  1  0.46522522  0.80383813  0.00826919  1
  H  H19  1  0.28379450  0.73198046  0.38083678  1
  H  H20  1  0.33415716  0.55210367  0.46262673  1
  H  H21  1  0.38382575  0.60975823  0.32535676  1
  H  H22  1  0.19495949  0.87521615  0.10328531  1
  H  H23  1  0.46522522  0.69616187  0.50826919  1
  H  H24  1  0.53477478  0.30383813  0.49173081  1
  H  H25  1  0.80504051  0.12478385  0.89671469  1
  H  H26  1  0.61617425  0.39024177  0.67464324  1
  H  H27  1  0.66584284  0.44789633  0.53737327  1
  H  H28  1  0.71620550  0.26801954  0.61916322  1
  H  H29  1  0.53477478  0.19616187  0.99173081  1
  H  H30  1  0.80504051  0.37521615  0.39671469  1
  H  H31  1  0.61617425  0.10975823  0.17464324  1
  H  H32  1  0.66584284  0.05210367  0.03737327  1
  H  H33  1  0.71620550  0.23198046  0.11916322  1
  H  H34  1  0.00555530  0.29292841  0.37771392  1
  H  H35  1  0.00555530  0.20707159  0.87771392  1
  N  N36  1  0.36605995  0.85296963  0.91960866  1
  N  N37  1  0.36605995  0.64703037  0.41960866  1
  N  N38  1  0.63394005  0.35296963  0.58039134  1
  N  N39  1  0.63394005  0.14703037  0.08039134  1
  O  O40  1  0.04163377  0.82159245  0.98289995  1
  O  O41  1  0.05148862  0.25681270  0.81319045  1
  O  O42  1  0.14192422  0.59125130  0.89226707  1
  O  O43  1  0.04163377  0.67840755  0.48289995  1
  O  O44  1  0.13322001  0.09297769  0.64572846  1
  O  O45  1  0.05148862  0.24318730  0.31319045  1
  O  O46  1  0.14192422  0.90874870  0.39226707  1
  O  O47  1  0.37437031  0.36255956  0.87425999  1
  O  O48  1  0.30450286  0.60888894  0.69827760  1
  O  O49  1  0.13322001  0.40702231  0.14572846  1
  O  O50  1  0.33276055  0.35284905  0.58672353  1
  O  O51  1  0.44058369  0.99014188  0.70079335  1
  O  O52  1  0.37437031  0.13744044  0.37425999  1
  O  O53  1  0.55941631  0.49014188  0.79920665  1
  O  O54  1  0.30450286  0.89111106  0.19827760  1
  O  O55  1  0.66723945  0.85284905  0.91327647  1
  O  O56  1  0.33276055  0.14715095  0.08672353  1
  O  O57  1  0.69549714  0.10888894  0.80172240  1
  O  O58  1  0.44058369  0.50985812  0.20079335  1
  O  O59  1  0.62562969  0.86255956  0.62574001  1
  O  O60  1  0.55941631  0.00985812  0.29920665  1
  O  O61  1  0.66723945  0.64715095  0.41327647  1
  O  O62  1  0.86677999  0.59297769  0.85427154  1
  O  O63  1  0.69549714  0.39111106  0.30172240  1
  O  O64  1  0.62562969  0.63744044  0.12574001  1
  O  O65  1  0.85807578  0.09125130  0.60773293  1
  O  O66  1  0.94851138  0.75681270  0.68680955  1
  O  O67  1  0.86677999  0.90702231  0.35427154  1
  O  O68  1  0.95836623  0.32159145  0.51710005  1
  O  O69  1  0.85807578  0.40874870  0.10773293  1
  O  O70  1  0.94851138  0.74318730  0.18680955  1
  O  O71  1  0.95836623  0.17840755  0.01710005  1
