# generated using pymatgen
data_VOF2
_symmetry_space_group_name_H-M   'P 1'
_cell_length_a   5.18603190
_cell_length_b   11.85524556
_cell_length_c   5.38769281
_cell_angle_alpha   79.31176916
_cell_angle_beta   89.31388812
_cell_angle_gamma   102.36084319
_symmetry_Int_Tables_number   1
_chemical_formula_structural   VOF2
_chemical_formula_sum   'V6 O6 F12'
_cell_volume   317.49108647
_cell_formula_units_Z   6
loop_
 _symmetry_equiv_pos_site_id
 _symmetry_equiv_pos_as_xyz
  1  'x, y, z'
loop_
 _atom_site_type_symbol
 _atom_site_label
 _atom_site_symmetry_multiplicity
 _atom_site_fract_x
 _atom_site_fract_y
 _atom_site_fract_z
 _atom_site_occupancy
  V  V0  1  0.85527693  0.66406408  0.18858068  1
  V  V1  1  0.69636685  0.33586736  0.31118442  1
  V  V2  1  0.51783075  0.99743803  0.47296389  1
  V  V3  1  0.35597675  0.66898848  0.65331369  1
  V  V4  1  0.02984547  0.00411554  0.97555915  1
  V  V5  1  0.18453235  0.33041900  0.80490479  1
  O  O6  1  0.95943151  0.35683617  0.11202521  1
  O  O7  1  0.61735469  0.68987567  0.44820122  1
  O  O8  1  0.29444707  0.02891553  0.77707517  1
  O  O9  1  0.69273215  0.97608451  0.22978173  1
  O  O10  1  0.35979133  0.30916001  0.56177744  1
  O  O11  1  0.09445132  0.64193880  0.38923053  1
  F  F12  1  0.97696342  0.16712194  0.90937532  1
  F  F13  1  0.88524656  0.37187623  0.61289172  1
  F  F14  1  0.67519824  0.16689516  0.44233079  1
  F  F15  1  0.65214359  0.49975158  0.24355986  1
  F  F16  1  0.76204431  0.96132529  0.73564414  1
  F  F17  1  0.42799885  0.29277962  0.07012267  1
  F  F18  1  0.21500162  0.03530247  0.28178805  1
  F  F19  1  0.55706240  0.69609986  0.95155428  1
  F  F20  1  0.34198230  0.49932947  0.77174129  1
  F  F21  1  0.31575684  0.83389716  0.58648301  1
  F  F22  1  0.02756517  0.63764634  0.88406125  1
  F  F23  1  0.00500052  0.83427369  0.08585072  1
