# generated using pymatgen
data_Hf2N2O
_symmetry_space_group_name_H-M   'P 1'
_cell_length_a   8.74511553
_cell_length_b   8.74725013
_cell_length_c   8.69348578
_cell_angle_alpha   109.19943566
_cell_angle_beta   109.50726844
_cell_angle_gamma   109.69387070
_symmetry_Int_Tables_number   1
_chemical_formula_structural   Hf2N2O
_chemical_formula_sum   'Hf16 N16 O8'
_cell_volume   512.00369541
_cell_formula_units_Z   8
loop_
 _symmetry_equiv_pos_site_id
 _symmetry_equiv_pos_as_xyz
  1  'x, y, z'
loop_
 _atom_site_type_symbol
 _atom_site_label
 _atom_site_symmetry_multiplicity
 _atom_site_fract_x
 _atom_site_fract_y
 _atom_site_fract_z
 _atom_site_occupancy
  Hf  Hf0  1  0.48992372  0.99014093  0.98855877  1
  Hf  Hf1  1  0.75767557  0.29329999  0.54482824  1
  Hf  Hf2  1  0.72114693  0.46944399  0.24823605  1
  Hf  Hf3  1  0.20647798  0.95743186  0.24283089  1
  Hf  Hf4  1  0.24804095  0.21353818  0.95341544  1
  Hf  Hf5  1  0.02419023  0.73978403  0.77138170  1
  Hf  Hf6  1  0.53072309  0.74656121  0.28169033  1
  Hf  Hf7  1  0.97281237  0.25833137  0.22477308  1
  Hf  Hf8  1  0.50442033  0.50970393  0.51342295  1
  Hf  Hf9  1  0.00241403  0.00058953  0.50012622  1
  Hf  Hf10  1  0.47112336  0.25835627  0.72555329  1
  Hf  Hf11  1  0.99888629  0.51006254  0.99919115  1
  Hf  Hf12  1  0.75144451  0.78432101  0.04307745  1
  Hf  Hf13  1  0.28758011  0.53785934  0.75261425  1
  Hf  Hf14  1  0.78161946  0.03080165  0.74616163  1
  Hf  Hf15  1  0.24966794  0.70698699  0.46245298  1
  N  N16  1  0.51045690  0.23914214  0.97120706  1
  N  N17  1  0.01016982  0.04464156  0.27243899  1
  N  N18  1  0.77067110  0.72684321  0.26518587  1
  N  N19  1  0.72586530  0.25496028  0.76738055  1
  N  N20  1  0.76589498  0.53513118  0.52503449  1
  N  N21  1  0.49230902  0.76784197  0.03569921  1
  N  N22  1  0.27276250  0.74168411  0.22906570  1
  N  N23  1  0.95624331  0.72845329  0.98597757  1
  N  N24  1  0.54140752  0.77351704  0.54849393  1
  N  N25  1  0.98963189  0.95855152  0.73165587  1
  N  N26  1  0.22607612  0.27091685  0.73781820  1
  N  N27  1  0.55081206  0.53279957  0.77395173  1
  N  N28  1  0.23037185  0.45559002  0.46531780  1
  N  N29  1  0.96358498  0.50621924  0.23691080  1
  N  N30  1  0.03265113  0.48364198  0.75778442  1
  N  N31  1  0.26209306  0.78098625  0.72686486  1
  O  O32  1  0.72735971  0.99772862  0.95634655  1
  O  O33  1  0.28190701  0.01561968  0.05486747  1
  O  O34  1  0.76273351  0.03471469  0.48552065  1
  O  O35  1  0.74145550  0.21773808  0.27525113  1
  O  O36  1  0.04867902  0.27011930  0.01876720  1
  O  O37  1  0.44174518  0.46471416  0.22139353  1
  O  O38  1  0.23745617  0.96792848  0.50891225  1
  O  O39  1  0.45951750  0.22330698  0.44983676  1
