# generated using pymatgen
data_Li2Fe2(SO4)3
_symmetry_space_group_name_H-M   'P 1'
_cell_length_a   12.47801365
_cell_length_b   8.71620920
_cell_length_c   8.89734808
_cell_angle_alpha   90.00000000
_cell_angle_beta   90.00000000
_cell_angle_gamma   90.00000000
_symmetry_Int_Tables_number   1
_chemical_formula_structural   Li2Fe2(SO4)3
_chemical_formula_sum   'Li8 Fe8 S12 O48'
_cell_volume   967.68427322
_cell_formula_units_Z   4
loop_
 _symmetry_equiv_pos_site_id
 _symmetry_equiv_pos_as_xyz
  1  'x, y, z'
loop_
 _atom_site_type_symbol
 _atom_site_label
 _atom_site_symmetry_multiplicity
 _atom_site_fract_x
 _atom_site_fract_y
 _atom_site_fract_z
 _atom_site_occupancy
  Li  Li0  1  0.18210588  0.21804973  0.27614409  1
  Li  Li1  1  0.18210588  0.78195027  0.77614409  1
  Li  Li2  1  0.31789412  0.28195027  0.77614409  1
  Li  Li3  1  0.31789412  0.71804973  0.27614409  1
  Li  Li4  1  0.68210588  0.28195027  0.72385591  1
  Li  Li5  1  0.68210588  0.71804973  0.22385591  1
  Li  Li6  1  0.81789412  0.21804973  0.22385591  1
  Li  Li7  1  0.81789412  0.78195027  0.72385591  1
  Fe  Fe8  1  0.11106253  0.25230532  0.95927342  1
  Fe  Fe9  1  0.11106253  0.74769468  0.45927342  1
  Fe  Fe10  1  0.38893747  0.75230532  0.95927342  1
  Fe  Fe11  1  0.38893747  0.24769468  0.45927342  1
  Fe  Fe12  1  0.61106253  0.24769468  0.04072658  1
  Fe  Fe13  1  0.61106253  0.75230532  0.54072658  1
  Fe  Fe14  1  0.88893747  0.25230532  0.54072658  1
  Fe  Fe15  1  0.88893747  0.74769468  0.04072658  1
  S  S16  1  0.00000000  0.45664161  0.25000000  1
  S  S17  1  0.00000000  0.54335839  0.75000000  1
  S  S18  1  0.14646213  0.10123330  0.60451879  1
  S  S19  1  0.14646213  0.89876670  0.10451879  1
  S  S20  1  0.35353787  0.39876670  0.10451879  1
  S  S21  1  0.35353787  0.60123330  0.60451879  1
  S  S22  1  0.50000000  0.04335839  0.75000000  1
  S  S23  1  0.50000000  0.95664161  0.25000000  1
  S  S24  1  0.64646213  0.39876670  0.39548121  1
  S  S25  1  0.64646213  0.60123330  0.89548121  1
  S  S26  1  0.85353787  0.10123330  0.89548121  1
  S  S27  1  0.85353787  0.89876670  0.39548121  1
  O  O28  1  0.03403568  0.13612160  0.57605856  1
  O  O29  1  0.03403568  0.86387840  0.07605856  1
  O  O30  1  0.05692796  0.54925377  0.36260857  1
  O  O31  1  0.05692796  0.45074623  0.86260857  1
  O  O32  1  0.08061606  0.35563167  0.17451143  1
  O  O33  1  0.08061606  0.64436833  0.67451143  1
  O  O34  1  0.16173056  0.06969615  0.10947410  1
  O  O35  1  0.16173056  0.93030385  0.60947410  1
  O  O36  1  0.18267751  0.16613622  0.75186685  1
  O  O37  1  0.18267751  0.83386378  0.25186685  1
  O  O38  1  0.21565211  0.83410085  0.98240579  1
  O  O39  1  0.21565211  0.16589915  0.48240579  1
  O  O40  1  0.28434789  0.33410085  0.98240579  1
  O  O41  1  0.28434789  0.66589915  0.48240579  1
  O  O42  1  0.31732249  0.66613622  0.75186685  1
  O  O43  1  0.31732249  0.33386378  0.25186685  1
  O  O44  1  0.33826944  0.43030385  0.60947410  1
  O  O45  1  0.33826944  0.56969615  0.10947410  1
  O  O46  1  0.41938394  0.14436833  0.67451143  1
  O  O47  1  0.41938394  0.85563167  0.17451143  1
  O  O48  1  0.44307204  0.04925377  0.36260857  1
  O  O49  1  0.44307204  0.95074623  0.86260857  1
  O  O50  1  0.46596432  0.63612160  0.57605856  1
  O  O51  1  0.46596432  0.36387840  0.07605856  1
  O  O52  1  0.53403568  0.36387840  0.42394144  1
  O  O53  1  0.53403568  0.63612160  0.92394144  1
  O  O54  1  0.55692796  0.04925377  0.13739143  1
  O  O55  1  0.55692796  0.95074623  0.63739143  1
  O  O56  1  0.58061606  0.14436833  0.82548857  1
  O  O57  1  0.58061606  0.85563167  0.32548857  1
  O  O58  1  0.66173056  0.43030385  0.89052590  1
  O  O59  1  0.66173056  0.56969615  0.39052590  1
  O  O60  1  0.68267751  0.33386378  0.24813315  1
  O  O61  1  0.68267751  0.66613622  0.74813315  1
  O  O62  1  0.71565211  0.33410085  0.51759421  1
  O  O63  1  0.71565211  0.66589915  0.01759421  1
  O  O64  1  0.78434789  0.16589915  0.01759421  1
  O  O65  1  0.78434789  0.83410085  0.51759421  1
  O  O66  1  0.81732249  0.16613622  0.74813315  1
  O  O67  1  0.81732249  0.83386378  0.24813315  1
  O  O68  1  0.83826944  0.06969615  0.39052590  1
  O  O69  1  0.83826944  0.93030385  0.89052590  1
  O  O70  1  0.91938394  0.35563167  0.32548857  1
  O  O71  1  0.91938394  0.64436833  0.82548857  1
  O  O72  1  0.94307204  0.45074623  0.63739143  1
  O  O73  1  0.94307204  0.54925377  0.13739143  1
  O  O74  1  0.96596432  0.13612160  0.92394144  1
  O  O75  1  0.96596432  0.86387840  0.42394144  1
