# generated using pymatgen
data_Ba9La5Br33
_symmetry_space_group_name_H-M   'P 1'
_cell_length_a   12.28783307
_cell_length_b   12.24150393
_cell_length_c   23.49405136
_cell_angle_alpha   99.56563490
_cell_angle_beta   80.03467271
_cell_angle_gamma   71.50218772
_symmetry_Int_Tables_number   1
_chemical_formula_structural   Ba9La5Br33
_chemical_formula_sum   'Ba18 La10 Br66'
_cell_volume   3207.06685430
_cell_formula_units_Z   2
loop_
 _symmetry_equiv_pos_site_id
 _symmetry_equiv_pos_as_xyz
  1  'x, y, z'
loop_
 _atom_site_type_symbol
 _atom_site_label
 _atom_site_symmetry_multiplicity
 _atom_site_fract_x
 _atom_site_fract_y
 _atom_site_fract_z
 _atom_site_occupancy
  Ba  Ba0  1  0.74590165  0.92381506  0.92851391  1
  Ba  Ba1  1  0.90749339  0.31983564  0.96566224  1
  Ba  Ba2  1  0.97718796  0.47252557  0.19479043  1
  Ba  Ba3  1  0.73367087  0.86883867  0.33939718  1
  Ba  Ba4  1  0.87486158  0.25050954  0.37667161  1
  Ba  Ba5  1  0.60176356  0.67669640  0.53998605  1
  Ba  Ba6  1  0.75671592  0.07528707  0.56483736  1
  Ba  Ba7  1  0.64014321  0.75801518  0.12215049  1
  Ba  Ba8  1  0.77021199  0.13679999  0.16065875  1
  Ba  Ba9  1  0.22978801  0.86320001  0.83934125  1
  Ba  Ba10  1  0.35985679  0.24198482  0.87784951  1
  Ba  Ba11  1  0.24328408  0.92471293  0.43516264  1
  Ba  Ba12  1  0.39823644  0.32330360  0.46001395  1
  Ba  Ba13  1  0.12513842  0.74949046  0.62332839  1
  Ba  Ba14  1  0.26632913  0.13116133  0.66060282  1
  Ba  Ba15  1  0.02281204  0.52747443  0.80520957  1
  Ba  Ba16  1  0.09250661  0.68016436  0.03433776  1
  Ba  Ba17  1  0.25409835  0.07618494  0.07148609  1
  La  La18  1  0.95509447  0.38107000  0.58659019  1
  La  La19  1  0.85833952  0.18261499  0.76466499  1
  La  La20  1  0.64908122  0.85703695  0.73258529  1
  La  La21  1  0.54221005  0.62535057  0.92595801  1
  La  La22  1  0.46534212  0.46211460  0.68693005  1
  La  La23  1  0.53465788  0.53788540  0.31306995  1
  La  La24  1  0.45778995  0.37464943  0.07404199  1
  La  La25  1  0.35091878  0.14296305  0.26741471  1
  La  La26  1  0.14166048  0.81738501  0.23533501  1
  La  La27  1  0.04490553  0.61893000  0.41340981  1
  Br  Br28  1  0.85926368  0.77204168  0.78316316  1
  Br  Br29  1  0.84544213  0.95106190  0.67545776  1
  Br  Br30  1  0.78906802  0.62122828  0.91898266  1
  Br  Br31  1  0.95202332  0.74254014  0.19433829  1
  Br  Br32  1  0.98560154  0.15859989  0.63600634  1
  Br  Br33  1  0.92070237  0.06474524  0.87285764  1
  Br  Br34  1  0.81655596  0.65355712  0.62860008  1
  Br  Br35  1  0.82060465  0.43649820  0.73696311  1
  Br  Br36  1  0.77906029  0.80847778  0.47494660  1
  Br  Br37  1  0.88356584  0.58024784  0.33976037  1
  Br  Br38  1  0.88181077  0.47820962  0.47550989  1
  Br  Br39  1  0.96182476  0.15990127  0.48842885  1
  Br  Br40  1  0.70052825  0.35841937  0.87861336  1
  Br  Br41  1  0.81482487  0.88725125  0.06095746  1
  Br  Br42  1  0.54616340  0.81725121  0.85442615  1
  Br  Br43  1  0.89453782  0.55044324  0.07322490  1
  Br  Br44  1  0.57081682  0.94428049  0.62596092  1
  Br  Br45  1  0.96433018  0.23962913  0.09338610  1
  Br  Br46  1  0.69795416  0.39677889  0.59027291  1
  Br  Br47  1  0.61828448  0.98151816  0.22663393  1
  Br  Br48  1  0.78704363  0.35247084  0.26355933  1
  Br  Br49  1  0.68288319  0.65718555  0.24187163  1
  Br  Br50  1  0.88330323  0.03304263  0.27485521  1
  Br  Br51  1  0.64093996  0.25003257  0.71070235  1
  Br  Br52  1  0.50213759  0.70299209  0.69335190  1
  Br  Br53  1  0.64557634  0.07532937  0.82182933  1
  Br  Br54  1  0.53412566  0.75179747  0.40555343  1
  Br  Br55  1  0.44189387  0.56634234  0.82085345  1
  Br  Br56  1  0.60525928  0.45169810  0.42336890  1
  Br  Br57  1  0.28643183  0.79778934  0.96935819  1
  Br  Br58  1  0.38912461  0.47263312  0.96530778  1
  Br  Br59  1  0.68177422  0.12633297  0.43706350  1
  Br  Br60  1  0.47112234  0.14841685  0.98412022  1
  Br  Br61  1  0.52887766  0.85158315  0.01587978  1
  Br  Br62  1  0.31822578  0.87366703  0.56293650  1
  Br  Br63  1  0.61087539  0.52736688  0.03469222  1
  Br  Br64  1  0.71356817  0.20221066  0.03064181  1
  Br  Br65  1  0.39474072  0.54830190  0.57663110  1
  Br  Br66  1  0.55810613  0.43365766  0.17914655  1
  Br  Br67  1  0.46587434  0.24820253  0.59444657  1
  Br  Br68  1  0.35442366  0.92467063  0.17817067  1
  Br  Br69  1  0.49786241  0.29700791  0.30664810  1
  Br  Br70  1  0.35906004  0.74996743  0.28929765  1
  Br  Br71  1  0.11669677  0.96695737  0.72514479  1
  Br  Br72  1  0.31711681  0.34281445  0.75812837  1
  Br  Br73  1  0.21295637  0.64752916  0.73644067  1
  Br  Br74  1  0.38171552  0.01848184  0.77336607  1
  Br  Br75  1  0.30204584  0.60322011  0.40972709  1
  Br  Br76  1  0.03566982  0.76037087  0.90661390  1
  Br  Br77  1  0.42918318  0.05571951  0.37403908  1
  Br  Br78  1  0.10546218  0.44955676  0.92677510  1
  Br  Br79  1  0.45383660  0.18274879  0.14557385  1
  Br  Br80  1  0.18517513  0.11274875  0.93904254  1
  Br  Br81  1  0.29947175  0.64158063  0.12138664  1
  Br  Br82  1  0.03817524  0.84009873  0.51157115  1
  Br  Br83  1  0.11818923  0.52179038  0.52449011  1
  Br  Br84  1  0.11643416  0.41975216  0.66023963  1
  Br  Br85  1  0.22093971  0.19152222  0.52505340  1
  Br  Br86  1  0.17939535  0.56350180  0.26303689  1
  Br  Br87  1  0.18344404  0.34644288  0.37139992  1
  Br  Br88  1  0.07929763  0.93525476  0.12714236  1
  Br  Br89  1  0.01439846  0.84140011  0.36399366  1
  Br  Br90  1  0.04797668  0.25745986  0.80566171  1
  Br  Br91  1  0.21093198  0.37877172  0.08101734  1
  Br  Br92  1  0.15455787  0.04893810  0.32454224  1
  Br  Br93  1  0.14073632  0.22795832  0.21683684  1
