# generated using pymatgen
data_Na2FePCO7
_symmetry_space_group_name_H-M   'P 1'
_cell_length_a   8.88982071
_cell_length_b   5.29575921
_cell_length_c   6.57579190
_cell_angle_alpha   90.41633600
_cell_angle_beta   93.09410169
_cell_angle_gamma   88.56207608
_symmetry_Int_Tables_number   1
_chemical_formula_structural   Na2FePCO7
_chemical_formula_sum   'Na4 Fe2 P2 C2 O14'
_cell_volume   309.02337595
_cell_formula_units_Z   2
loop_
 _symmetry_equiv_pos_site_id
 _symmetry_equiv_pos_as_xyz
  1  'x, y, z'
loop_
 _atom_site_type_symbol
 _atom_site_label
 _atom_site_symmetry_multiplicity
 _atom_site_fract_x
 _atom_site_fract_y
 _atom_site_fract_z
 _atom_site_occupancy
  Na  Na0  1  0.08419769  0.76897776  0.28371737  1
  Na  Na1  1  0.26368060  0.25084921  0.00777469  1
  Na  Na2  1  0.73631940  0.74915079  0.99222531  1
  Na  Na3  1  0.91580231  0.23102224  0.71628263  1
  Fe  Fe4  1  0.34430451  0.78023339  0.73311934  1
  Fe  Fe5  1  0.65569549  0.21976661  0.26688066  1
  P  P6  1  0.42628156  0.72146159  0.24131123  1
  P  P7  1  0.57371844  0.27853841  0.75868877  1
  C  C8  1  0.06561233  0.71390214  0.75831460  1
  C  C9  1  0.93438767  0.28609786  0.24168540  1
  O  O10  1  0.07150765  0.32356514  0.21211260  1
  O  O11  1  0.12003610  0.94085598  0.73609820  1
  O  O12  1  0.16567344  0.52843489  0.74307282  1
  O  O13  1  0.31654481  0.79216706  0.05651306  1
  O  O14  1  0.33487406  0.76878085  0.43203652  1
  O  O15  1  0.43003721  0.11959766  0.75723110  1
  O  O16  1  0.47289260  0.43641345  0.22389684  1
  O  O17  1  0.52710740  0.56358655  0.77610316  1
  O  O18  1  0.56996279  0.88040234  0.24276890  1
  O  O19  1  0.66512594  0.23121915  0.56796348  1
  O  O20  1  0.68345519  0.20783294  0.94348694  1
  O  O21  1  0.83432656  0.47156511  0.25692718  1
  O  O22  1  0.87996390  0.05914402  0.26390180  1
  O  O23  1  0.92849235  0.67643486  0.78788740  1
