# generated using pymatgen
data_Li2Fe(SO4)2
_symmetry_space_group_name_H-M   'P 1'
_cell_length_a   9.40146299
_cell_length_b   9.29578362
_cell_length_c   13.85871761
_cell_angle_alpha   90.00000000
_cell_angle_beta   90.00000000
_cell_angle_gamma   90.00000000
_symmetry_Int_Tables_number   1
_chemical_formula_structural   Li2Fe(SO4)2
_chemical_formula_sum   'Li16 Fe8 S16 O64'
_cell_volume   1211.16829099
_cell_formula_units_Z   8
loop_
 _symmetry_equiv_pos_site_id
 _symmetry_equiv_pos_as_xyz
  1  'x, y, z'
loop_
 _atom_site_type_symbol
 _atom_site_label
 _atom_site_symmetry_multiplicity
 _atom_site_fract_x
 _atom_site_fract_y
 _atom_site_fract_z
 _atom_site_occupancy
  Li  Li0  1  0.03366434  0.22020825  0.37396287  1
  Li  Li1  1  0.03366434  0.27979175  0.87396287  1
  Li  Li2  1  0.22452690  0.95450892  0.37268512  1
  Li  Li3  1  0.22452690  0.54549108  0.87268512  1
  Li  Li4  1  0.27547310  0.04549108  0.87268512  1
  Li  Li5  1  0.27547310  0.45450892  0.37268512  1
  Li  Li6  1  0.46633566  0.72020825  0.37396287  1
  Li  Li7  1  0.46633566  0.77979175  0.87396287  1
  Li  Li8  1  0.53366434  0.22020825  0.12603713  1
  Li  Li9  1  0.53366434  0.27979175  0.62603713  1
  Li  Li10  1  0.72452690  0.54549108  0.62731488  1
  Li  Li11  1  0.72452690  0.95450892  0.12731488  1
  Li  Li12  1  0.77547310  0.45450892  0.12731488  1
  Li  Li13  1  0.77547310  0.04549108  0.62731488  1
  Li  Li14  1  0.96633566  0.77979175  0.62603713  1
  Li  Li15  1  0.96633566  0.72020825  0.12603713  1
  Fe  Fe16  1  0.13932349  0.10308388  0.12345169  1
  Fe  Fe17  1  0.13932349  0.39691612  0.62345169  1
  Fe  Fe18  1  0.36067651  0.60308388  0.12345169  1
  Fe  Fe19  1  0.36067651  0.89691612  0.62345169  1
  Fe  Fe20  1  0.63932349  0.10308388  0.37654831  1
  Fe  Fe21  1  0.63932349  0.39691612  0.87654831  1
  Fe  Fe22  1  0.86067651  0.60308388  0.37654831  1
  Fe  Fe23  1  0.86067651  0.89691612  0.87654831  1
  S  S24  1  0.07421744  0.06980765  0.72754151  1
  S  S25  1  0.07421744  0.43019235  0.22754151  1
  S  S26  1  0.16079268  0.68754413  0.49067726  1
  S  S27  1  0.16079268  0.81245587  0.99067726  1
  S  S28  1  0.33920732  0.18754413  0.49067726  1
  S  S29  1  0.33920732  0.31245587  0.99067726  1
  S  S30  1  0.42578256  0.93019235  0.22754151  1
  S  S31  1  0.42578256  0.56980765  0.72754151  1
  S  S32  1  0.57421744  0.43019235  0.27245849  1
  S  S33  1  0.57421744  0.06980765  0.77245849  1
  S  S34  1  0.66079268  0.68754413  0.00932274  1
  S  S35  1  0.66079268  0.81245587  0.50932274  1
  S  S36  1  0.83920732  0.18754413  0.00932274  1
  S  S37  1  0.83920732  0.31245587  0.50932274  1
  S  S38  1  0.92578256  0.56980765  0.77245849  1
  S  S39  1  0.92578256  0.93019235  0.27245849  1
  O  O40  1  0.00404876  0.70021871  0.47655625  1
  O  O41  1  0.00404876  0.79978129  0.97655625  1
  O  O42  1  0.01772563  0.99757344  0.34613023  1
  O  O43  1  0.01772563  0.50242656  0.84613023  1
  O  O44  1  0.02534415  0.46215126  0.32881351  1
  O  O45  1  0.02534415  0.03784874  0.82881351  1
  O  O46  1  0.07246398  0.23052302  0.72180242  1
  O  O47  1  0.07246398  0.26947698  0.22180242  1
  O  O48  1  0.18787092  0.73142736  0.08195897  1
  O  O49  1  0.18787092  0.76857264  0.58195897  1
  O  O50  1  0.20480086  0.96597271  0.00325862  1
  O  O51  1  0.20480086  0.53402729  0.50325862  1
  O  O52  1  0.22313058  0.01429453  0.72152244  1
  O  O53  1  0.22313058  0.48570547  0.22152244  1
  O  O54  1  0.24164620  0.74494330  0.40712538  1
  O  O55  1  0.24164620  0.75505670  0.90712538  1
  O  O56  1  0.25835380  0.24494330  0.40712538  1
  O  O57  1  0.25835380  0.25505670  0.90712538  1
  O  O58  1  0.27686942  0.98570547  0.22152244  1
  O  O59  1  0.27686942  0.51429453  0.72152244  1
  O  O60  1  0.29519914  0.03402729  0.50325862  1
  O  O61  1  0.29519914  0.46597271  0.00325862  1
  O  O62  1  0.31212908  0.23142736  0.08195897  1
  O  O63  1  0.31212908  0.26857264  0.58195897  1
  O  O64  1  0.42753602  0.76947698  0.22180242  1
  O  O65  1  0.42753602  0.73052302  0.72180242  1
  O  O66  1  0.47465585  0.53784874  0.82881351  1
  O  O67  1  0.47465585  0.96215126  0.32881351  1
  O  O68  1  0.48227437  0.49757344  0.34613023  1
  O  O69  1  0.48227437  0.00242656  0.84613023  1
  O  O70  1  0.49595124  0.20021871  0.47655625  1
  O  O71  1  0.49595124  0.29978129  0.97655625  1
  O  O72  1  0.50404876  0.70021871  0.02344375  1
  O  O73  1  0.50404876  0.79978129  0.52344375  1
  O  O74  1  0.51772563  0.50242656  0.65386977  1
  O  O75  1  0.51772563  0.99757344  0.15386977  1
  O  O76  1  0.52534415  0.46215126  0.17118649  1
  O  O77  1  0.52534415  0.03784874  0.67118649  1
  O  O78  1  0.57246398  0.26947698  0.27819758  1
  O  O79  1  0.57246398  0.23052302  0.77819758  1
  O  O80  1  0.68787092  0.73142736  0.41804103  1
  O  O81  1  0.68787092  0.76857264  0.91804103  1
  O  O82  1  0.70480086  0.53402729  0.99674138  1
  O  O83  1  0.70480086  0.96597271  0.49674138  1
  O  O84  1  0.72313058  0.48570547  0.27847756  1
  O  O85  1  0.72313058  0.01429453  0.77847756  1
  O  O86  1  0.74164620  0.74494330  0.09287462  1
  O  O87  1  0.74164620  0.75505670  0.59287462  1
  O  O88  1  0.75835380  0.24494330  0.09287462  1
  O  O89  1  0.75835380  0.25505670  0.59287462  1
  O  O90  1  0.77686942  0.51429453  0.77847756  1
  O  O91  1  0.77686942  0.98570547  0.27847756  1
  O  O92  1  0.79519914  0.46597271  0.49674138  1
  O  O93  1  0.79519914  0.03402729  0.99674138  1
  O  O94  1  0.81212908  0.23142736  0.41804103  1
  O  O95  1  0.81212908  0.26857264  0.91804103  1
  O  O96  1  0.92753602  0.73052302  0.77819758  1
  O  O97  1  0.92753602  0.76947698  0.27819758  1
  O  O98  1  0.97465585  0.53784874  0.67118649  1
  O  O99  1  0.97465585  0.96215126  0.17118649  1
  O  O100  1  0.98227437  0.00242656  0.65386977  1
  O  O101  1  0.98227437  0.49757344  0.15386977  1
  O  O102  1  0.99595124  0.20021871  0.02344375  1
  O  O103  1  0.99595124  0.29978129  0.52344375  1
