# generated using pymatgen
data_V4(OF3)3
_symmetry_space_group_name_H-M   'P 1'
_cell_length_a   5.25177579
_cell_length_b   5.39196131
_cell_length_c   9.07536456
_cell_angle_alpha   74.15986528
_cell_angle_beta   90.00000000
_cell_angle_gamma   60.85637029
_symmetry_Int_Tables_number   1
_chemical_formula_structural   V4(OF3)3
_chemical_formula_sum   'V4 O3 F9'
_cell_volume   213.21327622
_cell_formula_units_Z   1
loop_
 _symmetry_equiv_pos_site_id
 _symmetry_equiv_pos_as_xyz
  1  'x, y, z'
loop_
 _atom_site_type_symbol
 _atom_site_label
 _atom_site_symmetry_multiplicity
 _atom_site_fract_x
 _atom_site_fract_y
 _atom_site_fract_z
 _atom_site_occupancy
  V  V0  1  0.72810480  0.52174767  0.25447419  1
  V  V1  1  0.49985247  0.97825233  0.49552581  1
  V  V2  1  0.27172279  0.51192600  0.74533201  1
  V  V3  1  0.03364878  0.98807400  0.00466799  1
  O  O4  1  0.54472617  0.75000000  0.37500000  1
  O  O5  1  0.39370699  0.76658180  0.08287166  1
  O  O6  1  0.41028778  0.73341820  0.66712834  1
  F  F7  1  0.92282188  0.74309078  0.58088787  1
  F  F8  1  0.91591266  0.75690922  0.16911213  1
  F  F9  1  0.95293143  0.26778055  0.12429098  1
  F  F10  1  0.57675725  0.25111762  0.32862474  1
  F  F11  1  0.58872676  0.24302443  0.92337601  1
  F  F12  1  0.47071198  0.23221945  0.62570902  1
  F  F13  1  0.03046119  0.75000000  0.87500000  1
  F  F14  1  0.08175219  0.25697557  0.82662399  1
  F  F15  1  0.07787487  0.24888238  0.42137526  1
