# generated using pymatgen
data_SrLa11Mg3Ga9O34
_symmetry_space_group_name_H-M   'P 1'
_cell_length_a   5.58109428
_cell_length_b   5.59923729
_cell_length_c   33.49937011
_cell_angle_alpha   60.02647913
_cell_angle_beta   60.01594132
_cell_angle_gamma   60.10819396
_symmetry_Int_Tables_number   1
_chemical_formula_structural   SrLa11Mg3Ga9O34
_chemical_formula_sum   'Sr1 La11 Mg3 Ga9 O34'
_cell_volume   741.07661068
_cell_formula_units_Z   1
loop_
 _symmetry_equiv_pos_site_id
 _symmetry_equiv_pos_as_xyz
  1  'x, y, z'
loop_
 _atom_site_type_symbol
 _atom_site_label
 _atom_site_symmetry_multiplicity
 _atom_site_fract_x
 _atom_site_fract_y
 _atom_site_fract_z
 _atom_site_occupancy
  Sr  Sr0  1  0.26767581  0.24936046  0.20254142  1
  La  La1  1  0.24069662  0.30837218  0.03505620  1
  La  La2  1  0.24492721  0.26149522  0.37477247  1
  La  La3  1  0.76131565  0.71573864  0.12692972  1
  La  La4  1  0.25076797  0.26143043  0.53950848  1
  La  La5  1  0.75665590  0.71482226  0.29530196  1
  La  La6  1  0.24974833  0.26028555  0.70671647  1
  La  La7  1  0.74639746  0.73754418  0.46160577  1
  La  La8  1  0.24804732  0.26155081  0.87372288  1
  La  La9  1  0.75049882  0.73953654  0.62659193  1
  La  La10  1  0.75153757  0.74075369  0.79269343  1
  La  La11  1  0.74362591  0.75243517  0.96005145  1
  Mg  Mg12  1  0.52696249  0.46171474  0.08072776  1
  Mg  Mg13  1  0.97677792  0.01169575  0.17244418  1
  Mg  Mg14  1  0.97240503  0.02007105  0.33918641  1
  Ga  Ga15  1  0.99583555  0.00729189  0.00018048  1
  Ga  Ga16  1  0.99898783  0.00179391  0.50003596  1
  Ga  Ga17  1  0.53050792  0.46400258  0.24582545  1
  Ga  Ga18  1  0.50275216  0.50203279  0.41541070  1
  Ga  Ga19  1  0.49905527  0.49914152  0.58379738  1
  Ga  Ga20  1  0.49977393  0.49984851  0.75010176  1
  Ga  Ga21  1  0.00059852  -0.00003521  0.66648478  1
  Ga  Ga22  1  0.50115423  0.50563244  0.91534652  1
  Ga  Ga23  1  0.00036536  0.00075540  0.83307554  1
  O  O24  1  0.19610953  0.31090850  0.12996708  1
  O  O25  1  0.29574363  0.71569681  0.03311243  1
  O  O26  1  0.76391399  0.14670765  0.05424102  1
  O  O27  1  0.20110728  0.31937730  0.29934062  1
  O  O28  1  0.30871673  0.70248674  0.19959831  1
  O  O29  1  0.71299313  0.31097836  0.12998659  1
  O  O30  1  0.78998519  0.71560823  0.03311493  1
  O  O31  1  0.74758053  0.13486788  0.22831065  1
  O  O32  1  0.19759478  0.29940934  0.46657401  1
  O  O33  1  0.30594879  0.69985100  0.36397166  1
  O  O34  1  0.68344764  0.31942546  0.29933080  1
  O  O35  1  0.79124185  0.70241815  0.19959894  1
  O  O36  1  0.25478525  0.82681775  0.44393794  1
  O  O37  1  0.73625075  0.16812700  0.39322629  1
  O  O38  1  0.20192822  0.29755328  0.63304705  1
  O  O39  1  0.29385991  0.70374849  0.53426281  1
  O  O40  1  0.70354601  0.29939094  0.46657731  1
  O  O41  1  0.81032659  0.69985644  0.36397465  1
  O  O42  1  0.24990042  0.83462614  0.61091902  1
  O  O43  1  0.74809080  0.16755940  0.55604032  1
  O  O44  1  0.20235852  0.29779896  0.79976347  1
  O  O45  1  0.29612981  0.70287803  0.70064374  1
  O  O46  1  0.70215159  0.29752606  0.63305574  1
  O  O47  1  0.79681997  0.70373154  0.53426615  1
  O  O48  1  0.24986797  0.83492885  0.77756640  1
  O  O49  1  0.74983148  0.16729892  0.72216342  1
  O  O50  1  0.20052932  0.30860873  0.96508873  1
  O  O51  1  0.29828394  0.70513086  0.86655712  1
  O  O52  1  0.70124476  0.29774959  0.79977372  1
  O  O53  1  0.79714463  0.70283197  0.70065042  1
  O  O54  1  0.24800099  0.83135783  0.94546299  1
  O  O55  1  0.74979670  0.16819432  0.88871359  1
  O  O56  1  0.70035109  0.30859279  0.96508914  1
  O  O57  1  0.79734743  0.70508619  0.86656385  1
