# generated using pymatgen
data_Li2MnSiO4
_symmetry_space_group_name_H-M   'P 1'
_cell_length_a   6.40450465
_cell_length_b   11.05222013
_cell_length_c   5.16106880
_cell_angle_alpha   90.00000000
_cell_angle_beta   90.94273456
_cell_angle_gamma   90.00000000
_symmetry_Int_Tables_number   1
_chemical_formula_structural   Li2MnSiO4
_chemical_formula_sum   'Li8 Mn4 Si4 O16'
_cell_volume   365.27161882
_cell_formula_units_Z   4
loop_
 _symmetry_equiv_pos_site_id
 _symmetry_equiv_pos_as_xyz
  1  'x, y, z'
loop_
 _atom_site_type_symbol
 _atom_site_label
 _atom_site_symmetry_multiplicity
 _atom_site_fract_x
 _atom_site_fract_y
 _atom_site_fract_z
 _atom_site_occupancy
  Li  Li0  1  0.00219813  0.83853819  0.68977362  1
  Li  Li1  1  0.23763240  0.07358212  0.70517002  1
  Li  Li2  1  0.26236760  0.57358212  0.79482998  1
  Li  Li3  1  0.49780187  0.33853819  0.81022638  1
  Li  Li4  1  0.50219813  0.66146181  0.18977362  1
  Li  Li5  1  0.73763240  0.42641788  0.20517002  1
  Li  Li6  1  0.76236760  0.92641788  0.29482998  1
  Li  Li7  1  0.99780187  0.16146181  0.31022638  1
  Mn  Mn8  1  0.99797808  0.66482126  0.19518415  1
  Mn  Mn9  1  0.50202192  0.16482126  0.30481585  1
  Mn  Mn10  1  0.49797808  0.83517874  0.69518415  1
  Mn  Mn11  1  0.00202192  0.33517874  0.80481585  1
  Si  Si12  1  0.25138064  0.41362264  0.31060078  1
  Si  Si13  1  0.24861936  0.91362264  0.18939922  1
  Si  Si14  1  0.75138064  0.08637736  0.81060078  1
  Si  Si15  1  0.74861936  0.58637736  0.68939922  1
  O  O16  1  0.03543835  0.34117267  0.21511804  1
  O  O17  1  0.03979948  0.84265764  0.29869520  1
  O  O18  1  0.24461094  0.05322804  0.30119712  1
  O  O19  1  0.25698990  0.41333002  0.63183929  1
  O  O20  1  0.24301010  0.91333002  0.86816071  1
  O  O21  1  0.25538906  0.55322804  0.19880288  1
  O  O22  1  0.46020052  0.34265764  0.20130480  1
  O  O23  1  0.46456165  0.84117267  0.28488196  1
  O  O24  1  0.53543835  0.15882733  0.71511804  1
  O  O25  1  0.53979948  0.65734236  0.79869520  1
  O  O26  1  0.74461094  0.44677196  0.80119712  1
  O  O27  1  0.75698990  0.08666998  0.13183929  1
  O  O28  1  0.74301010  0.58666998  0.36816071  1
  O  O29  1  0.75538906  0.94677196  0.69880288  1
  O  O30  1  0.96020052  0.15734236  0.70130480  1
  O  O31  1  0.96456165  0.65882733  0.78488196  1
