# generated using pymatgen
data_LiSb(TeO4)3
_symmetry_space_group_name_H-M   'P 1'
_cell_length_a   5.23705648
_cell_length_b   4.90685484
_cell_length_c   8.55636333
_cell_angle_alpha   90.00000000
_cell_angle_beta   90.00000000
_cell_angle_gamma   89.43713494
_symmetry_Int_Tables_number   1
_chemical_formula_structural   LiSb(TeO4)3
_chemical_formula_sum   'Li1 Sb1 Te3 O12'
_cell_volume   219.86633097
_cell_formula_units_Z   1
loop_
 _symmetry_equiv_pos_site_id
 _symmetry_equiv_pos_as_xyz
  1  'x, y, z'
loop_
 _atom_site_type_symbol
 _atom_site_label
 _atom_site_symmetry_multiplicity
 _atom_site_fract_x
 _atom_site_fract_y
 _atom_site_fract_z
 _atom_site_occupancy
  Li  Li0  1  0.00000000  0.00000000  0.71915637  1
  Sb  Sb1  1  0.00000000  0.00000000  0.10306755  1
  Te  Te2  1  0.00000000  0.50000000  0.40993091  1
  Te  Te3  1  0.50000000  0.00000000  0.92440444  1
  Te  Te4  1  0.50000000  0.50000000  0.60280841  1
  O  O5  1  0.14410590  0.25339188  0.26113613  1
  O  O6  1  0.18255221  0.28664535  0.58224816  1
  O  O7  1  0.18239389  0.20264053  0.92021823  1
  O  O8  1  0.31304079  0.71202238  0.43943347  1
  O  O9  1  0.32262389  0.78278182  0.08089164  1
  O  O10  1  0.35730024  0.75824675  0.75447804  1
  O  O11  1  0.64269976  0.24175325  0.75447804  1
  O  O12  1  0.67737611  0.21721818  0.08089164  1
  O  O13  1  0.68695921  0.28797762  0.43943347  1
  O  O14  1  0.81760611  0.79735947  0.92021823  1
  O  O15  1  0.81744779  0.71335465  0.58224816  1
  O  O16  1  0.85589410  0.74660812  0.26113613  1
