# generated using pymatgen
data_Dy2S2O
_symmetry_space_group_name_H-M   'P 1'
_cell_length_a   6.88150870
_cell_length_b   6.91332938
_cell_length_c   8.29044381
_cell_angle_alpha   90.00000000
_cell_angle_beta   99.31578938
_cell_angle_gamma   90.00000000
_symmetry_Int_Tables_number   1
_chemical_formula_structural   Dy2S2O
_chemical_formula_sum   'Dy8 S8 O4'
_cell_volume   389.20887799
_cell_formula_units_Z   4
loop_
 _symmetry_equiv_pos_site_id
 _symmetry_equiv_pos_as_xyz
  1  'x, y, z'
loop_
 _atom_site_type_symbol
 _atom_site_label
 _atom_site_symmetry_multiplicity
 _atom_site_fract_x
 _atom_site_fract_y
 _atom_site_fract_z
 _atom_site_occupancy
  O  O0  1  0.35046844  0.08719613  0.38294473  1
  O  O1  1  0.85046844  0.41280387  0.38294473  1
  O  O2  1  0.64953156  0.91280387  0.61705527  1
  O  O3  1  0.14953156  0.58719613  0.61705527  1
  S  S4  1  0.96990121  0.72310545  0.92431786  1
  S  S5  1  0.42376361  0.63436934  0.31982368  1
  S  S6  1  0.57623639  0.36563066  0.68017632  1
  S  S7  1  0.92376361  0.86563066  0.31982368  1
  S  S8  1  0.53009879  0.22310545  0.07568214  1
  S  S9  1  0.03009879  0.27689455  0.07568214  1
  S  S10  1  0.46990121  0.77689455  0.92431786  1
  S  S11  1  0.07623639  0.13436934  0.68017632  1
  Dy  Dy12  1  0.74994352  0.05379808  0.86177878  1
  Dy  Dy13  1  0.75005648  0.55379808  0.13822122  1
  Dy  Dy14  1  0.25005648  0.94620192  0.13822122  1
  Dy  Dy15  1  0.24994352  0.44620192  0.86177878  1
  Dy  Dy16  1  0.67868175  0.14336523  0.42374889  1
  Dy  Dy17  1  0.82131825  0.64336523  0.57625111  1
  Dy  Dy18  1  0.32131825  0.85663477  0.57625111  1
  Dy  Dy19  1  0.17868175  0.35663477  0.42374889  1
