# generated using pymatgen
data_Li4CoNi3(PO4)4
_symmetry_space_group_name_H-M   'P 1'
_cell_length_a   4.73233367
_cell_length_b   10.15249435
_cell_length_c   5.94140282
_cell_angle_alpha   90.00000000
_cell_angle_beta   90.00000000
_cell_angle_gamma   89.98011554
_symmetry_Int_Tables_number   1
_chemical_formula_structural   Li4CoNi3(PO4)4
_chemical_formula_sum   'Li4 Co1 Ni3 P4 O16'
_cell_volume   285.45462697
_cell_formula_units_Z   1
loop_
 _symmetry_equiv_pos_site_id
 _symmetry_equiv_pos_as_xyz
  1  'x, y, z'
loop_
 _atom_site_type_symbol
 _atom_site_label
 _atom_site_symmetry_multiplicity
 _atom_site_fract_x
 _atom_site_fract_y
 _atom_site_fract_z
 _atom_site_occupancy
  Li  Li0  1  0.00050791  0.00039852  0.00032083  1
  Li  Li1  1  0.00050791  0.00039852  0.49967917  1
  Li  Li2  1  0.49890328  0.50042435  0.50040362  1
  Li  Li3  1  0.49890328  0.50042435  0.99959638  1
  Co  Co4  1  0.97518732  0.27895812  0.25000000  1
  Ni  Ni5  1  0.01974624  0.72494845  0.75000000  1
  Ni  Ni6  1  0.48029233  0.22334539  0.75000000  1
  Ni  Ni7  1  0.52002708  0.77611513  0.25000000  1
  P  P8  1  0.08417987  0.59541787  0.25000000  1
  P  P9  1  0.41698200  0.09325318  0.25000000  1
  P  P10  1  0.58436054  0.90566683  0.75000000  1
  P  P11  1  0.91617230  0.40574154  0.75000000  1
  O  O12  1  0.20205820  0.45250543  0.25000000  1
  O  O13  1  0.22568413  0.66588993  0.04246658  1
  O  O14  1  0.22568413  0.66588993  0.45753342  1
  O  O15  1  0.23977421  0.39983537  0.75000000  1
  O  O16  1  0.26031204  0.89981415  0.75000000  1
  O  O17  1  0.27607979  0.16426654  0.04281938  1
  O  O18  1  0.27607979  0.16426654  0.45718062  1
  O  O19  1  0.29853484  0.95014240  0.25000000  1
  O  O20  1  0.70169039  0.04870325  0.75000000  1
  O  O21  1  0.72620419  0.83441856  0.54295895  1
  O  O22  1  0.72620419  0.83441856  0.95704105  1
  O  O23  1  0.74058891  0.09827610  0.25000000  1
  O  O24  1  0.75987452  0.59983972  0.25000000  1
  O  O25  1  0.77317173  0.33392860  0.54397423  1
  O  O26  1  0.77317173  0.33392860  0.95602577  1
  O  O27  1  0.79911716  0.54878607  0.75000000  1
