# generated using pymatgen
data_LiFe3P3(HO6)2
_symmetry_space_group_name_H-M   'P 1'
_cell_length_a   8.66479090
_cell_length_b   8.66479090
_cell_length_c   6.56650972
_cell_angle_alpha   73.68775188
_cell_angle_beta   106.31224812
_cell_angle_gamma   86.59413402
_symmetry_Int_Tables_number   1
_chemical_formula_structural   LiFe3P3(HO6)2
_chemical_formula_sum   'Li2 Fe6 P6 H4 O24'
_cell_volume   448.96411788
_cell_formula_units_Z   2
loop_
 _symmetry_equiv_pos_site_id
 _symmetry_equiv_pos_as_xyz
  1  'x, y, z'
loop_
 _atom_site_type_symbol
 _atom_site_label
 _atom_site_symmetry_multiplicity
 _atom_site_fract_x
 _atom_site_fract_y
 _atom_site_fract_z
 _atom_site_occupancy
  Li  Li0  1  0.99869878  0.99869878  0.75000000  1
  Li  Li1  1  0.00130122  0.00130122  0.25000000  1
  Fe  Fe2  1  0.04532553  0.62822163  0.62003178  1
  Fe  Fe3  1  0.37177737  0.95467447  0.12003178  1
  Fe  Fe4  1  0.71189341  0.71189341  0.75000000  1
  Fe  Fe5  1  0.28810659  0.28810659  0.25000000  1
  Fe  Fe6  1  0.62822163  0.04532553  0.87996822  1
  Fe  Fe7  1  0.95467447  0.37177737  0.37996822  1
  P  P8  1  0.31607201  0.90083682  0.60355076  1
  P  P9  1  0.09916318  0.68392799  0.10355076  1
  P  P10  1  0.32265387  0.32265387  0.75000000  1
  P  P11  1  0.67734613  0.67734613  0.25000000  1
  P  P12  1  0.90083682  0.31607201  0.89644924  1
  P  P13  1  0.68392799  0.09916318  0.39644924  1
  H  H14  1  0.37972961  0.62969714  0.68723214  1
  H  H15  1  0.37030286  0.62027039  0.18723214  1
  H  H16  1  0.62969714  0.37972961  0.81276786  1
  H  H17  1  0.62027039  0.37030286  0.31276786  1
  O  O18  1  0.14039121  0.86521263  0.57609430  1
  O  O19  1  0.38364155  0.96738607  0.79801565  1
  O  O20  1  0.13478737  0.85960879  0.07609430  1
  O  O21  1  0.03261393  0.61635845  0.29801565  1
  O  O22  1  0.43559791  0.73616396  0.65053511  1
  O  O23  1  0.67759022  0.98001937  0.61905830  1
  O  O24  1  0.28431584  0.50493905  0.73090018  1
  O  O25  1  0.26383604  0.56440209  0.15053511  1
  O  O26  1  0.28832081  0.21855444  0.96412425  1
  O  O27  1  0.01998063  0.32240978  0.11905830  1
  O  O28  1  0.21855444  0.28832081  0.53587575  1
  O  O29  1  0.49506095  0.71568416  0.23090018  1
  O  O30  1  0.50493905  0.28431584  0.76909982  1
  O  O31  1  0.78144556  0.71167919  0.46412425  1
  O  O32  1  0.98001937  0.67759022  0.88094170  1
  O  O33  1  0.71167919  0.78144556  0.03587575  1
  O  O34  1  0.73616396  0.43559791  0.84946489  1
  O  O35  1  0.71568416  0.49506095  0.26909982  1
  O  O36  1  0.32240978  0.01998063  0.38094170  1
  O  O37  1  0.56440209  0.26383604  0.34946489  1
  O  O38  1  0.96738607  0.38364155  0.70198435  1
  O  O39  1  0.86521263  0.14039121  0.92390570  1
  O  O40  1  0.61635845  0.03261393  0.20198435  1
  O  O41  1  0.85960879  0.13478737  0.42390570  1
