# generated using pymatgen
data_Li2VFe(PO4)2
_symmetry_space_group_name_H-M   'P 1'
_cell_length_a   10.45678504
_cell_length_b   6.10454223
_cell_length_c   4.75924536
_cell_angle_alpha   90.00000000
_cell_angle_beta   89.77658886
_cell_angle_gamma   90.00000000
_symmetry_Int_Tables_number   1
_chemical_formula_structural   Li2VFe(PO4)2
_chemical_formula_sum   'Li4 V2 Fe2 P4 O16'
_cell_volume   303.79881569
_cell_formula_units_Z   2
loop_
 _symmetry_equiv_pos_site_id
 _symmetry_equiv_pos_as_xyz
  1  'x, y, z'
loop_
 _atom_site_type_symbol
 _atom_site_label
 _atom_site_symmetry_multiplicity
 _atom_site_fract_x
 _atom_site_fract_y
 _atom_site_fract_z
 _atom_site_occupancy
  Li  Li0  1  0.00000000  0.00000000  0.00000000  1
  Li  Li1  1  0.00000000  0.50000000  0.00000000  1
  Li  Li2  1  0.50000000  0.00000000  0.50000000  1
  Li  Li3  1  0.50000000  0.50000000  0.50000000  1
  V  V4  1  0.22402765  0.75000000  0.48337275  1
  V  V5  1  0.77597235  0.25000000  0.51662725  1
  Fe  Fe6  1  0.27773584  0.25000000  0.97441253  1
  Fe  Fe7  1  0.72226416  0.75000000  0.02558747  1
  P  P8  1  0.09179068  0.25000000  0.41257644  1
  P  P9  1  0.40822528  0.75000000  0.91865933  1
  P  P10  1  0.59177472  0.25000000  0.08134067  1
  P  P11  1  0.90820932  0.75000000  0.58742356  1
  O  O12  1  0.04600015  0.75000000  0.71026487  1
  O  O13  1  0.09517475  0.25000000  0.73560131  1
  O  O14  1  0.16203905  0.04777200  0.27681215  1
  O  O15  1  0.16203905  0.45222800  0.27681215  1
  O  O16  1  0.33670755  0.54709575  0.78659070  1
  O  O17  1  0.33670755  0.95290425  0.78659070  1
  O  O18  1  0.40674228  0.75000000  0.24127800  1
  O  O19  1  0.45469526  0.25000000  0.20869069  1
  O  O20  1  0.54530474  0.75000000  0.79130931  1
  O  O21  1  0.59325772  0.25000000  0.75872200  1
  O  O22  1  0.66329245  0.04709575  0.21340930  1
  O  O23  1  0.66329245  0.45290425  0.21340930  1
  O  O24  1  0.83796095  0.54777200  0.72318785  1
  O  O25  1  0.83796095  0.95222800  0.72318785  1
  O  O26  1  0.90482525  0.75000000  0.26439869  1
  O  O27  1  0.95399985  0.25000000  0.28973513  1
