# generated using pymatgen
data_NaAl11O17
_symmetry_space_group_name_H-M   'P 1'
_cell_length_a   5.65336920
_cell_length_b   5.65335471
_cell_length_c   22.75263436
_cell_angle_alpha   90.00033918
_cell_angle_beta   89.99991535
_cell_angle_gamma   119.99995239
_symmetry_Int_Tables_number   1
_chemical_formula_structural   NaAl11O17
_chemical_formula_sum   'Na2 Al22 O34'
_cell_volume   629.76150697
_cell_formula_units_Z   2
loop_
 _symmetry_equiv_pos_site_id
 _symmetry_equiv_pos_as_xyz
  1  'x, y, z'
loop_
 _atom_site_type_symbol
 _atom_site_label
 _atom_site_symmetry_multiplicity
 _atom_site_fract_x
 _atom_site_fract_y
 _atom_site_fract_z
 _atom_site_occupancy
  Na  Na0  1  0.00000355  0.99999255  0.25000036  1
  Na  Na1  1  0.99999359  0.99998627  0.74999996  1
  Al  Al2  1  0.16823867  0.83175459  0.89359520  1
  Al  Al3  1  0.16823642  0.83175315  0.60640297  1
  Al  Al4  1  0.33333395  0.66667964  0.17480428  1
  Al  Al5  1  0.33333896  0.66667421  0.02624788  1
  Al  Al6  1  0.00000685  0.00000369  -0.00000030  1
  Al  Al7  1  0.00000020  0.99999960  0.49999952  1
  Al  Al8  1  0.33332039  0.66666526  0.32520845  1
  Al  Al9  1  0.33333076  0.66666505  0.47375091  1
  Al  Al10  1  0.16825519  0.33648779  0.60640291  1
  Al  Al11  1  0.16825559  0.33648986  0.89359641  1
  Al  Al12  1  0.33648420  0.16824788  0.10640427  1
  Al  Al13  1  0.33647754  0.16822980  0.39359720  1
  Al  Al14  1  0.66352223  0.83177189  0.60640272  1
  Al  Al15  1  0.66352202  0.83177355  0.89359624  1
  Al  Al16  1  0.83175919  0.66352858  0.10640396  1
  Al  Al17  1  0.83174028  0.66351018  0.39359668  1
  Al  Al18  1  0.66667312  0.33334404  0.67479794  1
  Al  Al19  1  0.66667258  0.33334593  0.82520181  1
  Al  Al20  1  0.66666901  0.33333477  0.52624823  1
  Al  Al21  1  0.66667265  0.33333832  0.97375131  1
  Al  Al22  1  0.83176556  0.16825654  0.10640322  1
  Al  Al23  1  0.83176250  0.16824608  0.39359711  1
  O  O24  1  0.00248577  0.50123452  0.85592135  1
  O  O25  1  0.99750979  0.49875975  0.35592154  1
  O  O26  1  0.99752234  0.49877455  0.14407754  1
  O  O27  1  0.15577708  0.84425638  0.05007819  1
  O  O28  1  0.00248516  0.50123778  0.64407800  1
  O  O29  1  0.15577168  0.84424911  0.44992241  1
  O  O30  1  0.33329417  0.66669909  0.24999358  1
  O  O31  1  0.15574573  0.31151945  0.44992189  1
  O  O32  1  0.00000493  0.00000601  0.85635776  1
  O  O33  1  0.00000215  0.00001371  0.14364228  1
  O  O34  1  0.99999289  0.99999171  0.35635794  1
  O  O35  1  0.00000472  0.00000625  0.64364204  1
  O  O36  1  0.33333583  0.66666947  0.94586309  1
  O  O37  1  0.33333490  0.66666341  0.55413581  1
  O  O38  1  0.15576254  0.31152928  0.05007735  1
  O  O39  1  0.31152381  0.15576931  0.55007756  1
  O  O40  1  0.31152793  0.15577207  0.94992158  1
  O  O41  1  0.49877025  0.50125479  0.85592223  1
  O  O42  1  0.50122153  0.49874643  0.35592024  1
  O  O43  1  0.50124239  0.49876660  0.14408212  1
  O  O44  1  0.49877396  0.50125350  0.64407825  1
  O  O45  1  0.68848518  0.84423832  0.05007622  1
  O  O46  1  0.68847610  0.84422838  0.44992266  1
  O  O47  1  0.66666360  0.33333902  0.44586349  1
  O  O48  1  0.49875421  0.99752183  0.64408060  1
  O  O49  1  0.50124365  0.00247767  0.35592252  1
  O  O50  1  0.50124915  0.00249323  0.14407867  1
  O  O51  1  0.49875581  0.99752326  0.85591808  1
  O  O52  1  0.66670261  0.33341490  0.75000062  1
  O  O53  1  0.66667717  0.33334463  0.05413541  1
  O  O54  1  0.84425661  0.68848058  0.55007803  1
  O  O55  1  0.84425396  0.68848304  0.94992327  1
  O  O56  1  0.84423224  0.15575206  0.94992283  1
  O  O57  1  0.84422614  0.15574769  0.55007662  1
