# generated using pymatgen
data_Mn6P4H2O17
_symmetry_space_group_name_H-M   'P 1'
_cell_length_a   9.46039347
_cell_length_b   10.03455204
_cell_length_c   8.24874020
_cell_angle_alpha   88.76449046
_cell_angle_beta   92.62169876
_cell_angle_gamma   118.12462220
_symmetry_Int_Tables_number   1
_chemical_formula_structural   Mn6P4H2O17
_chemical_formula_sum   'Mn12 P8 H4 O34'
_cell_volume   689.87650301
_cell_formula_units_Z   2
loop_
 _symmetry_equiv_pos_site_id
 _symmetry_equiv_pos_as_xyz
  1  'x, y, z'
loop_
 _atom_site_type_symbol
 _atom_site_label
 _atom_site_symmetry_multiplicity
 _atom_site_fract_x
 _atom_site_fract_y
 _atom_site_fract_z
 _atom_site_occupancy
  Mn  Mn0  1  0.18309905  0.83004982  0.42401871  1
  Mn  Mn1  1  0.06916722  0.25452046  0.83634529  1
  Mn  Mn2  1  0.31966468  0.62179691  0.02779001  1
  Mn  Mn3  1  0.24420162  0.40573699  0.37405330  1
  Mn  Mn4  1  0.47017304  0.75963534  0.60071031  1
  Mn  Mn5  1  0.35304823  0.16995018  0.92401871  1
  Mn  Mn6  1  0.71647247  0.83453029  0.95998342  1
  Mn  Mn7  1  0.81464676  0.74547954  0.33634529  1
  Mn  Mn8  1  0.69786777  0.37820309  0.52779001  1
  Mn  Mn9  1  0.83846462  0.59426301  0.87405330  1
  Mn  Mn10  1  0.71053771  0.24036466  0.10071031  1
  Mn  Mn11  1  0.88194218  0.16546971  0.45998342  1
  P  P12  1  0.01615205  0.93648078  0.69028427  1
  P  P13  1  0.08716703  0.52037662  0.67269758  1
  P  P14  1  0.07967127  0.06351922  0.19028427  1
  P  P15  1  0.57140939  0.89890651  0.29114893  1
  P  P16  1  0.46520921  0.49005034  0.72499289  1
  P  P17  1  0.56679041  0.47962338  0.17269758  1
  P  P18  1  0.67250287  0.10109349  0.79114893  1
  P  P19  1  0.97515887  0.50994966  0.22499289  1
  H  H20  1  0.21715411  0.83543966  0.88122395  1
  H  H21  1  0.22229230  0.85067856  0.07085720  1
  H  H22  1  0.37161374  0.14932144  0.57085720  1
  H  H23  1  0.38171444  0.16456034  0.38122395  1
  O  O24  1  0.19392688  0.99139441  0.74884175  1
  O  O25  1  0.21306342  0.78146708  0.98365048  1
  O  O26  1  0.21271552  0.67746397  0.60869876  1
  O  O27  1  0.13870140  0.49256775  0.84671063  1
  O  O28  1  0.07538438  0.38515746  0.57075553  1
  O  O29  1  0.14480262  0.52174071  0.22372553  1
  O  O30  1  0.41434113  0.86562460  0.37511143  1
  O  O31  1  0.07380033  0.17649839  0.31535072  1
  O  O32  1  0.14008280  0.14950915  0.02756532  1
  O  O33  1  0.61074607  0.92873412  0.77270060  1
  O  O34  1  0.53473116  0.82137262  0.12266591  1
  O  O35  1  0.33052437  0.33885188  0.78727047  1
  O  O36  1  0.42084312  0.52770145  0.55232778  1
  O  O37  1  0.48879634  0.62862275  0.82940491  1
  O  O38  1  0.40409865  0.48209104  0.17344285  1
  O  O39  1  0.20253347  0.00860559  0.24884175  1
  O  O40  1  0.65842914  0.83661041  0.41224370  1
  O  O41  1  0.43159634  0.21853292  0.48365048  1
  O  O42  1  0.62306191  0.47825929  0.72372553  1
  O  O43  1  0.53525156  0.32253603  0.10869876  1
  O  O44  1  0.64613365  0.50743225  0.34671063  1
  O  O45  1  0.69022691  0.61484254  0.07075553  1
  O  O46  1  0.90809087  0.92933163  0.16328977  1
  O  O47  1  0.54871652  0.13437540  0.87511143  1
  O  O48  1  0.89730194  0.82350161  0.81535072  1
  O  O49  1  0.99057365  0.85049085  0.52756532  1
  O  O50  1  0.71335754  0.17862738  0.62266591  1
  O  O51  1  0.68201195  0.07126588  0.27270060  1
  O  O52  1  0.92200762  0.51790896  0.67344285  1
  O  O53  1  0.99167249  0.66114812  0.28727047  1
  O  O54  1  0.89314167  0.47229855  0.05232778  1
  O  O55  1  0.86017359  0.37137725  0.32940491  1
  O  O56  1  0.82181973  0.16338959  0.91224370  1
  O  O57  1  0.97875824  0.07066837  0.66328977  1
