# generated using pymatgen
data_Li2FeCo3O8
_symmetry_space_group_name_H-M   'P 1'
_cell_length_a   5.72085048
_cell_length_b   5.72085051
_cell_length_c   5.79876273
_cell_angle_alpha   60.44347925
_cell_angle_beta   119.55651659
_cell_angle_gamma   119.99999929
_symmetry_Int_Tables_number   1
_chemical_formula_structural   Li2FeCo3O8
_chemical_formula_sum   'Li2 Fe1 Co3 O8'
_cell_volume   135.08913395
_cell_formula_units_Z   1
loop_
 _symmetry_equiv_pos_site_id
 _symmetry_equiv_pos_as_xyz
  1  'x, y, z'
loop_
 _atom_site_type_symbol
 _atom_site_label
 _atom_site_symmetry_multiplicity
 _atom_site_fract_x
 _atom_site_fract_y
 _atom_site_fract_z
 _atom_site_occupancy
  Li  Li0  1  0.87434277  0.12565723  0.62302831  1
  Li  Li1  1  0.12565723  0.87434277  0.37697169  1
  Fe  Fe2  1  0.50000000  0.50000000  0.50000000  1
  Co  Co3  1  0.50000000  0.50000000  0.00000000  1
  Co  Co4  1  0.50000000  0.00000000  0.00000000  1
  Co  Co5  1  0.00000000  0.50000000  0.00000000  1
  O  O6  1  0.74496387  0.70953561  0.78039313  1
  O  O7  1  0.74496387  0.25503613  0.78039313  1
  O  O8  1  0.26351961  0.73648039  0.79055882  1
  O  O9  1  0.29046439  0.25503613  0.78039313  1
  O  O10  1  0.70953561  0.74496387  0.21960687  1
  O  O11  1  0.73648039  0.26351961  0.20944118  1
  O  O12  1  0.25503613  0.74496387  0.21960687  1
  O  O13  1  0.25503613  0.29046439  0.21960687  1
