# generated using pymatgen
data_Li5V4(PO4)6
_symmetry_space_group_name_H-M   'P 1'
_cell_length_a   8.69187732
_cell_length_b   12.18258629
_cell_length_c   8.72200083
_cell_angle_alpha   90.00000000
_cell_angle_beta   90.00000000
_cell_angle_gamma   90.43960304
_symmetry_Int_Tables_number   1
_chemical_formula_structural   Li5V4(PO4)6
_chemical_formula_sum   'Li10 V8 P12 O48'
_cell_volume   923.54151922
_cell_formula_units_Z   2
loop_
 _symmetry_equiv_pos_site_id
 _symmetry_equiv_pos_as_xyz
  1  'x, y, z'
loop_
 _atom_site_type_symbol
 _atom_site_label
 _atom_site_symmetry_multiplicity
 _atom_site_fract_x
 _atom_site_fract_y
 _atom_site_fract_z
 _atom_site_occupancy
  Li  Li0  1  0.07448335  0.69984119  0.07384085  1
  Li  Li1  1  0.20932883  0.17958206  0.77786644  1
  Li  Li2  1  0.29509280  0.32179273  0.27728998  1
  Li  Li3  1  0.41885760  0.73930536  0.19810818  1
  Li  Li4  1  0.41580380  0.80447507  0.58906999  1
  Li  Li5  1  0.57448335  0.19984119  0.42615915  1
  Li  Li6  1  0.70932883  0.67958206  0.72213356  1
  Li  Li7  1  0.79509280  0.82179373  0.22271002  1
  Li  Li8  1  0.91885760  0.23930536  0.30189182  1
  Li  Li9  1  0.91580380  0.30447507  0.91093001  1
  V  V10  1  0.25049042  0.88995634  0.02836296  1
  V  V11  1  0.24020837  0.61000538  0.53709329  1
  V  V12  1  0.25379362  0.38723882  0.96131621  1
  V  V13  1  0.24751074  0.11080421  0.46153346  1
  V  V14  1  0.75379362  0.88723882  0.53868379  1
  V  V15  1  0.74751074  0.61080421  0.03846654  1
  V  V16  1  0.75049042  0.38995634  0.47163704  1
  V  V17  1  0.74020837  0.11000538  0.96290671  1
  P  P18  1  0.03784222  0.49283423  0.25068718  1
  P  P19  1  0.10634629  0.84892993  0.38493836  1
  P  P20  1  0.10302793  0.14807052  0.10197510  1
  P  P21  1  0.39566291  0.64604457  0.88308811  1
  P  P22  1  0.39413281  0.35469100  0.60472096  1
  P  P23  1  0.46496504  0.00460593  0.74901506  1
  P  P24  1  0.53784222  0.99283423  0.24931282  1
  P  P25  1  0.60302793  0.64807052  0.39802490  1
  P  P26  1  0.60634629  0.34892993  0.11506164  1
  P  P27  1  0.89413281  0.85469100  0.89527904  1
  P  P28  1  0.89566291  0.14604457  0.61691189  1
  P  P29  1  0.96496504  0.50460593  0.75098494  1
  O  O30  1  0.04901080  0.43427513  0.87050411  1
  O  O31  1  0.07021869  0.85964972  0.89268725  1
  O  O32  1  0.07837728  0.58840167  0.67608437  1
  O  O33  1  0.07014365  0.16754712  0.59502949  1
  O  O34  1  0.11057869  0.57201943  0.36960568  1
  O  O35  1  0.15271224  0.96862907  0.41780625  1
  O  O36  1  0.13950936  0.81919761  0.21369971  1
  O  O37  1  0.14359509  0.23855934  0.98139653  1
  O  O38  1  0.15313543  0.18690156  0.26519525  1
  O  O39  1  0.17087932  0.43079605  0.17331428  1
  O  O40  1  0.17889630  0.04288992  0.05266142  1
  O  O41  1  0.20239164  0.77310858  0.49244748  1
  O  O42  1  0.30449343  0.71910031  0.99841686  1
  O  O43  1  0.32190857  0.46443783  0.55196490  1
  O  O44  1  0.33732485  0.07256910  0.67197005  1
  O  O45  1  0.32726847  0.31888278  0.75982062  1
  O  O46  1  0.36205328  0.67554113  0.71166941  1
  O  O47  1  0.35105224  0.52722662  0.91544497  1
  O  O48  1  0.35087803  0.26550470  0.48082069  1
  O  O49  1  0.39456205  0.92476161  0.86484822  1
  O  O50  1  0.42942095  0.90459054  0.18017565  1
  O  O51  1  0.42351002  0.64383486  0.39147346  1
  O  O52  1  0.43157641  0.33049414  0.09302111  1
  O  O53  1  0.45361551  0.06895888  0.36299847  1
  O  O54  1  0.54901080  0.93427513  0.62949589  1
  O  O55  1  0.57014365  0.66754712  0.90497051  1
  O  O56  1  0.57021869  0.35964972  0.60731275  1
  O  O57  1  0.57837728  0.08840167  0.82391563  1
  O  O58  1  0.61057869  0.07201943  0.13039432  1
  O  O59  1  0.64359509  0.73855934  0.51860347  1
  O  O60  1  0.65271224  0.46862907  0.08219375  1
  O  O61  1  0.63950936  0.31919761  0.28630029  1
  O  O62  1  0.65313543  0.68690156  0.23480475  1
  O  O63  1  0.67087932  0.93079605  0.32668572  1
  O  O64  1  0.67889630  0.54288992  0.44733858  1
  O  O65  1  0.70239164  0.27310858  0.00755252  1
  O  O66  1  0.80449343  0.21910031  0.50158314  1
  O  O67  1  0.82190857  0.96443783  0.94803510  1
  O  O68  1  0.83732485  0.57256910  0.82802995  1
  O  O69  1  0.82726847  0.81888278  0.74017938  1
  O  O70  1  0.85087803  0.76550470  0.01917931  1
  O  O71  1  0.86205328  0.17554113  0.78833059  1
  O  O72  1  0.85105224  0.02722662  0.58455503  1
  O  O73  1  0.89456205  0.42476161  0.63515178  1
  O  O74  1  0.93157641  0.83049414  0.40697889  1
  O  O75  1  0.92942095  0.40459054  0.31982435  1
  O  O76  1  0.92351002  0.14383486  0.10852654  1
  O  O77  1  0.95361551  0.56895888  0.13700153  1
