# generated using pymatgen
data_Yb2S3
_symmetry_space_group_name_H-M   'P 1'
_cell_length_a   22.10039229
_cell_length_b   8.39584937
_cell_length_c   8.39584961
_cell_angle_alpha   90.00000000
_cell_angle_beta   55.26065669
_cell_angle_gamma   55.26065531
_symmetry_Int_Tables_number   1
_chemical_formula_structural   Yb2S3
_chemical_formula_sum   'Yb16 S24'
_cell_volume   922.37564844
_cell_formula_units_Z   8
loop_
 _symmetry_equiv_pos_site_id
 _symmetry_equiv_pos_as_xyz
  1  'x, y, z'
loop_
 _atom_site_type_symbol
 _atom_site_label
 _atom_site_symmetry_multiplicity
 _atom_site_fract_x
 _atom_site_fract_y
 _atom_site_fract_z
 _atom_site_occupancy
  Yb  Yb0  1  0.99317448  0.38060592  0.29060375  1
  Yb  Yb1  1  0.99317448  0.13987065  0.72987282  1
  Yb  Yb2  1  0.09743375  0.60384888  0.35384888  1
  Yb  Yb3  1  0.16666700  0.25000000  0.61439469  1
  Yb  Yb4  1  0.34015852  0.36012935  0.20939625  1
  Yb  Yb5  1  0.23589925  0.89615112  0.14615112  1
  Yb  Yb6  1  0.34015852  0.11939408  0.77012718  1
  Yb  Yb7  1  0.16666700  0.75000000  0.88560531  1
  Yb  Yb8  1  0.49317448  0.22987282  0.63987065  1
  Yb  Yb9  1  0.66666700  0.38560531  0.25000000  1
  Yb  Yb10  1  0.59743375  0.85384888  0.10384888  1
  Yb  Yb11  1  0.66666700  0.11439469  0.75000000  1
  Yb  Yb12  1  0.49317448  0.79060375  0.88060592  1
  Yb  Yb13  1  0.73589925  0.64615112  0.39615112  1
  Yb  Yb14  1  0.84015852  0.27012718  0.61939408  1
  Yb  Yb15  1  0.84015852  0.70939625  0.86012935  1
  S  S16  1  0.12788453  0.41950644  0.98652526  1
  S  S17  1  0.05043222  0.35471615  0.51841918  1
  S  S18  1  0.05043222  0.99398620  0.33028317  1
  S  S19  1  0.28290078  0.14528385  0.16971683  1
  S  S20  1  0.28290078  0.50601380  0.98158082  1
  S  S21  1  0.20544847  0.08049356  0.87017984  1
  S  S22  1  0.12788453  0.69683898  0.62982016  1
  S  S23  1  0.20544847  0.80316102  0.51347474  1
  S  S24  1  0.44747547  0.53268205  0.94562191  1
  S  S25  1  0.38585853  0.28804732  0.46731795  1
  S  S26  1  0.38585853  0.05437809  0.37510746  1
  S  S27  1  0.62788453  0.12982016  0.19683898  1
  S  S28  1  0.62788453  0.48652526  0.91950644  1
  S  S29  1  0.55043222  0.01841918  0.85471615  1
  S  S30  1  0.44747547  0.62489254  0.71195268  1
  S  S31  1  0.55043222  0.83028317  0.49398620  1
  S  S32  1  0.78290078  0.48158082  0.00601380  1
  S  S33  1  0.70544847  0.37017984  0.58049356  1
  S  S34  1  0.94747547  0.21195268  0.12489254  1
  S  S35  1  0.70544847  0.01347474  0.30316102  1
  S  S36  1  0.94747547  0.44562191  0.03268205  1
  S  S37  1  0.78290078  0.66971683  0.64528385  1
  S  S38  1  0.88585853  0.96731795  0.78804732  1
  S  S39  1  0.88585853  0.87510746  0.55437809  1
