# generated using pymatgen
data_Tm2NiOs
_symmetry_space_group_name_H-M   'P 1'
_cell_length_a   4.72338965
_cell_length_b   4.72338906
_cell_length_c   4.72339005
_cell_angle_alpha   60.00006765
_cell_angle_beta   60.00007186
_cell_angle_gamma   60.00005423
_symmetry_Int_Tables_number   1
_chemical_formula_structural   Tm2NiOs
_chemical_formula_sum   'Tm2 Ni1 Os1'
_cell_volume   74.51555515
_cell_formula_units_Z   1
loop_
 _symmetry_equiv_pos_site_id
 _symmetry_equiv_pos_as_xyz
  1  'x, y, z'
loop_
 _atom_site_type_symbol
 _atom_site_label
 _atom_site_symmetry_multiplicity
 _atom_site_fract_x
 _atom_site_fract_y
 _atom_site_fract_z
 _atom_site_occupancy
  Tm  Tm0  1  0.00000005  -0.00000005  0.00000006  1
  Tm  Tm1  1  0.49999997  0.50000002  0.50000000  1
  Ni  Ni2  1  0.24999994  0.25000007  0.24999993  1
  Os  Os3  1  0.75000003  0.74999997  0.75000001  1
