# generated using pymatgen
data_Li4Co3NiO8
_symmetry_space_group_name_H-M   'P 1'
_cell_length_a   5.71210772
_cell_length_b   5.71200246
_cell_length_c   5.77053204
_cell_angle_alpha   60.36004946
_cell_angle_beta   60.35868411
_cell_angle_gamma   59.95799220
_symmetry_Int_Tables_number   1
_chemical_formula_structural   Li4Co3NiO8
_chemical_formula_sum   'Li4 Co3 Ni1 O8'
_cell_volume   133.80855185
_cell_formula_units_Z   1
loop_
 _symmetry_equiv_pos_site_id
 _symmetry_equiv_pos_as_xyz
  1  'x, y, z'
loop_
 _atom_site_type_symbol
 _atom_site_label
 _atom_site_symmetry_multiplicity
 _atom_site_fract_x
 _atom_site_fract_y
 _atom_site_fract_z
 _atom_site_occupancy
  Li  Li0  1  0.00000027  0.50000232  0.49999950  1
  Li  Li1  1  0.99999545  0.00000403  0.50000042  1
  Li  Li2  1  0.50000050  0.50000016  0.49999773  1
  Li  Li3  1  0.50000302  0.99999760  0.49999814  1
  Co  Co4  1  0.00000065  0.50000344  -0.00000307  1
  Co  Co5  1  0.49999898  0.50000238  -0.00000166  1
  Co  Co6  1  0.50000197  -0.00000117  0.99999884  1
  Ni  Ni7  1  0.99998960  -0.00000246  0.00001884  1
  O  O8  1  0.24426794  0.73047920  0.77993126  1
  O  O9  1  0.26952994  0.75573035  0.22008650  1
  O  O10  1  0.26094504  0.26095900  0.21737263  1
  O  O11  1  0.75384498  0.75386409  0.22153586  1
  O  O12  1  0.24615611  0.24613816  0.77846036  1
  O  O13  1  0.73905623  0.73903967  0.78262700  1
  O  O14  1  0.73047092  0.24426862  0.77990957  1
  O  O15  1  0.75573140  0.26952060  0.22007108  1
