# generated using pymatgen
data_EuCdAu2
_symmetry_space_group_name_H-M   'P 1'
_cell_length_a   5.07190484
_cell_length_b   5.07190092
_cell_length_c   5.07188747
_cell_angle_alpha   59.99974861
_cell_angle_beta   59.99987045
_cell_angle_gamma   59.99974487
_symmetry_Int_Tables_number   1
_chemical_formula_structural   EuCdAu2
_chemical_formula_sum   'Eu1 Cd1 Au2'
_cell_volume   92.25594907
_cell_formula_units_Z   1
loop_
 _symmetry_equiv_pos_site_id
 _symmetry_equiv_pos_as_xyz
  1  'x, y, z'
loop_
 _atom_site_type_symbol
 _atom_site_label
 _atom_site_symmetry_multiplicity
 _atom_site_fract_x
 _atom_site_fract_y
 _atom_site_fract_z
 _atom_site_occupancy
  Eu  Eu0  1  0.74999897  0.74999877  0.74999933  1
  Cd  Cd1  1  0.24999961  0.24999923  0.24999914  1
  Au  Au2  1  0.49999995  0.50000025  0.49999970  1
  Au  Au3  1  0.99999947  0.99999975  0.99999982  1
