# generated using pymatgen
data_Al2O3
_symmetry_space_group_name_H-M   'P 1'
_cell_length_a   5.68686135
_cell_length_b   5.65478367
_cell_length_c   16.88433162
_cell_angle_alpha   60.33267470
_cell_angle_beta   58.23625209
_cell_angle_gamma   59.85228876
_symmetry_Int_Tables_number   1
_chemical_formula_structural   Al2O3
_chemical_formula_sum   'Al16 O24'
_cell_volume   379.05849302
_cell_formula_units_Z   8
loop_
 _symmetry_equiv_pos_site_id
 _symmetry_equiv_pos_as_xyz
  1  'x, y, z'
loop_
 _atom_site_type_symbol
 _atom_site_label
 _atom_site_symmetry_multiplicity
 _atom_site_fract_x
 _atom_site_fract_y
 _atom_site_fract_z
 _atom_site_occupancy
  Al  Al0  1  0.11570278  0.62446627  0.03830408  1
  Al  Al1  1  0.97084174  0.01054716  0.16573661  1
  Al  Al2  1  0.45231787  -0.00859050  0.33954067  1
  Al  Al3  1  0.48152663  0.50047054  0.16083494  1
  Al  Al4  1  0.46490460  0.01742390  0.16617238  1
  Al  Al5  1  0.13116203  0.09713730  0.71289689  1
  Al  Al6  1  0.42933893  0.49262555  0.51016687  1
  Al  Al7  1  0.49757865  0.48684135  0.66603374  1
  Al  Al8  1  0.96438017  0.46828864  0.35622296  1
  Al  Al9  1  0.48453587  0.49138080  0.33307674  1
  Al  Al10  1  0.51876269  0.97152968  0.50453655  1
  Al  Al11  1  0.50114551  0.51134104  0.82664716  1
  Al  Al12  1  0.84564635  0.89380076  0.61975855  1
  Al  Al13  1  0.49614809  -0.01758072  0.82791220  1
  Al  Al14  1  0.88434766  0.38667069  0.93734946  1
  Al  Al15  1  0.52059035  0.99864750  0.98649100  1
  O  O16  1  0.23216926  0.22484832  0.08946398  1
  O  O17  1  0.24835347  0.25732794  0.24842091  1
  O  O18  1  0.23392504  0.75839968  0.08690834  1
  O  O19  1  0.72894982  0.24053961  0.08607487  1
  O  O20  1  0.24000370  0.74566179  0.24160151  1
  O  O21  1  0.25400424  0.25919415  0.40256825  1
  O  O22  1  0.25593676  0.21918832  0.58028253  1
  O  O23  1  0.70147446  0.25965508  0.24229519  1
  O  O24  1  0.27100961  0.72681635  0.40902073  1
  O  O25  1  0.70850826  0.76013727  0.08374699  1
  O  O26  1  0.70864964  0.27379359  0.41049525  1
  O  O27  1  0.70973179  0.78047058  0.24436181  1
  O  O28  1  0.26918578  0.23469419  0.75046597  1
  O  O29  1  0.25077144  0.75159782  0.57763651  1
  O  O30  1  0.27337795  0.71289260  0.75066451  1
  O  O31  1  0.69737075  0.27687109  0.57664647  1
  O  O32  1  0.26800169  0.23075466  0.91596793  1
  O  O33  1  0.69755086  0.75870206  0.41082599  1
  O  O34  1  0.72782523  0.24229491  0.75151322  1
  O  O35  1  0.72777738  0.74002814  0.58149274  1
  O  O36  1  0.26005398  0.73939779  0.91214145  1
  O  O37  1  0.71037836  0.25411996  0.91626269  1
  O  O38  1  0.72929966  0.74764643  0.75068654  1
  O  O39  1  0.71176097  0.75496771  0.91750882  1
