# generated using pymatgen
data_Ho2S3
_symmetry_space_group_name_H-M   'P 1'
_cell_length_a   3.85316210
_cell_length_b   10.44550844
_cell_length_c   10.60407020
_cell_angle_alpha   90.00000000
_cell_angle_beta   90.00000000
_cell_angle_gamma   90.00000000
_symmetry_Int_Tables_number   1
_chemical_formula_structural   Ho2S3
_chemical_formula_sum   'Ho8 S12'
_cell_volume   426.79513308
_cell_formula_units_Z   4
loop_
 _symmetry_equiv_pos_site_id
 _symmetry_equiv_pos_as_xyz
  1  'x, y, z'
loop_
 _atom_site_type_symbol
 _atom_site_label
 _atom_site_symmetry_multiplicity
 _atom_site_fract_x
 _atom_site_fract_y
 _atom_site_fract_z
 _atom_site_occupancy
  S  S0  1  0.25000000  0.30448822  0.72739382  1
  S  S1  1  0.75000000  0.69551178  0.27260618  1
  S  S2  1  0.75000000  0.80448822  0.77260618  1
  S  S3  1  0.25000000  0.19551178  0.22739382  1
  S  S4  1  0.25000000  0.94458300  0.38078687  1
  S  S5  1  0.75000000  0.05541700  0.61921313  1
  S  S6  1  0.75000000  0.44458300  0.11921313  1
  S  S7  1  0.25000000  0.55541700  0.88078687  1
  S  S8  1  0.25000000  0.87333582  0.04584065  1
  S  S9  1  0.75000000  0.12666418  0.95415935  1
  S  S10  1  0.75000000  0.37333582  0.45415935  1
  S  S11  1  0.25000000  0.62666418  0.54584065  1
  Ho  Ho12  1  0.25000000  0.99628585  0.80795619  1
  Ho  Ho13  1  0.75000000  0.00371415  0.19204381  1
  Ho  Ho14  1  0.75000000  0.49628585  0.69204381  1
  Ho  Ho15  1  0.25000000  0.50371415  0.30795619  1
  Ho  Ho16  1  0.25000000  0.18684380  0.48982331  1
  Ho  Ho17  1  0.75000000  0.81315620  0.51017669  1
  Ho  Ho18  1  0.75000000  0.68684380  0.01017669  1
  Ho  Ho19  1  0.25000000  0.31315620  0.98982331  1
