# generated using pymatgen
data_Zr19O40
_symmetry_space_group_name_H-M   'P 1'
_cell_length_a   18.26421635
_cell_length_b   8.16520341
_cell_length_c   11.16642133
_cell_angle_alpha   72.92211888
_cell_angle_beta   70.77883306
_cell_angle_gamma   26.57409671
_symmetry_Int_Tables_number   1
_chemical_formula_structural   Zr19O40
_chemical_formula_sum   'Zr19 O40'
_cell_volume   703.43286485
_cell_formula_units_Z   1
loop_
 _symmetry_equiv_pos_site_id
 _symmetry_equiv_pos_as_xyz
  1  'x, y, z'
loop_
 _atom_site_type_symbol
 _atom_site_label
 _atom_site_symmetry_multiplicity
 _atom_site_fract_x
 _atom_site_fract_y
 _atom_site_fract_z
 _atom_site_occupancy
  Zr  Zr0  1  0.17534345  0.24847304  0.37625793  1
  Zr  Zr1  1  0.07354025  0.24563629  0.87819924  1
  Zr  Zr2  1  0.02717066  0.74519573  0.62563454  1
  Zr  Zr3  1  0.12020677  0.76026861  0.12138538  1
  Zr  Zr4  1  0.37661747  0.24697139  0.37341172  1
  Zr  Zr5  1  0.27413123  0.25100873  0.87435346  1
  Zr  Zr6  1  0.22400805  0.75263021  0.62447750  1
  Zr  Zr7  1  0.33081420  0.74071321  0.12104465  1
  Zr  Zr8  1  0.58140622  0.23745597  0.37217992  1
  Zr  Zr9  1  0.47846274  0.24819850  0.87711631  1
  Zr  Zr10  1  0.52362566  0.75698022  0.12785141  1
  Zr  Zr11  1  0.42430693  0.75087545  0.62524906  1
  Zr  Zr12  1  0.76682366  0.27069334  0.37229544  1
  Zr  Zr13  1  0.67337576  0.25062160  0.87590386  1
  Zr  Zr14  1  0.62438259  0.74888638  0.62592521  1
  Zr  Zr15  1  0.87453578  0.25527147  0.87538656  1
  Zr  Zr16  1  0.97440547  0.25147142  0.37463137  1
  Zr  Zr17  1  0.82479276  0.74863960  0.62370920  1
  Zr  Zr18  1  0.92640109  0.73947464  0.13004851  1
  O  O19  1  0.05424610  0.25081602  0.47532116  1
  O  O20  1  0.11222392  0.23919640  0.22485658  1
  O  O21  1  0.00360237  0.25366463  0.72636775  1
  O  O22  1  0.04770692  0.73678220  0.02844124  1
  O  O23  1  0.25582934  0.24901006  0.47385645  1
  O  O24  1  0.29869496  0.25978078  0.22222611  1
  O  O25  1  0.20834842  0.24663704  0.72409466  1
  O  O26  1  0.15655886  0.24420857  0.97354772  1
  O  O27  1  0.14423719  0.75162375  0.52622636  1
  O  O28  1  0.24435315  0.75021072  0.02713663  1
  O  O29  1  0.19469629  0.74982464  0.27595499  1
  O  O30  1  0.09351141  0.75240222  0.77737980  1
  O  O31  1  0.35441829  0.25614753  0.96939952  1
  O  O32  1  0.40343437  0.25133446  0.71967542  1
  O  O33  1  0.45232730  0.25903968  0.47231592  1
  O  O34  1  0.49205366  0.27639449  0.23653120  1
  O  O35  1  0.39748791  0.74474805  0.27758652  1
  O  O36  1  0.34199863  0.75732359  0.52709982  1
  O  O37  1  0.44152822  0.76251098  0.02609418  1
  O  O38  1  0.29615487  0.74759294  0.77567143  1
  O  O39  1  0.70558273  0.25036720  0.22216381  1
  O  O40  1  0.53979195  0.29054179  0.97427878  1
  O  O41  1  0.60705877  0.24667363  0.72521024  1
  O  O42  1  0.65577944  0.24801716  0.47515845  1
  O  O43  1  0.64221839  0.74863870  0.01104345  1
  O  O44  1  0.58256863  0.75825805  0.27560702  1
  O  O45  1  0.54550774  0.75044934  0.52382271  1
  O  O46  1  0.49552619  0.74910683  0.77545377  1
  O  O47  1  0.91275696  0.22461093  0.23704882  1
  O  O48  1  0.80570155  0.25029492  0.72106259  1
  O  O49  1  0.75505935  0.25207715  0.97128773  1
  O  O50  1  0.85794220  0.24191180  0.47303083  1
  O  O51  1  0.85106769  0.75496772  0.01431387  1
  O  O52  1  0.69433689  0.75197865  0.77244439  1
  O  O53  1  0.80643078  0.74268588  0.27781298  1
  O  O54  1  0.74413764  0.74953612  0.52476075  1
  O  O55  1  0.96969142  0.21051887  0.97459402  1
  O  O56  1  0.99066732  0.75559432  0.28114112  1
  O  O57  1  0.89692963  0.74774529  0.77852269  1
  O  O58  1  0.94848180  0.73731111  0.53139721  1
