# generated using pymatgen
data_SmHoIr2
_symmetry_space_group_name_H-M   'P 1'
_cell_length_a   4.89463450
_cell_length_b   4.89464999
_cell_length_c   4.89465087
_cell_angle_alpha   59.99983202
_cell_angle_beta   60.00006232
_cell_angle_gamma   59.99999728
_symmetry_Int_Tables_number   1
_chemical_formula_structural   SmHoIr2
_chemical_formula_sum   'Sm1 Ho1 Ir2'
_cell_volume   82.91789621
_cell_formula_units_Z   1
loop_
 _symmetry_equiv_pos_site_id
 _symmetry_equiv_pos_as_xyz
  1  'x, y, z'
loop_
 _atom_site_type_symbol
 _atom_site_label
 _atom_site_symmetry_multiplicity
 _atom_site_fract_x
 _atom_site_fract_y
 _atom_site_fract_z
 _atom_site_occupancy
  Sm  Sm0  1  0.75000116  0.75000013  0.74999958  1
  Ho  Ho1  1  0.24999616  0.24999964  0.24999911  1
  Ir  Ir2  1  0.00000074  0.99999901  0.00000050  1
  Ir  Ir3  1  0.50000094  0.50000022  0.49999981  1
