# generated using pymatgen
data_SrAl2P2(O4F)2
_symmetry_space_group_name_H-M   'P 1'
_cell_length_a   4.72854999
_cell_length_b   12.14089716
_cell_length_c   12.34320041
_cell_angle_alpha   90.00000000
_cell_angle_beta   90.00000000
_cell_angle_gamma   90.00000000
_symmetry_Int_Tables_number   1
_chemical_formula_structural   SrAl2P2(O4F)2
_chemical_formula_sum   'Sr4 Al8 P8 O32 F8'
_cell_volume   708.60880687
_cell_formula_units_Z   4
loop_
 _symmetry_equiv_pos_site_id
 _symmetry_equiv_pos_as_xyz
  1  'x, y, z'
loop_
 _atom_site_type_symbol
 _atom_site_label
 _atom_site_symmetry_multiplicity
 _atom_site_fract_x
 _atom_site_fract_y
 _atom_site_fract_z
 _atom_site_occupancy
  O  O0  1  0.84972917  0.33970390  0.14477458  1
  O  O1  1  0.59249754  0.60572194  0.09585851  1
  O  O2  1  0.90750246  0.39427806  0.59585851  1
  O  O3  1  0.40750246  0.10572194  0.40414149  1
  O  O4  1  0.96931639  0.70552029  0.79256016  1
  O  O5  1  0.46931639  0.79447971  0.20743984  1
  O  O6  1  0.03068361  0.20552029  0.70743984  1
  O  O7  1  0.53068361  0.29447971  0.29256016  1
  O  O8  1  0.86784159  0.85656728  0.64944150  1
  O  O9  1  0.36784159  0.64343272  0.35055850  1
  O  O10  1  0.13215841  0.35656728  0.85055850  1
  O  O11  1  0.63215841  0.14343272  0.14944150  1
  O  O12  1  0.15027083  0.83970390  0.35522542  1
  O  O13  1  0.65027083  0.66029610  0.64477458  1
  O  O14  1  0.09249754  0.89427806  0.90414149  1
  O  O15  1  0.09712537  0.39586423  0.39842018  1
  O  O16  1  0.40287463  0.60413577  0.89842018  1
  O  O17  1  0.90287463  0.89586423  0.10157982  1
  O  O18  1  0.59712537  0.10413577  0.60157982  1
  O  O19  1  0.27678519  0.52819788  0.54723276  1
  O  O20  1  0.20916240  0.04552384  0.04038567  1
  O  O21  1  0.70916240  0.45447616  0.95961433  1
  O  O22  1  0.79083760  0.54552384  0.45961433  1
  O  O23  1  0.29083760  0.95447616  0.54038567  1
  O  O24  1  0.00965814  0.19523187  0.28157734  1
  O  O25  1  0.50965814  0.30476813  0.71842266  1
  O  O26  1  0.99034186  0.69523187  0.21842266  1
  O  O27  1  0.49034186  0.80476813  0.78157734  1
  O  O28  1  0.22321481  0.47180212  0.04723276  1
  O  O29  1  0.72321481  0.02819788  0.95276724  1
  O  O30  1  0.77678519  0.97180212  0.45276724  1
  O  O31  1  0.34972917  0.16029610  0.85522542  1
  F  F32  1  0.48690882  0.29215439  0.50539815  1
  F  F33  1  0.98690882  0.20784561  0.49460185  1
  F  F34  1  0.51309118  0.79215439  0.99460185  1
  F  F35  1  0.01309118  0.70784561  0.00539815  1
  F  F36  1  0.27923516  0.26036608  0.03882705  1
  F  F37  1  0.77923516  0.23963392  0.96117295  1
  F  F38  1  0.72076484  0.76036608  0.46117295  1
  F  F39  1  0.22076484  0.73963392  0.53882705  1
  Al  Al40  1  0.99674522  0.35660748  0.00271450  1
  Al  Al41  1  0.25263177  0.25062656  0.39309088  1
  Al  Al42  1  0.75263177  0.24937344  0.60690912  1
  Al  Al43  1  0.74736823  0.75062656  0.10690912  1
  Al  Al44  1  0.24736823  0.74937344  0.89309088  1
  Al  Al45  1  0.49674522  0.14339252  0.99728550  1
  Al  Al46  1  0.00325478  0.85660748  0.49728550  1
  Al  Al47  1  0.50325478  0.64339252  0.50271450  1
  P  P48  1  0.52320082  0.03467859  0.49873463  1
  P  P49  1  0.25359960  0.25871416  0.78335487  1
  P  P50  1  0.75359960  0.24128584  0.21664513  1
  P  P51  1  0.24640040  0.74128584  0.28335487  1
  P  P52  1  0.74640040  0.75871416  0.71664513  1
  P  P53  1  0.97679918  0.96532141  0.99873463  1
  P  P54  1  0.47679918  0.53467859  0.00126537  1
  P  P55  1  0.02320082  0.46532141  0.50126537  1
  Sr  Sr56  1  0.24786604  0.99452936  0.73609442  1
  Sr  Sr57  1  0.74786604  0.50547064  0.26390558  1
  Sr  Sr58  1  0.75213396  0.49452936  0.76390558  1
  Sr  Sr59  1  0.25213396  0.00547064  0.23609442  1
