# generated using pymatgen
data_Hf6Al16Os7
_symmetry_space_group_name_H-M   'P 1'
_cell_length_a   8.70438092
_cell_length_b   8.70438092
_cell_length_c   8.70438092
_cell_angle_alpha   60.04254548
_cell_angle_beta   60.04254548
_cell_angle_gamma   60.04254548
_symmetry_Int_Tables_number   1
_chemical_formula_structural   Hf6Al16Os7
_chemical_formula_sum   'Hf6 Al16 Os7'
_cell_volume   466.78541628
_cell_formula_units_Z   1
loop_
 _symmetry_equiv_pos_site_id
 _symmetry_equiv_pos_as_xyz
  1  'x, y, z'
loop_
 _atom_site_type_symbol
 _atom_site_label
 _atom_site_symmetry_multiplicity
 _atom_site_fract_x
 _atom_site_fract_y
 _atom_site_fract_z
 _atom_site_occupancy
  Hf  Hf0  1  0.70535908  0.29471238  0.29471238  1
  Hf  Hf1  1  0.29463786  0.70528918  0.70528918  1
  Hf  Hf2  1  0.29471238  0.70535908  0.29471238  1
  Hf  Hf3  1  0.29471238  0.29471238  0.70535908  1
  Hf  Hf4  1  0.70528918  0.29463786  0.70528918  1
  Hf  Hf5  1  0.70528918  0.70528918  0.29463786  1
  Al  Al6  1  0.33662805  0.33662805  0.33662805  1
  Al  Al7  1  0.33662712  0.33662712  0.99001230  1
  Al  Al8  1  0.99001230  0.33662712  0.33662712  1
  Al  Al9  1  0.33662712  0.99001230  0.33662712  1
  Al  Al10  1  0.66337257  0.66337257  0.66337257  1
  Al  Al11  1  0.66337282  0.66337282  0.00998732  1
  Al  Al12  1  0.66337282  0.00998732  0.66337282  1
  Al  Al13  1  0.00998732  0.66337282  0.66337282  1
  Al  Al14  1  0.11975963  0.11975963  0.11975963  1
  Al  Al15  1  0.11972142  0.11972142  0.64115517  1
  Al  Al16  1  0.64115517  0.11972142  0.11972142  1
  Al  Al17  1  0.11972142  0.64115517  0.11972142  1
  Al  Al18  1  0.88024047  0.88024047  0.88024047  1
  Al  Al19  1  0.88027948  0.88027948  0.35884390  1
  Al  Al20  1  0.88027948  0.35884390  0.88027948  1
  Al  Al21  1  0.35884390  0.88027948  0.88027948  1
  Os  Os22  1  0.00000092  0.00000092  0.00000092  1
  Os  Os23  1  0.50000069  -0.00000050  -0.00000050  1
  Os  Os24  1  0.00000159  0.49999933  0.49999933  1
  Os  Os25  1  -0.00000050  0.50000069  -0.00000050  1
  Os  Os26  1  -0.00000050  -0.00000050  0.50000069  1
  Os  Os27  1  0.49999933  0.00000159  0.49999933  1
  Os  Os28  1  0.49999933  0.49999933  0.00000159  1
