# generated using pymatgen
data_HfCr2
_symmetry_space_group_name_H-M   'P 1'
_cell_length_a   5.03526521
_cell_length_b   5.03449351
_cell_length_c   16.30448121
_cell_angle_alpha   89.99874424
_cell_angle_beta   90.00060031
_cell_angle_gamma   119.98716718
_symmetry_Int_Tables_number   1
_chemical_formula_structural   HfCr2
_chemical_formula_sum   'Hf8 Cr16'
_cell_volume   357.99082538
_cell_formula_units_Z   8
loop_
 _symmetry_equiv_pos_site_id
 _symmetry_equiv_pos_as_xyz
  1  'x, y, z'
loop_
 _atom_site_type_symbol
 _atom_site_label
 _atom_site_symmetry_multiplicity
 _atom_site_fract_x
 _atom_site_fract_y
 _atom_site_fract_z
 _atom_site_occupancy
  Hf  Hf0  1  -0.00000100  -0.00000030  0.09446498  1
  Hf  Hf1  1  -0.00000506  -0.00000379  0.59446053  1
  Hf  Hf2  1  0.99997184  0.99999687  0.90554326  1
  Hf  Hf3  1  0.00002455  -0.00000136  0.40553856  1
  Hf  Hf4  1  0.33336357  0.66666312  0.84396228  1
  Hf  Hf5  1  0.66662856  0.33333034  0.34394431  1
  Hf  Hf6  1  0.66660382  0.33333299  0.15604510  1
  Hf  Hf7  1  0.33337398  0.66666336  0.65603801  1
  Cr  Cr8  1  0.49997615  0.00000441  0.99999533  1
  Cr  Cr9  1  0.50000952  0.00001330  0.50001402  1
  Cr  Cr10  1  0.99997215  0.50000106  0.99999517  1
  Cr  Cr11  1  0.49997336  0.50000445  -0.00000117  1
  Cr  Cr12  1  0.50001130  0.49999497  0.50001175  1
  Cr  Cr13  1  0.99999480  0.49999716  0.50001419  1
  Cr  Cr14  1  0.33334528  0.66668002  0.12343633  1
  Cr  Cr15  1  0.66661420  0.33333832  0.62344531  1
  Cr  Cr16  1  0.66659905  0.33333408  0.87656298  1
  Cr  Cr17  1  0.33338231  0.66667315  0.37655686  1
  Cr  Cr18  1  0.16445547  0.32896088  0.24999494  1
  Cr  Cr19  1  0.83552981  0.67101766  0.74999690  1
  Cr  Cr20  1  0.67102221  0.83553061  0.24999783  1
  Cr  Cr21  1  0.16447368  0.83551401  0.24999562  1
  Cr  Cr22  1  0.83550859  0.16448942  0.74999347  1
  Cr  Cr23  1  0.32897884  0.16446728  0.74999445  1
