# generated using pymatgen
data_Ag3(Bi2Br3)7
_symmetry_space_group_name_H-M   'P 1'
_cell_length_a   13.02264928
_cell_length_b   14.18459367
_cell_length_c   15.00285764
_cell_angle_alpha   90.00000000
_cell_angle_beta   90.00000000
_cell_angle_gamma   107.88253867
_symmetry_Int_Tables_number   1
_chemical_formula_structural   Ag3(Bi2Br3)7
_chemical_formula_sum   'Ag6 Bi28 Br42'
_cell_volume   2637.45366703
_cell_formula_units_Z   2
loop_
 _symmetry_equiv_pos_site_id
 _symmetry_equiv_pos_as_xyz
  1  'x, y, z'
loop_
 _atom_site_type_symbol
 _atom_site_label
 _atom_site_symmetry_multiplicity
 _atom_site_fract_x
 _atom_site_fract_y
 _atom_site_fract_z
 _atom_site_occupancy
  Ag  Ag0  1  0.45907968  0.61772449  0.59106802  1
  Ag  Ag1  1  0.45907968  0.61772449  0.90893198  1
  Ag  Ag2  1  0.55007787  0.39030694  0.09763077  1
  Ag  Ag3  1  0.55007787  0.39030694  0.40236923  1
  Ag  Ag4  1  0.86597341  0.37802299  0.08689417  1
  Ag  Ag5  1  0.86597341  0.37802299  0.41310583  1
  Bi  Bi6  1  0.10038085  0.93071476  0.75000000  1
  Bi  Bi7  1  0.11931874  0.61286962  0.56473681  1
  Bi  Bi8  1  0.11931874  0.61286962  0.93526319  1
  Bi  Bi9  1  0.24547773  0.97049529  0.57480516  1
  Bi  Bi10  1  0.24547773  0.97049529  0.92519484  1
  Bi  Bi11  1  0.36034670  0.91974434  0.75000000  1
  Bi  Bi12  1  0.22050234  0.39315525  0.07414598  1
  Bi  Bi13  1  0.22050234  0.39315525  0.42585402  1
  Bi  Bi14  1  0.15633239  0.14032689  0.64290777  1
  Bi  Bi15  1  0.15633239  0.14032689  0.85709223  1
  Bi  Bi16  1  0.25937031  0.02484763  0.25000000  1
  Bi  Bi17  1  0.34836290  0.28290178  0.75000000  1
  Bi  Bi18  1  0.54234144  0.85949182  0.14795405  1
  Bi  Bi19  1  0.54234144  0.85949182  0.35204595  1
  Bi  Bi20  1  0.44476520  0.13662013  0.85525597  1
  Bi  Bi21  1  0.44476520  0.13662013  0.64474403  1
  Bi  Bi22  1  0.65421467  0.72043063  0.25000000  1
  Bi  Bi23  1  0.73546025  0.97914832  0.75000000  1
  Bi  Bi24  1  0.85478811  0.85661168  0.14683383  1
  Bi  Bi25  1  0.85478811  0.85661168  0.35316617  1
  Bi  Bi26  1  0.77370673  0.59944624  0.92454392  1
  Bi  Bi27  1  0.77370673  0.59944624  0.57545608  1
  Bi  Bi28  1  0.63818858  0.08671422  0.25000000  1
  Bi  Bi29  1  0.75490930  0.02741743  0.08928669  1
  Bi  Bi30  1  0.75490930  0.02741743  0.41071331  1
  Bi  Bi31  1  0.81062503  0.17611164  0.62132491  1
  Bi  Bi32  1  0.81062503  0.17611164  0.87867509  1
  Bi  Bi33  1  0.91165611  0.07175594  0.25000000  1
  Br  Br34  1  0.00202485  0.74849598  0.52761033  1
  Br  Br35  1  0.00202485  0.74849598  0.97238967  1
  Br  Br36  1  0.98492190  0.74835916  0.25000000  1
  Br  Br37  1  0.09158709  0.53553203  0.11056167  1
  Br  Br38  1  0.09158709  0.53553203  0.38943833  1
  Br  Br39  1  0.14852421  0.69443316  0.75000000  1
  Br  Br40  1  0.34164897  0.74936984  0.25000000  1
  Br  Br41  1  0.18000964  0.30216905  0.25000000  1
  Br  Br42  1  0.23575187  0.46505404  0.60891127  1
  Br  Br43  1  0.23575187  0.46505404  0.89108873  1
  Br  Br44  1  0.10436576  0.01991627  0.11160330  1
  Br  Br45  1  0.10436576  0.01991627  0.38839670  1
  Br  Br46  1  0.31731268  0.75233709  0.52765805  1
  Br  Br47  1  0.31731268  0.75233709  0.97234195  1
  Br  Br48  1  0.33457369  0.26173016  0.02755542  1
  Br  Br49  1  0.33457369  0.26173016  0.47244458  1
  Br  Br50  1  0.46913487  0.70574525  0.75000000  1
  Br  Br51  1  0.42527917  0.53588173  0.09663034  1
  Br  Br52  1  0.42527917  0.53588173  0.40336966  1
  Br  Br53  1  0.57030633  0.96852049  0.61268558  1
  Br  Br54  1  0.57030633  0.96852049  0.88731442  1
  Br  Br55  1  0.41174981  0.02529777  0.10788207  1
  Br  Br56  1  0.41174981  0.02529777  0.39211793  1
  Br  Br57  1  0.57577752  0.46193161  0.60829339  1
  Br  Br58  1  0.57577752  0.46193161  0.89170661  1
  Br  Br59  1  0.52787069  0.28810083  0.25000000  1
  Br  Br60  1  0.67276206  0.74211630  0.53119361  1
  Br  Br61  1  0.67276206  0.74211630  0.96880639  1
  Br  Br62  1  0.67394183  0.24338473  0.49886469  1
  Br  Br63  1  0.67394183  0.24338473  0.00113531  1
  Br  Br64  1  0.90638085  0.99012852  0.61341315  1
  Br  Br65  1  0.90638085  0.99012852  0.88658685  1
  Br  Br66  1  0.75845185  0.52815808  0.10346287  1
  Br  Br67  1  0.75845185  0.52815808  0.39653713  1
  Br  Br68  1  0.82200026  0.69777863  0.75000000  1
  Br  Br69  1  0.70464860  0.26687101  0.75000000  1
  Br  Br70  1  0.84320941  0.28690208  0.25000000  1
  Br  Br71  1  0.90900756  0.46450652  0.60536669  1
  Br  Br72  1  0.90900756  0.46450652  0.89463331  1
  Br  Br73  1  0.98565698  0.25520163  0.75000000  1
  Br  Br74  1  0.00913617  0.25496414  0.02006457  1
  Br  Br75  1  0.00913617  0.25496414  0.47993543  1
