# generated using pymatgen
data_Ba4Sm4Zn3PtO15
_symmetry_space_group_name_H-M   'P 1'
_cell_length_a   11.82070426
_cell_length_b   11.82070426
_cell_length_c   6.79950197
_cell_angle_alpha   90.00000000
_cell_angle_beta   90.00000000
_cell_angle_gamma   120.00000000
_symmetry_Int_Tables_number   1
_chemical_formula_structural   Ba4Sm4Zn3PtO15
_chemical_formula_sum   'Ba8 Sm8 Zn6 Pt2 O30'
_cell_volume   822.80029649
_cell_formula_units_Z   2
loop_
 _symmetry_equiv_pos_site_id
 _symmetry_equiv_pos_as_xyz
  1  'x, y, z'
loop_
 _atom_site_type_symbol
 _atom_site_label
 _atom_site_symmetry_multiplicity
 _atom_site_fract_x
 _atom_site_fract_y
 _atom_site_fract_z
 _atom_site_occupancy
  O  O0  1  0.83461747  0.91730874  0.07054305  1
  O  O1  1  0.91730874  0.83461747  0.57054305  1
  O  O2  1  0.91730874  0.08269126  0.57054305  1
  O  O3  1  0.08269126  0.91730874  0.07054305  1
  O  O4  1  0.08269126  0.16538253  0.07054305  1
  O  O5  1  0.16538253  0.08269126  0.57054305  1
  O  O6  1  0.60418351  0.66050945  0.29918142  1
  O  O7  1  0.33949055  0.94367406  0.29918142  1
  O  O8  1  0.05632594  0.39581649  0.29918142  1
  O  O9  1  0.94367406  0.60418351  0.79918142  1
  O  O10  1  0.39581649  0.33949055  0.79918142  1
  O  O11  1  0.66050945  0.05632594  0.79918142  1
  O  O12  1  0.60418351  0.94367406  0.29918142  1
  O  O13  1  0.66050945  0.60418351  0.79918142  1
  O  O14  1  0.94367406  0.33949055  0.79918142  1
  O  O15  1  0.05632594  0.66050945  0.29918142  1
  O  O16  1  0.33949055  0.39581649  0.29918142  1
  O  O17  1  0.39581649  0.05632594  0.79918142  1
  O  O18  1  0.49797061  0.74898530  0.98803000  1
  O  O19  1  0.74898530  0.49797061  0.48803000  1
  O  O20  1  0.74898530  0.25101470  0.48803000  1
  O  O21  1  0.25101470  0.74898530  0.98803000  1
  O  O22  1  0.25101470  0.50202939  0.98803000  1
  O  O23  1  0.50202939  0.25101470  0.48803000  1
  O  O24  1  0.83530508  0.41765254  0.15540490  1
  O  O25  1  0.41765254  0.83530508  0.65540490  1
  O  O26  1  0.41765254  0.58234746  0.65540490  1
  O  O27  1  0.58234746  0.41765254  0.15540490  1
  O  O28  1  0.58234746  0.16469492  0.15540490  1
  O  O29  1  0.16469492  0.58234746  0.65540490  1
  Zn  Zn30  1  0.65744250  0.82872125  0.17439835  1
  Zn  Zn31  1  0.82872125  0.65744250  0.67439835  1
  Zn  Zn32  1  0.82872125  0.17127875  0.67439835  1
  Zn  Zn33  1  0.17127875  0.82872125  0.17439835  1
  Zn  Zn34  1  0.17127875  0.34255750  0.17439835  1
  Zn  Zn35  1  0.34255750  0.17127875  0.67439835  1
  Ba  Ba36  1  0.34537751  0.17268876  0.15718722  1
  Ba  Ba37  1  0.17268876  0.34537751  0.65718722  1
  Ba  Ba38  1  0.17268876  0.82731124  0.65718722  1
  Ba  Ba39  1  0.82731124  0.17268876  0.15718722  1
  Ba  Ba40  1  0.65462249  0.82731124  0.65718722  1
  Ba  Ba41  1  0.82731124  0.65462249  0.15718722  1
  Ba  Ba42  1  0.33333333  0.66666667  0.33649428  1
  Ba  Ba43  1  0.66666667  0.33333333  0.83649428  1
  Sm  Sm44  1  0.00000000  0.00000000  0.34158315  1
  Sm  Sm45  1  0.52260303  0.47739697  0.49777026  1
  Sm  Sm46  1  0.47739697  0.95479395  0.99777026  1
  Sm  Sm47  1  0.52260303  0.04520605  0.49777026  1
  Sm  Sm48  1  0.95479395  0.47739697  0.49777026  1
  Sm  Sm49  1  0.00000000  0.00000000  0.84158315  1
  Sm  Sm50  1  0.04520605  0.52260303  0.99777026  1
  Sm  Sm51  1  0.47739697  0.52260303  0.99777026  1
  Pt  Pt52  1  0.33333333  0.66666667  0.81447270  1
  Pt  Pt53  1  0.66666667  0.33333333  0.31447270  1
