# generated using pymatgen
data_Pb3I2(Cl2O3)2
_symmetry_space_group_name_H-M   'P 1'
_cell_length_a   8.71964766
_cell_length_b   8.71964766
_cell_length_c   12.19578953
_cell_angle_alpha   64.84131338
_cell_angle_beta   115.15868662
_cell_angle_gamma   128.76115581
_symmetry_Int_Tables_number   1
_chemical_formula_structural   Pb3I2(Cl2O3)2
_chemical_formula_sum   'Pb6 I4 Cl8 O12'
_cell_volume   637.64379358
_cell_formula_units_Z   2
loop_
 _symmetry_equiv_pos_site_id
 _symmetry_equiv_pos_as_xyz
  1  'x, y, z'
loop_
 _atom_site_type_symbol
 _atom_site_label
 _atom_site_symmetry_multiplicity
 _atom_site_fract_x
 _atom_site_fract_y
 _atom_site_fract_z
 _atom_site_occupancy
  Pb  Pb0  1  0.83203706  0.83203606  0.75000100  1
  Pb  Pb1  1  0.16796594  0.16796494  0.25000000  1
  Pb  Pb2  1  0.94433670  0.34302119  0.82473613  1
  Pb  Pb3  1  0.34302119  0.94433670  0.67526387  1
  Pb  Pb4  1  0.05566230  0.65697881  0.17526487  1
  Pb  Pb5  1  0.65697781  0.05566330  0.32473613  1
  I  I6  1  0.33526837  0.23283407  0.97293209  1
  I  I7  1  0.23283507  0.33526837  0.52706891  1
  I  I8  1  0.66473163  0.76716393  0.02706791  1
  I  I9  1  0.76716493  0.66473163  0.47293109  1
  Cl  Cl10  1  0.32583593  0.57548909  0.72921873  1
  Cl  Cl11  1  0.57548909  0.32583593  0.77078227  1
  Cl  Cl12  1  0.67416307  0.42451091  0.27078227  1
  Cl  Cl13  1  0.42451091  0.67416307  0.22921773  1
  Cl  Cl14  1  0.74221066  0.15001312  0.61007789  1
  Cl  Cl15  1  0.15001312  0.74221066  0.88992111  1
  Cl  Cl16  1  0.25778834  0.84998688  0.38992111  1
  Cl  Cl17  1  0.84998688  0.25778934  0.11007889  1
  O  O18  1  0.08143257  0.09203987  0.87850493  1
  O  O19  1  0.09203987  0.08143257  0.62149507  1
  O  O20  1  0.91856643  0.90796013  0.12149507  1
  O  O21  1  0.90795913  0.91856743  0.37850493  1
  O  O22  1  0.66659198  0.96198295  0.88425845  1
  O  O23  1  0.96198195  0.66659298  0.61574055  1
  O  O24  1  0.33340602  0.03801805  0.11574055  1
  O  O25  1  0.03801705  0.33340702  0.38425845  1
  O  O26  1  0.72300939  0.63964480  0.97647853  1
  O  O27  1  0.63964480  0.72301039  0.52352247  1
  O  O28  1  0.27699061  0.36035620  0.02352147  1
  O  O29  1  0.36035520  0.27699161  0.47647853  1
