# generated using pymatgen
data_Zr2ZnAg2F14
_symmetry_space_group_name_H-M   'P 1'
_cell_length_a   5.61036304
_cell_length_b   5.61036304
_cell_length_c   9.43057257
_cell_angle_alpha   90.75422932
_cell_angle_beta   90.75422932
_cell_angle_gamma   73.56189879
_symmetry_Int_Tables_number   1
_chemical_formula_structural   Zr2ZnAg2F14
_chemical_formula_sum   'Zr2 Zn1 Ag2 F14'
_cell_volume   284.66691607
_cell_formula_units_Z   1
loop_
 _symmetry_equiv_pos_site_id
 _symmetry_equiv_pos_as_xyz
  1  'x, y, z'
loop_
 _atom_site_type_symbol
 _atom_site_label
 _atom_site_symmetry_multiplicity
 _atom_site_fract_x
 _atom_site_fract_y
 _atom_site_fract_z
 _atom_site_occupancy
  Zr  Zr0  1  0.11568194  0.11568194  0.19814766  1
  Zr  Zr1  1  0.88431806  0.88431806  0.80185234  1
  Zn  Zn2  1  0.50000100  0.50000100  0.00000100  1
  Ag  Ag3  1  0.69252573  0.69252573  0.38444249  1
  Ag  Ag4  1  0.30747427  0.30747427  0.61555651  1
  F  F5  1  0.00000000  0.00000000  0.00000000  1
  F  F6  1  0.82023892  0.40788987  0.12400657  1
  F  F7  1  0.40788987  0.82023892  0.12400657  1
  F  F8  1  0.33499588  0.33499588  0.14460655  1
  F  F9  1  0.90515200  0.90515200  0.27661554  1
  F  F10  1  0.99617401  0.36023554  0.37455784  1
  F  F11  1  0.36023554  0.99617401  0.37455784  1
  F  F12  1  0.50000000  0.50000000  0.49999900  1
  F  F13  1  0.63976546  0.00382699  0.62544016  1
  F  F14  1  0.00382699  0.63976546  0.62544016  1
  F  F15  1  0.09484900  0.09484900  0.72338546  1
  F  F16  1  0.66500312  0.66500312  0.85539245  1
  F  F17  1  0.59210913  0.17976108  0.87599243  1
  F  F18  1  0.17976108  0.59210913  0.87599243  1
