# generated using pymatgen
data_Li5Mg
_symmetry_space_group_name_H-M   'P 1'
_cell_length_a   3.07666956
_cell_length_b   5.85167063
_cell_length_c   7.23966184
_cell_angle_alpha   75.34347771
_cell_angle_beta   89.99999999
_cell_angle_gamma   105.24150876
_symmetry_Int_Tables_number   1
_chemical_formula_structural   Li5Mg
_chemical_formula_sum   'Li5 Mg1'
_cell_volume   121.35443958
_cell_formula_units_Z   1
loop_
 _symmetry_equiv_pos_site_id
 _symmetry_equiv_pos_as_xyz
  1  'x, y, z'
loop_
 _atom_site_type_symbol
 _atom_site_label
 _atom_site_symmetry_multiplicity
 _atom_site_fract_x
 _atom_site_fract_y
 _atom_site_fract_z
 _atom_site_occupancy
  Li  Li0  1  0.00080483  0.00160966  0.00028361  1
  Li  Li1  1  0.72159678  0.44318956  0.05661253  1
  Li  Li2  1  0.33338348  0.66676696  0.33223902  1
  Li  Li3  1  0.05605128  0.11210156  0.38769131  1
  Li  Li4  1  0.66641924  0.33283648  0.66629002  1
  Mg  Mg5  1  0.38841339  0.77682678  0.72354952  1
