# generated using pymatgen
data_Li7Mn5O12
_symmetry_space_group_name_H-M   'P 1'
_cell_length_a   2.87633216
_cell_length_b   29.67706005
_cell_length_c   3.07324853
_cell_angle_alpha   88.09409602
_cell_angle_beta   117.90214430
_cell_angle_gamma   92.77767309
_symmetry_Int_Tables_number   1
_chemical_formula_structural   Li7Mn5O12
_chemical_formula_sum   'Li7 Mn5 O12'
_cell_volume   231.54976418
_cell_formula_units_Z   1
loop_
 _symmetry_equiv_pos_site_id
 _symmetry_equiv_pos_as_xyz
  1  'x, y, z'
loop_
 _atom_site_type_symbol
 _atom_site_label
 _atom_site_symmetry_multiplicity
 _atom_site_fract_x
 _atom_site_fract_y
 _atom_site_fract_z
 _atom_site_occupancy
  Li  Li0  1  0.31834531  0.08849952  0.54819110  1
  Li  Li1  1  0.01498769  0.24483348  0.78514190  1
  Li  Li2  1  0.66743068  0.41668795  0.91817341  1
  Li  Li3  1  0.33378246  0.58348671  0.08407821  1
  Li  Li4  1  0.99955054  0.74984629  0.24925479  1
  Li  Li5  1  0.66590332  0.91664605  0.41516059  1
  Li  Li6  1  0.66666700  0.16666700  0.16666700  1
  Mn  Mn7  1  0.99646256  -0.00036453  0.99328964  1
  Mn  Mn8  1  0.33687044  0.33369753  0.34004336  1
  Mn  Mn9  1  -0.00010922  0.50016146  0.49962009  1
  Mn  Mn10  1  0.66666700  0.66666700  0.66666700  1
  Mn  Mn11  1  0.33344222  0.83317154  0.83371291  1
  O  O12  1  0.65691001  0.03494603  0.27887400  1
  O  O13  1  0.33079623  0.20906090  0.45253157  1
  O  O14  1  0.98636126  0.37224274  0.60047978  1
  O  O15  1  0.64559571  0.53870515  0.75248626  1
  O  O16  1  0.31204617  0.70514919  0.91894315  1
  O  O17  1  0.97916912  0.87163892  0.08669932  1
  O  O18  1  0.00253677  0.12427210  0.88080143  1
  O  O19  1  0.67642299  0.29838697  0.05445900  1
  O  O20  1  0.35416488  0.46169508  0.24663468  1
  O  O21  1  0.02128683  0.62818381  0.41438985  1
  O  O22  1  0.68773729  0.79462785  0.58084674  1
  O  O23  1  0.34697274  0.96109126  0.73285422  1
