# generated using pymatgen
data_VIr
_symmetry_space_group_name_H-M   'P 1'
_cell_length_a   4.06332134
_cell_length_b   5.25571293
_cell_length_c   5.25571293
_cell_angle_alpha   84.11415978
_cell_angle_beta   90.00000000
_cell_angle_gamma   90.00000000
_symmetry_Int_Tables_number   1
_chemical_formula_structural   VIr
_chemical_formula_sum   'V4 Ir4'
_cell_volume   111.64746477
_cell_formula_units_Z   4
loop_
 _symmetry_equiv_pos_site_id
 _symmetry_equiv_pos_as_xyz
  1  'x, y, z'
loop_
 _atom_site_type_symbol
 _atom_site_label
 _atom_site_symmetry_multiplicity
 _atom_site_fract_x
 _atom_site_fract_y
 _atom_site_fract_z
 _atom_site_occupancy
  V  V0  1  0.00000000  0.02509551  0.02509551  1
  V  V1  1  0.00000000  0.45105308  0.45105308  1
  V  V2  1  0.50000000  0.21242892  0.21242892  1
  V  V3  1  0.50000000  0.78650465  0.78650465  1
  Ir  Ir4  1  0.00000000  0.96226750  0.52329388  1
  Ir  Ir5  1  0.00000000  0.52329388  0.96226750  1
  Ir  Ir6  1  0.50000000  0.27514300  0.71421547  1
  Ir  Ir7  1  0.50000000  0.71421547  0.27514300  1
