# generated using pymatgen
data_Cs2NaCaF6
_symmetry_space_group_name_H-M   'P 1'
_cell_length_a   6.53772929
_cell_length_b   6.53491038
_cell_length_c   6.53982017
_cell_angle_alpha   59.99674068
_cell_angle_beta   59.95773087
_cell_angle_gamma   60.03069731
_symmetry_Int_Tables_number   1
_chemical_formula_structural   Cs2NaCaF6
_chemical_formula_sum   'Cs2 Na1 Ca1 F6'
_cell_volume   197.54604684
_cell_formula_units_Z   1
loop_
 _symmetry_equiv_pos_site_id
 _symmetry_equiv_pos_as_xyz
  1  'x, y, z'
loop_
 _atom_site_type_symbol
 _atom_site_label
 _atom_site_symmetry_multiplicity
 _atom_site_fract_x
 _atom_site_fract_y
 _atom_site_fract_z
 _atom_site_occupancy
  Cs  Cs0  1  0.25000267  0.24999791  0.25000189  1
  Cs  Cs1  1  0.75000597  0.75000088  0.74999727  1
  Na  Na2  1  0.50006254  0.49981245  0.50009100  1
  Ca  Ca3  1  -0.00012478  0.00028586  0.99986613  1
  F  F4  1  0.24582390  0.75417107  0.75418177  1
  F  F5  1  0.24583859  0.75415057  0.24584664  1
  F  F6  1  0.75420135  0.24579953  0.75419276  1
  F  F7  1  0.75423906  0.75423257  0.24576796  1
  F  F8  1  0.24575682  0.24574810  0.75424462  1
  F  F9  1  0.75419388  0.24580106  0.24580996  1
