# generated using pymatgen
data_AgAsS
_symmetry_space_group_name_H-M   'P 1'
_cell_length_a   12.12033929
_cell_length_b   6.08320636
_cell_length_c   3.96897119
_cell_angle_alpha   90.00000000
_cell_angle_beta   90.00000000
_cell_angle_gamma   90.00000000
_symmetry_Int_Tables_number   1
_chemical_formula_structural   AgAsS
_chemical_formula_sum   'Ag4 As4 S4'
_cell_volume   292.63432976
_cell_formula_units_Z   4
loop_
 _symmetry_equiv_pos_site_id
 _symmetry_equiv_pos_as_xyz
  1  'x, y, z'
loop_
 _atom_site_type_symbol
 _atom_site_label
 _atom_site_symmetry_multiplicity
 _atom_site_fract_x
 _atom_site_fract_y
 _atom_site_fract_z
 _atom_site_occupancy
  Ag  Ag0  1  0.83154345  0.06590762  0.24801474  1
  Ag  Ag1  1  0.33154245  0.43409338  0.24801474  1
  Ag  Ag2  1  0.66845755  0.56590762  0.74801574  1
  Ag  Ag3  1  0.16845755  0.93409338  0.74801574  1
  As  As4  1  0.48883278  0.13535291  0.24710560  1
  As  As5  1  0.98883378  0.36464609  0.24710560  1
  As  As6  1  0.01116722  0.63535491  0.74710460  1
  As  As7  1  0.51116622  0.86464709  0.74710460  1
  S  S8  1  0.15583043  0.20265220  0.24787966  1
  S  S9  1  0.65583143  0.29734980  0.24787966  1
  S  S10  1  0.34416857  0.70265120  0.74787866  1
  S  S11  1  0.84416857  0.79734880  0.74787866  1
