# generated using pymatgen
data_CsV5S8
_symmetry_space_group_name_H-M   'P 1'
_cell_length_a   3.36554209
_cell_length_b   8.96788223
_cell_length_c   9.00081505
_cell_angle_alpha   103.21563875
_cell_angle_beta   100.77528464
_cell_angle_gamma   90.00000000
_symmetry_Int_Tables_number   1
_chemical_formula_structural   CsV5S8
_chemical_formula_sum   'Cs1 V5 S8'
_cell_volume   259.54348485
_cell_formula_units_Z   1
loop_
 _symmetry_equiv_pos_site_id
 _symmetry_equiv_pos_as_xyz
  1  'x, y, z'
loop_
 _atom_site_type_symbol
 _atom_site_label
 _atom_site_symmetry_multiplicity
 _atom_site_fract_x
 _atom_site_fract_y
 _atom_site_fract_z
 _atom_site_occupancy
  Cs  Cs0  1  0.50000000  0.50000000  0.00000000  1
  V  V1  1  0.00000000  0.00000000  0.00000000  1
  V  V2  1  0.64874011  0.99397322  0.29747823  1
  V  V3  1  0.70550931  0.33104881  0.41101762  1
  V  V4  1  0.29449169  0.66895119  0.58898338  1
  V  V5  1  0.35126089  0.00602578  0.70252077  1
  S  S6  1  0.57201889  0.16767644  0.14403579  1
  S  S7  1  0.08897807  0.83001276  0.17795514  1
  S  S8  1  0.17030711  0.49176903  0.34061422  1
  S  S9  1  0.23947769  0.15071736  0.47895439  1
  S  S10  1  0.76052331  0.84928264  0.52104461  1
  S  S11  1  0.82969389  0.50823097  0.65938578  1
  S  S12  1  0.91102393  0.16998724  0.82204486  1
  S  S13  1  0.42798211  0.83232356  0.85596321  1
