# generated using pymatgen
data_KMn4O8
_symmetry_space_group_name_H-M   'P 1'
_cell_length_a   2.99906178
_cell_length_b   7.20442107
_cell_length_c   7.20412648
_cell_angle_alpha   87.53749850
_cell_angle_beta   77.98479426
_cell_angle_gamma   77.98576457
_symmetry_Int_Tables_number   1
_chemical_formula_structural   KMn4O8
_chemical_formula_sum   'K1 Mn4 O8'
_cell_volume   148.91111671
_cell_formula_units_Z   1
loop_
 _symmetry_equiv_pos_site_id
 _symmetry_equiv_pos_as_xyz
  1  'x, y, z'
loop_
 _atom_site_type_symbol
 _atom_site_label
 _atom_site_symmetry_multiplicity
 _atom_site_fract_x
 _atom_site_fract_y
 _atom_site_fract_z
 _atom_site_occupancy
  K  K0  1  0.50003508  0.99996171  0.00003126  1
  Mn  Mn1  1  0.65043330  0.51576250  0.18333447  1
  Mn  Mn2  1  0.16622245  0.18340960  0.48416882  1
  Mn  Mn3  1  0.83376662  0.81660208  0.51582903  1
  Mn  Mn4  1  0.34955678  0.48424547  0.81666207  1
  O  O5  1  0.83325008  0.62343467  0.71007696  1
  O  O6  1  0.45661964  0.71006818  0.37660929  1
  O  O7  1  0.54337130  0.28994516  0.62337938  1
  O  O8  1  0.16673927  0.37656881  0.28991580  1
  O  O9  1  0.15337904  0.64478771  0.04840152  1
  O  O10  1  0.79815936  0.04846672  0.35520072  1
  O  O11  1  0.84661218  0.35522312  0.95159459  1
  O  O12  1  0.20184990  0.95152826  0.64479810  1
