# generated using pymatgen
data_Tl3Bi
_symmetry_space_group_name_H-M   'P 1'
_cell_length_a   7.45780610
_cell_length_b   7.45841414
_cell_length_c   5.38916651
_cell_angle_alpha   90.14242801
_cell_angle_beta   89.85805904
_cell_angle_gamma   119.97369740
_symmetry_Int_Tables_number   1
_chemical_formula_structural   Tl3Bi
_chemical_formula_sum   'Tl6 Bi2'
_cell_volume   259.67077755
_cell_formula_units_Z   2
loop_
 _symmetry_equiv_pos_site_id
 _symmetry_equiv_pos_as_xyz
  1  'x, y, z'
loop_
 _atom_site_type_symbol
 _atom_site_label
 _atom_site_symmetry_multiplicity
 _atom_site_fract_x
 _atom_site_fract_y
 _atom_site_fract_z
 _atom_site_occupancy
  Tl  Tl0  1  0.16974042  0.33964216  0.24997145  1
  Tl  Tl1  1  0.66036268  0.83025149  0.24997015  1
  Tl  Tl2  1  0.16972179  0.83025969  0.25006256  1
  Tl  Tl3  1  0.83046317  0.66074108  0.75002663  1
  Tl  Tl4  1  0.33925333  0.16954584  0.75003263  1
  Tl  Tl5  1  0.83044882  0.16956987  0.74992798  1
  Bi  Bi6  1  0.33330271  0.66667677  0.75000197  1
  Bi  Bi7  1  0.66670607  0.33331511  0.25000262  1
