# generated using pymatgen
data_MgCr2F12
_symmetry_space_group_name_H-M   'P 1'
_cell_length_a   5.35133430
_cell_length_b   10.65935255
_cell_length_c   5.34727020
_cell_angle_alpha   58.16881240
_cell_angle_beta   58.24835409
_cell_angle_gamma   58.11500977
_symmetry_Int_Tables_number   1
_chemical_formula_structural   MgCr2F12
_chemical_formula_sum   'Mg1 Cr2 F12'
_cell_volume   206.67089170
_cell_formula_units_Z   1
loop_
 _symmetry_equiv_pos_site_id
 _symmetry_equiv_pos_as_xyz
  1  'x, y, z'
loop_
 _atom_site_type_symbol
 _atom_site_label
 _atom_site_symmetry_multiplicity
 _atom_site_fract_x
 _atom_site_fract_y
 _atom_site_fract_z
 _atom_site_occupancy
  Mg  Mg0  1  0.50000000  0.75000000  0.50000000  1
  Cr  Cr1  1  0.99713960  0.01006316  0.98951135  1
  Cr  Cr2  1  0.00286040  0.48993684  0.01048865  1
  F  F3  1  0.31876255  0.07244776  0.76990627  1
  F  F4  1  0.32220801  0.57573393  0.76415736  1
  F  F5  1  0.14711816  0.38563664  0.31728956  1
  F  F6  1  0.15183444  0.88195638  0.32160118  1
  F  F7  1  0.23309029  0.34158413  0.84921128  1
  F  F8  1  0.23561473  0.83839498  0.84907358  1
  F  F9  1  0.85288184  0.11436336  0.68271044  1
  F  F10  1  0.84816556  0.61804362  0.67839882  1
  F  F11  1  0.68123745  0.42755224  0.23009373  1
  F  F12  1  0.67779199  0.92426607  0.23584264  1
  F  F13  1  0.76690971  0.15841587  0.15078872  1
  F  F14  1  0.76438527  0.66160502  0.15092642  1
