# generated using pymatgen
data_NaV3P3O13
_symmetry_space_group_name_H-M   'P 1'
_cell_length_a   6.38730602
_cell_length_b   7.47245148
_cell_length_c   10.68255833
_cell_angle_alpha   99.30568739
_cell_angle_beta   90.00000000
_cell_angle_gamma   90.00000000
_symmetry_Int_Tables_number   1
_chemical_formula_structural   NaV3P3O13
_chemical_formula_sum   'Na2 V6 P6 O26'
_cell_volume   503.15605140
_cell_formula_units_Z   2
loop_
 _symmetry_equiv_pos_site_id
 _symmetry_equiv_pos_as_xyz
  1  'x, y, z'
loop_
 _atom_site_type_symbol
 _atom_site_label
 _atom_site_symmetry_multiplicity
 _atom_site_fract_x
 _atom_site_fract_y
 _atom_site_fract_z
 _atom_site_occupancy
  Na  Na0  1  0.75000000  0.65698894  0.18441353  1
  Na  Na1  1  0.25000000  0.34301106  0.81558647  1
  V  V2  1  0.25000000  0.35641313  0.19800934  1
  V  V3  1  0.75000000  0.64358687  0.80199066  1
  V  V4  1  0.25000000  0.77454976  0.44614596  1
  V  V5  1  0.50000000  0.00000000  0.00000000  1
  V  V6  1  0.75000000  0.22545024  0.55385404  1
  V  V7  1  0.00000000  0.00000000  0.00000000  1
  P  P8  1  0.25000000  0.21985774  0.47694955  1
  P  P9  1  0.75000000  0.78014226  0.52305045  1
  P  P10  1  0.25000000  0.74426585  0.76914236  1
  P  P11  1  0.75000000  0.25573415  0.23085764  1
  P  P12  1  0.75000000  0.30841229  0.87848260  1
  P  P13  1  0.25000000  0.69158771  0.12151740  1
  O  O14  1  0.75000000  0.34969524  0.73992709  1
  O  O15  1  0.55548273  0.73231382  0.43852315  1
  O  O16  1  0.25000000  0.80617518  0.64084613  1
  O  O17  1  0.54971865  0.20400085  0.90321880  1
  O  O18  1  0.75000000  0.65554501  0.62694922  1
  O  O19  1  0.75000000  0.86214487  0.90508801  1
  O  O20  1  0.25000000  0.34445499  0.37305078  1
  O  O21  1  0.04971865  0.79599915  0.09678120  1
  O  O22  1  0.25000000  0.02015751  0.41046404  1
  O  O23  1  0.75000000  0.97984249  0.58953596  1
  O  O24  1  0.05873147  0.62680308  0.79326357  1
  O  O25  1  0.25000000  0.13785513  0.09491199  1
  O  O26  1  0.55873147  0.37319692  0.20673643  1
  O  O27  1  0.75000000  0.50676361  0.95092410  1
  O  O28  1  0.75000000  0.19382482  0.35915387  1
  O  O29  1  0.45028135  0.79599915  0.09678120  1
  O  O30  1  0.94451727  0.73231382  0.43852315  1
  O  O31  1  0.44451727  0.26768618  0.56147685  1
  O  O32  1  0.44126853  0.62680308  0.79326357  1
  O  O33  1  0.25000000  0.65030476  0.26007291  1
  O  O34  1  0.75000000  0.08390930  0.12197915  1
  O  O35  1  0.25000000  0.91609070  0.87802085  1
  O  O36  1  0.94126853  0.37319692  0.20673643  1
  O  O37  1  0.95028135  0.20400085  0.90321880  1
  O  O38  1  0.05548273  0.26768618  0.56147685  1
  O  O39  1  0.25000000  0.49323639  0.04907590  1
