# generated using pymatgen
data_LiMn16O32
_symmetry_space_group_name_H-M   'P 1'
_cell_length_a   5.87965221
_cell_length_b   9.95857825
_cell_length_c   9.90756994
_cell_angle_alpha   89.77883997
_cell_angle_beta   90.00200205
_cell_angle_gamma   90.00059605
_symmetry_Int_Tables_number   1
_chemical_formula_structural   LiMn16O32
_chemical_formula_sum   'Li1 Mn16 O32'
_cell_volume   580.11338891
_cell_formula_units_Z   1
loop_
 _symmetry_equiv_pos_site_id
 _symmetry_equiv_pos_as_xyz
  1  'x, y, z'
loop_
 _atom_site_type_symbol
 _atom_site_label
 _atom_site_symmetry_multiplicity
 _atom_site_fract_x
 _atom_site_fract_y
 _atom_site_fract_z
 _atom_site_occupancy
  Li  Li0  1  0.74996420  0.57842311  0.51087777  1
  Mn  Mn1  1  0.49927480  0.65188967  0.83254911  1
  Mn  Mn2  1  0.00081437  0.65196325  0.83256704  1
  Mn  Mn3  1  0.49934702  0.16890722  0.65147324  1
  Mn  Mn4  1  0.00075149  0.16888942  0.65133672  1
  Mn  Mn5  1  0.00089681  0.83701160  0.34948239  1
  Mn  Mn6  1  0.49894164  0.83712573  0.34957018  1
  Mn  Mn7  1  0.00027503  0.35131505  0.16623683  1
  Mn  Mn8  1  0.49967663  0.35132344  0.16621313  1
  Mn  Mn9  1  0.25020286  0.15371411  0.33330950  1
  Mn  Mn10  1  0.74995870  0.15298030  0.33338792  1
  Mn  Mn11  1  0.25023448  0.66781989  0.15262441  1
  Mn  Mn12  1  0.74979991  0.66689962  0.15138288  1
  Mn  Mn13  1  0.25025980  0.33550835  0.84803410  1
  Mn  Mn14  1  0.74971231  0.33545461  0.84849412  1
  Mn  Mn15  1  0.24991757  0.85112159  0.66787745  1
  Mn  Mn16  1  0.75005463  0.85391073  0.66847533  1
  O  O17  1  0.24994440  0.33873637  0.04248138  1
  O  O18  1  0.75003066  0.33895467  0.04262363  1
  O  O19  1  0.25002480  0.96025713  0.33486113  1
  O  O20  1  0.74995962  0.95993840  0.33504815  1
  O  O21  1  0.24999675  0.04575911  0.66513201  1
  O  O22  1  0.74996493  0.04623174  0.66567914  1
  O  O23  1  0.24995004  0.66220224  0.95819327  1
  O  O24  1  0.75002768  0.66201880  0.95746263  1
  O  O25  1  0.99916274  0.83761862  0.54385969  1
  O  O26  1  0.50087779  0.83761992  0.54392919  1
  O  O27  1  1.00008139  0.45826726  0.83036874  1
  O  O28  1  0.49998404  0.45826509  0.83038149  1
  O  O29  1  0.49996703  0.54377457  0.16985044  1
  O  O30  1  -0.00009065  0.54380728  0.16989657  1
  O  O31  1  0.50005526  0.16801314  0.45701582  1
  O  O32  1  1.00003587  0.16800081  0.45705653  1
  O  O33  1  0.50029562  0.15901970  0.20429575  1
  O  O34  1  0.99976794  0.15911209  0.20432687  1
  O  O35  1  0.99885637  0.79639507  0.15762184  1
  O  O36  1  0.50101919  0.79633456  0.15771820  1
  O  O37  1  0.99971009  0.84508962  0.79683160  1
  O  O38  1  0.50033406  0.84510877  0.79682554  1
  O  O39  1  0.50005997  0.20700580  0.84395695  1
  O  O40  1  0.99996913  0.20697282  0.84400645  1
  O  O41  1  0.25000407  0.65913266  0.70142288  1
  O  O42  1  0.75003509  0.65788481  0.69615022  1
  O  O43  1  0.24994519  0.29788858  0.65482328  1
  O  O44  1  0.75000546  0.29944715  0.65433378  1
  O  O45  1  0.25006733  0.34636803  0.29571523  1
  O  O46  1  0.74994975  0.34705853  0.29703643  1
  O  O47  1  0.24991738  0.70870950  0.34926262  1
  O  O48  1  0.75000577  0.70464946  0.35227739  1
