# generated using pymatgen
data_Na7Al10Si14(AgO16)3
_symmetry_space_group_name_H-M   'P 1'
_cell_length_a   12.65593482
_cell_length_b   12.36829072
_cell_length_c   12.14013834
_cell_angle_alpha   89.99025928
_cell_angle_beta   89.25843548
_cell_angle_gamma   89.33401615
_symmetry_Int_Tables_number   1
_chemical_formula_structural   Na7Al10Si14(AgO16)3
_chemical_formula_sum   'Na7 Al10 Si14 Ag3 O48'
_cell_volume   1900.03602129
_cell_formula_units_Z   1
loop_
 _symmetry_equiv_pos_site_id
 _symmetry_equiv_pos_as_xyz
  1  'x, y, z'
loop_
 _atom_site_type_symbol
 _atom_site_label
 _atom_site_symmetry_multiplicity
 _atom_site_fract_x
 _atom_site_fract_y
 _atom_site_fract_z
 _atom_site_occupancy
  Na  Na0  1  0.63797350  0.00126555  0.50996013  1
  Na  Na1  1  0.56329190  0.39278328  0.00561959  1
  Na  Na2  1  0.59679462  0.60866429  0.00383592  1
  Na  Na3  1  0.78229897  0.19838475  0.19588583  1
  Na  Na4  1  0.78514113  0.19598102  0.81391568  1
  Na  Na5  1  0.78502703  0.80719783  0.18813853  1
  Na  Na6  1  0.79068248  0.80668922  0.82024437  1
  Al  Al7  1  0.18034334  0.99864962  0.62327770  1
  Al  Al8  1  0.37527715  0.80880965  0.99886953  1
  Al  Al9  1  0.61042059  0.00346645  0.20720363  1
  Al  Al10  1  0.61852081  0.17751316  0.00650617  1
  Al  Al11  1  0.61822689  0.00263533  0.80438831  1
  Al  Al12  1  0.62170214  0.82660762  0.00523107  1
  Al  Al13  1  0.82635071  0.99905261  0.36358771  1
  Al  Al14  1  0.83304367  0.99869925  0.64163816  1
  Al  Al15  1  0.81324007  0.37413017  0.00563391  1
  Al  Al16  1  0.82317141  0.63126269  0.00503002  1
  Si  Si17  1  0.99986703  0.81558215  0.36741415  1
  Si  Si18  1  0.00303332  0.81220845  0.63295943  1
  Si  Si19  1  0.17406463  0.00069461  0.36806833  1
  Si  Si20  1  0.17650253  0.36652142  0.99769871  1
  Si  Si21  1  0.18094685  0.62249568  0.99558963  1
  Si  Si22  1  0.36239663  0.00267551  0.18520290  1
  Si  Si23  1  0.36776406  0.18612062  0.00117612  1
  Si  Si24  1  0.37197815  0.00285954  0.81021480  1
  Si  Si25  1  0.99298867  0.18386903  0.36933307  1
  Si  Si26  1  0.99474746  0.18703139  0.62933327  1
  Si  Si27  1  0.99921971  0.36997021  0.18744876  1
  Si  Si28  1  0.99985818  0.36973469  0.81527539  1
  Si  Si29  1  0.00368846  0.62396349  0.18974871  1
  Si  Si30  1  0.00416203  0.62535480  0.81252741  1
  Ag  Ag31  1  0.20275268  0.81466219  0.80702277  1
  Ag  Ag32  1  0.19672324  0.18639922  0.79439707  1
  Ag  Ag33  1  0.19712132  0.80600086  0.18644886  1
  O  O34  1  0.00489492  0.29996867  0.70171000  1
  O  O35  1  0.99527738  0.78755563  0.49944609  1
  O  O36  1  0.01100442  0.69491974  0.69855892  1
  O  O37  1  0.09721119  0.10617712  0.35554645  1
  O  O38  1  0.10247048  0.34817135  0.10550897  1
  O  O39  1  0.10451469  0.11849862  0.64494526  1
  O  O40  1  0.10977784  0.64543340  0.10905597  1
  O  O41  1  0.10998477  0.33658400  0.88466952  1
  O  O42  1  0.10745266  0.88730187  0.33877978  1
  O  O43  1  0.11202145  0.65339206  0.88465548  1
  O  O44  1  0.11271833  0.87694894  0.65713027  1
  O  O45  1  0.22255770  0.99036411  0.48797711  1
  O  O46  1  0.21398605  0.49339399  0.99055734  1
  O  O47  1  0.28022695  0.01209637  0.71809304  1
  O  O48  1  0.28066674  0.70129548  0.99702520  1
  O  O49  1  0.26461645  0.00752029  0.27445852  1
  O  O50  1  0.27992815  0.28769300  0.99783824  1
  O  O51  1  0.34186406  0.10920810  0.10573742  1
  O  O52  1  0.34789398  0.11503814  0.88801716  1
  O  O53  1  0.33962853  0.89138263  0.11391299  1
  O  O54  1  0.34675708  0.89332583  0.88371624  1
  O  O55  1  0.47366563  0.00441454  0.24455533  1
  O  O56  1  0.48408255  0.23852381  0.00395584  1
  O  O57  1  0.50024445  0.75326270  0.00275535  1
  O  O58  1  0.48669121  0.00492244  0.75575514  1
  O  O59  1  0.63834204  0.12090183  0.13341490  1
  O  O60  1  0.64118278  0.11842215  0.88097582  1
  O  O61  1  0.63937079  0.88929992  0.12989281  1
  O  O62  1  0.64373809  0.88755581  0.87999054  1
  O  O63  1  0.70533370  0.00241940  0.69183079  1
  O  O64  1  0.72425473  0.72668573  0.00598628  1
  O  O65  1  0.69634332  0.00075108  0.32044509  1
  O  O66  1  0.70512672  0.29006122  0.00434557  1
  O  O67  1  0.82376284  0.99437199  0.50281434  1
  O  O68  1  0.75886542  0.50557253  0.00538207  1
  O  O69  1  0.89136696  0.12124593  0.32148983  1
  O  O70  1  0.89643363  0.12118519  0.68225397  1
  O  O71  1  0.89042088  0.34380566  0.12439019  1
  O  O72  1  0.89524808  0.34367539  0.88739030  1
  O  O73  1  0.89846941  0.65765612  0.12476135  1
  O  O74  1  0.90047364  0.65651621  0.88421666  1
  O  O75  1  0.89758778  0.87825463  0.31885002  1
  O  O76  1  0.90268316  0.87842206  0.68472010  1
  O  O77  1  0.98027034  0.22074739  0.49928616  1
  O  O78  1  0.01073172  0.29413770  0.29622644  1
  O  O79  1  0.00427624  0.49715584  0.22660568  1
  O  O80  1  0.00942090  0.49696196  0.78240378  1
  O  O81  1  0.01863780  0.70126910  0.29813805  1
