# generated using pymatgen
data_Ba3Ga3N5
_symmetry_space_group_name_H-M   'P 1'
_cell_length_a   8.41473822
_cell_length_b   9.48055723
_cell_length_c   11.78328426
_cell_angle_alpha   107.71722647
_cell_angle_beta   90.00000000
_cell_angle_gamma   116.34589949
_symmetry_Int_Tables_number   1
_chemical_formula_structural   Ba3Ga3N5
_chemical_formula_sum   'Ba12 Ga12 N20'
_cell_volume   792.32757622
_cell_formula_units_Z   4
loop_
 _symmetry_equiv_pos_site_id
 _symmetry_equiv_pos_as_xyz
  1  'x, y, z'
loop_
 _atom_site_type_symbol
 _atom_site_label
 _atom_site_symmetry_multiplicity
 _atom_site_fract_x
 _atom_site_fract_y
 _atom_site_fract_z
 _atom_site_occupancy
  Ba  Ba0  1  0.65472701  0.00000000  0.25000000  1
  Ba  Ba1  1  0.34527299  0.00000000  0.75000000  1
  Ba  Ba2  1  0.16159386  0.00000000  0.25000000  1
  Ba  Ba3  1  0.83840614  0.00000000  0.75000000  1
  Ba  Ba4  1  0.09879493  0.37771356  0.38462314  1
  Ba  Ba5  1  0.72108137  0.62228644  0.11537686  1
  Ba  Ba6  1  0.90120507  0.62228644  0.61537686  1
  Ba  Ba7  1  0.27891863  0.37771356  0.88462314  1
  Ba  Ba8  1  0.58120271  0.41125835  0.33693469  1
  Ba  Ba9  1  0.16994436  0.58874165  0.16306531  1
  Ba  Ba10  1  0.41879729  0.58874165  0.66306531  1
  Ba  Ba11  1  0.83005564  0.41125835  0.83693469  1
  Ga  Ga12  1  0.85558544  0.84049441  0.44294710  1
  Ga  Ga13  1  0.01509103  0.15950559  0.05705290  1
  Ga  Ga14  1  0.14441456  0.15950559  0.55705290  1
  Ga  Ga15  1  0.98490897  0.84049441  0.94294710  1
  Ga  Ga16  1  0.84263259  0.19539319  0.54954605  1
  Ga  Ga17  1  0.64723941  0.80460681  0.95045395  1
  Ga  Ga18  1  0.15736741  0.80460681  0.45045395  1
  Ga  Ga19  1  0.35276059  0.19539319  0.04954605  1
  Ga  Ga20  1  0.48865090  0.84131008  0.50181763  1
  Ga  Ga21  1  0.64734082  0.15868992  0.99818237  1
  Ga  Ga22  1  0.51134910  0.15868992  0.49818237  1
  Ga  Ga23  1  0.35265918  0.84131008  0.00181763  1
  N  N24  1  0.61919800  0.09054507  0.61739396  1
  N  N25  1  0.52865293  0.90945493  0.88260604  1
  N  N26  1  0.38080200  0.90945493  0.38260604  1
  N  N27  1  0.47134707  0.09054507  0.11739396  1
  N  N28  1  0.92885801  0.06003980  0.42071386  1
  N  N29  1  0.86881822  0.93996020  0.07928614  1
  N  N30  1  0.07114199  0.93996020  0.57928614  1
  N  N31  1  0.13118178  0.06003980  0.92071386  1
  N  N32  1  0.06502200  0.31436212  0.67381077  1
  N  N33  1  0.75065988  0.68563788  0.82618923  1
  N  N34  1  0.93497800  0.68563788  0.32618923  1
  N  N35  1  0.24934012  0.31436212  0.17381077  1
  N  N36  1  0.75474262  0.30258672  0.46031802  1
  N  N37  1  0.45215590  0.69741328  0.03968198  1
  N  N38  1  0.24525738  0.69741328  0.53968198  1
  N  N39  1  0.54784410  0.30258672  0.96031802  1
  N  N40  1  0.63178278  0.72624520  0.49779259  1
  N  N41  1  0.90553757  0.27375480  0.00220741  1
  N  N42  1  0.36821722  0.27375480  0.50220741  1
  N  N43  1  0.09446243  0.72624520  0.99779259  1
