# generated using pymatgen
data_CaGe2
_symmetry_space_group_name_H-M   'P 1'
_cell_length_a   4.04927442
_cell_length_b   4.04927442
_cell_length_c   10.42011558
_cell_angle_alpha   78.79611698
_cell_angle_beta   78.79611698
_cell_angle_gamma   60.00001997
_symmetry_Int_Tables_number   1
_chemical_formula_structural   CaGe2
_chemical_formula_sum   'Ca2 Ge4'
_cell_volume   144.19241374
_cell_formula_units_Z   2
loop_
 _symmetry_equiv_pos_site_id
 _symmetry_equiv_pos_as_xyz
  1  'x, y, z'
loop_
 _atom_site_type_symbol
 _atom_site_label
 _atom_site_symmetry_multiplicity
 _atom_site_fract_x
 _atom_site_fract_y
 _atom_site_fract_z
 _atom_site_occupancy
  Ca  Ca0  1  0.08076226  0.08076226  0.75771321  1
  Ca  Ca1  1  0.91923774  0.91923774  0.24228679  1
  Ge  Ge2  1  0.18517259  0.18517259  0.44448223  1
  Ge  Ge3  1  0.81482741  0.81482741  0.55551777  1
  Ge  Ge4  1  0.35049935  0.35049935  0.94850195  1
  Ge  Ge5  1  0.64950065  0.64950065  0.05149805  1
