# generated using pymatgen
data_CsZn4(BO3)3
_symmetry_space_group_name_H-M   'P 1'
_cell_length_a   7.00511851
_cell_length_b   5.07203969
_cell_length_c   13.17553745
_cell_angle_alpha   90.00000000
_cell_angle_beta   93.42345371
_cell_angle_gamma   90.00000000
_symmetry_Int_Tables_number   1
_chemical_formula_structural   CsZn4(BO3)3
_chemical_formula_sum   'Cs2 Zn8 B6 O18'
_cell_volume   467.29460308
_cell_formula_units_Z   2
loop_
 _symmetry_equiv_pos_site_id
 _symmetry_equiv_pos_as_xyz
  1  'x, y, z'
loop_
 _atom_site_type_symbol
 _atom_site_label
 _atom_site_symmetry_multiplicity
 _atom_site_fract_x
 _atom_site_fract_y
 _atom_site_fract_z
 _atom_site_occupancy
  Cs  Cs0  1  0.00000000  0.73457641  0.75000000  1
  Cs  Cs1  1  0.00000000  0.26542359  0.25000000  1
  Zn  Zn2  1  0.21058593  0.83094573  0.06056507  1
  Zn  Zn3  1  0.78941407  0.83094573  0.43943493  1
  Zn  Zn4  1  0.78941407  0.16905427  0.93943493  1
  Zn  Zn5  1  0.21058593  0.16905427  0.56056507  1
  Zn  Zn6  1  0.51150409  0.64702796  0.87426978  1
  Zn  Zn7  1  0.48849591  0.64702796  0.62573022  1
  Zn  Zn8  1  0.48849591  0.35297204  0.12573022  1
  Zn  Zn9  1  0.51150409  0.35297204  0.37426978  1
  B  B10  1  0.50000000  0.15249850  0.75000000  1
  B  B11  1  0.50000000  0.84750150  0.25000000  1
  B  B12  1  0.80726577  0.65534478  0.04199743  1
  B  B13  1  0.19273423  0.65534478  0.45800257  1
  B  B14  1  0.19273423  0.34465522  0.95800257  1
  B  B15  1  0.80726577  0.34465522  0.54199743  1
  O  O16  1  0.72262286  0.79988403  0.96079255  1
  O  O17  1  0.27737714  0.79988403  0.53920745  1
  O  O18  1  0.27737714  0.20011597  0.03920745  1
  O  O19  1  0.72262286  0.20011597  0.46079255  1
  O  O20  1  0.50000000  0.87664647  0.75000000  1
  O  O21  1  0.50000000  0.12335353  0.25000000  1
  O  O22  1  0.27099233  0.59840235  0.94228053  1
  O  O23  1  0.72900767  0.59840235  0.55771947  1
  O  O24  1  0.72900767  0.40159765  0.05771947  1
  O  O25  1  0.27099233  0.40159765  0.44228053  1
  O  O26  1  0.59398613  0.29004037  0.82894533  1
  O  O27  1  0.40601387  0.29004037  0.67105467  1
  O  O28  1  0.40601387  0.70995963  0.17105467  1
  O  O29  1  0.59398613  0.70995963  0.32894533  1
  O  O30  1  0.95688709  0.74776301  0.10136473  1
  O  O31  1  0.04311291  0.74776301  0.39863527  1
  O  O32  1  0.04311291  0.25223699  0.89863527  1
  O  O33  1  0.95688709  0.25223699  0.60136473  1
