# generated using pymatgen
data_Mg30MnNiO32
_symmetry_space_group_name_H-M   'P 1'
_cell_length_a   8.54260662
_cell_length_b   8.52966378
_cell_length_c   8.52966378
_cell_angle_alpha   90.00000000
_cell_angle_beta   90.00000000
_cell_angle_gamma   90.00000000
_symmetry_Int_Tables_number   1
_chemical_formula_structural   Mg30MnNiO32
_chemical_formula_sum   'Mg30 Mn1 Ni1 O32'
_cell_volume   621.51874733
_cell_formula_units_Z   1
loop_
 _symmetry_equiv_pos_site_id
 _symmetry_equiv_pos_as_xyz
  1  'x, y, z'
loop_
 _atom_site_type_symbol
 _atom_site_label
 _atom_site_symmetry_multiplicity
 _atom_site_fract_x
 _atom_site_fract_y
 _atom_site_fract_z
 _atom_site_occupancy
  Mg  Mg0  1  -0.00000000  -0.00000000  0.50000000  1
  Mg  Mg1  1  -0.00000000  0.50000000  -0.00000000  1
  Mg  Mg2  1  0.50000000  -0.00000000  -0.00000000  1
  Mg  Mg3  1  0.50000000  -0.00000000  0.50000000  1
  Mg  Mg4  1  0.50000000  0.50000000  0.00000000  1
  Mg  Mg5  1  0.50000000  0.50000000  0.50000000  1
  Mg  Mg6  1  -0.00000000  0.25057933  0.25057933  1
  Mg  Mg7  1  -0.00000000  0.25057933  0.74942067  1
  Mg  Mg8  1  -0.00000000  0.74942067  0.25057933  1
  Mg  Mg9  1  -0.00000000  0.74942067  0.74942067  1
  Mg  Mg10  1  0.50000000  0.24992880  0.24992880  1
  Mg  Mg11  1  0.50000000  0.24992880  0.75007120  1
  Mg  Mg12  1  0.50000000  0.75007120  0.24992880  1
  Mg  Mg13  1  0.50000000  0.75007120  0.75007120  1
  Mg  Mg14  1  0.25031652  -0.00000000  0.24955036  1
  Mg  Mg15  1  0.25031652  -0.00000000  0.75044964  1
  Mg  Mg16  1  0.24974207  0.50000000  0.25013371  1
  Mg  Mg17  1  0.24974207  0.50000000  0.74986629  1
  Mg  Mg18  1  0.74968348  -0.00000000  0.24955036  1
  Mg  Mg19  1  0.74968348  -0.00000000  0.75044964  1
  Mg  Mg20  1  0.75025793  0.50000000  0.25013371  1
  Mg  Mg21  1  0.75025793  0.50000000  0.74986629  1
  Mg  Mg22  1  0.25031652  0.24955036  0.00000000  1
  Mg  Mg23  1  0.24974207  0.25013371  0.50000000  1
  Mg  Mg24  1  0.25031652  0.75044964  0.00000000  1
  Mg  Mg25  1  0.24974207  0.74986629  0.50000000  1
  Mg  Mg26  1  0.74968348  0.24955036  0.00000000  1
  Mg  Mg27  1  0.75025793  0.25013371  0.50000000  1
  Mg  Mg28  1  0.74968348  0.75044964  0.00000000  1
  Mg  Mg29  1  0.75025793  0.74986629  0.50000000  1
  Mn  Mn30  1  -0.00000000  -0.00000000  0.00000000  1
  Ni  Ni31  1  -0.00000000  0.50000000  0.50000000  1
  O  O32  1  0.25766106  -0.00000000  -0.00000000  1
  O  O33  1  0.24961556  -0.00000000  0.50000000  1
  O  O34  1  0.24961556  0.50000000  -0.00000000  1
  O  O35  1  0.25135320  0.50000000  0.50000000  1
  O  O36  1  0.74233894  -0.00000000  0.00000000  1
  O  O37  1  0.75038444  -0.00000000  0.50000000  1
  O  O38  1  0.75038444  0.50000000  -0.00000000  1
  O  O39  1  0.74864680  0.50000000  0.50000000  1
  O  O40  1  0.24952285  0.25005499  0.25005499  1
  O  O41  1  0.24952285  0.25005499  0.74994501  1
  O  O42  1  0.24952285  0.74994501  0.25005499  1
  O  O43  1  0.24952285  0.74994501  0.74994501  1
  O  O44  1  0.75047715  0.25005499  0.25005499  1
  O  O45  1  0.75047715  0.25005499  0.74994501  1
  O  O46  1  0.75047715  0.74994501  0.25005499  1
  O  O47  1  0.75047715  0.74994501  0.74994501  1
  O  O48  1  -0.00000000  -0.00000000  0.25332809  1
  O  O49  1  -0.00000000  -0.00000000  0.74667191  1
  O  O50  1  -0.00000000  0.50000000  0.24835677  1
  O  O51  1  -0.00000000  0.50000000  0.75164323  1
  O  O52  1  0.50000000  -0.00000000  0.25077192  1
  O  O53  1  0.50000000  -0.00000000  0.74922808  1
  O  O54  1  0.50000000  0.50000000  0.25016720  1
  O  O55  1  0.50000000  0.50000000  0.74983280  1
  O  O56  1  -0.00000000  0.25332809  0.00000000  1
  O  O57  1  -0.00000000  0.24835677  0.50000000  1
  O  O58  1  -0.00000000  0.74667191  -0.00000000  1
  O  O59  1  -0.00000000  0.75164323  0.50000000  1
  O  O60  1  0.50000000  0.25077192  -0.00000000  1
  O  O61  1  0.50000000  0.25016720  0.50000000  1
  O  O62  1  0.50000000  0.74922808  0.00000000  1
  O  O63  1  0.50000000  0.74983280  0.50000000  1
