# generated using pymatgen
data_LiMg30GaO32
_symmetry_space_group_name_H-M   'P 1'
_cell_length_a   8.50406381
_cell_length_b   8.50406381
_cell_length_c   8.50722969
_cell_angle_alpha   90.00000000
_cell_angle_beta   90.00000000
_cell_angle_gamma   90.00000000
_symmetry_Int_Tables_number   1
_chemical_formula_structural   LiMg30GaO32
_chemical_formula_sum   'Li1 Mg30 Ga1 O32'
_cell_volume   615.23520560
_cell_formula_units_Z   1
loop_
 _symmetry_equiv_pos_site_id
 _symmetry_equiv_pos_as_xyz
  1  'x, y, z'
loop_
 _atom_site_type_symbol
 _atom_site_label
 _atom_site_symmetry_multiplicity
 _atom_site_fract_x
 _atom_site_fract_y
 _atom_site_fract_z
 _atom_site_occupancy
  Li  Li0  1  -0.00000000  0.00000000  -0.00000000  1
  Mg  Mg1  1  -0.00000000  0.50000000  -0.00000000  1
  Mg  Mg2  1  -0.00000000  0.50000000  0.50000000  1
  Mg  Mg3  1  0.50000000  0.00000000  -0.00000000  1
  Mg  Mg4  1  0.50000000  0.00000000  0.50000000  1
  Mg  Mg5  1  0.50000000  0.50000000  -0.00000000  1
  Mg  Mg6  1  0.50000000  0.50000000  0.50000000  1
  Mg  Mg7  1  -0.00000000  0.24911926  0.24508775  1
  Mg  Mg8  1  -0.00000000  0.24911926  0.75491225  1
  Mg  Mg9  1  -0.00000000  0.75088074  0.24508775  1
  Mg  Mg10  1  -0.00000000  0.75088074  0.75491225  1
  Mg  Mg11  1  0.50000000  0.24992815  0.24877451  1
  Mg  Mg12  1  0.50000000  0.24992815  0.75122549  1
  Mg  Mg13  1  0.50000000  0.75007185  0.24877451  1
  Mg  Mg14  1  0.50000000  0.75007185  0.75122549  1
  Mg  Mg15  1  0.24911926  0.00000000  0.24508775  1
  Mg  Mg16  1  0.24911926  0.00000000  0.75491225  1
  Mg  Mg17  1  0.24992815  0.50000000  0.24877451  1
  Mg  Mg18  1  0.24992815  0.50000000  0.75122549  1
  Mg  Mg19  1  0.75088074  0.00000000  0.24508775  1
  Mg  Mg20  1  0.75088074  0.00000000  0.75491225  1
  Mg  Mg21  1  0.75007185  0.50000000  0.24877451  1
  Mg  Mg22  1  0.75007185  0.50000000  0.75122549  1
  Mg  Mg23  1  0.24728989  0.24728989  0.00000000  1
  Mg  Mg24  1  0.25101443  0.25101443  0.50000000  1
  Mg  Mg25  1  0.24728989  0.75271011  0.00000000  1
  Mg  Mg26  1  0.25101443  0.74898557  0.50000000  1
  Mg  Mg27  1  0.75271011  0.24728989  -0.00000000  1
  Mg  Mg28  1  0.74898557  0.25101443  0.50000000  1
  Mg  Mg29  1  0.75271011  0.75271011  -0.00000000  1
  Mg  Mg30  1  0.74898557  0.74898557  0.50000000  1
  Ga  Ga31  1  -0.00000000  0.00000000  0.50000000  1
  O  O32  1  0.25457924  0.00000000  -0.00000000  1
  O  O33  1  0.24427506  0.00000000  0.50000000  1
  O  O34  1  0.25059918  0.50000000  0.00000000  1
  O  O35  1  0.24895550  0.50000000  0.50000000  1
  O  O36  1  0.74542076  0.00000000  0.00000000  1
  O  O37  1  0.75572494  0.00000000  0.50000000  1
  O  O38  1  0.74940082  0.50000000  -0.00000000  1
  O  O39  1  0.75104450  0.50000000  0.50000000  1
  O  O40  1  0.24961420  0.24961420  0.25081830  1
  O  O41  1  0.24961420  0.24961420  0.74918170  1
  O  O42  1  0.24961420  0.75038580  0.25081830  1
  O  O43  1  0.24961420  0.75038580  0.74918170  1
  O  O44  1  0.75038580  0.24961420  0.25081830  1
  O  O45  1  0.75038580  0.24961420  0.74918170  1
  O  O46  1  0.75038580  0.75038580  0.25081830  1
  O  O47  1  0.75038580  0.75038580  0.74918170  1
  O  O48  1  -0.00000000  0.00000000  0.26599803  1
  O  O49  1  -0.00000000  0.00000000  0.73400197  1
  O  O50  1  -0.00000000  0.50000000  0.25281858  1
  O  O51  1  -0.00000000  0.50000000  0.74718142  1
  O  O52  1  0.50000000  0.00000000  0.25281858  1
  O  O53  1  0.50000000  0.00000000  0.74718142  1
  O  O54  1  0.50000000  0.50000000  0.25116608  1
  O  O55  1  0.50000000  0.50000000  0.74883392  1
  O  O56  1  -0.00000000  0.25457924  -0.00000000  1
  O  O57  1  -0.00000000  0.24427506  0.50000000  1
  O  O58  1  -0.00000000  0.74542076  0.00000000  1
  O  O59  1  -0.00000000  0.75572494  0.50000000  1
  O  O60  1  0.50000000  0.25059918  0.00000000  1
  O  O61  1  0.50000000  0.24895550  0.50000000  1
  O  O62  1  0.50000000  0.74940082  -0.00000000  1
  O  O63  1  0.50000000  0.75104450  0.50000000  1
