# generated using pymatgen
data_CaSnP2O7
_symmetry_space_group_name_H-M   'P 1'
_cell_length_a   6.56147234
_cell_length_b   7.03048638
_cell_length_c   7.05787531
_cell_angle_alpha   86.48412648
_cell_angle_beta   88.30216770
_cell_angle_gamma   67.35558819
_symmetry_Int_Tables_number   1
_chemical_formula_structural   CaSnP2O7
_chemical_formula_sum   'Ca2 Sn2 P4 O14'
_cell_volume   299.91178468
_cell_formula_units_Z   2
loop_
 _symmetry_equiv_pos_site_id
 _symmetry_equiv_pos_as_xyz
  1  'x, y, z'
loop_
 _atom_site_type_symbol
 _atom_site_label
 _atom_site_symmetry_multiplicity
 _atom_site_fract_x
 _atom_site_fract_y
 _atom_site_fract_z
 _atom_site_occupancy
  Ca  Ca0  1  0.31210353  0.70460005  0.63335786  1
  Ca  Ca1  1  0.68789845  0.29539856  0.36664375  1
  Sn  Sn2  1  0.26233912  0.11646335  0.14970994  1
  Sn  Sn3  1  0.73766140  0.88353686  0.85028964  1
  P  P4  1  0.18335185  0.66003331  0.14657204  1
  P  P5  1  0.81664809  0.33996643  0.85342785  1
  P  P6  1  0.22239750  0.23292819  0.60350811  1
  P  P7  1  0.77760245  0.76707190  0.39649162  1
  O  O8  1  0.12460476  0.73849638  0.93805168  1
  O  O9  1  0.87539498  0.26150290  0.06194790  1
  O  O10  1  0.22903580  0.81547711  0.26633275  1
  O  O11  1  0.77096400  0.18452260  0.73366719  1
  O  O12  1  0.35757990  0.44173890  0.16686690  1
  O  O13  1  0.64242011  0.55826064  0.83313319  1
  O  O14  1  0.64685314  0.63116005  0.43563386  1
  O  O15  1  0.35314678  0.36884025  0.56436559  1
  O  O16  1  0.09124709  0.21749382  0.42828154  1
  O  O17  1  0.90875332  0.78250567  0.57171861  1
  O  O18  1  0.04428753  0.35267549  0.76267159  1
  O  O19  1  0.64066284  0.98648864  0.31514722  1
  O  O20  1  0.35933739  0.01351146  0.68485327  1
  O  O21  1  0.95571197  0.64732443  0.23732793  1
