# generated using pymatgen
data_MgFe(GeO3)2
_symmetry_space_group_name_H-M   'P 1'
_cell_length_a   5.46532409
_cell_length_b   9.17583793
_cell_length_c   9.92229206
_cell_angle_alpha   90.00000000
_cell_angle_beta   104.43997779
_cell_angle_gamma   90.00000000
_symmetry_Int_Tables_number   1
_chemical_formula_structural   MgFe(GeO3)2
_chemical_formula_sum   'Mg4 Fe4 Ge8 O24'
_cell_volume   481.87307272
_cell_formula_units_Z   4
loop_
 _symmetry_equiv_pos_site_id
 _symmetry_equiv_pos_as_xyz
  1  'x, y, z'
loop_
 _atom_site_type_symbol
 _atom_site_label
 _atom_site_symmetry_multiplicity
 _atom_site_fract_x
 _atom_site_fract_y
 _atom_site_fract_z
 _atom_site_occupancy
  Mg  Mg0  1  0.44753060  0.48775308  0.24255962  1
  Mg  Mg1  1  0.05246940  0.98775308  0.75744038  1
  Mg  Mg2  1  0.55246940  0.51224692  0.75744038  1
  Mg  Mg3  1  0.94753060  0.01224692  0.24255962  1
  Fe  Fe4  1  0.95547727  0.65508420  0.24626074  1
  Fe  Fe5  1  0.54452273  0.15508420  0.75373926  1
  Fe  Fe6  1  0.04452273  0.34491580  0.75373926  1
  Fe  Fe7  1  0.45547727  0.84491580  0.24626074  1
  Ge  Ge8  1  0.82227783  0.33851161  0.05497870  1
  Ge  Ge9  1  0.67772217  0.83851161  0.94502130  1
  Ge  Ge10  1  0.17772217  0.66148839  0.94502130  1
  Ge  Ge11  1  0.32227783  0.16148839  0.05497870  1
  Ge  Ge12  1  0.25020605  0.34378115  0.45750611  1
  Ge  Ge13  1  0.24979395  0.84378115  0.54249389  1
  Ge  Ge14  1  0.74979395  0.65621885  0.54249389  1
  Ge  Ge15  1  0.75020605  0.15621885  0.45750611  1
  O  O16  1  0.51447055  0.29054437  0.38769829  1
  O  O17  1  0.98552945  0.79054437  0.61230171  1
  O  O18  1  0.48552945  0.70945563  0.61230171  1
  O  O19  1  0.01447055  0.20945563  0.38769829  1
  O  O20  1  0.16737807  0.32091008  0.10922708  1
  O  O21  1  0.33262193  0.82091008  0.89077392  1
  O  O22  1  0.83262193  0.67908992  0.89077392  1
  O  O23  1  0.66737807  0.17908992  0.10922708  1
  O  O24  1  0.69687985  0.99276607  0.36694897  1
  O  O25  1  0.80312015  0.49276607  0.63305103  1
  O  O26  1  0.30312015  0.00723393  0.63305103  1
  O  O27  1  0.19687985  0.50723393  0.36694897  1
  O  O28  1  0.22428313  0.01753125  0.14026216  1
  O  O29  1  0.27571687  0.51753125  0.85973784  1
  O  O30  1  0.77571687  0.98246875  0.85973784  1
  O  O31  1  0.72428313  0.48246875  0.14026216  1
  O  O32  1  0.74882800  0.33891716  0.87111596  1
  O  O33  1  0.75117200  0.83891716  0.12888404  1
  O  O34  1  0.25117200  0.66108284  0.12888404  1
  O  O35  1  0.24882800  0.16108284  0.87111596  1
  O  O36  1  0.32830104  0.34673074  0.63933815  1
  O  O37  1  0.17169896  0.84673074  0.36066185  1
  O  O38  1  0.67169896  0.65326926  0.36066185  1
  O  O39  1  0.82830104  0.15326926  0.63933815  1
