# generated using pymatgen
data_CaMnAs2O7
_symmetry_space_group_name_H-M   'P 1'
_cell_length_a   7.60946873
_cell_length_b   9.23375112
_cell_length_c   9.63397123
_cell_angle_alpha   90.00000000
_cell_angle_beta   111.67000634
_cell_angle_gamma   90.00000000
_symmetry_Int_Tables_number   1
_chemical_formula_structural   CaMnAs2O7
_chemical_formula_sum   'Ca4 Mn4 As8 O28'
_cell_volume   629.08008200
_cell_formula_units_Z   4
loop_
 _symmetry_equiv_pos_site_id
 _symmetry_equiv_pos_as_xyz
  1  'x, y, z'
loop_
 _atom_site_type_symbol
 _atom_site_label
 _atom_site_symmetry_multiplicity
 _atom_site_fract_x
 _atom_site_fract_y
 _atom_site_fract_z
 _atom_site_occupancy
  Ca  Ca0  1  0.25915936  0.93318983  0.92959038  1
  Ca  Ca1  1  0.74084064  0.43318983  0.57040962  1
  Ca  Ca2  1  0.74084064  0.06681017  0.07040962  1
  Ca  Ca3  1  0.25915936  0.56681017  0.42959038  1
  Mn  Mn4  1  0.80009347  0.05494479  0.68957225  1
  Mn  Mn5  1  0.19990653  0.55494479  0.81042775  1
  Mn  Mn6  1  0.19990653  0.94505521  0.31042775  1
  Mn  Mn7  1  0.80009347  0.44505521  0.18957225  1
  As  As8  1  0.41984776  0.23555015  0.73313639  1
  As  As9  1  0.58015224  0.73555015  0.76686361  1
  As  As10  1  0.58015224  0.76444985  0.26686361  1
  As  As11  1  0.41984776  0.26444985  0.23313539  1
  As  As12  1  0.01744047  0.29236005  0.95357298  1
  As  As13  1  0.98255953  0.79236005  0.54642702  1
  As  As14  1  0.98255953  0.70763995  0.04642702  1
  As  As15  1  0.01744047  0.20763995  0.45357298  1
  O  O16  1  0.85683175  0.30352740  0.03766373  1
  O  O17  1  0.14316825  0.80352740  0.46233627  1
  O  O18  1  0.14316825  0.69647260  0.96233627  1
  O  O19  1  0.85683175  0.19647260  0.53766373  1
  O  O20  1  0.34486958  0.40921606  0.72618418  1
  O  O21  1  0.65513042  0.90921606  0.77381582  1
  O  O22  1  0.65513042  0.59078394  0.27381582  1
  O  O23  1  0.34486958  0.09078394  0.22618418  1
  O  O24  1  0.43551309  0.13226930  0.88363855  1
  O  O25  1  0.56448691  0.63226930  0.61636145  1
  O  O26  1  0.56448691  0.86773070  0.11636145  1
  O  O27  1  0.43551309  0.36773070  0.38363855  1
  O  O28  1  0.24456693  0.14483968  0.57518846  1
  O  O29  1  0.75543307  0.64483968  0.92481154  1
  O  O30  1  0.75543307  0.85516032  0.42481154  1
  O  O31  1  0.24456693  0.35516032  0.07518846  1
  O  O32  1  0.98339572  0.09188756  0.30897012  1
  O  O33  1  0.01660428  0.59188756  0.19102988  1
  O  O34  1  0.01660428  0.90811244  0.69102988  1
  O  O35  1  0.98339572  0.40811244  0.80897012  1
  O  O36  1  0.62195178  0.26839062  0.19561837  1
  O  O37  1  0.37804822  0.76839062  0.30438163  1
  O  O38  1  0.37804822  0.73160938  0.80438163  1
  O  O39  1  0.62195178  0.23160938  0.69561837  1
  O  O40  1  0.01798026  0.38463828  0.40364026  1
  O  O41  1  0.98201974  0.88463828  0.09635974  1
  O  O42  1  0.98201974  0.61536172  0.59635974  1
  O  O43  1  0.01798026  0.11536172  0.90364026  1
