# generated using pymatgen
data_CaMn3(P2O7)2
_symmetry_space_group_name_H-M   'P 1'
_cell_length_a   7.67908749
_cell_length_b   7.88941239
_cell_length_c   9.70142210
_cell_angle_alpha   90.00000000
_cell_angle_beta   111.65683427
_cell_angle_gamma   90.00000000
_symmetry_Int_Tables_number   1
_chemical_formula_structural   CaMn3(P2O7)2
_chemical_formula_sum   'Ca2 Mn6 P8 O28'
_cell_volume   546.25751056
_cell_formula_units_Z   2
loop_
 _symmetry_equiv_pos_site_id
 _symmetry_equiv_pos_as_xyz
  1  'x, y, z'
loop_
 _atom_site_type_symbol
 _atom_site_label
 _atom_site_symmetry_multiplicity
 _atom_site_fract_x
 _atom_site_fract_y
 _atom_site_fract_z
 _atom_site_occupancy
  Ca  Ca0  1  0.50000000  -0.00000000  0.00000000  1
  Ca  Ca1  1  0.50000000  0.50000000  0.50000000  1
  Mn  Mn2  1  0.19231190  0.87722865  0.52975539  1
  Mn  Mn3  1  0.80768810  0.37722865  0.97024461  1
  Mn  Mn4  1  0.80768810  0.12277135  0.47024461  1
  Mn  Mn5  1  0.19231190  0.62277135  0.02975539  1
  Mn  Mn6  1  0.00000000  -0.00000000  0.00000000  1
  Mn  Mn7  1  0.00000000  0.50000000  0.50000000  1
  P  P8  1  0.60105965  0.06531610  0.70646064  1
  P  P9  1  0.39894035  0.56531610  0.79353936  1
  P  P10  1  0.39894035  0.93468390  0.29353936  1
  P  P11  1  0.60105965  0.43468390  0.20646064  1
  P  P12  1  0.87425433  0.79682229  0.68992210  1
  P  P13  1  0.12574567  0.29682229  0.81007790  1
  P  P14  1  0.12574567  0.20317771  0.31007790  1
  P  P15  1  0.87425433  0.70317771  0.18992210  1
  O  O16  1  0.81840387  0.62832307  0.60779209  1
  O  O17  1  0.18159613  0.12832307  0.89220791  1
  O  O18  1  0.18159613  0.37167693  0.39220791  1
  O  O19  1  0.81840387  0.87167693  0.10779209  1
  O  O20  1  0.27674108  0.61542309  0.63062870  1
  O  O21  1  0.72325892  0.11542309  0.86937130  1
  O  O22  1  0.72325892  0.38457691  0.36937130  1
  O  O23  1  0.27674108  0.88457691  0.13062870  1
  O  O24  1  0.61954169  0.19234230  0.59384199  1
  O  O25  1  0.38045831  0.69234230  0.90615801  1
  O  O26  1  0.38045831  0.80765770  0.40615801  1
  O  O27  1  0.61954169  0.30765770  0.09384199  1
  O  O28  1  0.67737958  0.88388042  0.67510286  1
  O  O29  1  0.32262042  0.38388042  0.82489714  1
  O  O30  1  0.32262042  0.11611958  0.32489714  1
  O  O31  1  0.67737958  0.61611958  0.17510286  1
  O  O32  1  0.40467437  0.47747759  0.20036662  1
  O  O33  1  0.59532563  0.97747759  0.29963338  1
  O  O34  1  0.59532563  0.52252241  0.79963338  1
  O  O35  1  0.40467437  0.02252241  0.70036662  1
  O  O36  1  0.01368211  0.21317383  0.14287344  1
  O  O37  1  0.98631789  0.71317383  0.35712656  1
  O  O38  1  0.98631789  0.78682617  0.85712656  1
  O  O39  1  0.01368211  0.28682617  0.64287344  1
  O  O40  1  0.96591456  0.58339627  0.11149385  1
  O  O41  1  0.03408544  0.08339627  0.38850615  1
  O  O42  1  0.03408544  0.41660373  0.88850615  1
  O  O43  1  0.96591456  0.91660373  0.61149385  1
