# generated using pymatgen
data_Mg2Ta2FeO8
_symmetry_space_group_name_H-M   'P 1'
_cell_length_a   5.20270716
_cell_length_b   6.03941791
_cell_length_c   10.09160044
_cell_angle_alpha   107.41333753
_cell_angle_beta   90.42755218
_cell_angle_gamma   89.96797155
_symmetry_Int_Tables_number   1
_chemical_formula_structural   Mg2Ta2FeO8
_chemical_formula_sum   'Mg4 Ta4 Fe2 O16'
_cell_volume   302.55046387
_cell_formula_units_Z   2
loop_
 _symmetry_equiv_pos_site_id
 _symmetry_equiv_pos_as_xyz
  1  'x, y, z'
loop_
 _atom_site_type_symbol
 _atom_site_label
 _atom_site_symmetry_multiplicity
 _atom_site_fract_x
 _atom_site_fract_y
 _atom_site_fract_z
 _atom_site_occupancy
  Mg  Mg0  1  0.75123571  0.41572575  0.54560586  1
  Mg  Mg1  1  0.74442122  0.87027726  0.45401029  1
  Mg  Mg2  1  0.24433882  0.58561646  0.45433396  1
  Mg  Mg3  1  0.25122066  0.13085138  0.54572591  1
  Ta  Ta4  1  0.74132020  0.28196377  0.23442593  1
  Ta  Ta5  1  0.75377783  0.04623890  0.76534135  1
  Ta  Ta6  1  0.25403528  0.71937590  0.76546222  1
  Ta  Ta7  1  0.24148573  0.95401546  0.23429446  1
  Fe  Fe8  1  0.74830316  0.64774298  0.99985821  1
  Fe  Fe9  1  0.24815845  0.35272319  0.99974644  1
  O  O10  1  0.07636431  0.18398289  0.14622917  1
  O  O11  1  0.41849455  0.03779957  0.85352335  1
  O  O12  1  0.91880118  0.81613084  0.85346814  1
  O  O13  1  0.57664948  0.96356788  0.14624074  1
  O  O14  1  0.58759409  0.43043318  0.11953568  1
  O  O15  1  0.90825406  0.30920534  0.88043560  1
  O  O16  1  0.40889712  0.57115453  0.88025305  1
  O  O17  1  0.08828038  0.69050091  0.11932849  1
  O  O18  1  0.45291760  0.29163510  0.37389383  1
  O  O19  1  0.04294609  0.91687150  0.62601795  1
  O  O20  1  0.37768215  0.83943800  0.38388074  1
  O  O21  1  0.11797475  0.45506091  0.61603224  1
  O  O22  1  0.61808157  0.16177842  0.61601815  1
  O  O23  1  0.87781680  0.54602636  0.38379232  1
  O  O24  1  0.95280011  0.08384888  0.37378160  1
  O  O25  1  0.54288071  0.70986766  0.62609933  1
