# generated using pymatgen
data_ZnNiP2O7
_symmetry_space_group_name_H-M   'P 1'
_cell_length_a   7.02607412
_cell_length_b   8.38860452
_cell_length_c   9.03543039
_cell_angle_alpha   90.00000000
_cell_angle_beta   112.32590058
_cell_angle_gamma   90.00000000
_symmetry_Int_Tables_number   1
_chemical_formula_structural   ZnNiP2O7
_chemical_formula_sum   'Zn4 Ni4 P8 O28'
_cell_volume   492.61871583
_cell_formula_units_Z   4
loop_
 _symmetry_equiv_pos_site_id
 _symmetry_equiv_pos_as_xyz
  1  'x, y, z'
loop_
 _atom_site_type_symbol
 _atom_site_label
 _atom_site_symmetry_multiplicity
 _atom_site_fract_x
 _atom_site_fract_y
 _atom_site_fract_z
 _atom_site_occupancy
  Zn  Zn0  1  0.12276831  0.94222844  0.81793113  1
  Zn  Zn1  1  0.37723169  0.44222844  0.68206887  1
  Zn  Zn2  1  0.62276831  0.55777156  0.31793113  1
  Zn  Zn3  1  0.87723169  0.05777156  0.18206887  1
  Ni  Ni4  1  0.37995297  0.07402139  0.60972556  1
  Ni  Ni5  1  0.62004703  0.92597861  0.39027444  1
  Ni  Ni6  1  0.12004703  0.57402139  0.89027444  1
  Ni  Ni7  1  0.87995297  0.42597861  0.10972556  1
  P  P8  1  0.18029138  0.73239714  0.24041827  1
  P  P9  1  0.43767996  0.22779091  0.96847792  1
  P  P10  1  0.68029138  0.76760286  0.74041827  1
  P  P11  1  0.93767996  0.27220909  0.46847792  1
  P  P12  1  0.31970862  0.23239714  0.25958173  1
  P  P13  1  0.06232004  0.72779091  0.53152208  1
  P  P14  1  0.56232004  0.77220909  0.03152208  1
  P  P15  1  0.81970862  0.26760286  0.75958173  1
  O  O16  1  0.35354863  0.17302219  0.10118352  1
  O  O17  1  0.57485873  0.61018642  0.68327525  1
  O  O18  1  0.07485873  0.88981358  0.18327525  1
  O  O19  1  0.34400958  0.39053405  0.89972481  1
  O  O20  1  0.64645137  0.82697781  0.89881648  1
  O  O21  1  0.40431187  0.09488351  0.38009827  1
  O  O22  1  0.65599142  0.60946595  0.10027519  1
  O  O23  1  0.36545736  0.09169487  0.84511516  1
  O  O24  1  0.17419771  0.26261856  0.54785104  1
  O  O25  1  0.59568813  0.90511649  0.61990173  1
  O  O26  1  0.90431187  0.40511649  0.88009827  1
  O  O27  1  0.91666785  0.75850625  0.79739895  1
  O  O28  1  0.58333215  0.25850625  0.70260105  1
  O  O29  1  0.85354863  0.32697781  0.60118352  1
  O  O30  1  0.09568813  0.59488351  0.11990173  1
  O  O31  1  0.92514127  0.11018642  0.81672475  1
  O  O32  1  0.08333215  0.24149375  0.20260105  1
  O  O33  1  0.63454264  0.90830513  0.15488484  1
  O  O34  1  0.67419771  0.23738144  0.04785104  1
  O  O35  1  0.32580229  0.76261856  0.95214896  1
  O  O36  1  0.15599042  0.89053405  0.60027519  1
  O  O37  1  0.86545736  0.40830513  0.34511516  1
  O  O38  1  0.13454264  0.59169487  0.65488484  1
  O  O39  1  0.42514127  0.38981358  0.31672475  1
  O  O40  1  0.41666785  0.74149375  0.29739895  1
  O  O41  1  0.84400858  0.10946595  0.39972481  1
  O  O42  1  0.82580229  0.73738144  0.45214896  1
  O  O43  1  0.14645137  0.67302219  0.39881648  1
