# generated using pymatgen
data_ScB4Os3
_symmetry_space_group_name_H-M   'P 1'
_cell_length_a   2.96012065
_cell_length_b   6.10783481
_cell_length_c   9.87022051
_cell_angle_alpha   90.00000000
_cell_angle_beta   90.00000000
_cell_angle_gamma   104.02360394
_symmetry_Int_Tables_number   1
_chemical_formula_structural   ScB4Os3
_chemical_formula_sum   'Sc2 B8 Os6'
_cell_volume   173.13426260
_cell_formula_units_Z   2
loop_
 _symmetry_equiv_pos_site_id
 _symmetry_equiv_pos_as_xyz
  1  'x, y, z'
loop_
 _atom_site_type_symbol
 _atom_site_label
 _atom_site_symmetry_multiplicity
 _atom_site_fract_x
 _atom_site_fract_y
 _atom_site_fract_z
 _atom_site_occupancy
  B  B0  1  0.62914926  0.25829852  0.25000000  1
  B  B1  1  0.37085074  0.74170148  0.75000000  1
  B  B2  1  0.35047418  0.70094836  0.25000000  1
  B  B3  1  0.64952582  0.29905164  0.75000000  1
  B  B4  1  0.15631493  0.31262987  0.89126288  1
  B  B5  1  0.84368507  0.68737013  0.39126288  1
  B  B6  1  0.84368507  0.68737013  0.10873712  1
  B  B7  1  0.15631493  0.31262987  0.60873712  1
  Sc  Sc8  1  0.50000000  0.00000000  0.00000000  1
  Sc  Sc9  1  0.50000000  0.00000000  0.50000000  1
  Os  Os10  1  0.20175820  0.40351639  0.10830766  1
  Os  Os11  1  0.01114050  0.02228100  0.75000000  1
  Os  Os12  1  0.98885950  0.97771900  0.25000000  1
  Os  Os13  1  0.79824180  0.59648361  0.89169234  1
  Os  Os14  1  0.79824180  0.59648361  0.60830766  1
  Os  Os15  1  0.20175820  0.40351639  0.39169234  1
