# generated using pymatgen
data_USi3Ir
_symmetry_space_group_name_H-M   'P 1'
_cell_length_a   4.16766764
_cell_length_b   4.16766764
_cell_length_c   5.70369047
_cell_angle_alpha   111.42902143
_cell_angle_beta   111.42902143
_cell_angle_gamma   90.00000000
_symmetry_Int_Tables_number   1
_chemical_formula_structural   USi3Ir
_chemical_formula_sum   'U1 Si3 Ir1'
_cell_volume   84.82156742
_cell_formula_units_Z   1
loop_
 _symmetry_equiv_pos_site_id
 _symmetry_equiv_pos_as_xyz
  1  'x, y, z'
loop_
 _atom_site_type_symbol
 _atom_site_label
 _atom_site_symmetry_multiplicity
 _atom_site_fract_x
 _atom_site_fract_y
 _atom_site_fract_z
 _atom_site_occupancy
  U  U0  1  0.99740655  0.99740655  0.99481309  1
  Si  Si1  1  0.41180869  0.41180869  0.82361738  1
  Si  Si2  1  0.76643328  0.26643328  0.53286657  1
  Si  Si3  1  0.26643328  0.76643328  0.53286657  1
  Ir  Ir4  1  0.65191820  0.65191820  0.30383639  1
