# generated using pymatgen
data_NaLi2Al3(SiO4)3
_symmetry_space_group_name_H-M   'P 1'
_cell_length_a   11.78032894
_cell_length_b   12.29306759
_cell_length_c   12.29306759
_cell_angle_alpha   90.00000000
_cell_angle_beta   90.00000000
_cell_angle_gamma   90.00000000
_symmetry_Int_Tables_number   1
_chemical_formula_structural   NaLi2Al3(SiO4)3
_chemical_formula_sum   'Na4 Li8 Al12 Si12 O48'
_cell_volume   1780.23754615
_cell_formula_units_Z   4
loop_
 _symmetry_equiv_pos_site_id
 _symmetry_equiv_pos_as_xyz
  1  'x, y, z'
loop_
 _atom_site_type_symbol
 _atom_site_label
 _atom_site_symmetry_multiplicity
 _atom_site_fract_x
 _atom_site_fract_y
 _atom_site_fract_z
 _atom_site_occupancy
  Na  Na0  1  0.50133245  -0.00000000  0.36628722  1
  Na  Na1  1  0.50133245  0.00000000  0.63371278  1
  Na  Na2  1  0.50133245  0.36628722  -0.00000000  1
  Na  Na3  1  0.50133245  0.63371278  -0.00000000  1
  Li  Li4  1  0.18201124  0.19289961  0.19289961  1
  Li  Li5  1  0.18201124  0.19289961  0.80710039  1
  Li  Li6  1  0.18201124  0.80710039  0.19289961  1
  Li  Li7  1  0.18201124  0.80710039  0.80710039  1
  Li  Li8  1  0.81766075  0.19175670  0.19175670  1
  Li  Li9  1  0.81766075  0.19175670  0.80824330  1
  Li  Li10  1  0.81766075  0.80824330  0.19175670  1
  Li  Li11  1  0.81766075  0.80824330  0.80824330  1
  Al  Al12  1  0.18415153  0.00000000  0.36645911  1
  Al  Al13  1  0.18415153  0.00000000  0.63354089  1
  Al  Al14  1  0.18415153  0.36645911  -0.00000000  1
  Al  Al15  1  0.18415153  0.63354089  -0.00000000  1
  Al  Al16  1  0.65106252  0.17877333  -0.00000000  1
  Al  Al17  1  0.65106252  0.00000000  0.17877333  1
  Al  Al18  1  0.65106252  -0.00000000  0.82122667  1
  Al  Al19  1  0.65106252  0.82122667  -0.00000000  1
  Al  Al20  1  0.82230355  0.00000000  0.63474885  1
  Al  Al21  1  0.82230355  0.63474885  -0.00000000  1
  Al  Al22  1  0.82230355  0.00000000  0.36525115  1
  Al  Al23  1  0.82230355  0.36525115  -0.00000000  1
  Si  Si24  1  0.00177050  0.36656435  0.18752642  1
  Si  Si25  1  0.00177050  0.63343565  0.18752642  1
  Si  Si26  1  0.00177050  0.36656435  0.81247358  1
  Si  Si27  1  0.00177050  0.81247358  0.36656435  1
  Si  Si28  1  0.00177050  0.81247358  0.63343565  1
  Si  Si29  1  0.36398046  0.17254926  -0.00000000  1
  Si  Si30  1  0.36398046  0.00000000  0.82745074  1
  Si  Si31  1  0.36398046  0.82745074  -0.00000000  1
  Si  Si32  1  0.36398046  0.00000000  0.17254926  1
  Si  Si33  1  0.00177050  0.18752642  0.36656435  1
  Si  Si34  1  0.00177050  0.18752642  0.63343565  1
  Si  Si35  1  0.00177050  0.63343565  0.81247358  1
  O  O36  1  0.00524997  0.30978772  0.30978772  1
  O  O37  1  0.00456050  0.50000000  0.20036838  1
  O  O38  1  0.00524997  0.30978772  0.69021228  1
  O  O39  1  0.00524997  0.69021228  0.30978772  1
  O  O40  1  0.00456050  0.79963162  0.50000000  1
  O  O41  1  0.11662071  0.12300685  0.32258510  1
  O  O42  1  0.11662071  0.32258510  0.12300685  1
  O  O43  1  0.11662071  0.32258510  0.87699315  1
  O  O44  1  0.11662071  0.87699315  0.32258510  1
  O  O45  1  0.11662071  0.12300685  0.67741490  1
  O  O46  1  0.11662071  0.67741490  0.12300685  1
  O  O47  1  0.11662071  0.67741490  0.87699315  1
  O  O48  1  0.11662071  0.87699315  0.67741490  1
  O  O49  1  0.21938681  -0.00000000  0.50000000  1
  O  O50  1  0.21938681  0.50000000  -0.00000000  1
  O  O51  1  0.31482343  -0.00000000  0.29433889  1
  O  O52  1  0.31482343  0.29433889  -0.00000000  1
  O  O53  1  0.31482343  0.70566111  -0.00000000  1
  O  O54  1  0.31482343  0.00000000  0.70566111  1
  O  O55  1  0.31115740  0.10897593  0.10897593  1
  O  O56  1  0.31115740  0.10897593  0.89102407  1
  O  O57  1  0.31115740  0.89102407  0.10897593  1
  O  O58  1  0.31115740  0.89102407  0.89102407  1
  O  O59  1  0.49878039  -0.00000000  0.17790272  1
  O  O60  1  0.49878039  0.17790272  -0.00000000  1
  O  O61  1  0.49878039  0.82209728  -0.00000000  1
  O  O62  1  0.49878039  0.00000000  0.82209728  1
  O  O63  1  0.70053078  0.11909888  0.11909888  1
  O  O64  1  0.70053078  0.11909888  0.88090112  1
  O  O65  1  0.70053078  0.88090112  0.11909888  1
  O  O66  1  0.70053078  0.88090112  0.88090112  1
  O  O67  1  0.68241760  0.00000000  0.31823897  1
  O  O68  1  0.68241760  0.31823897  -0.00000000  1
  O  O69  1  0.68241760  0.68176103  -0.00000000  1
  O  O70  1  0.68241760  0.00000000  0.68176103  1
  O  O71  1  0.84262925  0.50000000  -0.00000000  1
  O  O72  1  0.84262925  0.00000000  0.50000000  1
  O  O73  1  0.89109273  0.12372841  0.31757295  1
  O  O74  1  0.89109273  0.12372841  0.68242605  1
  O  O75  1  0.89109273  0.31757295  0.12372841  1
  O  O76  1  0.89109273  0.31757295  0.87627159  1
  O  O77  1  0.89109273  0.68242605  0.12372841  1
  O  O78  1  0.89109273  0.68242605  0.87627159  1
  O  O79  1  0.89109273  0.87627159  0.31757295  1
  O  O80  1  0.89109273  0.87627159  0.68242605  1
  O  O81  1  0.00456050  0.20036838  0.50000000  1
  O  O82  1  0.00456050  0.50000000  0.79963162  1
  O  O83  1  0.00524997  0.69021228  0.69021228  1
