# generated using pymatgen
data_AgO
_symmetry_space_group_name_H-M   'P 1'
_cell_length_a   3.29887689
_cell_length_b   3.29887689
_cell_length_c   5.64565254
_cell_angle_alpha   86.68111543
_cell_angle_beta   86.68111543
_cell_angle_gamma   80.73060605
_symmetry_Int_Tables_number   1
_chemical_formula_structural   AgO
_chemical_formula_sum   'Ag2 O2'
_cell_volume   60.46174355
_cell_formula_units_Z   2
loop_
 _symmetry_equiv_pos_site_id
 _symmetry_equiv_pos_as_xyz
  1  'x, y, z'
loop_
 _atom_site_type_symbol
 _atom_site_label
 _atom_site_symmetry_multiplicity
 _atom_site_fract_x
 _atom_site_fract_y
 _atom_site_fract_z
 _atom_site_occupancy
  Ag  Ag0  1  0.50000000  0.50000000  0.50000000  1
  Ag  Ag1  1  0.00000000  0.00000000  -0.00000000  1
  O  O2  1  0.02484128  0.47515872  0.25000000  1
  O  O3  1  0.97515872  0.52484128  0.75000000  1
