# generated using pymatgen
data_V3(PO4)4
_symmetry_space_group_name_H-M   'P 1'
_cell_length_a   13.29106858
_cell_length_b   7.64168645
_cell_length_c   9.02413504
_cell_angle_alpha   90.36765671
_cell_angle_beta   84.27509570
_cell_angle_gamma   90.99272742
_symmetry_Int_Tables_number   1
_chemical_formula_structural   V3(PO4)4
_chemical_formula_sum   'V9 P12 O48'
_cell_volume   911.82844472
_cell_formula_units_Z   3
loop_
 _symmetry_equiv_pos_site_id
 _symmetry_equiv_pos_as_xyz
  1  'x, y, z'
loop_
 _atom_site_type_symbol
 _atom_site_label
 _atom_site_symmetry_multiplicity
 _atom_site_fract_x
 _atom_site_fract_y
 _atom_site_fract_z
 _atom_site_occupancy
  V  V0  1  0.16973314  0.53982536  0.32492271  1
  V  V1  1  0.82554478  0.36025305  0.25877988  1
  V  V2  1  0.84216548  0.51901256  0.68168973  1
  V  V3  1  0.17223591  0.98870018  0.84955229  1
  V  V4  1  0.50779979  0.85359705  0.90737120  1
  V  V5  1  0.49268379  0.01226040  0.48404153  1
  V  V6  1  0.49776673  0.46225414  0.00948560  1
  V  V7  1  0.83062558  0.96670015  0.15583747  1
  V  V8  1  0.15844070  0.14710879  0.42594581  1
  P  P9  1  0.38429240  0.18762906  0.79872394  1
  P  P10  1  0.38760348  0.31641029  0.32574722  1
  P  P11  1  0.94675799  0.83136647  0.83869639  1
  P  P12  1  0.94796350  0.70082196  0.36554033  1
  P  P13  1  0.60926013  0.78566302  0.19134887  1
  P  P14  1  0.72100378  0.28952864  0.97619384  1
  P  P15  1  0.27832251  0.68710182  0.00892115  1
  P  P16  1  0.05581612  0.21644179  0.14520103  1
  P  P17  1  0.72049112  0.16863342  0.48035921  1
  P  P18  1  0.61406899  0.66442112  0.68738902  1
  P  P19  1  0.28097268  0.81379992  0.53635721  1
  P  P20  1  0.05247476  0.33502324  0.64565677  1
  O  O21  1  0.93518075  0.33332045  0.64445547  1
  O  O22  1  0.90353000  0.87211278  0.31597903  1
  O  O23  1  0.56791447  0.60238349  0.16083882  1
  O  O24  1  0.26430453  0.30155168  0.33945863  1
  O  O25  1  0.09284143  0.37753134  0.47099453  1
  O  O26  1  0.57646390  0.91223812  0.06330435  1
  O  O27  1  0.09364297  0.44546004  0.75911867  1
  O  O28  1  0.23732740  0.63770796  0.48832030  1
  O  O29  1  0.25538116  0.64161541  0.18234267  1
  O  O30  1  0.57237191  0.86221313  0.34201863  1
  O  O31  1  0.08515067  0.13625044  0.99430771  1
  O  O32  1  0.90925677  0.96127721  0.73951831  1
  O  O33  1  0.42406623  0.04266628  0.89781690  1
  O  O34  1  0.56674710  0.85944024  0.70023816  1
  O  O35  1  0.09896732  0.13908896  0.63011097  1
  O  O36  1  0.60295773  0.17029609  0.48420368  1
  O  O37  1  0.93433449  0.21021083  0.17170989  1
  O  O38  1  0.23738164  0.87727528  0.00141533  1
  O  O39  1  0.91299923  0.54971173  0.26426683  1
  O  O40  1  0.75975021  0.12777486  0.30549243  1
  O  O41  1  0.06585868  0.71035949  0.34273122  1
  O  O42  1  0.91177648  0.87094741  0.01222064  1
  O  O43  1  0.75906395  0.10755176  0.00865270  1
  O  O44  1  0.24125876  0.95729896  0.43549678  1
  O  O45  1  0.42143117  0.45320516  0.42500779  1
  O  O46  1  0.24356734  0.55081177  0.91009214  1
  O  O47  1  0.75375583  0.41629471  0.10837444  1
  O  O48  1  0.26670791  0.17857633  0.82397090  1
  O  O49  1  0.57617323  0.54764296  0.57533081  1
  O  O50  1  0.76775277  0.36652908  0.46574160  1
  O  O51  1  0.39840431  0.82326265  0.50998107  1
  O  O52  1  0.06542541  0.83376994  0.83792477  1
  O  O53  1  0.90977247  0.63586869  0.82823315  1
  O  O54  1  0.57392434  0.62389219  0.86201336  1
  O  O55  1  0.09912961  0.39789761  0.17308645  1
  O  O56  1  0.76302112  0.36658103  0.82827605  1
  O  O57  1  0.25195896  0.85335468  0.70100775  1
  O  O58  1  0.91711164  0.65908531  0.52892612  1
  O  O59  1  0.40194361  0.70018717  0.99424437  1
  O  O60  1  0.60345071  0.29357571  0.98737722  1
  O  O61  1  0.41548861  0.14935562  0.63399194  1
  O  O62  1  0.73155417  0.67085256  0.68555793  1
  O  O63  1  0.42793077  0.12591478  0.33400896  1
  O  O64  1  0.41195499  0.36002098  0.15220320  1
  O  O65  1  0.72680222  0.79043816  0.17746528  1
  O  O66  1  0.08664154  0.08816681  0.27206664  1
  O  O67  1  0.75879146  0.05577404  0.59117191  1
  O  O68  1  0.42740467  0.36338870  0.84845230  1
