# generated using pymatgen
data_InBiS3
_symmetry_space_group_name_H-M   'P 1'
_cell_length_a   3.93575740
_cell_length_b   6.67032992
_cell_length_c   9.94385798
_cell_angle_alpha   91.33327727
_cell_angle_beta   90.00000000
_cell_angle_gamma   90.00000000
_symmetry_Int_Tables_number   1
_chemical_formula_structural   InBiS3
_chemical_formula_sum   'In2 Bi2 S6'
_cell_volume   260.98344137
_cell_formula_units_Z   2
loop_
 _symmetry_equiv_pos_site_id
 _symmetry_equiv_pos_as_xyz
  1  'x, y, z'
loop_
 _atom_site_type_symbol
 _atom_site_label
 _atom_site_symmetry_multiplicity
 _atom_site_fract_x
 _atom_site_fract_y
 _atom_site_fract_z
 _atom_site_occupancy
  In  In0  1  0.86244607  0.24557620  0.99709372  1
  In  In1  1  0.36244607  0.75442380  0.00290628  1
  Bi  Bi2  1  0.86300967  0.60417250  0.34910211  1
  Bi  Bi3  1  0.36300967  0.39582750  0.65089789  1
  S  S4  1  0.36319270  0.74875855  0.51113560  1
  S  S5  1  0.86319270  0.25124145  0.48886440  1
  S  S6  1  0.86309414  0.57218629  0.85087234  1
  S  S7  1  0.36309414  0.42781371  0.14912766  1
  S  S8  1  0.86286742  0.91792103  0.14341154  1
  S  S9  1  0.36286742  0.08207897  0.85658846  1
