# generated using pymatgen
data_TbPd
_symmetry_space_group_name_H-M   'P 1'
_cell_length_a   4.68550869
_cell_length_b   5.55854038
_cell_length_c   6.96373568
_cell_angle_alpha   90.00000000
_cell_angle_beta   90.00000000
_cell_angle_gamma   90.00000000
_symmetry_Int_Tables_number   1
_chemical_formula_structural   TbPd
_chemical_formula_sum   'Tb4 Pd4'
_cell_volume   181.36763546
_cell_formula_units_Z   4
loop_
 _symmetry_equiv_pos_site_id
 _symmetry_equiv_pos_as_xyz
  1  'x, y, z'
loop_
 _atom_site_type_symbol
 _atom_site_label
 _atom_site_symmetry_multiplicity
 _atom_site_fract_x
 _atom_site_fract_y
 _atom_site_fract_z
 _atom_site_occupancy
  Tb  Tb0  1  0.25000000  0.36032898  0.68215658  1
  Tb  Tb1  1  0.25000000  0.13967102  0.18215658  1
  Tb  Tb2  1  0.75000000  0.63967102  0.31784342  1
  Tb  Tb3  1  0.75000000  0.86032898  0.81784342  1
  Pd  Pd4  1  0.25000000  0.84946437  0.54383094  1
  Pd  Pd5  1  0.25000000  0.65053563  0.04383094  1
  Pd  Pd6  1  0.75000000  0.15053563  0.45616906  1
  Pd  Pd7  1  0.75000000  0.34946437  0.95616906  1
