# generated using pymatgen
data_AsPd2
_symmetry_space_group_name_H-M   'P 1'
_cell_length_a   3.69186558
_cell_length_b   6.73066309
_cell_length_c   6.72960953
_cell_angle_alpha   120.00517684
_cell_angle_beta   90.00000000
_cell_angle_gamma   90.00000000
_symmetry_Int_Tables_number   1
_chemical_formula_structural   AsPd2
_chemical_formula_sum   'As3 Pd6'
_cell_volume   144.81100668
_cell_formula_units_Z   3
loop_
 _symmetry_equiv_pos_site_id
 _symmetry_equiv_pos_as_xyz
  1  'x, y, z'
loop_
 _atom_site_type_symbol
 _atom_site_label
 _atom_site_symmetry_multiplicity
 _atom_site_fract_x
 _atom_site_fract_y
 _atom_site_fract_z
 _atom_site_occupancy
  As  As0  1  0.00000000  0.33340307  0.66673130  1
  As  As1  1  0.00000000  0.66667177  0.33326870  1
  As  As2  1  0.50000000  -0.00000635  0.00000000  1
  Pd  Pd3  1  0.00000000  0.26542559  0.00000000  1
  Pd  Pd4  1  0.00000000  0.73451884  0.73456236  1
  Pd  Pd5  1  0.00000000  0.99995647  0.26543764  1
  Pd  Pd6  1  0.50000000  0.60843086  1.00000000  1
  Pd  Pd7  1  0.50000000  0.39157682  0.39165387  1
  Pd  Pd8  1  0.50000000  0.99992295  0.60834613  1
