# generated using pymatgen
data_CeCdPt
_symmetry_space_group_name_H-M   'P 1'
_cell_length_a   4.08151087
_cell_length_b   7.65644503
_cell_length_c   7.65664307
_cell_angle_alpha   119.99914480
_cell_angle_beta   90.00000000
_cell_angle_gamma   90.00000000
_symmetry_Int_Tables_number   1
_chemical_formula_structural   CeCdPt
_chemical_formula_sum   'Ce3 Cd3 Pt3'
_cell_volume   207.21486266
_cell_formula_units_Z   3
loop_
 _symmetry_equiv_pos_site_id
 _symmetry_equiv_pos_as_xyz
  1  'x, y, z'
loop_
 _atom_site_type_symbol
 _atom_site_label
 _atom_site_symmetry_multiplicity
 _atom_site_fract_x
 _atom_site_fract_y
 _atom_site_fract_z
 _atom_site_occupancy
  Ce  Ce0  1  0.00000000  0.59126560  0.00000000  1
  Ce  Ce1  1  0.00000000  0.40871074  0.40871054  1
  Ce  Ce2  1  0.00000000  0.00000019  0.59128946  1
  Cd  Cd3  1  0.50000000  0.24929121  1.00000000  1
  Cd  Cd4  1  0.50000000  0.75069865  0.75070525  1
  Cd  Cd5  1  0.50000000  -0.00000660  0.24929475  1
  Pt  Pt6  1  0.50000000  0.33330078  0.66667826  1
  Pt  Pt7  1  0.50000000  0.66662252  0.33332174  1
  Pt  Pt8  1  0.00000000  0.00001690  -0.00000000  1
