# generated using pymatgen
data_LuTe3
_symmetry_space_group_name_H-M   'P 1'
_cell_length_a   4.31449896
_cell_length_b   4.32301654
_cell_length_c   12.99928601
_cell_angle_alpha   90.00000000
_cell_angle_beta   99.55250923
_cell_angle_gamma   90.00000000
_symmetry_Int_Tables_number   1
_chemical_formula_structural   LuTe3
_chemical_formula_sum   'Lu2 Te6'
_cell_volume   239.09619569
_cell_formula_units_Z   2
loop_
 _symmetry_equiv_pos_site_id
 _symmetry_equiv_pos_as_xyz
  1  'x, y, z'
loop_
 _atom_site_type_symbol
 _atom_site_label
 _atom_site_symmetry_multiplicity
 _atom_site_fract_x
 _atom_site_fract_y
 _atom_site_fract_z
 _atom_site_occupancy
  Lu  Lu0  1  0.17028696  0.75000000  0.34057393  1
  Lu  Lu1  1  0.82971304  0.25000000  0.65942607  1
  Te  Te2  1  0.92451253  0.75000000  0.84902505  1
  Te  Te3  1  0.07548747  0.25000000  0.15097495  1
  Te  Te4  1  0.57559521  0.75000000  0.15119043  1
  Te  Te5  1  0.42440479  0.25000000  0.84880957  1
  Te  Te6  1  0.29303620  0.75000000  0.58607240  1
  Te  Te7  1  0.70696380  0.25000000  0.41392760  1
