# generated using pymatgen
data_Sr2GdRuO6
_symmetry_space_group_name_H-M   'P 1'
_cell_length_a   5.83989570
_cell_length_b   5.83989570
_cell_length_c   5.91936467
_cell_angle_alpha   60.34570527
_cell_angle_beta   60.34570527
_cell_angle_gamma   60.41505094
_symmetry_Int_Tables_number   1
_chemical_formula_structural   Sr2GdRuO6
_chemical_formula_sum   'Sr2 Gd1 Ru1 O6'
_cell_volume   143.93880593
_cell_formula_units_Z   1
loop_
 _symmetry_equiv_pos_site_id
 _symmetry_equiv_pos_as_xyz
  1  'x, y, z'
loop_
 _atom_site_type_symbol
 _atom_site_label
 _atom_site_symmetry_multiplicity
 _atom_site_fract_x
 _atom_site_fract_y
 _atom_site_fract_z
 _atom_site_occupancy
  Sr  Sr0  1  0.24848556  0.24848556  0.26552621  1
  Sr  Sr1  1  0.75151444  0.75151444  0.73447379  1
  Gd  Gd2  1  0.00000000  0.00000000  -0.00000000  1
  Ru  Ru3  1  0.50000000  0.50000000  0.50000000  1
  O  O4  1  0.26891049  0.26891049  0.81721245  1
  O  O5  1  0.73108951  0.73108951  0.18278755  1
  O  O6  1  0.68812415  0.21536228  0.31673405  1
  O  O7  1  0.78463772  0.31187585  0.68326595  1
  O  O8  1  0.31187585  0.78463772  0.68326595  1
  O  O9  1  0.21536228  0.68812415  0.31673405  1
