# generated using pymatgen
data_Mg2Cd
_symmetry_space_group_name_H-M   'P 1'
_cell_length_a   3.21415934
_cell_length_b   16.13633956
_cell_length_c   5.08526871
_cell_angle_alpha   90.00000000
_cell_angle_beta   90.00000000
_cell_angle_gamma   90.00000000
_symmetry_Int_Tables_number   1
_chemical_formula_structural   Mg2Cd
_chemical_formula_sum   'Mg8 Cd4'
_cell_volume   263.74627429
_cell_formula_units_Z   4
loop_
 _symmetry_equiv_pos_site_id
 _symmetry_equiv_pos_as_xyz
  1  'x, y, z'
loop_
 _atom_site_type_symbol
 _atom_site_label
 _atom_site_symmetry_multiplicity
 _atom_site_fract_x
 _atom_site_fract_y
 _atom_site_fract_z
 _atom_site_occupancy
  Mg  Mg0  1  0.00000000  0.55543029  0.25000000  1
  Mg  Mg1  1  0.50000000  0.72321913  0.25000000  1
  Mg  Mg2  1  0.00000000  0.77678087  0.75000000  1
  Mg  Mg3  1  0.50000000  0.94456971  0.75000000  1
  Mg  Mg4  1  0.50000000  0.05543029  0.25000000  1
  Mg  Mg5  1  -0.00000000  0.22321913  0.25000000  1
  Mg  Mg6  1  0.50000000  0.27678087  0.75000000  1
  Mg  Mg7  1  0.00000000  0.44456971  0.75000000  1
  Cd  Cd8  1  -0.00000000  0.88820012  0.25000000  1
  Cd  Cd9  1  0.50000000  0.61179988  0.75000000  1
  Cd  Cd10  1  0.50000000  0.38820012  0.25000000  1
  Cd  Cd11  1  0.00000000  0.11179988  0.75000000  1
