# generated using pymatgen
data_Na3CaFe4(SiO3)8
_symmetry_space_group_name_H-M   'P 1'
_cell_length_a   10.72294973
_cell_length_b   9.41423863
_cell_length_c   9.41423837
_cell_angle_alpha   56.79495099
_cell_angle_beta   43.63239106
_cell_angle_gamma   43.63239138
_symmetry_Int_Tables_number   1
_chemical_formula_structural   Na3CaFe4(SiO3)8
_chemical_formula_sum   'Na3 Ca1 Fe4 Si8 O24'
_cell_volume   451.93603598
_cell_formula_units_Z   1
loop_
 _symmetry_equiv_pos_site_id
 _symmetry_equiv_pos_as_xyz
  1  'x, y, z'
loop_
 _atom_site_type_symbol
 _atom_site_label
 _atom_site_symmetry_multiplicity
 _atom_site_fract_x
 _atom_site_fract_y
 _atom_site_fract_z
 _atom_site_occupancy
  Na  Na0  1  0.12871217  0.70265167  0.29521362  1
  Na  Na1  1  0.62128783  0.70478638  0.29734833  1
  Na  Na2  1  0.87500000  0.29772779  0.70227221  1
  Ca  Ca3  1  0.37500000  0.30160089  0.69839911  1
  Fe  Fe4  1  0.12374233  0.09562220  0.90285440  1
  Fe  Fe5  1  0.37500000  0.89848470  0.10151530  1
  Fe  Fe6  1  0.62625767  0.09714560  0.90437780  1
  Fe  Fe7  1  0.87500000  0.89669476  0.10330524  1
  Si  Si8  1  0.09231404  0.38049002  0.20035741  1
  Si  Si9  1  0.34129128  0.19830949  0.38214671  1
  Si  Si10  1  0.59376356  0.37747796  0.19661907  1
  Si  Si11  1  0.15623644  0.80338093  0.62252204  1
  Si  Si12  1  0.84551590  0.19916784  0.37539317  1
  Si  Si13  1  0.40870872  0.61785329  0.80169051  1
  Si  Si14  1  0.65768596  0.79964259  0.61950998  1
  Si  Si15  1  0.90448410  0.62460683  0.80083216  1
  O  O16  1  0.05725377  0.03951792  0.19151822  1
  O  O17  1  0.31631490  0.20722260  0.02418251  1
  O  O18  1  0.14619505  0.35823502  0.34053224  1
  O  O19  1  0.23538398  0.10617612  0.61617182  1
  O  O20  1  0.56575188  0.03614722  0.19507805  1
  O  O21  1  0.01844340  0.38623621  0.88812711  1
  O  O22  1  0.39719442  0.33348239  0.36672823  1
  O  O23  1  0.11022064  0.65447191  0.64214618  1
  O  O24  1  0.49361030  0.60380973  0.09951381  1
  O  O25  1  0.81895257  0.18878758  0.03591542  1
  O  O26  1  0.25638970  0.90048619  0.39619027  1
  O  O27  1  0.63977936  0.35785382  0.34552809  1
  O  O28  1  0.35280558  0.63327177  0.66651761  1
  O  O29  1  0.73155660  0.11187289  0.61376379  1
  O  O30  1  0.18424812  0.80492195  0.96385278  1
  O  O31  1  0.51461602  0.38382818  0.89382388  1
  O  O32  1  0.89680055  0.33977780  0.35681444  1
  O  O33  1  0.60380495  0.65946776  0.64176498  1
  O  O34  1  0.98630472  0.61481364  0.10759304  1
  O  O35  1  0.43368510  0.97581749  0.79277740  1
  O  O36  1  0.76369528  0.89240696  0.38518636  1
  O  O37  1  0.85319945  0.64318556  0.66022220  1
  O  O38  1  0.69274623  0.80848178  0.96048208  1
  O  O39  1  0.93104743  0.96408458  0.81121242  1
