# generated using pymatgen
data_Li2Mg
_symmetry_space_group_name_H-M   'P 1'
_cell_length_a   9.10712461
_cell_length_b   5.39822158
_cell_length_c   6.05865460
_cell_angle_alpha   90.00000000
_cell_angle_beta   125.02379308
_cell_angle_gamma   90.00000000
_symmetry_Int_Tables_number   1
_chemical_formula_structural   Li2Mg
_chemical_formula_sum   'Li8 Mg4'
_cell_volume   243.91941103
_cell_formula_units_Z   4
loop_
 _symmetry_equiv_pos_site_id
 _symmetry_equiv_pos_as_xyz
  1  'x, y, z'
loop_
 _atom_site_type_symbol
 _atom_site_label
 _atom_site_symmetry_multiplicity
 _atom_site_fract_x
 _atom_site_fract_y
 _atom_site_fract_z
 _atom_site_occupancy
  Li  Li0  1  0.16528942  0.58509011  0.24751428  1
  Li  Li1  1  0.33471058  0.08509011  0.25248572  1
  Li  Li2  1  0.16528942  0.41490989  0.74751428  1
  Li  Li3  1  0.33471058  0.91490989  0.75248572  1
  Li  Li4  1  0.66528942  0.08509011  0.24751428  1
  Li  Li5  1  0.83471058  0.58509011  0.25248572  1
  Li  Li6  1  0.66528942  0.91490989  0.74751428  1
  Li  Li7  1  0.83471058  0.41490989  0.75248572  1
  Mg  Mg8  1  0.50000000  0.41306781  0.75000000  1
  Mg  Mg9  1  0.00000000  0.08693219  0.25000000  1
  Mg  Mg10  1  0.00000000  0.91306781  0.75000000  1
  Mg  Mg11  1  0.50000000  0.58693219  0.25000000  1
