# generated using pymatgen
data_O2
_symmetry_space_group_name_H-M   'P 1'
_cell_length_a   4.26251027
_cell_length_b   4.26251027
_cell_length_c   8.98031812
_cell_angle_alpha   90.00000000
_cell_angle_beta   90.00000000
_cell_angle_gamma   90.00000000
_symmetry_Int_Tables_number   1
_chemical_formula_structural   O2
_chemical_formula_sum   O8
_cell_volume   163.16334426
_cell_formula_units_Z   4
loop_
 _symmetry_equiv_pos_site_id
 _symmetry_equiv_pos_as_xyz
  1  'x, y, z'
loop_
 _atom_site_type_symbol
 _atom_site_label
 _atom_site_symmetry_multiplicity
 _atom_site_fract_x
 _atom_site_fract_y
 _atom_site_fract_z
 _atom_site_occupancy
  O  O0  1  0.54747108  0.36346073  0.52992991  1
  O  O1  1  0.45252892  0.63653927  0.02992991  1
  O  O2  1  0.86346073  0.95252892  0.27992991  1
  O  O3  1  0.13653927  0.04747108  0.77992991  1
  O  O4  1  0.63653927  0.45252892  0.97007009  1
  O  O5  1  0.36346073  0.54747108  0.47007009  1
  O  O6  1  0.95252892  0.86346073  0.72007009  1
  O  O7  1  0.04747108  0.13653927  0.22007009  1
