# generated using pymatgen
data_VPO5
_symmetry_space_group_name_H-M   'P 1'
_cell_length_a   4.78850082
_cell_length_b   6.16075409
_cell_length_c   6.15557573
_cell_angle_alpha   90.01147664
_cell_angle_beta   89.83121060
_cell_angle_gamma   89.87672593
_symmetry_Int_Tables_number   1
_chemical_formula_structural   VPO5
_chemical_formula_sum   'V2 P2 O10'
_cell_volume   181.59304877
_cell_formula_units_Z   2
loop_
 _symmetry_equiv_pos_site_id
 _symmetry_equiv_pos_as_xyz
  1  'x, y, z'
loop_
 _atom_site_type_symbol
 _atom_site_label
 _atom_site_symmetry_multiplicity
 _atom_site_fract_x
 _atom_site_fract_y
 _atom_site_fract_z
 _atom_site_occupancy
  V  V0  1  0.22380259  0.24966752  0.26214312  1
  V  V1  1  0.77616017  0.75013061  0.75271691  1
  P  P2  1  0.50009468  0.25014934  0.75808790  1
  P  P3  1  0.49964339  0.74989137  0.25688353  1
  O  O4  1  0.11151883  0.75014217  0.75725596  1
  O  O5  1  0.29927272  0.26803468  0.56378352  1
  O  O6  1  0.31826839  0.23186868  0.96353208  1
  O  O7  1  0.30893006  0.54953260  0.24593852  1
  O  O8  1  0.30738761  0.94922740  0.28122507  1
  O  O9  1  0.69118763  0.05012802  0.73577665  1
  O  O10  1  0.69205455  0.44992421  0.76839984  1
  O  O11  1  0.70102422  0.73469867  0.45137160  1
  O  O12  1  0.68221395  0.76618278  0.05175657  1
  O  O13  1  0.88844119  0.25042193  0.25812873  1
