# generated using pymatgen
data_GeH10(N2F3)2
_symmetry_space_group_name_H-M   'P 1'
_cell_length_a   6.07869782
_cell_length_b   5.34970820
_cell_length_c   11.36387759
_cell_angle_alpha   90.00000000
_cell_angle_beta   100.64590777
_cell_angle_gamma   90.00000000
_symmetry_Int_Tables_number   1
_chemical_formula_structural   GeH10(N2F3)2
_chemical_formula_sum   'Ge2 H20 N8 F12'
_cell_volume   363.18414669
_cell_formula_units_Z   2
loop_
 _symmetry_equiv_pos_site_id
 _symmetry_equiv_pos_as_xyz
  1  'x, y, z'
loop_
 _atom_site_type_symbol
 _atom_site_label
 _atom_site_symmetry_multiplicity
 _atom_site_fract_x
 _atom_site_fract_y
 _atom_site_fract_z
 _atom_site_occupancy
  Ge  Ge0  1  0.00000000  0.00000000  0.00000000  1
  Ge  Ge1  1  0.50000000  0.50000000  0.50000000  1
  H  H2  1  0.56699791  0.02218863  0.83074967  1
  H  H3  1  0.06699791  0.47781137  0.33074967  1
  H  H4  1  0.43300209  0.97781137  0.16925033  1
  H  H5  1  0.93300209  0.52218863  0.66925033  1
  H  H6  1  0.31336718  0.97554002  0.73998946  1
  H  H7  1  0.81336718  0.52445998  0.23998946  1
  H  H8  1  0.68663282  0.02445998  0.26001054  1
  H  H9  1  0.18663282  0.47554002  0.76001054  1
  H  H10  1  0.54684238  0.84583868  0.70682164  1
  H  H11  1  0.04684238  0.65416132  0.20682164  1
  H  H12  1  0.45315762  0.15416132  0.29317836  1
  H  H13  1  0.95315762  0.34583868  0.79317836  1
  H  H14  1  0.59059961  0.59113836  0.86970753  1
  H  H15  1  0.09059961  0.90886164  0.36970753  1
  H  H16  1  0.40940039  0.40886164  0.13029247  1
  H  H17  1  0.90940039  0.09113836  0.63029247  1
  H  H18  1  0.37737396  0.72276478  0.91661217  1
  H  H19  1  0.87737396  0.77723522  0.41661217  1
  H  H20  1  0.62262604  0.27723522  0.08338783  1
  H  H21  1  0.12262604  0.22276478  0.58338783  1
  N  N22  1  0.46865375  0.89188009  0.77735456  1
  N  N23  1  0.96865375  0.60811991  0.27735456  1
  N  N24  1  0.53134625  0.10811991  0.22264544  1
  N  N25  1  0.03134625  0.39188009  0.72264544  1
  N  N26  1  0.43343648  0.66570922  0.84116737  1
  N  N27  1  0.93343648  0.83429078  0.34116737  1
  N  N28  1  0.56656352  0.33429078  0.15883263  1
  N  N29  1  0.06656352  0.16570922  0.65883263  1
  F  F30  1  0.77039177  0.85395410  0.05657734  1
  F  F31  1  0.27039177  0.64604590  0.55657734  1
  F  F32  1  0.22960823  0.14604590  0.94342266  1
  F  F33  1  0.72960823  0.35395410  0.44342266  1
  F  F34  1  0.05533650  0.20027258  0.13186111  1
  F  F35  1  0.55533650  0.29972742  0.63186111  1
  F  F36  1  0.94466350  0.79972742  0.86813889  1
  F  F37  1  0.44466350  0.70027258  0.36813889  1
  F  F38  1  0.20102817  0.76628907  0.08235050  1
  F  F39  1  0.70102817  0.73371093  0.58235050  1
  F  F40  1  0.79897183  0.23371093  0.91764950  1
  F  F41  1  0.29897183  0.26628907  0.41764950  1
