# generated using pymatgen
data_Zr(MoO4)2
_symmetry_space_group_name_H-M   'P 1'
_cell_length_a   6.21232269
_cell_length_b   5.92890313
_cell_length_c   5.92890313
_cell_angle_alpha   60.67352031
_cell_angle_beta   88.33416919
_cell_angle_gamma   88.33416919
_symmetry_Int_Tables_number   1
_chemical_formula_structural   Zr(MoO4)2
_chemical_formula_sum   'Zr1 Mo2 O8'
_cell_volume   190.28060034
_cell_formula_units_Z   1
loop_
 _symmetry_equiv_pos_site_id
 _symmetry_equiv_pos_as_xyz
  1  'x, y, z'
loop_
 _atom_site_type_symbol
 _atom_site_label
 _atom_site_symmetry_multiplicity
 _atom_site_fract_x
 _atom_site_fract_y
 _atom_site_fract_z
 _atom_site_occupancy
  Zr  Zr0  1  -0.00000000  -0.00000000  0.00000000  1
  Mo  Mo1  1  0.71243339  0.33310153  0.33310153  1
  Mo  Mo2  1  0.28756661  0.66689847  0.66689847  1
  O  O3  1  0.17609080  0.84570038  0.34420503  1
  O  O4  1  0.17609080  0.34420503  0.84570038  1
  O  O5  1  0.82390920  0.15429962  0.65579497  1
  O  O6  1  0.82390920  0.65579497  0.15429962  1
  O  O7  1  0.77635254  0.15836709  0.15836709  1
  O  O8  1  0.22364746  0.84163291  0.84163291  1
  O  O9  1  0.43452743  0.35372587  0.35372587  1
  O  O10  1  0.56547257  0.64627413  0.64627413  1
