# generated using pymatgen
data_MnNiAs
_symmetry_space_group_name_H-M   'P 1'
_cell_length_a   3.77855874
_cell_length_b   6.16658417
_cell_length_c   6.98658951
_cell_angle_alpha   90.00000000
_cell_angle_beta   90.00000000
_cell_angle_gamma   90.00000000
_symmetry_Int_Tables_number   1
_chemical_formula_structural   MnNiAs
_chemical_formula_sum   'Mn4 Ni4 As4'
_cell_volume   162.79312843
_cell_formula_units_Z   4
loop_
 _symmetry_equiv_pos_site_id
 _symmetry_equiv_pos_as_xyz
  1  'x, y, z'
loop_
 _atom_site_type_symbol
 _atom_site_label
 _atom_site_symmetry_multiplicity
 _atom_site_fract_x
 _atom_site_fract_y
 _atom_site_fract_z
 _atom_site_occupancy
  Mn  Mn0  1  0.75000000  0.47688112  0.17906935  1
  Mn  Mn1  1  0.75000000  0.97688112  0.32093065  1
  Mn  Mn2  1  0.25000000  0.52311888  0.82093065  1
  Mn  Mn3  1  0.25000000  0.02311888  0.67906935  1
  Ni  Ni4  1  0.75000000  0.35768451  0.55841878  1
  Ni  Ni5  1  0.75000000  0.85768451  0.94158122  1
  Ni  Ni6  1  0.25000000  0.64231549  0.44158122  1
  Ni  Ni7  1  0.25000000  0.14231549  0.05841878  1
  As  As8  1  0.75000000  0.24172083  0.87665367  1
  As  As9  1  0.75000000  0.74172083  0.62334633  1
  As  As10  1  0.25000000  0.75827917  0.12334633  1
  As  As11  1  0.25000000  0.25827917  0.37665367  1
