# generated using pymatgen
data_Nd3Pt4
_symmetry_space_group_name_H-M   'P 1'
_cell_length_a   5.84808173
_cell_length_b   8.16296682
_cell_length_c   8.16296695
_cell_angle_alpha   114.48518293
_cell_angle_beta   103.81604478
_cell_angle_gamma   103.81604500
_symmetry_Int_Tables_number   1
_chemical_formula_structural   Nd3Pt4
_chemical_formula_sum   'Nd6 Pt8'
_cell_volume   318.22840527
_cell_formula_units_Z   2
loop_
 _symmetry_equiv_pos_site_id
 _symmetry_equiv_pos_as_xyz
  1  'x, y, z'
loop_
 _atom_site_type_symbol
 _atom_site_label
 _atom_site_symmetry_multiplicity
 _atom_site_fract_x
 _atom_site_fract_y
 _atom_site_fract_z
 _atom_site_occupancy
  Nd  Nd0  1  0.40533841  0.12404989  0.37606703  1
  Nd  Nd1  1  0.02927138  0.62393297  0.74798286  1
  Nd  Nd2  1  0.28128852  0.25201714  0.87595011  1
  Nd  Nd3  1  0.59466159  0.87595011  0.62393297  1
  Nd  Nd4  1  0.97072862  0.37606703  0.25201714  1
  Nd  Nd5  1  0.71871148  0.74798286  0.12404989  1
  Pt  Pt6  1  -0.00000000  0.00000000  0.00000000  1
  Pt  Pt7  1  0.50000000  0.00000000  0.00000000  1
  Pt  Pt8  1  0.22266254  0.66879649  0.16412394  1
  Pt  Pt9  1  0.05853860  0.83587606  0.50467255  1
  Pt  Pt10  1  0.55386605  0.49532745  0.33120351  1
  Pt  Pt11  1  0.77733746  0.33120351  0.83587606  1
  Pt  Pt12  1  0.94146140  0.16412394  0.49532745  1
  Pt  Pt13  1  0.44613395  0.50467255  0.66879649  1
