# generated using pymatgen
data_Li10Ge(PO6)2
_symmetry_space_group_name_H-M   'P 1'
_cell_length_a   7.06930914
_cell_length_b   7.06930914
_cell_length_c   10.52436606
_cell_angle_alpha   90.00000000
_cell_angle_beta   90.00000000
_cell_angle_gamma   90.00000000
_symmetry_Int_Tables_number   1
_chemical_formula_structural   Li10Ge(PO6)2
_chemical_formula_sum   'Li20 Ge2 P4 O24'
_cell_volume   525.95658009
_cell_formula_units_Z   2
loop_
 _symmetry_equiv_pos_site_id
 _symmetry_equiv_pos_as_xyz
  1  'x, y, z'
loop_
 _atom_site_type_symbol
 _atom_site_label
 _atom_site_symmetry_multiplicity
 _atom_site_fract_x
 _atom_site_fract_y
 _atom_site_fract_z
 _atom_site_occupancy
  Li  Li0  1  0.21932693  0.76468022  0.29792056  1
  Li  Li1  1  0.78067307  0.23531978  0.29792056  1
  Li  Li2  1  0.26468022  0.28067307  0.79792056  1
  Li  Li3  1  0.73531978  0.71932693  0.79792056  1
  Li  Li4  1  0.21932693  0.23531978  0.29792056  1
  Li  Li5  1  0.78067307  0.76468022  0.29792056  1
  Li  Li6  1  0.26468022  0.71932693  0.79792056  1
  Li  Li7  1  0.73531978  0.28067307  0.79792056  1
  Li  Li8  1  0.00000000  0.50000000  0.92908456  1
  Li  Li9  1  0.00000000  0.50000000  0.42908456  1
  Li  Li10  1  0.50000000  0.00000000  0.56255739  1
  Li  Li11  1  0.50000000  0.00000000  0.06255739  1
  Li  Li12  1  0.23798516  0.19503119  0.04791368  1
  Li  Li13  1  0.76201484  0.80496881  0.04791368  1
  Li  Li14  1  0.30496881  0.73798516  0.54791368  1
  Li  Li15  1  0.69503119  0.26201484  0.54791368  1
  Li  Li16  1  0.30496881  0.26201484  0.54791368  1
  Li  Li17  1  0.69503119  0.73798516  0.54791368  1
  Li  Li18  1  0.23798516  0.80496881  0.04791368  1
  Li  Li19  1  0.76201484  0.19503119  0.04791368  1
  Ge  Ge20  1  0.50000000  0.00000000  0.80957391  1
  Ge  Ge21  1  0.50000000  0.00000000  0.30957391  1
  P  P22  1  0.00000000  0.50000000  0.67864106  1
  P  P23  1  0.00000000  0.50000000  0.17864106  1
  P  P24  1  0.00000000  0.00000000  0.49287469  1
  P  P25  1  0.50000000  0.50000000  0.99287469  1
  O  O26  1  0.00000000  0.18534280  0.40961378  1
  O  O27  1  0.00000000  0.81465720  0.40961378  1
  O  O28  1  0.31465720  0.50000000  0.90961378  1
  O  O29  1  0.68534280  0.50000000  0.90961378  1
  O  O30  1  0.50000000  0.68718167  0.07025475  1
  O  O31  1  0.50000000  0.31281833  0.07025475  1
  O  O32  1  0.18718167  0.00000000  0.57025475  1
  O  O33  1  0.81281833  0.00000000  0.57025475  1
  O  O34  1  0.00000000  0.32037113  0.09143171  1
  O  O35  1  0.00000000  0.67962887  0.09143171  1
  O  O36  1  0.17962887  0.50000000  0.59143171  1
  O  O37  1  0.82037113  0.50000000  0.59143171  1
  O  O38  1  0.50000000  0.79908376  0.41221897  1
  O  O39  1  0.50000000  0.20091624  0.41221897  1
  O  O40  1  0.29908376  0.00000000  0.91221897  1
  O  O41  1  0.70091624  0.00000000  0.91221897  1
  O  O42  1  0.00000000  0.67602282  0.76594881  1
  O  O43  1  0.00000000  0.32397718  0.76594881  1
  O  O44  1  0.82397718  0.50000000  0.26594881  1
  O  O45  1  0.17602282  0.50000000  0.26594881  1
  O  O46  1  0.50000000  0.20160669  0.70610021  1
  O  O47  1  0.50000000  0.79839331  0.70610021  1
  O  O48  1  0.70160669  0.00000000  0.20610021  1
  O  O49  1  0.29839331  0.00000000  0.20610021  1
