# generated using pymatgen
data_VCrO3
_symmetry_space_group_name_H-M   'P 1'
_cell_length_a   5.11995608
_cell_length_b   5.49427285
_cell_length_c   9.10816579
_cell_angle_alpha   85.36733421
_cell_angle_beta   73.50752212
_cell_angle_gamma   117.53975733
_symmetry_Int_Tables_number   1
_chemical_formula_structural   VCrO3
_chemical_formula_sum   'V4 Cr4 O12'
_cell_volume   210.95517129
_cell_formula_units_Z   4
loop_
 _symmetry_equiv_pos_site_id
 _symmetry_equiv_pos_as_xyz
  1  'x, y, z'
loop_
 _atom_site_type_symbol
 _atom_site_label
 _atom_site_symmetry_multiplicity
 _atom_site_fract_x
 _atom_site_fract_y
 _atom_site_fract_z
 _atom_site_occupancy
  V  V0  1  0.14831127  0.87023046  0.57624899  1
  V  V1  1  0.35000129  0.87817275  0.17554615  1
  V  V2  1  0.65028935  0.62174919  0.32430818  1
  V  V3  1  0.85175659  0.62984753  0.92354467  1
  Cr  Cr4  1  0.15223846  0.37879755  0.07320741  1
  Cr  Cr5  1  0.34932632  0.37215951  0.67384222  1
  Cr  Cr6  1  0.65028393  0.12764347  0.82608328  1
  Cr  Cr7  1  0.84775178  0.12133910  0.42641712  1
  O  O8  1  0.05217535  0.52246301  0.72331320  1
  O  O9  1  0.05620194  0.03193405  0.22273043  1
  O  O10  1  0.44897770  0.87777293  0.37541910  1
  O  O11  1  0.55152250  0.62241203  0.12467735  1
  O  O12  1  0.25212427  0.77743515  0.97292535  1
  O  O13  1  0.24746820  0.27516420  0.47408619  1
  O  O14  1  0.74755648  0.72258154  0.52688594  1
  O  O15  1  0.75032559  0.22344249  0.02699764  1
  O  O16  1  0.44557928  0.37380810  0.87343175  1
  O  O17  1  0.55441418  0.12623071  0.62637303  1
  O  O18  1  0.94766444  0.97751174  0.77703710  1
  O  O19  1  0.94603010  0.46930350  0.27692389  1
