# generated using pymatgen
data_Ce2NiGe3
_symmetry_space_group_name_H-M   'P 1'
_cell_length_a   4.16125495
_cell_length_b   8.30164641
_cell_length_c   8.30264884
_cell_angle_alpha   119.98766162
_cell_angle_beta   90.00044771
_cell_angle_gamma   90.00074101
_symmetry_Int_Tables_number   1
_chemical_formula_structural   Ce2NiGe3
_chemical_formula_sum   'Ce4 Ni2 Ge6'
_cell_volume   248.42187790
_cell_formula_units_Z   2
loop_
 _symmetry_equiv_pos_site_id
 _symmetry_equiv_pos_as_xyz
  1  'x, y, z'
loop_
 _atom_site_type_symbol
 _atom_site_label
 _atom_site_symmetry_multiplicity
 _atom_site_fract_x
 _atom_site_fract_y
 _atom_site_fract_z
 _atom_site_occupancy
  Ce  Ce0  1  0.50000493  0.00001112  0.00001422  1
  Ce  Ce1  1  0.49999931  0.99977139  0.50268640  1
  Ce  Ce2  1  0.50001275  0.49728823  0.49707800  1
  Ce  Ce3  1  0.49999245  0.50295893  0.00023274  1
  Ni  Ni4  1  0.00002411  0.66664135  0.33334221  1
  Ni  Ni5  1  0.99999371  0.33337951  0.66668500  1
  Ge  Ge6  1  0.99998216  0.82772104  0.17290018  1
  Ge  Ge7  1  0.99996190  0.82702898  0.65481161  1
  Ge  Ge8  1  0.99999869  0.34518600  0.17234425  1
  Ge  Ge9  1  0.00001105  0.17289702  0.82774952  1
  Ge  Ge10  1  0.99999752  0.65485769  0.82706761  1
  Ge  Ge11  1  0.00002143  0.17235876  0.34518827  1
