# generated using pymatgen
data_Yb(CoGe)6
_symmetry_space_group_name_H-M   'P 1'
_cell_length_a   5.07457930
_cell_length_b   5.07475117
_cell_length_c   7.82961466
_cell_angle_alpha   90.00000000
_cell_angle_beta   90.00000000
_cell_angle_gamma   119.99887494
_symmetry_Int_Tables_number   1
_chemical_formula_structural   Yb(CoGe)6
_chemical_formula_sum   'Yb1 Co6 Ge6'
_cell_volume   174.61869538
_cell_formula_units_Z   1
loop_
 _symmetry_equiv_pos_site_id
 _symmetry_equiv_pos_as_xyz
  1  'x, y, z'
loop_
 _atom_site_type_symbol
 _atom_site_label
 _atom_site_symmetry_multiplicity
 _atom_site_fract_x
 _atom_site_fract_y
 _atom_site_fract_z
 _atom_site_occupancy
  Yb  Yb0  1  0.99998121  0.00000000  -0.00000000  1
  Co  Co1  1  0.49999505  0.00000000  0.25075711  1
  Co  Co2  1  0.49999155  0.50000396  0.25075370  1
  Co  Co3  1  0.99998759  0.49999604  0.25075370  1
  Co  Co4  1  0.49999505  0.00000000  0.74924289  1
  Co  Co5  1  0.49999155  0.50000396  0.74924630  1
  Co  Co6  1  0.99998759  0.49999604  0.74924630  1
  Ge  Ge7  1  0.33333000  0.66670526  -0.00000000  1
  Ge  Ge8  1  0.66662473  0.33329474  -0.00000000  1
  Ge  Ge9  1  0.33332883  0.66672139  0.50000000  1
  Ge  Ge10  1  0.66660744  0.33327861  0.50000000  1
  Ge  Ge11  1  0.99998970  0.00000000  0.34208203  1
  Ge  Ge12  1  0.99998970  0.00000000  0.65791797  1
