# generated using pymatgen
data_Ti4Pb2O9F2
_symmetry_space_group_name_H-M   'P 1'
_cell_length_a   3.84346009
_cell_length_b   7.75378283
_cell_length_c   7.85350428
_cell_angle_alpha   84.51942730
_cell_angle_beta   75.83606638
_cell_angle_gamma   75.65002372
_symmetry_Int_Tables_number   1
_chemical_formula_structural   Ti4Pb2O9F2
_chemical_formula_sum   'Ti4 Pb2 O9 F2'
_cell_volume   219.69830796
_cell_formula_units_Z   1
loop_
 _symmetry_equiv_pos_site_id
 _symmetry_equiv_pos_as_xyz
  1  'x, y, z'
loop_
 _atom_site_type_symbol
 _atom_site_label
 _atom_site_symmetry_multiplicity
 _atom_site_fract_x
 _atom_site_fract_y
 _atom_site_fract_z
 _atom_site_occupancy
  Ti  Ti0  1  0.34196115  0.08926811  0.22680958  1
  Ti  Ti1  1  0.65803885  0.91073189  0.77319042  1
  Ti  Ti2  1  0.37858522  0.69587451  0.54695506  1
  Ti  Ti3  1  0.62141478  0.30412549  0.45304494  1
  Pb  Pb4  1  0.91530228  0.33311184  0.83628360  1
  Pb  Pb5  1  0.08469772  0.66688816  0.16371640  1
  O  O6  1  0.80187000  0.15111020  0.24514979  1
  O  O7  1  0.19813000  0.84888980  0.75485021  1
  O  O8  1  0.14829711  0.27138393  0.43202185  1
  O  O9  1  0.85170289  0.72861607  0.56797815  1
  O  O10  1  0.50000000  -0.00000000  0.00000000  1
  O  O11  1  0.56275616  0.53611068  0.33837699  1
  O  O12  1  0.43724384  0.46388932  0.66162301  1
  O  O13  1  0.38453470  0.88300926  0.34792134  1
  O  O14  1  0.61546530  0.11699074  0.65207866  1
  F  F15  1  0.28768295  0.36282041  0.06181368  1
  F  F16  1  0.71231705  0.63717959  0.93818632  1
