# generated using pymatgen
data_KNaH6PtC4N4O3
_symmetry_space_group_name_H-M   'P 1'
_cell_length_a   9.48733285
_cell_length_b   9.48733285
_cell_length_c   6.53346649
_cell_angle_alpha   73.15804483
_cell_angle_beta   106.84195517
_cell_angle_gamma   86.54521322
_symmetry_Int_Tables_number   1
_chemical_formula_structural   KNaH6PtC4N4O3
_chemical_formula_sum   'K2 Na2 H12 Pt2 C8 N8 O6'
_cell_volume   531.99125161
_cell_formula_units_Z   2
loop_
 _symmetry_equiv_pos_site_id
 _symmetry_equiv_pos_as_xyz
  1  'x, y, z'
loop_
 _atom_site_type_symbol
 _atom_site_label
 _atom_site_symmetry_multiplicity
 _atom_site_fract_x
 _atom_site_fract_y
 _atom_site_fract_z
 _atom_site_occupancy
  K  K0  1  0.03682436  0.48275943  0.48310335  1
  K  K1  1  0.51724057  0.96317564  0.98310335  1
  Na  Na2  1  0.64074693  0.54618987  0.01213063  1
  Na  Na3  1  0.45381013  0.35925307  0.51213063  1
  H  H4  1  0.43009322  0.35054707  0.95402260  1
  H  H5  1  0.64945293  0.56990678  0.45402260  1
  H  H6  1  0.34645897  0.51174235  0.80538986  1
  H  H7  1  0.48825765  0.65354103  0.30538986  1
  H  H8  1  0.22053529  0.58582719  0.12292549  1
  H  H9  1  0.41417281  0.77946471  0.62292549  1
  H  H10  1  0.18925839  0.42774841  0.12329522  1
  H  H11  1  0.57225159  0.81074161  0.62329522  1
  H  H12  1  0.85306092  0.60025716  0.78832723  1
  H  H13  1  0.39974284  0.14693908  0.28832723  1
  H  H14  1  0.86260779  0.42906724  0.84389255  1
  H  H15  1  0.57093276  0.13739221  0.34389255  1
  Pt  Pt16  1  0.00395380  0.00344309  0.50014917  1
  Pt  Pt17  1  0.99655691  0.99604620  0.00014917  1
  C  C18  1  0.18994793  0.09440001  0.54068451  1
  C  C19  1  0.90559999  0.81005207  0.04068451  1
  C  C20  1  0.12106833  0.79857231  0.63861515  1
  C  C21  1  0.20142769  0.87893167  0.13861515  1
  C  C22  1  0.81482507  0.91923679  0.46462967  1
  C  C23  1  0.08076321  0.18517493  0.96462967  1
  C  C24  1  0.88568090  0.20700762  0.35166676  1
  C  C25  1  0.79299238  0.11431910  0.85166676  1
  N  N26  1  0.29710236  0.15190595  0.56488430  1
  N  N27  1  0.84809405  0.70289764  0.06488430  1
  N  N28  1  0.18924220  0.67733895  0.71505457  1
  N  N29  1  0.32266105  0.81075780  0.21505457  1
  N  N30  1  0.70118788  0.87334405  0.44676286  1
  N  N31  1  0.12665595  0.29881212  0.94676286  1
  N  N32  1  0.81648497  0.32737812  0.26113303  1
  N  N33  1  0.67262188  0.18351503  0.76113303  1
  O  O34  1  0.43201621  0.43738087  0.82852942  1
  O  O35  1  0.56261913  0.56798379  0.32852942  1
  O  O36  1  0.22361145  0.48678188  0.22564515  1
  O  O37  1  0.51321812  0.77638855  0.72564515  1
  O  O38  1  0.81122212  0.52320071  0.72755848  1
  O  O39  1  0.47679929  0.18877788  0.22755848  1
