# generated using pymatgen
data_BaP3
_symmetry_space_group_name_H-M   'P 1'
_cell_length_a   6.60480878
_cell_length_b   7.84727655
_cell_length_c   8.25910387
_cell_angle_alpha   90.00000000
_cell_angle_beta   105.19624516
_cell_angle_gamma   90.00000000
_symmetry_Int_Tables_number   1
_chemical_formula_structural   BaP3
_chemical_formula_sum   'Ba4 P12'
_cell_volume   413.09943684
_cell_formula_units_Z   4
loop_
 _symmetry_equiv_pos_site_id
 _symmetry_equiv_pos_as_xyz
  1  'x, y, z'
loop_
 _atom_site_type_symbol
 _atom_site_label
 _atom_site_symmetry_multiplicity
 _atom_site_fract_x
 _atom_site_fract_y
 _atom_site_fract_z
 _atom_site_occupancy
  Ba  Ba0  1  0.31137781  0.88935366  0.69740649  1
  Ba  Ba1  1  0.68862219  0.38935366  0.80259351  1
  Ba  Ba2  1  0.68862219  0.11064634  0.30259351  1
  Ba  Ba3  1  0.31137781  0.61064634  0.19740649  1
  P  P4  1  0.03790813  0.36831476  0.55329951  1
  P  P5  1  0.96209187  0.86831476  0.94670049  1
  P  P6  1  0.96209187  0.63168524  0.44670049  1
  P  P7  1  0.03790813  0.13168524  0.05329951  1
  P  P8  1  0.18847954  0.45778492  0.81203419  1
  P  P9  1  0.81152046  0.95778492  0.68796581  1
  P  P10  1  0.81152046  0.54221508  0.18796581  1
  P  P11  1  0.18847954  0.04221508  0.31203419  1
  P  P12  1  0.30153627  0.22902364  0.95819258  1
  P  P13  1  0.69846373  0.72902364  0.54180742  1
  P  P14  1  0.69846373  0.77097636  0.04180742  1
  P  P15  1  0.30153627  0.27097636  0.45819258  1
