# generated using pymatgen
data_LaCu4P3
_symmetry_space_group_name_H-M   'P 1'
_cell_length_a   5.78902675
_cell_length_b   5.78902675
_cell_length_c   7.36641022
_cell_angle_alpha   90.00000000
_cell_angle_beta   90.00000000
_cell_angle_gamma   90.00000000
_symmetry_Int_Tables_number   1
_chemical_formula_structural   LaCu4P3
_chemical_formula_sum   'La2 Cu8 P6'
_cell_volume   246.86925866
_cell_formula_units_Z   2
loop_
 _symmetry_equiv_pos_site_id
 _symmetry_equiv_pos_as_xyz
  1  'x, y, z'
loop_
 _atom_site_type_symbol
 _atom_site_label
 _atom_site_symmetry_multiplicity
 _atom_site_fract_x
 _atom_site_fract_y
 _atom_site_fract_z
 _atom_site_occupancy
  La  La0  1  0.75000000  0.75000000  0.98048684  1
  La  La1  1  0.25000000  0.25000000  0.01951316  1
  Cu  Cu2  1  0.51745174  0.98254826  0.32684151  1
  Cu  Cu3  1  0.98254826  0.98254826  0.32684151  1
  Cu  Cu4  1  0.51745174  0.51745174  0.32684151  1
  Cu  Cu5  1  0.98254826  0.51745174  0.32684151  1
  Cu  Cu6  1  0.48254826  0.01745174  0.67315849  1
  Cu  Cu7  1  0.01745174  0.01745174  0.67315849  1
  Cu  Cu8  1  0.48254826  0.48254826  0.67315849  1
  Cu  Cu9  1  0.01745174  0.48254826  0.67315849  1
  P  P10  1  0.75000000  0.25000000  0.15373867  1
  P  P11  1  0.25000000  0.75000000  0.15373867  1
  P  P12  1  0.25000000  0.75000000  0.84626133  1
  P  P13  1  0.75000000  0.25000000  0.84626133  1
  P  P14  1  0.75000000  0.75000000  0.52442319  1
  P  P15  1  0.25000000  0.25000000  0.47557681  1
