# generated using pymatgen
data_Fe5SiB2
_symmetry_space_group_name_H-M   'P 1'
_cell_length_a   5.50951128
_cell_length_b   5.50951128
_cell_length_c   6.44938599
_cell_angle_alpha   115.28584544
_cell_angle_beta   115.28584544
_cell_angle_gamma   90.00000000
_symmetry_Int_Tables_number   1
_chemical_formula_structural   Fe5SiB2
_chemical_formula_sum   'Fe10 Si2 B4'
_cell_volume   156.01622385
_cell_formula_units_Z   2
loop_
 _symmetry_equiv_pos_site_id
 _symmetry_equiv_pos_as_xyz
  1  'x, y, z'
loop_
 _atom_site_type_symbol
 _atom_site_label
 _atom_site_symmetry_multiplicity
 _atom_site_fract_x
 _atom_site_fract_y
 _atom_site_fract_z
 _atom_site_occupancy
  Fe  Fe0  1  0.03266811  0.53266811  0.72760915  1
  Fe  Fe1  1  0.69494104  0.19494104  0.72760915  1
  Fe  Fe2  1  0.19494104  0.03266811  0.72760915  1
  Fe  Fe3  1  0.53266811  0.69494104  0.72760915  1
  Fe  Fe4  1  0.96733189  0.46733189  0.27239085  1
  Fe  Fe5  1  0.30505896  0.80505896  0.27239085  1
  Fe  Fe6  1  0.80505896  0.96733189  0.27239085  1
  Fe  Fe7  1  0.46733189  0.30505896  0.27239085  1
  Fe  Fe8  1  0.50000000  0.50000000  0.00000000  1
  Fe  Fe9  1  0.00000000  0.00000000  0.00000000  1
  Si  Si10  1  0.25000000  0.25000000  0.50000000  1
  Si  Si11  1  0.75000000  0.75000000  0.50000000  1
  B  B12  1  0.38044709  0.88044709  1.00000000  1
  B  B13  1  0.61955291  0.11955291  0.00000000  1
  B  B14  1  0.11955291  0.38044709  0.00000000  1
  B  B15  1  0.88044709  0.61955291  0.00000000  1
