# generated using pymatgen
data_Cr5InSe8
_symmetry_space_group_name_H-M   'P 1'
_cell_length_a   3.67777090
_cell_length_b   9.04564685
_cell_length_c   9.62145334
_cell_angle_alpha   104.28947554
_cell_angle_beta   101.01835837
_cell_angle_gamma   90.00000000
_symmetry_Int_Tables_number   1
_chemical_formula_structural   Cr5InSe8
_chemical_formula_sum   'Cr5 In1 Se8'
_cell_volume   304.08913310
_cell_formula_units_Z   1
loop_
 _symmetry_equiv_pos_site_id
 _symmetry_equiv_pos_as_xyz
  1  'x, y, z'
loop_
 _atom_site_type_symbol
 _atom_site_label
 _atom_site_symmetry_multiplicity
 _atom_site_fract_x
 _atom_site_fract_y
 _atom_site_fract_z
 _atom_site_occupancy
  Cr  Cr0  1  -0.00000000  0.50000000  0.00000000  1
  Cr  Cr1  1  0.70448425  0.83499181  0.40896849  1
  Cr  Cr2  1  0.29551575  0.16500819  0.59103151  1
  Cr  Cr3  1  0.65812383  0.47995323  0.31624767  1
  Cr  Cr4  1  0.34187617  0.52004677  0.68375233  1
  In  In5  1  0.50000000  0.00000000  0.00000000  1
  Se  Se6  1  0.83045905  0.00875491  0.66091810  1
  Se  Se7  1  0.16954095  0.99124509  0.33908190  1
  Se  Se8  1  0.76074523  0.34194401  0.52149045  1
  Se  Se9  1  0.23925477  0.65805599  0.47850955  1
  Se  Se10  1  0.91379762  0.67375289  0.82759523  1
  Se  Se11  1  0.08620238  0.32624711  0.17240477  1
  Se  Se12  1  0.57411992  0.65906208  0.14823983  1
  Se  Se13  1  0.42588008  0.34093792  0.85176017  1
