# generated using pymatgen
data_Sc(FeSn)6
_symmetry_space_group_name_H-M   'P 1'
_cell_length_a   5.38049240
_cell_length_b   5.37860838
_cell_length_c   8.91345320
_cell_angle_alpha   90.00000000
_cell_angle_beta   90.00000000
_cell_angle_gamma   120.01158774
_symmetry_Int_Tables_number   1
_chemical_formula_structural   Sc(FeSn)6
_chemical_formula_sum   'Sc1 Fe6 Sn6'
_cell_volume   223.36639978
_cell_formula_units_Z   1
loop_
 _symmetry_equiv_pos_site_id
 _symmetry_equiv_pos_as_xyz
  1  'x, y, z'
loop_
 _atom_site_type_symbol
 _atom_site_label
 _atom_site_symmetry_multiplicity
 _atom_site_fract_x
 _atom_site_fract_y
 _atom_site_fract_z
 _atom_site_occupancy
  Sc  Sc0  1  0.99998499  -0.00000000  0.00000000  1
  Fe  Fe1  1  0.49998777  -0.00000000  0.24549342  1
  Fe  Fe2  1  0.49998546  0.50000250  0.24548842  1
  Fe  Fe3  1  0.99998296  0.49999750  0.24548842  1
  Fe  Fe4  1  0.49998777  -0.00000000  0.75450658  1
  Fe  Fe5  1  0.49998546  0.50000250  0.75451158  1
  Fe  Fe6  1  0.99998296  0.49999750  0.75451158  1
  Sn  Sn7  1  0.33327092  0.66659972  0.00000000  1
  Sn  Sn8  1  0.66667120  0.33340028  0.00000000  1
  Sn  Sn9  1  0.33329869  0.66661906  0.50000000  1
  Sn  Sn10  1  0.66667963  0.33338094  0.50000000  1
  Sn  Sn11  1  0.99999108  0.00000000  0.33332863  1
  Sn  Sn12  1  0.99999108  0.00000000  0.66667137  1
