# generated using pymatgen
data_Nd2MgIrO6
_symmetry_space_group_name_H-M   'P 1'
_cell_length_a   5.52246594
_cell_length_b   5.73052596
_cell_length_c   7.87428828
_cell_angle_alpha   90.00000000
_cell_angle_beta   89.88238067
_cell_angle_gamma   90.00000000
_symmetry_Int_Tables_number   1
_chemical_formula_structural   Nd2MgIrO6
_chemical_formula_sum   'Nd4 Mg2 Ir2 O12'
_cell_volume   249.19419745
_cell_formula_units_Z   2
loop_
 _symmetry_equiv_pos_site_id
 _symmetry_equiv_pos_as_xyz
  1  'x, y, z'
loop_
 _atom_site_type_symbol
 _atom_site_label
 _atom_site_symmetry_multiplicity
 _atom_site_fract_x
 _atom_site_fract_y
 _atom_site_fract_z
 _atom_site_occupancy
  Nd  Nd0  1  0.01437447  0.55786611  0.24943103  1
  Nd  Nd1  1  0.51437447  0.94213389  0.74943103  1
  Nd  Nd2  1  0.98562553  0.44213389  0.75056897  1
  Nd  Nd3  1  0.48562553  0.05786611  0.25056897  1
  Mg  Mg4  1  0.50000000  0.50000000  0.50000000  1
  Mg  Mg5  1  0.00000000  -0.00000000  -0.00000000  1
  Ir  Ir6  1  0.00000000  0.00000000  0.50000000  1
  Ir  Ir7  1  0.50000000  0.50000000  -0.00000000  1
  O  O8  1  0.29871834  0.79847651  0.45020683  1
  O  O9  1  0.79871834  0.70152349  0.95020683  1
  O  O10  1  0.70128166  0.20152349  0.54979317  1
  O  O11  1  0.20128166  0.29847651  0.04979317  1
  O  O12  1  0.90451980  0.97095261  0.25196481  1
  O  O13  1  0.40451980  0.52904739  0.75196481  1
  O  O14  1  0.09548020  0.02904739  0.74803519  1
  O  O15  1  0.59548020  0.47095261  0.24803519  1
  O  O16  1  0.19606772  0.29503862  0.44973581  1
  O  O17  1  0.69606772  0.20496138  0.94973581  1
  O  O18  1  0.80393228  0.70496138  0.55026419  1
  O  O19  1  0.30393228  0.79503862  0.05026419  1
