# generated using pymatgen
data_CsAu(IO3)4
_symmetry_space_group_name_H-M   'P 1'
_cell_length_a   5.87832090
_cell_length_b   7.66831917
_cell_length_c   8.68940563
_cell_angle_alpha   107.52470923
_cell_angle_beta   90.00000000
_cell_angle_gamma   112.53738552
_symmetry_Int_Tables_number   1
_chemical_formula_structural   CsAu(IO3)4
_chemical_formula_sum   'Cs1 Au1 I4 O12'
_cell_volume   342.01152667
_cell_formula_units_Z   1
loop_
 _symmetry_equiv_pos_site_id
 _symmetry_equiv_pos_as_xyz
  1  'x, y, z'
loop_
 _atom_site_type_symbol
 _atom_site_label
 _atom_site_symmetry_multiplicity
 _atom_site_fract_x
 _atom_site_fract_y
 _atom_site_fract_z
 _atom_site_occupancy
  Cs  Cs0  1  0.04123076  0.00000000  0.00000000  1
  Au  Au1  1  0.23581821  0.00000000  0.50000000  1
  I  I2  1  0.28554481  0.63962233  0.16927760  1
  I  I3  1  0.64592248  0.36037767  0.83072240  1
  I  I4  1  0.67623229  0.30246318  0.34916535  1
  I  I5  1  0.37376912  0.69753682  0.65083465  1
  O  O6  1  0.11855374  0.80672578  0.27221341  1
  O  O7  1  0.31182796  0.19327422  0.72778659  1
  O  O8  1  0.08207313  0.41389750  0.20790028  1
  O  O9  1  0.66817563  0.58610250  0.79209972  1
  O  O10  1  0.14284407  0.59706344  0.96783338  1
  O  O11  1  0.54578064  0.40293656  0.03216662  1
  O  O12  1  0.62388624  0.06215667  0.20213668  1
  O  O13  1  0.56172957  0.93784333  0.79786332  1
  O  O14  1  0.83441644  0.29985808  0.52786100  1
  O  O15  1  0.53455837  0.70014192  0.47213900  1
  O  O16  1  0.34838561  0.23535467  0.41470346  1
  O  O17  1  0.11303094  0.76464533  0.58529654  1
