# generated using pymatgen
data_DyAl3
_symmetry_space_group_name_H-M   'P 1'
_cell_length_a   6.11091542
_cell_length_b   6.11091542
_cell_length_c   12.45419137
_cell_angle_alpha   75.79832700
_cell_angle_beta   75.79832700
_cell_angle_gamma   59.99999239
_symmetry_Int_Tables_number   1
_chemical_formula_structural   DyAl3
_chemical_formula_sum   'Dy5 Al15'
_cell_volume   386.27172311
_cell_formula_units_Z   5
loop_
 _symmetry_equiv_pos_site_id
 _symmetry_equiv_pos_as_xyz
  1  'x, y, z'
loop_
 _atom_site_type_symbol
 _atom_site_label
 _atom_site_symmetry_multiplicity
 _atom_site_fract_x
 _atom_site_fract_y
 _atom_site_fract_z
 _atom_site_occupancy
  Dy  Dy0  1  -0.00000000  -0.00000000  0.00000000  1
  Dy  Dy1  1  0.13079072  0.13079072  0.60762784  1
  Dy  Dy2  1  0.86920928  0.86920928  0.39237216  1
  Dy  Dy3  1  0.40008692  0.40008692  0.79973924  1
  Dy  Dy4  1  0.59991308  0.59991308  0.20026076  1
  Al  Al5  1  0.50000000  0.50000000  0.00000000  1
  Al  Al6  1  0.50000000  -0.00000000  0.00000000  1
  Al  Al7  1  -0.00000000  0.50000000  0.00000000  1
  Al  Al8  1  0.12937291  0.63594784  0.59873140  1
  Al  Al9  1  0.63594784  0.63594784  0.59873140  1
  Al  Al10  1  0.63594784  0.12937291  0.59873140  1
  Al  Al11  1  0.87062709  0.36405216  0.40126860  1
  Al  Al12  1  0.36405216  0.36405216  0.40126860  1
  Al  Al13  1  0.36405216  0.87062709  0.40126860  1
  Al  Al14  1  0.43611754  0.88141112  0.80106021  1
  Al  Al15  1  0.88141112  0.88141112  0.80106021  1
  Al  Al16  1  0.88141112  0.43611754  0.80106021  1
  Al  Al17  1  0.56388246  0.11858888  0.19893979  1
  Al  Al18  1  0.11858888  0.11858888  0.19893979  1
  Al  Al19  1  0.11858888  0.56388246  0.19893979  1
