# generated using pymatgen
data_MnO2
_symmetry_space_group_name_H-M   'P 1'
_cell_length_a   2.92398790
_cell_length_b   9.46106981
_cell_length_c   9.56384519
_cell_angle_alpha   91.31940279
_cell_angle_beta   90.00000000
_cell_angle_gamma   90.00000000
_symmetry_Int_Tables_number   1
_chemical_formula_structural   MnO2
_chemical_formula_sum   'Mn6 O12'
_cell_volume   264.50457937
_cell_formula_units_Z   6
loop_
 _symmetry_equiv_pos_site_id
 _symmetry_equiv_pos_as_xyz
  1  'x, y, z'
loop_
 _atom_site_type_symbol
 _atom_site_label
 _atom_site_symmetry_multiplicity
 _atom_site_fract_x
 _atom_site_fract_y
 _atom_site_fract_z
 _atom_site_occupancy
  Mn  Mn0  1  0.50000000  -0.00000000  0.50000000  1
  Mn  Mn1  1  0.00000000  0.99078637  0.23430587  1
  Mn  Mn2  1  0.00000000  0.00921363  0.76569413  1
  Mn  Mn3  1  0.00000000  0.50000000  -0.00000000  1
  Mn  Mn4  1  0.50000000  0.23232267  0.01533143  1
  Mn  Mn5  1  0.50000000  0.76767733  0.98466857  1
  O  O6  1  0.50000000  0.90399321  0.83916132  1
  O  O7  1  0.50000000  0.09600679  0.16083868  1
  O  O8  1  0.00000000  0.90168908  0.58941144  1
  O  O9  1  0.00000000  0.09831092  0.41058856  1
  O  O10  1  0.50000000  0.89346938  0.32544311  1
  O  O11  1  0.50000000  0.10653062  0.67455689  1
  O  O12  1  0.00000000  0.85369491  0.08305324  1
  O  O13  1  0.00000000  0.14630509  0.91694676  1
  O  O14  1  0.50000000  0.59692722  0.09537718  1
  O  O15  1  0.50000000  0.40307278  0.90462282  1
  O  O16  1  0.00000000  0.33120853  0.10921274  1
  O  O17  1  0.00000000  0.66879147  0.89078726  1
