# generated using pymatgen
data_Dy2SnAu2
_symmetry_space_group_name_H-M   'P 1'
_cell_length_a   7.56649906
_cell_length_b   7.92219833
_cell_length_c   7.92219833
_cell_angle_alpha   90.00000000
_cell_angle_beta   90.00000000
_cell_angle_gamma   90.00000000
_symmetry_Int_Tables_number   1
_chemical_formula_structural   Dy2SnAu2
_chemical_formula_sum   'Dy8 Sn4 Au8'
_cell_volume   474.88276041
_cell_formula_units_Z   4
loop_
 _symmetry_equiv_pos_site_id
 _symmetry_equiv_pos_as_xyz
  1  'x, y, z'
loop_
 _atom_site_type_symbol
 _atom_site_label
 _atom_site_symmetry_multiplicity
 _atom_site_fract_x
 _atom_site_fract_y
 _atom_site_fract_z
 _atom_site_occupancy
  Dy  Dy0  1  0.50000000  0.15730872  0.84269128  1
  Dy  Dy1  1  0.50000000  0.84269128  0.15730872  1
  Dy  Dy2  1  -0.00000000  0.34269128  0.34269128  1
  Dy  Dy3  1  0.00000000  0.65730872  0.65730872  1
  Dy  Dy4  1  0.50000000  0.68413530  0.68413530  1
  Dy  Dy5  1  0.50000000  0.31586470  0.31586470  1
  Dy  Dy6  1  -0.00000000  0.81586470  0.18413530  1
  Dy  Dy7  1  -0.00000000  0.18413530  0.81586470  1
  Sn  Sn8  1  0.25000000  0.00000000  0.50000000  1
  Sn  Sn9  1  0.75000000  0.50000000  -0.00000000  1
  Sn  Sn10  1  0.75000000  0.00000000  0.50000000  1
  Sn  Sn11  1  0.25000000  0.50000000  -0.00000000  1
  Au  Au12  1  0.27797339  0.37217546  0.62782454  1
  Au  Au13  1  0.27797339  0.62782454  0.37217546  1
  Au  Au14  1  0.77797339  0.12782454  0.12782454  1
  Au  Au15  1  0.77797339  0.87217546  0.87217546  1
  Au  Au16  1  0.72202661  0.62782454  0.37217546  1
  Au  Au17  1  0.72202661  0.37217546  0.62782454  1
  Au  Au18  1  0.22202661  0.87217546  0.87217546  1
  Au  Au19  1  0.22202661  0.12782454  0.12782454  1
