# generated using pymatgen
data_Li7Fe5O16
_symmetry_space_group_name_H-M   'P 1'
_cell_length_a   5.93128919
_cell_length_b   5.75519226
_cell_length_c   9.43437723
_cell_angle_alpha   89.60589850
_cell_angle_beta   87.29025631
_cell_angle_gamma   118.80259181
_symmetry_Int_Tables_number   1
_chemical_formula_structural   Li7Fe5O16
_chemical_formula_sum   'Li7 Fe5 O16'
_cell_volume   281.72942760
_cell_formula_units_Z   1
loop_
 _symmetry_equiv_pos_site_id
 _symmetry_equiv_pos_as_xyz
  1  'x, y, z'
loop_
 _atom_site_type_symbol
 _atom_site_label
 _atom_site_symmetry_multiplicity
 _atom_site_fract_x
 _atom_site_fract_y
 _atom_site_fract_z
 _atom_site_occupancy
  Li  Li0  1  0.16796559  0.82332003  0.21506046  1
  Li  Li1  1  0.34569330  0.67608717  0.90249533  1
  Li  Li2  1  0.00551515  0.00107357  0.00107094  1
  Li  Li3  1  0.01398214  0.00539433  0.47733400  1
  Li  Li4  1  0.16837892  0.34536835  0.21515253  1
  Li  Li5  1  0.34869200  0.17424424  0.71434886  1
  Li  Li6  1  0.67006438  0.33573097  0.40038888  1
  Fe  Fe7  1  0.28564956  0.64137332  0.47588396  1
  Fe  Fe8  1  0.64029853  0.81912158  0.21406135  1
  Fe  Fe9  1  0.65818854  0.33009811  0.98660504  1
  Fe  Fe10  1  0.83333150  0.66468794  0.71465227  1
  Fe  Fe11  1  0.83540441  0.17127130  0.71333919  1
  O  O12  1  0.15633799  0.81758533  0.59234898  1
  O  O13  1  0.03413329  0.51781793  0.35800516  1
  O  O14  1  0.36612162  0.68458356  0.10638790  1
  O  O15  1  0.95840774  0.97940386  0.28397776  1
  O  O16  1  0.99215262  0.99182774  0.80380833  1
  O  O17  1  0.15265668  0.33363797  0.59196248  1
  O  O18  1  0.48320733  0.95233102  0.35576842  1
  O  O19  1  0.48144978  0.52816251  0.35347405  1
  O  O20  1  0.34624796  0.17321233  0.07714884  1
  O  O21  1  0.68638355  0.83050524  0.60599516  1
  O  O22  1  0.54943003  0.50698143  0.84607782  1
  O  O23  1  0.55392470  0.04745989  0.84691264  1
  O  O24  1  0.69634487  0.35278287  0.61184842  1
  O  O25  1  0.80069866  0.64548005  0.10018619  1
  O  O26  1  0.96738822  0.49497565  0.84429121  1
  O  O27  1  0.80195096  0.15578171  0.09925681  1
