# generated using pymatgen
data_LiCr2(PO4)3
_symmetry_space_group_name_H-M   'P 1'
_cell_length_a   9.73373157
_cell_length_b   9.79997190
_cell_length_c   9.74222256
_cell_angle_alpha   85.07970405
_cell_angle_beta   94.66339523
_cell_angle_gamma   95.10596829
_symmetry_Int_Tables_number   1
_chemical_formula_structural   LiCr2(PO4)3
_chemical_formula_sum   'Li4 Cr8 P12 O48'
_cell_volume   919.67020800
_cell_formula_units_Z   4
loop_
 _symmetry_equiv_pos_site_id
 _symmetry_equiv_pos_as_xyz
  1  'x, y, z'
loop_
 _atom_site_type_symbol
 _atom_site_label
 _atom_site_symmetry_multiplicity
 _atom_site_fract_x
 _atom_site_fract_y
 _atom_site_fract_z
 _atom_site_occupancy
  Li  Li0  1  0.01228325  0.52885843  0.24100501  1
  Li  Li1  1  0.51254018  0.03426368  0.73696982  1
  Li  Li2  1  0.97360245  0.26051337  0.37909866  1
  Li  Li3  1  0.37962211  0.75763510  0.81365571  1
  Cr  Cr4  1  0.25054792  0.02244862  0.22350021  1
  Cr  Cr5  1  0.47288894  0.46730456  0.00162562  1
  Cr  Cr6  1  0.52296209  0.52419924  0.50037020  1
  Cr  Cr7  1  0.97061098  0.75029423  0.72544922  1
  Cr  Cr8  1  0.75088930  0.96658524  0.27520768  1
  Cr  Cr9  1  0.74911215  0.74858279  0.50017831  1
  Cr  Cr10  1  0.02234986  0.25122968  0.77948077  1
  Cr  Cr11  1  0.24924387  0.24893760  0.00060789  1
  P  P12  1  0.81686416  0.04902327  0.58890083  1
  P  P13  1  0.15678469  0.54859846  0.93581863  1
  P  P14  1  0.45221717  0.84080091  0.43140649  1
  P  P15  1  0.68501472  0.64959400  0.20379632  1
  P  P16  1  0.04858444  0.81611789  0.40917183  1
  P  P17  1  0.17387440  0.95472210  0.90409427  1
  P  P18  1  0.33985782  0.31914419  0.70234572  1
  P  P19  1  0.54814303  0.15298573  0.06447565  1
  P  P20  1  0.31340861  0.33657368  0.29913643  1
  P  P21  1  0.95228184  0.17450219  0.09886564  1
  P  P22  1  0.65134670  0.67845075  0.79782076  1
  P  P23  1  0.84098112  0.45204300  0.57612283  1
  O  O24  1  0.39506336  0.19340763  0.65799372  1
  O  O25  1  0.44779450  0.40182396  0.36969681  1
  O  O26  1  0.88540393  0.03231273  0.14630630  1
  O  O27  1  0.91770243  0.29113895  0.17745460  1
  O  O28  1  0.17840454  0.32242987  0.67717791  1
  O  O29  1  0.81172670  0.69336880  0.82754878  1
  O  O30  1  0.10275127  0.58771862  0.06510908  1
  O  O31  1  0.59918036  0.53807209  0.86522729  1
  O  O32  1  0.07347868  0.82154008  0.57017112  1
  O  O33  1  0.92163917  0.19266939  0.93869257  1
  O  O34  1  0.12182712  0.38674250  0.92151258  1
  O  O35  1  0.32321575  0.17623993  0.32271468  1
  O  O36  1  0.82890649  0.07987976  0.42889656  1
  O  O37  1  0.16374924  0.11666714  0.87116308  1
  O  O38  1  0.88600878  0.82835793  0.37122554  1
  O  O39  1  0.09255961  0.68903672  0.35620563  1
  O  O40  1  0.68972611  0.80798649  0.16794465  1
  O  O41  1  0.57807154  0.79826359  0.83381565  1
  O  O42  1  0.67859012  0.42541229  0.56834284  1
  O  O43  1  0.58661906  0.09829573  0.93343504  1
  O  O44  1  0.42601042  0.67951639  0.42919679  1
  O  O45  1  0.29955132  0.91514132  0.84117537  1
  O  O46  1  0.41038835  0.89034111  0.56241442  1
  O  O47  1  0.82949962  0.88736666  0.62649581  1
  O  O48  1  0.66924481  0.61781914  0.36652342  1
  O  O49  1  0.38493433  0.11929011  0.07854550  1
  O  O50  1  0.31688477  0.58282714  0.92706027  1
  O  O51  1  0.68659086  0.08992863  0.63972811  1
  O  O52  1  0.11738128  0.95429856  0.34601242  1
  O  O53  1  0.03456897  0.88604117  0.85069680  1
  O  O54  1  0.17846680  0.37764437  0.34129485  1
  O  O55  1  0.58300301  0.31091894  0.06574016  1
  O  O56  1  0.37766775  0.33109114  0.86498913  1
  O  O57  1  0.38336330  0.89966290  0.29392210  1
  O  O58  1  0.90102411  0.40829348  0.45099274  1
  O  O59  1  0.54809907  0.58902316  0.13552486  1
  O  O60  1  0.61911565  0.66672125  0.63335942  1
  O  O61  1  0.89511312  0.38436836  0.71568212  1
  O  O62  1  0.32970098  0.37700827  0.13704608  1
  O  O63  1  0.11696714  0.16317184  0.12922469  1
  O  O64  1  0.87681869  0.61416587  0.58495596  1
  O  O65  1  0.09120152  0.61969701  0.79982987  1
  O  O66  1  0.81401065  0.59047697  0.16651364  1
  O  O67  1  0.95257248  0.12165159  0.65432490  1
  O  O68  1  0.40037623  0.45850738  0.63458856  1
  O  O69  1  0.18456042  0.92445340  0.06569867  1
  O  O70  1  0.61672555  0.08623669  0.19820959  1
  O  O71  1  0.61523023  0.87718625  0.41657877  1
