# generated using pymatgen
data_PdSe2
_symmetry_space_group_name_H-M   'P 1'
_cell_length_a   13.08995224
_cell_length_b   8.26276269
_cell_length_c   20.19171253
_cell_angle_alpha   90.11825345
_cell_angle_beta   89.87319879
_cell_angle_gamma   109.82807912
_symmetry_Int_Tables_number   1
_chemical_formula_structural   PdSe2
_chemical_formula_sum   'Pd6 Se12'
_cell_volume   2054.43742148
_cell_formula_units_Z   6
loop_
 _symmetry_equiv_pos_site_id
 _symmetry_equiv_pos_as_xyz
  1  'x, y, z'
loop_
 _atom_site_type_symbol
 _atom_site_label
 _atom_site_symmetry_multiplicity
 _atom_site_fract_x
 _atom_site_fract_y
 _atom_site_fract_z
 _atom_site_occupancy
  Pd  Pd0  1  0.12653955  0.12396946  0.39184692  1
  Pd  Pd1  1  0.45994849  0.29070036  0.39060094  1
  Pd  Pd2  1  0.79334020  0.45738498  0.39057809  1
  Pd  Pd3  1  0.12688986  0.62435208  0.39179207  1
  Pd  Pd4  1  0.46001995  0.79057513  0.39092403  1
  Pd  Pd5  1  0.79342123  0.95741687  0.39084697  1
  Se  Se6  1  0.62922597  0.01004817  0.35261542  1
  Se  Se7  1  0.03708245  0.32480826  0.35420789  1
  Se  Se8  1  0.29547118  0.34463544  0.35414076  1
  Se  Se9  1  0.70374549  0.65801688  0.35309069  1
  Se  Se10  1  0.96296610  0.67842919  0.35411697  1
  Se  Se11  1  0.36967450  0.99071593  0.35376775  1
  Se  Se12  1  0.62399712  0.23614496  0.42724978  1
  Se  Se13  1  0.88307519  0.25725300  0.42831603  1
  Se  Se14  1  0.29104734  0.57037010  0.42918489  1
  Se  Se15  1  0.55042655  0.59037734  0.42781902  1
  Se  Se16  1  0.95707883  0.90340504  0.42910556  1
  Se  Se17  1  0.21703399  0.92417682  0.42897223  1
