# generated using pymatgen
data_RbGeCl3
_symmetry_space_group_name_H-M   'P 1'
_cell_length_a   7.43749714
_cell_length_b   8.02893370
_cell_length_c   10.93007989
_cell_angle_alpha   90.00000000
_cell_angle_beta   90.00000000
_cell_angle_gamma   90.00000000
_symmetry_Int_Tables_number   1
_chemical_formula_structural   RbGeCl3
_chemical_formula_sum   'Rb4 Ge4 Cl12'
_cell_volume   652.69159439
_cell_formula_units_Z   4
loop_
 _symmetry_equiv_pos_site_id
 _symmetry_equiv_pos_as_xyz
  1  'x, y, z'
loop_
 _atom_site_type_symbol
 _atom_site_label
 _atom_site_symmetry_multiplicity
 _atom_site_fract_x
 _atom_site_fract_y
 _atom_site_fract_z
 _atom_site_occupancy
  Rb  Rb0  1  0.97485363  0.42427401  0.24987200  1
  Rb  Rb1  1  0.47485363  0.07572599  0.74987200  1
  Rb  Rb2  1  0.52514637  0.92427401  0.24987200  1
  Rb  Rb3  1  0.02514637  0.57572599  0.74987200  1
  Ge  Ge4  1  0.48559815  0.46959182  0.48031229  1
  Ge  Ge5  1  0.51440185  0.53040818  0.98031229  1
  Ge  Ge6  1  0.01440185  0.96959182  0.48031229  1
  Ge  Ge7  1  0.98559815  0.03040818  0.98031229  1
  Cl  Cl8  1  0.33002431  0.77788219  0.96018672  1
  Cl  Cl9  1  0.16997569  0.27788219  0.96018672  1
  Cl  Cl10  1  0.83002431  0.72211781  0.46018672  1
  Cl  Cl11  1  0.28586913  0.81923526  0.52907371  1
  Cl  Cl12  1  0.21413087  0.31923526  0.52907371  1
  Cl  Cl13  1  0.78587013  0.68076474  0.02907371  1
  Cl  Cl14  1  0.42798169  0.49746710  0.26535628  1
  Cl  Cl15  1  0.71412987  0.18076474  0.02907371  1
  Cl  Cl16  1  0.92798169  0.00253290  0.76535628  1
  Cl  Cl17  1  0.57201831  0.50253290  0.76535628  1
  Cl  Cl18  1  0.07201831  0.99746710  0.26535628  1
  Cl  Cl19  1  0.66997569  0.22211781  0.46018672  1
