# generated using pymatgen
data_SrLiTi4CrO11
_symmetry_space_group_name_H-M   'P 1'
_cell_length_a   5.86433820
_cell_length_b   10.00494799
_cell_length_c   13.95195647
_cell_angle_alpha   90.00000000
_cell_angle_beta   90.00000000
_cell_angle_gamma   90.05610612
_symmetry_Int_Tables_number   1
_chemical_formula_structural   SrLiTi4CrO11
_chemical_formula_sum   'Sr4 Li4 Ti16 Cr4 O44'
_cell_volume   818.59436052
_cell_formula_units_Z   4
loop_
 _symmetry_equiv_pos_site_id
 _symmetry_equiv_pos_as_xyz
  1  'x, y, z'
loop_
 _atom_site_type_symbol
 _atom_site_label
 _atom_site_symmetry_multiplicity
 _atom_site_fract_x
 _atom_site_fract_y
 _atom_site_fract_z
 _atom_site_occupancy
  Sr  Sr0  1  0.25572213  0.10381517  0.09658225  1
  Sr  Sr1  1  0.24427787  0.39618483  0.59658225  1
  Sr  Sr2  1  0.75572213  0.60381517  0.40341775  1
  Sr  Sr3  1  0.74427787  0.89618483  0.90341775  1
  Li  Li4  1  0.25341267  0.07862547  0.54356023  1
  Li  Li5  1  0.24658733  0.42137453  0.04356023  1
  Li  Li6  1  0.75341267  0.57862547  0.95643977  1
  Li  Li7  1  0.74658733  0.92137453  0.45643977  1
  Ti  Ti8  1  0.00529760  0.83310808  0.66793459  1
  Ti  Ti9  1  0.25338374  0.60981674  0.83552490  1
  Ti  Ti10  1  0.25344775  0.06555902  0.82754109  1
  Ti  Ti11  1  0.24210968  0.77835591  0.00122248  1
  Ti  Ti12  1  0.24661626  0.89018326  0.33552490  1
  Ti  Ti13  1  0.25789032  0.72164409  0.50122248  1
  Ti  Ti14  1  0.24655225  0.43444098  0.32754109  1
  Ti  Ti15  1  0.49470240  0.66689192  0.16793459  1
  Ti  Ti16  1  0.50529760  0.33310808  0.83206541  1
  Ti  Ti17  1  0.75338374  0.10981674  0.66447510  1
  Ti  Ti18  1  0.75789032  0.22164409  0.99877752  1
  Ti  Ti19  1  0.74210968  0.27835591  0.49877752  1
  Ti  Ti20  1  0.74661626  0.39018326  0.16447510  1
  Ti  Ti21  1  0.75344775  0.56555902  0.67245891  1
  Ti  Ti22  1  0.74655225  0.93444098  0.17245891  1
  Ti  Ti23  1  0.99470240  0.16689192  0.33206541  1
  Cr  Cr24  1  -0.00013506  0.66779684  0.17028944  1
  Cr  Cr25  1  0.50013506  0.83220316  0.67028944  1
  Cr  Cr26  1  0.49986494  0.16779684  0.32971056  1
  Cr  Cr27  1  0.00013506  0.33220316  0.82971056  1
  O  O28  1  0.99680033  0.00563252  0.24348129  1
  O  O29  1  0.99865216  0.49480002  0.74147616  1
  O  O30  1  0.00647376  0.32571002  0.41672339  1
  O  O31  1  0.00025332  0.16953252  0.91639561  1
  O  O32  1  0.02736005  0.81524655  0.41191096  1
  O  O33  1  0.02874410  0.68494698  0.91319304  1
  O  O34  1  0.24366971  0.25918472  0.26207161  1
  O  O35  1  0.25512662  0.75153641  0.24239127  1
  O  O36  1  0.25633029  0.24081528  0.76207161  1
  O  O37  1  0.24676325  0.55836744  0.43464439  1
  O  O38  1  0.25410697  0.60571606  0.08619752  1
  O  O39  1  0.24540773  0.07092683  0.39723069  1
  O  O40  1  0.25459227  0.42907317  0.89723069  1
  O  O41  1  0.24487338  0.74846359  0.74239127  1
  O  O42  1  0.24589303  0.89428394  0.58619752  1
  O  O43  1  0.25323675  0.94163256  0.93464439  1
  O  O44  1  0.47263995  0.68475345  0.91191096  1
  O  O45  1  0.47125590  0.81505302  0.41319304  1
  O  O46  1  0.49974668  0.33046748  0.41639561  1
  O  O47  1  0.49352624  0.17428998  0.91672339  1
  O  O48  1  0.50134784  0.00519998  0.24147616  1
  O  O49  1  0.50319967  0.49436748  0.74348129  1
  O  O50  1  0.49680033  0.50563252  0.25651871  1
  O  O51  1  0.49865216  0.99480002  0.75852384  1
  O  O52  1  0.50025332  0.66953252  0.58360439  1
  O  O53  1  0.50647376  0.82571002  0.08327661  1
  O  O54  1  0.52874410  0.18494698  0.58680696  1
  O  O55  1  0.52736005  0.31524655  0.08808904  1
  O  O56  1  0.74676325  0.05836744  0.06535561  1
  O  O57  1  0.75512662  0.25153641  0.25760873  1
  O  O58  1  0.74487338  0.24846359  0.75760873  1
  O  O59  1  0.74589303  0.39428394  0.91380248  1
  O  O60  1  0.75323675  0.44163256  0.56535561  1
  O  O61  1  0.74540773  0.57092683  0.10276931  1
  O  O62  1  0.75633029  0.74081528  0.73792839  1
  O  O63  1  0.74366971  0.75918472  0.23792839  1
  O  O64  1  0.75459227  0.92907317  0.60276931  1
  O  O65  1  0.75410697  0.10571606  0.41380248  1
  O  O66  1  0.97263995  0.18475345  0.58808904  1
  O  O67  1  0.97125590  0.31505302  0.08680696  1
  O  O68  1  0.99352624  0.67428998  0.58327661  1
  O  O69  1  -0.00025332  0.83046748  0.08360439  1
  O  O70  1  0.00134784  0.50519998  0.25852384  1
  O  O71  1  0.00319967  0.99436748  0.75651871  1
