# generated using pymatgen
data_Li6Zn3(PS4)4
_symmetry_space_group_name_H-M   'P 1'
_cell_length_a   5.79605084
_cell_length_b   9.24388234
_cell_length_c   23.15063476
_cell_angle_alpha   90.00000000
_cell_angle_beta   89.93946285
_cell_angle_gamma   90.00000000
_symmetry_Int_Tables_number   1
_chemical_formula_structural   Li6Zn3(PS4)4
_chemical_formula_sum   'Li12 Zn6 P8 S32'
_cell_volume   1240.36429497
_cell_formula_units_Z   2
loop_
 _symmetry_equiv_pos_site_id
 _symmetry_equiv_pos_as_xyz
  1  'x, y, z'
loop_
 _atom_site_type_symbol
 _atom_site_label
 _atom_site_symmetry_multiplicity
 _atom_site_fract_x
 _atom_site_fract_y
 _atom_site_fract_z
 _atom_site_occupancy
  Li  Li0  1  0.99841570  0.25180842  0.87297055  1
  Li  Li1  1  0.50158430  0.75180842  0.75202945  1
  Li  Li2  1  0.49875865  0.99901936  0.12542841  1
  Li  Li3  1  0.49999785  0.99993167  0.37501438  1
  Li  Li4  1  0.00000215  0.49993167  0.24998562  1
  Li  Li5  1  0.50038829  0.00322997  0.62474449  1
  Li  Li6  1  0.00124135  0.49901936  0.49957159  1
  Li  Li7  1  0.50091661  0.99802310  0.87481121  1
  Li  Li8  1  0.99908339  0.49802310  0.75018879  1
  Li  Li9  1  0.99961171  0.50322997  0.00025551  1
  Li  Li10  1  0.00179698  0.00379816  0.74959439  1
  Li  Li11  1  0.49820302  0.50379816  0.87540561  1
  Zn  Zn12  1  0.99589191  0.99435304  0.00025882  1
  Zn  Zn13  1  0.99998146  0.00000191  0.24999343  1
  Zn  Zn14  1  0.50027204  0.50039626  0.12502615  1
  Zn  Zn15  1  0.99972796  0.00039626  0.49997385  1
  Zn  Zn16  1  0.50001854  0.50000191  0.37500657  1
  Zn  Zn17  1  0.50410809  0.49435304  0.62474118  1
  P  P18  1  0.50785557  0.25072346  0.00013993  1
  P  P19  1  0.49999143  0.24999609  0.24998841  1
  P  P20  1  0.99966128  0.74987253  0.12503694  1
  P  P21  1  0.50033872  0.24987253  0.49996306  1
  P  P22  1  0.00000857  0.74999609  0.37501159  1
  P  P23  1  0.49251954  0.24888860  0.75007366  1
  P  P24  1  0.99214443  0.75072346  0.62486007  1
  P  P25  1  0.00748046  0.74888860  0.87492634  1
  S  S26  1  0.29484079  0.36501579  0.05481736  1
  S  S27  1  0.29100661  0.36472927  0.30571843  1
  S  S28  1  0.79100018  0.86462809  0.18085330  1
  S  S29  1  0.29073241  0.36434266  0.55549803  1
  S  S30  1  0.79105012  0.86461520  0.43076255  1
  S  S31  1  0.28865030  0.37380107  0.80356778  1
  S  S32  1  0.78931562  0.86910495  0.67913185  1
  S  S33  1  0.79249458  0.87070073  0.92813018  1
  S  S34  1  0.27717722  0.13541888  0.19773502  1
  S  S35  1  0.27744970  0.13511723  0.44773517  1
  S  S36  1  0.77731880  0.63536824  0.32272454  1
  S  S37  1  0.28929041  0.12960684  0.69774062  1
  S  S38  1  0.78045468  0.63015539  0.57237219  1
  S  S39  1  0.28084346  0.13034369  0.94836328  1
  S  S40  1  0.78748854  0.63126113  0.82269492  1
  S  S41  1  0.77697634  0.63574728  0.07281969  1
  S  S42  1  0.71068438  0.36910495  0.94586815  1
  S  S43  1  0.70894988  0.36461520  0.19423745  1
  S  S44  1  0.20926759  0.86434266  0.06950197  1
  S  S45  1  0.70900082  0.36462809  0.44414670  1
  S  S46  1  0.20899339  0.86472927  0.31928157  1
  S  S47  1  0.70750542  0.37070073  0.69686982  1
  S  S48  1  0.20516021  0.86501579  0.57018264  1
  S  S49  1  0.21135070  0.87380107  0.82143222  1
  S  S50  1  0.71954532  0.13015539  0.05262781  1
  S  S51  1  0.72268120  0.13536824  0.30227546  1
  S  S52  1  0.22255030  0.63511723  0.17726483  1
  S  S53  1  0.72302366  0.13574728  0.55218031  1
  S  S54  1  0.22282278  0.63541888  0.42726498  1
  S  S55  1  0.71251146  0.13126113  0.80230508  1
  S  S56  1  0.21915654  0.63034369  0.67663672  1
  S  S57  1  0.21070959  0.62960684  0.92725938  1
