# generated using pymatgen
data_NaMn2FeAg(PO4)3
_symmetry_space_group_name_H-M   'P 1'
_cell_length_a   6.59527317
_cell_length_b   8.87016815
_cell_length_c   8.87016808
_cell_angle_alpha   92.81560453
_cell_angle_beta   106.57865735
_cell_angle_gamma   106.57865910
_symmetry_Int_Tables_number   1
_chemical_formula_structural   NaMn2FeAg(PO4)3
_chemical_formula_sum   'Na2 Mn4 Fe2 Ag2 P6 O24'
_cell_volume   471.83090939
_cell_formula_units_Z   2
loop_
 _symmetry_equiv_pos_site_id
 _symmetry_equiv_pos_as_xyz
  1  'x, y, z'
loop_
 _atom_site_type_symbol
 _atom_site_label
 _atom_site_symmetry_multiplicity
 _atom_site_fract_x
 _atom_site_fract_y
 _atom_site_fract_z
 _atom_site_occupancy
  Na  Na0  1  0.49933806  0.50016070  0.49960722  1
  Na  Na1  1  0.00066194  0.50039278  0.49983930  1
  Mn  Mn2  1  0.36228051  0.93444531  0.62532834  1
  Mn  Mn3  1  0.25000000  0.26637332  0.73362668  1
  Mn  Mn4  1  0.13771949  0.37467166  0.06555469  1
  Mn  Mn5  1  0.75000000  0.73134739  0.26865261  1
  Fe  Fe6  1  0.86793709  0.61853878  0.93603594  1
  Fe  Fe7  1  0.63206291  0.06396406  0.38146122  1
  Ag  Ag8  1  0.25000000  0.99025439  0.00974561  1
  Ag  Ag9  1  0.75000000  0.01527705  0.98472295  1
  P  P10  1  0.37458500  0.65233644  0.87343845  1
  P  P11  1  0.25000000  0.71407064  0.28592936  1
  P  P12  1  0.12541500  0.12656155  0.34766356  1
  P  P13  1  0.86981746  0.86998908  0.65177410  1
  P  P14  1  0.75000000  0.28911897  0.71088103  1
  P  P15  1  0.63018254  0.34822590  0.13001092  1
  O  O16  1  0.10031966  0.99886087  0.68415552  1
  O  O17  1  0.18333815  0.60443656  0.94940347  1
  O  O18  1  0.03629524  0.73704057  0.16329775  1
  O  O19  1  0.22632722  0.73662639  0.45128169  1
  O  O20  1  0.39947988  0.82540316  0.83593270  1
  O  O21  1  0.32475186  0.53097142  0.72757774  1
  O  O22  1  0.17524814  0.27242226  0.46902858  1
  O  O23  1  0.10052012  0.16406730  0.17459684  1
  O  O24  1  0.27367278  0.54871831  0.26337361  1
  O  O25  1  0.60404710  0.65905982  0.99850092  1
  O  O26  1  0.46370476  0.83670225  0.26295943  1
  O  O27  1  0.31666185  0.05059653  0.39556344  1
  O  O28  1  0.68599788  0.95149683  0.59289115  1
  O  O29  1  0.53793609  0.18228237  0.74057649  1
  O  O30  1  0.39968034  0.31584448  0.00113913  1
  O  O31  1  0.75525922  0.46569431  0.73790492  1
  O  O32  1  0.86779436  0.80991278  0.81650385  1
  O  O33  1  0.82724975  0.72786797  0.52735487  1
  O  O34  1  0.67275025  0.47264513  0.27213203  1
  O  O35  1  0.63220564  0.18349615  0.19008722  1
  O  O36  1  0.74474078  0.26209508  0.53430569  1
  O  O37  1  0.96206391  0.25942351  0.81771763  1
  O  O38  1  0.81400212  0.40710885  0.04850317  1
  O  O39  1  0.89595290  0.00149908  0.34094018  1
