# generated using pymatgen
data_Li10Zn(PS4)4
_symmetry_space_group_name_H-M   'P 1'
_cell_length_a   6.17888664
_cell_length_b   7.89918082
_cell_length_c   13.00067613
_cell_angle_alpha   89.94091817
_cell_angle_beta   90.15910795
_cell_angle_gamma   90.17762814
_symmetry_Int_Tables_number   1
_chemical_formula_structural   Li10Zn(PS4)4
_chemical_formula_sum   'Li10 Zn1 P4 S16'
_cell_volume   634.53302983
_cell_formula_units_Z   1
loop_
 _symmetry_equiv_pos_site_id
 _symmetry_equiv_pos_as_xyz
  1  'x, y, z'
loop_
 _atom_site_type_symbol
 _atom_site_label
 _atom_site_symmetry_multiplicity
 _atom_site_fract_x
 _atom_site_fract_y
 _atom_site_fract_z
 _atom_site_occupancy
  Li  Li0  1  0.99990363  0.25056133  0.15821415  1
  Li  Li1  1  0.49866433  0.24583236  0.34607635  1
  Li  Li2  1  0.49473317  0.25926781  0.84002083  1
  Li  Li3  1  0.49117619  0.74919175  0.35077997  1
  Li  Li4  1  0.49907927  0.74633037  0.83908866  1
  Li  Li5  1  0.99358676  0.76249502  0.16125488  1
  Li  Li6  1  0.00183090  0.75889175  0.65077902  1
  Li  Li7  1  0.48648647  0.00062343  0.07557968  1
  Li  Li8  1  0.98533905  0.49979487  0.42650721  1
  Li  Li9  1  0.99364964  0.51042078  0.92465428  1
  Zn  Zn10  1  0.00186444  0.23109296  0.65000452  1
  P  P11  1  0.00588181  0.00394574  0.41121976  1
  P  P12  1  0.00412593  0.99960329  0.90582239  1
  P  P13  1  0.50075499  0.50300095  0.09108067  1
  P  P14  1  0.48378305  0.49067979  0.59290957  1
  S  S15  1  0.88972410  0.00806229  0.05369195  1
  S  S16  1  0.86713410  0.00169354  0.55784305  1
  S  S17  1  0.33168280  0.00038936  0.41528263  1
  S  S18  1  0.33615382  0.00184613  0.90266892  1
  S  S19  1  0.89173692  0.21827849  0.33721001  1
  S  S20  1  0.89411783  0.21848417  0.83004791  1
  S  S21  1  0.39315908  0.28612482  0.16294032  1
  S  S22  1  0.38437565  0.26547560  0.65929742  1
  S  S23  1  0.83478040  0.50585624  0.09512293  1
  S  S24  1  0.82781922  0.48903380  0.60293361  1
  S  S25  1  0.38899999  0.49289365  0.44164717  1
  S  S26  1  0.39331002  0.50360607  0.94062098  1
  S  S27  1  0.38974834  0.71676145  0.16473407  1
  S  S28  1  0.38928761  0.70587768  0.66175513  1
  S  S29  1  0.88509116  0.78691456  0.34188536  1
  S  S30  1  0.89250034  0.78696995  0.83265561  1
