# generated using pymatgen
data_Re3Se2Cl5
_symmetry_space_group_name_H-M   'P 1'
_cell_length_a   9.48097742
_cell_length_b   9.50314984
_cell_length_c   12.65389899
_cell_angle_alpha   84.46159565
_cell_angle_beta   84.50367623
_cell_angle_gamma   82.38835877
_symmetry_Int_Tables_number   1
_chemical_formula_structural   Re3Se2Cl5
_chemical_formula_sum   'Re12 Se8 Cl20'
_cell_volume   1120.79677472
_cell_formula_units_Z   4
loop_
 _symmetry_equiv_pos_site_id
 _symmetry_equiv_pos_as_xyz
  1  'x, y, z'
loop_
 _atom_site_type_symbol
 _atom_site_label
 _atom_site_symmetry_multiplicity
 _atom_site_fract_x
 _atom_site_fract_y
 _atom_site_fract_z
 _atom_site_occupancy
  Re  Re0  1  0.01441395  0.00747900  0.85170052  1
  Re  Re1  1  0.08604900  0.16498966  0.99558770  1
  Re  Re2  1  0.17926604  0.89232913  0.00096286  1
  Re  Re3  1  0.31770959  0.52100020  0.57142780  1
  Re  Re4  1  0.42883571  0.43879526  0.38212337  1
  Re  Re5  1  0.47123991  0.68694624  0.44156266  1
  Re  Re6  1  0.53155088  0.31065570  0.55966549  1
  Re  Re7  1  0.57368141  0.55895055  0.61839420  1
  Re  Re8  1  0.68415159  0.47697160  0.42949273  1
  Re  Re9  1  0.82019203  0.10534294  0.00096725  1
  Re  Re10  1  0.91494654  0.83277145  0.00635720  1
  Re  Re11  1  0.98624810  0.98960910  0.14927333  1
  Se  Se12  1  0.24151443  0.05075478  0.13767952  1
  Se  Se13  1  0.10363659  0.74752126  0.86080480  1
  Se  Se14  1  0.36461214  0.75698383  0.62465829  1
  Se  Se15  1  0.42252626  0.40070935  0.73640169  1
  Se  Se16  1  0.57621902  0.59939971  0.26261295  1
  Se  Se17  1  0.63322590  0.24296098  0.37502103  1
  Se  Se18  1  0.72956084  0.93590005  0.14813489  1
  Se  Se19  1  0.77403880  0.35355929  0.60156874  1
  Cl  Cl20  1  0.02900943  0.02756539  0.66706486  1
  Cl  Cl21  1  0.07510414  0.73417284  0.14503627  1
  Cl  Cl22  1  0.07966813  0.54326346  0.64972172  1
  Cl  Cl23  1  0.23263297  0.64877447  0.39895165  1
  Cl  Cl24  1  0.18771056  0.37570525  0.98329636  1
  Cl  Cl25  1  0.28407908  0.28250297  0.51079110  1
  Cl  Cl26  1  0.26084697  0.06411222  0.85527843  1
  Cl  Cl27  1  0.32297609  0.36671620  0.23851224  1
  Cl  Cl28  1  0.40389115  0.75745033  0.00202544  1
  Cl  Cl29  1  0.43253376  0.92785143  0.36614806  1
  Cl  Cl30  1  0.56348102  0.06914775  0.63552032  1
  Cl  Cl31  1  0.59890761  0.24286958  0.99570383  1
  Cl  Cl32  1  0.67487233  0.63927982  0.76263638  1
  Cl  Cl33  1  0.71005118  0.72116998  0.48603522  1
  Cl  Cl34  1  0.81078208  0.62230237  0.01576716  1
  Cl  Cl35  1  0.89924918  0.24633681  0.13394403  1
  Cl  Cl36  1  0.76607833  0.95219546  0.86584419  1
  Cl  Cl37  1  0.92175672  0.45771342  0.34441178  1
  Cl  Cl38  1  0.92277319  0.27126807  0.85341172  1
  Cl  Cl39  1  0.96997735  0.97597209  0.33550224  1
