# generated using pymatgen
data_Li15Mn21O43
_symmetry_space_group_name_H-M   'P 1'
_cell_length_a   5.89430230
_cell_length_b   5.89282066
_cell_length_c   35.28549776
_cell_angle_alpha   61.27657756
_cell_angle_beta   61.52011808
_cell_angle_gamma   61.80300453
_symmetry_Int_Tables_number   1
_chemical_formula_structural   Li15Mn21O43
_chemical_formula_sum   'Li15 Mn21 O43'
_cell_volume   896.42028048
_cell_formula_units_Z   1
loop_
 _symmetry_equiv_pos_site_id
 _symmetry_equiv_pos_as_xyz
  1  'x, y, z'
loop_
 _atom_site_type_symbol
 _atom_site_label
 _atom_site_symmetry_multiplicity
 _atom_site_fract_x
 _atom_site_fract_y
 _atom_site_fract_z
 _atom_site_occupancy
  Li  Li0  1  0.08542522  0.09580425  0.01716835  1
  Li  Li1  1  0.09339072  0.10572820  0.18070167  1
  Li  Li2  1  0.52207804  0.98384425  0.08781210  1
  Li  Li3  1  0.08777616  0.09092364  0.35050447  1
  Li  Li4  1  0.08156724  0.08026629  0.51690645  1
  Li  Li5  1  0.52814235  0.52931446  0.33094470  1
  Li  Li6  1  0.88795190  0.86948521  0.14632159  1
  Li  Li7  1  0.08574207  0.08461657  0.67813697  1
  Li  Li8  1  0.88726898  0.88737516  0.30986169  1
  Li  Li9  1  0.49732501  0.49810632  0.58438976  1
  Li  Li10  1  0.12673496  0.12010528  0.85320767  1
  Li  Li11  1  0.87549726  0.87709062  0.48433333  1
  Li  Li12  1  0.89475794  0.90045907  0.64543094  1
  Li  Li13  1  0.87366070  0.88045570  0.81439817  1
  Li  Li14  1  0.87763699  0.87628792  0.98078797  1
  Mn  Mn15  1  0.52118098  0.51685942  0.99871853  1
  Mn  Mn16  1  0.50231481  0.49082808  0.08375984  1
  Mn  Mn17  1  0.50881048  0.52342937  0.16311206  1
  Mn  Mn18  1  0.49918014  0.50397239  0.25000807  1
  Mn  Mn19  1  0.98677026  0.51600173  0.08565128  1
  Mn  Mn20  1  0.51009225  0.98572752  0.25315778  1
  Mn  Mn21  1  0.50294305  0.50415607  0.41538070  1
  Mn  Mn22  1  0.97917473  0.51635616  0.25310636  1
  Mn  Mn23  1  0.51673340  0.99360870  0.41874793  1
  Mn  Mn24  1  0.51402197  0.51177869  0.49960787  1
  Mn  Mn25  1  0.99239452  0.51758970  0.41865416  1
  Mn  Mn26  1  0.52158209  0.98295841  0.58676034  1
  Mn  Mn27  1  0.51066072  0.98527289  0.75324447  1
  Mn  Mn28  1  0.51357538  0.51048855  0.66416763  1
  Mn  Mn29  1  0.99390509  0.50511837  0.58447964  1
  Mn  Mn30  1  0.49638558  0.49796810  0.75025172  1
  Mn  Mn31  1  0.49993150  0.49508145  0.83428882  1
  Mn  Mn32  1  0.50435254  0.50306893  0.91741887  1
  Mn  Mn33  1  0.98575547  0.51045028  0.75308857  1
  Mn  Mn34  1  0.50706275  0.00431786  0.91629914  1
  Mn  Mn35  1  0.00647226  0.50666970  0.91588768  1
  O  O36  1  0.25136777  0.27999051  0.11599228  1
  O  O37  1  0.26983392  0.70082243  0.04356949  1
  O  O38  1  0.70141754  0.27822501  0.04248305  1
  O  O39  1  0.29260425  0.70221601  0.12538293  1
  O  O40  1  0.72727095  0.29020366  0.12397241  1
  O  O41  1  0.25853886  0.26510487  0.28304377  1
  O  O42  1  0.25906475  0.69711975  0.21019758  1
  O  O43  1  0.75270149  0.70133665  0.04890748  1
  O  O44  1  0.68743870  0.26840628  0.21048233  1
  O  O45  1  0.73881060  0.73998186  0.12781535  1
  O  O46  1  0.29429591  0.74897211  0.28403030  1
  O  O47  1  0.74523466  0.29656536  0.28400073  1
  O  O48  1  0.26472591  0.26500017  0.44960149  1
  O  O49  1  0.25598137  0.70374087  0.38018155  1
  O  O50  1  0.73264136  0.73686669  0.21552052  1
  O  O51  1  0.70253813  0.25687767  0.38045739  1
  O  O52  1  0.75588664  0.75413282  0.28988229  1
  O  O53  1  0.30375720  0.73625207  0.45420605  1
  O  O54  1  0.73583537  0.30447649  0.45441986  1
  O  O55  1  0.26011169  0.25039106  0.61485813  1
  O  O56  1  0.25363334  0.69706524  0.53977253  1
  O  O57  1  0.73841638  0.74029042  0.38219244  1
  O  O58  1  0.69905859  0.24873772  0.54083664  1
  O  O59  1  0.74216302  0.74149083  0.46240315  1
  O  O60  1  0.29681411  0.75122190  0.62538860  1
  O  O61  1  0.24083441  0.23950388  0.78431585  1
  O  O62  1  0.74739911  0.29484998  0.62623465  1
  O  O63  1  0.25873420  0.69360830  0.71215255  1
  O  O64  1  0.73749044  0.74951553  0.55076971  1
  O  O65  1  0.75089286  0.78124764  0.62186772  1
  O  O66  1  0.69518596  0.25888151  0.71221323  1
  O  O67  1  0.29495054  0.72778063  0.79012766  1
  O  O68  1  0.26783679  0.25815117  0.87777062  1
  O  O69  1  0.72721376  0.29645981  0.78988936  1
  O  O70  1  0.30053507  0.24505648  0.95270763  1
  O  O71  1  0.75284244  0.75406688  0.71520119  1
  O  O72  1  0.27016709  0.70084977  0.87616102  1
  O  O73  1  0.70894118  0.26223066  0.87536467  1
  O  O74  1  0.72453709  0.72149994  0.79850291  1
  O  O75  1  0.29743061  0.74971420  0.95786186  1
  O  O76  1  0.74641994  0.30139693  0.95676789  1
  O  O77  1  0.70448342  0.76126864  0.88148358  1
  O  O78  1  0.76315703  0.77431429  0.94888728  1
