# generated using pymatgen
data_Na3TbTi2Nb2O12
_symmetry_space_group_name_H-M   'P 1'
_cell_length_a   5.48577225
_cell_length_b   5.63527404
_cell_length_c   15.47528035
_cell_angle_alpha   90.00000000
_cell_angle_beta   90.00000000
_cell_angle_gamma   90.00000000
_symmetry_Int_Tables_number   1
_chemical_formula_structural   Na3TbTi2Nb2O12
_chemical_formula_sum   'Na6 Tb2 Ti4 Nb4 O24'
_cell_volume   478.40018517
_cell_formula_units_Z   2
loop_
 _symmetry_equiv_pos_site_id
 _symmetry_equiv_pos_as_xyz
  1  'x, y, z'
loop_
 _atom_site_type_symbol
 _atom_site_label
 _atom_site_symmetry_multiplicity
 _atom_site_fract_x
 _atom_site_fract_y
 _atom_site_fract_z
 _atom_site_occupancy
  Na  Na0  1  0.00461633  0.97912053  0.37074783  1
  Na  Na1  1  0.00461633  0.97912053  0.87925217  1
  Na  Na2  1  0.49538367  0.47912053  0.87925217  1
  Na  Na3  1  0.49538367  0.47912053  0.37074783  1
  Na  Na4  1  0.51327501  0.52685301  0.62500000  1
  Na  Na5  1  0.98672499  0.02685301  0.62500000  1
  Tb  Tb6  1  0.50904179  0.56338659  0.12500000  1
  Tb  Tb7  1  0.99095821  0.06338659  0.12500000  1
  Ti  Ti8  1  0.00891348  0.52659749  0.99836346  1
  Ti  Ti9  1  0.00891348  0.52659749  0.25163654  1
  Ti  Ti10  1  0.49108652  0.02659749  0.25163654  1
  Ti  Ti11  1  0.49108652  0.02659749  0.99836346  1
  Nb  Nb12  1  0.00366543  0.51470624  0.49797110  1
  Nb  Nb13  1  0.00366543  0.51470624  0.75202890  1
  Nb  Nb14  1  0.49633457  0.01470624  0.75202890  1
  Nb  Nb15  1  0.49633457  0.01470624  0.49797110  1
  O  O16  1  0.09208003  0.46415174  0.12500000  1
  O  O17  1  0.08120675  0.47971750  0.62500000  1
  O  O18  1  0.21522655  0.21047415  0.47668264  1
  O  O19  1  0.20453448  0.19588218  0.26043659  1
  O  O20  1  0.21522655  0.21047415  0.77331736  1
  O  O21  1  0.20453448  0.19588218  0.98956341  1
  O  O22  1  0.29546552  0.69588218  0.26043659  1
  O  O23  1  0.28477345  0.71047415  0.47668264  1
  O  O24  1  0.28477345  0.71047415  0.77331736  1
  O  O25  1  0.29546552  0.69588218  0.98956341  1
  O  O26  1  0.40791997  0.96415174  0.12500000  1
  O  O27  1  0.41879325  0.97971750  0.62500000  1
  O  O28  1  0.57611630  0.00758340  0.87977370  1
  O  O29  1  0.57611630  0.00758340  0.37022630  1
  O  O30  1  0.70517702  0.27991744  0.03164093  1
  O  O31  1  0.70517702  0.27991744  0.21835907  1
  O  O32  1  0.72169122  0.26866315  0.51926873  1
  O  O33  1  0.72169122  0.26866315  0.73073127  1
  O  O34  1  0.79482298  0.77991744  0.03164093  1
  O  O35  1  0.79482298  0.77991744  0.21835907  1
  O  O36  1  0.77830878  0.76866315  0.51926873  1
  O  O37  1  0.77830878  0.76866315  0.73073127  1
  O  O38  1  0.92388370  0.50758340  0.37022630  1
  O  O39  1  0.92388370  0.50758340  0.87977370  1
