# generated using pymatgen
data_Na5Ni2P2(CO7)2
_symmetry_space_group_name_H-M   'P 1'
_cell_length_a   8.85330935
_cell_length_b   10.40868370
_cell_length_c   6.66115598
_cell_angle_alpha   90.00000000
_cell_angle_beta   90.00000000
_cell_angle_gamma   88.49763586
_symmetry_Int_Tables_number   1
_chemical_formula_structural   Na5Ni2P2(CO7)2
_chemical_formula_sum   'Na10 Ni4 P4 C4 O28'
_cell_volume   613.62315149
_cell_formula_units_Z   2
loop_
 _symmetry_equiv_pos_site_id
 _symmetry_equiv_pos_as_xyz
  1  'x, y, z'
loop_
 _atom_site_type_symbol
 _atom_site_label
 _atom_site_symmetry_multiplicity
 _atom_site_fract_x
 _atom_site_fract_y
 _atom_site_fract_z
 _atom_site_occupancy
  Na  Na0  1  0.08551496  0.38959299  0.25000000  1
  Na  Na1  1  0.25674739  0.11879544  0.00703340  1
  Na  Na2  1  0.25674739  0.11879544  0.49296660  1
  Na  Na3  1  0.27110112  0.63436624  0.01219072  1
  Na  Na4  1  0.27110112  0.63436624  0.48780928  1
  Na  Na5  1  0.72889888  0.36563376  0.51219072  1
  Na  Na6  1  0.72889888  0.36563376  0.98780928  1
  Na  Na7  1  0.74325261  0.88120456  0.50703340  1
  Na  Na8  1  0.74325261  0.88120456  0.99296660  1
  Na  Na9  1  0.91448504  0.61040701  0.75000000  1
  Ni  Ni10  1  0.34605259  0.39023285  0.75000000  1
  Ni  Ni11  1  0.34800746  0.88939394  0.75000000  1
  Ni  Ni12  1  0.65199254  0.11060606  0.25000000  1
  Ni  Ni13  1  0.65394741  0.60976715  0.25000000  1
  P  P14  1  0.41765572  0.35853115  0.25000000  1
  P  P15  1  0.41977594  0.85904109  0.25000000  1
  P  P16  1  0.58022406  0.14095891  0.75000000  1
  P  P17  1  0.58234428  0.64146885  0.75000000  1
  C  C18  1  0.06333229  0.35839162  0.75000000  1
  C  C19  1  0.06594091  0.85566326  0.75000000  1
  C  C20  1  0.93405909  0.14433674  0.25000000  1
  C  C21  1  0.93666771  0.64160838  0.25000000  1
  O  O22  1  0.07614598  0.16160658  0.25000000  1
  O  O23  1  0.07988040  0.65149480  0.25000000  1
  O  O24  1  0.12436421  0.47220933  0.75000000  1
  O  O25  1  0.12642578  0.96711263  0.75000000  1
  O  O26  1  0.15869608  0.26100823  0.75000000  1
  O  O27  1  0.16116802  0.75706140  0.75000000  1
  O  O28  1  0.31853464  0.39487070  0.06434432  1
  O  O29  1  0.31853464  0.39487070  0.43565568  1
  O  O30  1  0.32436733  0.89547118  0.06221429  1
  O  O31  1  0.32436733  0.89547118  0.43778571  1
  O  O32  1  0.42744247  0.07143311  0.75000000  1
  O  O33  1  0.43042930  0.57138750  0.75000000  1
  O  O34  1  0.45181594  0.20985752  0.25000000  1
  O  O35  1  0.45306152  0.71018800  0.25000000  1
  O  O36  1  0.54693848  0.28981200  0.75000000  1
  O  O37  1  0.54818406  0.79014248  0.75000000  1
  O  O38  1  0.56957070  0.42861250  0.25000000  1
  O  O39  1  0.57255753  0.92856689  0.25000000  1
  O  O40  1  0.67563267  0.10452882  0.56221429  1
  O  O41  1  0.67563267  0.10452882  0.93778571  1
  O  O42  1  0.68146536  0.60512930  0.56434432  1
  O  O43  1  0.68146536  0.60512930  0.93565568  1
  O  O44  1  0.83883198  0.24293860  0.25000000  1
  O  O45  1  0.84130392  0.73899177  0.25000000  1
  O  O46  1  0.87357422  0.03288737  0.25000000  1
  O  O47  1  0.87563579  0.52779067  0.25000000  1
  O  O48  1  0.92011960  0.34850520  0.75000000  1
  O  O49  1  0.92385402  0.83839342  0.75000000  1
