# generated using pymatgen
data_Na5(WO3)14
_symmetry_space_group_name_H-M   'P 1'
_cell_length_a   7.78990827
_cell_length_b   19.83814047
_cell_length_c   5.50417853
_cell_angle_alpha   97.97420027
_cell_angle_beta   90.00000000
_cell_angle_gamma   78.67718219
_symmetry_Int_Tables_number   1
_chemical_formula_structural   Na5(WO3)14
_chemical_formula_sum   'Na5 W14 O42'
_cell_volume   825.65555601
_cell_formula_units_Z   1
loop_
 _symmetry_equiv_pos_site_id
 _symmetry_equiv_pos_as_xyz
  1  'x, y, z'
loop_
 _atom_site_type_symbol
 _atom_site_label
 _atom_site_symmetry_multiplicity
 _atom_site_fract_x
 _atom_site_fract_y
 _atom_site_fract_z
 _atom_site_occupancy
  Na  Na0  1  0.64285700  0.71428600  0.85714300  1
  Na  Na1  1  0.85716515  0.28566970  0.14283485  1
  Na  Na2  1  0.07127329  0.85745242  0.42872671  1
  Na  Na3  1  0.42854885  0.14290130  0.57145115  1
  Na  Na4  1  0.21444071  0.57111858  0.28555929  1
  W  W5  1  0.96374509  0.56989904  0.78494952  1
  W  W6  1  0.89290130  0.71428600  0.35714300  1
  W  W7  1  0.81935813  0.85867296  0.92933648  1
  W  W8  1  0.68037360  0.14181596  0.07090848  1
  W  W9  1  0.60534040  0.28675504  0.64337752  1
  W  W10  1  0.53578767  0.42842533  0.21421267  1
  W  W11  1  0.74992633  0.00014667  0.50007333  1
  W  W12  1  0.39281270  0.71428600  0.35714300  1
  W  W13  1  0.46635587  0.56989904  0.78494952  1
  W  W14  1  0.32196891  0.85867296  0.92933648  1
  W  W15  1  0.24992801  0.00014667  0.50007333  1
  W  W16  1  0.10790456  0.28675504  0.64337752  1
  W  W17  1  0.17781044  0.14181596  0.07090848  1
  W  W18  1  0.03578699  0.42842533  0.21421267  1
  O  O19  1  0.85696094  0.78576435  0.14264240  1
  O  O20  1  0.78855419  0.92789571  0.71092048  1
  O  O21  1  0.92843929  0.64280765  0.57164260  1
  O  O22  1  0.85696094  0.78576435  0.64312095  1
  O  O23  1  0.92843929  0.64280765  0.07116505  1
  O  O24  1  0.78855419  0.92789571  0.21697523  1
  O  O25  1  0.85706789  0.28586422  0.64293211  1
  O  O26  1  0.57217009  0.85565983  0.92782991  1
  O  O27  1  0.92789910  0.14420080  0.07210090  1
  O  O28  1  0.78646800  0.42706500  0.21353200  1
  O  O29  1  0.64285700  0.71428600  0.35714300  1
  O  O30  1  0.71354491  0.57291117  0.78645509  1
  O  O31  1  0.71132075  0.07223265  0.78399012  1
  O  O32  1  0.71132075  0.07223265  0.28824353  1
  O  O33  1  0.64285700  0.21428600  0.85714300  1
  O  O34  1  0.57439325  0.35633835  0.93029588  1
  O  O35  1  0.64285700  0.21428600  0.35714300  1
  O  O36  1  0.49715981  0.50067529  0.49731077  1
  O  O37  1  0.57439325  0.35633835  0.42604247  1
  O  O38  1  0.49715981  0.50067529  0.00336552  1
  O  O39  1  0.42875306  0.64280765  0.57164260  1
  O  O40  1  0.42875306  0.64280765  0.07116505  1
  O  O41  1  0.28355011  0.92789571  0.71092048  1
  O  O42  1  0.28355011  0.92789571  0.21697523  1
  O  O43  1  0.35727471  0.78576435  0.64312095  1
  O  O44  1  0.35727471  0.78576435  0.14264240  1
  O  O45  1  0.35781490  0.28437020  0.64218510  1
  O  O46  1  0.42864611  0.14270778  0.07135389  1
  O  O47  1  0.28496989  0.43006022  0.21503011  1
  O  O48  1  0.21429834  0.57140432  0.78570166  1
  O  O49  1  0.07141666  0.85716668  0.92858334  1
  O  O50  1  0.14285700  0.71428600  0.35714300  1
  O  O51  1  0.49924700  0.00150700  0.50075300  1
  O  O52  1  0.00216489  0.50067529  0.00336552  1
  O  O53  1  0.14285700  0.21428600  0.35714300  1
  O  O54  1  0.00216489  0.50067529  0.49731077  1
  O  O55  1  0.14285700  0.21428600  0.85714300  1
  O  O56  1  0.06926840  0.35633835  0.93029588  1
  O  O57  1  0.21644660  0.07223265  0.28824353  1
  O  O58  1  0.06926840  0.35633835  0.42604247  1
  O  O59  1  0.21644660  0.07223265  0.78399012  1
  O  O60  1  0.00074411  0.99851078  0.49925589  1
