# generated using pymatgen
data_Li3Fe3P8O29
_symmetry_space_group_name_H-M   'P 1'
_cell_length_a   10.01106605
_cell_length_b   10.01295226
_cell_length_c   14.17934369
_cell_angle_alpha   91.71687378
_cell_angle_beta   91.69103936
_cell_angle_gamma   59.56883159
_symmetry_Int_Tables_number   1
_chemical_formula_structural   Li3Fe3P8O29
_chemical_formula_sum   'Li6 Fe6 P16 O58'
_cell_volume   1224.81587309
_cell_formula_units_Z   2
loop_
 _symmetry_equiv_pos_site_id
 _symmetry_equiv_pos_as_xyz
  1  'x, y, z'
loop_
 _atom_site_type_symbol
 _atom_site_label
 _atom_site_symmetry_multiplicity
 _atom_site_fract_x
 _atom_site_fract_y
 _atom_site_fract_z
 _atom_site_occupancy
  Li  Li0  1  0.99918859  0.00102093  0.00018040  1
  Li  Li1  1  0.99940729  0.00022415  0.50000308  1
  Li  Li2  1  0.90802595  0.77339788  0.43203773  1
  Li  Li3  1  0.77333347  0.90771980  0.93216022  1
  Li  Li4  1  0.09238178  0.22654632  0.56785209  1
  Li  Li5  1  0.22620148  0.09223310  0.06795587  1
  Fe  Fe6  1  0.55964019  0.99808445  0.74855535  1
  Fe  Fe7  1  0.00186984  0.44038682  0.75124691  1
  Fe  Fe8  1  0.43992316  0.55998933  0.74998153  1
  Fe  Fe9  1  0.56018153  0.43974024  0.24997780  1
  Fe  Fe10  1  0.44035407  0.00197728  0.25137247  1
  Fe  Fe11  1  0.99814057  0.55957736  0.24862277  1
  P  P12  1  0.66816434  0.66993044  0.36175635  1
  P  P13  1  0.90662176  0.77169589  0.65601900  1
  P  P14  1  0.69622838  0.21960715  0.84006451  1
  P  P15  1  0.09338480  0.22834160  0.34391856  1
  P  P16  1  0.30555062  0.90787525  0.66513688  1
  P  P17  1  0.21984360  0.69589387  0.34001319  1
  P  P18  1  0.78015577  0.30394363  0.66005871  1
  P  P19  1  0.09192843  0.69443907  0.83469925  1
  P  P20  1  0.33036010  0.33167369  0.13840528  1
  P  P21  1  0.90807622  0.30547137  0.16517092  1
  P  P22  1  0.30404649  0.78013793  0.16007208  1
  P  P23  1  0.33180667  0.33020028  0.63844684  1
  P  P24  1  0.66980693  0.66827614  0.86151022  1
  P  P25  1  0.77178902  0.90657834  0.15605293  1
  P  P26  1  0.69446358  0.09203230  0.33483936  1
  P  P27  1  0.22828357  0.09344815  0.84393030  1
  O  O28  1  0.08551326  0.54434103  0.83088315  1
  O  O29  1  0.31664686  0.48289810  0.67512068  1
  O  O30  1  0.03573281  0.20865339  0.43741881  1
  O  O31  1  0.34135016  0.33098401  0.52918086  1
  O  O32  1  0.91685345  0.33491658  0.66368250  1
  O  O33  1  0.68038345  0.81282218  0.83780261  1
  O  O34  1  0.74200239  0.91082485  0.66698492  1
  O  O35  1  0.45556600  0.91452765  0.66896070  1
  O  O36  1  0.01349680  0.78668199  0.73706124  1
  O  O37  1  0.79143182  0.96425303  0.06255593  1
  O  O38  1  0.91070382  0.74198730  0.16718233  1
  O  O39  1  0.44917879  0.62112357  0.16382672  1
  O  O40  1  0.18709556  0.31966741  0.66200018  1
  O  O41  1  0.80655204  0.99964653  0.41342978  1
  O  O42  1  0.81682662  0.19940995  0.57237774  1
  O  O43  1  0.55109958  0.37881260  0.83629206  1
  O  O44  1  0.33084905  0.34129478  0.02899478  1
  O  O45  1  0.48309789  0.31657598  0.17504060  1
  O  O46  1  0.33955257  0.74079257  0.66407010  1
  O  O47  1  0.80042502  0.18313846  0.92742597  1
  O  O48  1  0.91453086  0.45560560  0.16910493  1
  O  O49  1  0.19931966  0.80071351  0.25009104  1
  O  O50  1  0.61696860  0.91265410  0.16580087  1
  O  O51  1  0.80085225  0.19919465  0.74999128  1
  O  O52  1  0.00056655  0.19335141  0.08670338  1
  O  O53  1  0.48260146  0.18862566  0.67284410  1
  O  O54  1  0.54426175  0.08565366  0.33106990  1
  O  O55  1  0.18344079  0.80021880  0.42757672  1
  O  O56  1  0.18868204  0.48275946  0.17270601  1
  O  O57  1  0.08928204  0.25803586  0.83286339  1
  O  O58  1  0.37890096  0.55085229  0.33612705  1
  O  O59  1  0.68330470  0.51701353  0.32522283  1
  O  O60  1  0.81286764  0.68040108  0.33814793  1
  O  O61  1  0.98658043  0.21323297  0.26286804  1
  O  O62  1  0.66508647  0.08310188  0.83615587  1
  O  O63  1  0.91247523  0.61706189  0.66569577  1
  O  O64  1  0.31967237  0.18708624  0.16196293  1
  O  O65  1  0.99932524  0.80666665  0.91338835  1
  O  O66  1  0.62116100  0.44874893  0.66377388  1
  O  O67  1  0.19969280  0.81671387  0.07260612  1
  O  O68  1  0.65892731  0.66910986  0.47089267  1
  O  O69  1  0.66884441  0.65897941  0.97068306  1
  O  O70  1  0.38305115  0.08744037  0.83422974  1
  O  O71  1  0.96422404  0.79152234  0.56246231  1
  O  O72  1  0.74091199  0.33947318  0.16416534  1
  O  O73  1  0.33491384  0.91687207  0.16378662  1
  O  O74  1  0.81147857  0.51725602  0.82711529  1
  O  O75  1  0.08316192  0.66501035  0.33616594  1
  O  O76  1  0.66056362  0.25918382  0.33608353  1
  O  O77  1  0.19333749  0.00044708  0.58670199  1
  O  O78  1  0.51723471  0.81134529  0.32721333  1
  O  O79  1  0.78686153  0.01342559  0.23716058  1
  O  O80  1  0.25802461  0.08929723  0.33290572  1
  O  O81  1  0.51708572  0.68321919  0.82483002  1
  O  O82  1  0.21330419  0.98647103  0.76289732  1
  O  O83  1  0.25921288  0.66051732  0.83601164  1
  O  O84  1  0.20852861  0.03591932  0.93749474  1
  O  O85  1  0.08746342  0.38301975  0.33416948  1
