# generated using pymatgen
data_Li7Mn2Fe6(PO4)8
_symmetry_space_group_name_H-M   'P 1'
_cell_length_a   10.40472858
_cell_length_b   7.73785759
_cell_length_c   7.76191175
_cell_angle_alpha   103.77172072
_cell_angle_beta   89.74830399
_cell_angle_gamma   89.71403528
_symmetry_Int_Tables_number   1
_chemical_formula_structural   Li7Mn2Fe6(PO4)8
_chemical_formula_sum   'Li7 Mn2 Fe6 P8 O32'
_cell_volume   606.93123403
_cell_formula_units_Z   1
loop_
 _symmetry_equiv_pos_site_id
 _symmetry_equiv_pos_as_xyz
  1  'x, y, z'
loop_
 _atom_site_type_symbol
 _atom_site_label
 _atom_site_symmetry_multiplicity
 _atom_site_fract_x
 _atom_site_fract_y
 _atom_site_fract_z
 _atom_site_occupancy
  Li  Li0  1  0.49703496  0.25004934  0.25454432  1
  Li  Li1  1  0.49682342  0.50461794  0.00003565  1
  Li  Li2  1  0.49574777  0.74894347  0.74773388  1
  Li  Li3  1  0.49609881  0.99786700  0.49917332  1
  Li  Li4  1  0.00688586  0.24720906  0.75307693  1
  Li  Li5  1  0.00239230  0.50046336  0.50345569  1
  Li  Li6  1  0.00086464  0.76017768  0.24431484  1
  Mn  Mn7  1  0.78362453  0.61553204  0.86385804  1
  Mn  Mn8  1  0.78397064  0.11194101  0.36163225  1
  Fe  Fe9  1  0.72577882  0.11740095  0.87002848  1
  Fe  Fe10  1  0.71845173  0.60906656  0.35932242  1
  Fe  Fe11  1  0.27935733  0.38953209  0.63941722  1
  Fe  Fe12  1  0.27604099  0.88882171  0.13544379  1
  Fe  Fe13  1  0.21769317  0.88966085  0.64248592  1
  Fe  Fe14  1  0.21842280  0.38770329  0.13704320  1
  P  P15  1  0.90698895  0.32905045  0.08041631  1
  P  P16  1  0.90064239  0.83155177  0.57916424  1
  P  P17  1  0.59227908  0.33388954  0.59009352  1
  P  P18  1  0.59146322  0.83926451  0.08425417  1
  P  P19  1  0.41018896  0.16528570  0.91477372  1
  P  P20  1  0.40691049  0.66585018  0.41454536  1
  P  P21  1  0.09508550  0.66686000  0.91634414  1
  P  P22  1  0.09671285  0.16547882  0.41879928  1
  O  O23  1  0.95656272  0.71968305  0.97833222  1
  O  O24  1  0.95787034  0.22943734  0.47964466  1
  O  O25  1  0.88326133  0.99609672  0.73509310  1
  O  O26  1  0.89857391  0.48879102  0.24105425  1
  O  O27  1  0.83158138  0.35598123  0.90929993  1
  O  O28  1  0.83378527  0.66145858  0.61244564  1
  O  O29  1  0.82527509  0.16634596  0.10895032  1
  O  O30  1  0.83463783  0.85999657  0.40642474  1
  O  O31  1  0.66348593  0.88240670  0.91818070  1
  O  O32  1  0.66383788  0.16756565  0.63316817  1
  O  O33  1  0.66574930  0.36628661  0.42363088  1
  O  O34  1  0.66498713  0.67225415  0.11642809  1
  O  O35  1  0.59285798  0.49670716  0.74778596  1
  O  O36  1  0.59249590  0.99779573  0.24622970  1
  O  O37  1  0.55203041  0.22310553  0.97272153  1
  O  O38  1  0.54490896  0.72813307  0.47731669  1
  O  O39  1  0.45565842  0.77403259  0.01871654  1
  O  O40  1  0.45616274  0.26867637  0.52438382  1
  O  O41  1  0.40679386  0.00454144  0.75492555  1
  O  O42  1  0.40735539  0.50449686  0.25396588  1
  O  O43  1  0.33627399  0.62956069  0.58165625  1
  O  O44  1  0.33580143  0.83365580  0.37968470  1
  O  O45  1  0.34220985  0.33545852  0.88172961  1
  O  O46  1  0.34167536  0.13363449  0.08461734  1
  O  O47  1  0.17259444  0.82651091  0.87865450  1
  O  O48  1  0.16624683  0.13577596  0.59048859  1
  O  O49  1  0.16674884  0.33265936  0.38080347  1
  O  O50  1  0.16619042  0.62991116  0.08415089  1
  O  O51  1  0.09725770  0.50446423  0.75465758  1
  O  O52  1  0.10063398  0.00124126  0.26534788  1
  O  O53  1  0.04211777  0.77922943  0.52941792  1
  O  O54  1  0.04491942  0.27789052  0.02013620  1
