# generated using pymatgen
data_NaCa4TaTi4O15
_symmetry_space_group_name_H-M   'P 1'
_cell_length_a   5.42961686
_cell_length_b   5.52746680
_cell_length_c   38.74305783
_cell_angle_alpha   90.06442386
_cell_angle_beta   89.94067214
_cell_angle_gamma   90.09912702
_symmetry_Int_Tables_number   1
_chemical_formula_structural   NaCa4TaTi4O15
_chemical_formula_sum   'Na4 Ca16 Ta4 Ti16 O60'
_cell_volume   1162.75459765
_cell_formula_units_Z   4
loop_
 _symmetry_equiv_pos_site_id
 _symmetry_equiv_pos_as_xyz
  1  'x, y, z'
loop_
 _atom_site_type_symbol
 _atom_site_label
 _atom_site_symmetry_multiplicity
 _atom_site_fract_x
 _atom_site_fract_y
 _atom_site_fract_z
 _atom_site_occupancy
  Na  Na0  1  0.00531467  0.97110982  0.34784877  1
  Na  Na1  1  0.00456616  0.97143456  0.74812289  1
  Na  Na2  1  0.49430837  0.47452001  0.14748104  1
  Na  Na3  1  0.49472110  0.47399337  0.54818468  1
  Ca  Ca4  1  0.00625007  0.95692051  0.14704363  1
  Ca  Ca5  1  0.00747748  0.95596950  0.54793843  1
  Ca  Ca6  1  0.00977386  0.95524875  0.95081336  1
  Ca  Ca7  1  0.49351203  0.46194440  0.34759233  1
  Ca  Ca8  1  0.49443894  0.46254678  0.74789977  1
  Ca  Ca9  1  0.49444245  0.45836073  0.95085178  1
  Ca  Ca10  1  0.50801367  0.54192622  0.05082014  1
  Ca  Ca11  1  0.50674022  0.54101512  0.25188560  1
  Ca  Ca12  1  0.50722448  0.54049428  0.65226597  1
  Ca  Ca13  1  0.50900064  0.54189945  0.45211639  1
  Ca  Ca14  1  0.50707015  0.54150431  0.85189932  1
  Ca  Ca15  1  0.99026583  0.04838802  0.25171902  1
  Ca  Ca16  1  0.98926142  0.04308970  0.05043226  1
  Ca  Ca17  1  0.99028749  0.04819475  0.65214830  1
  Ca  Ca18  1  0.99090821  0.04649734  0.45194069  1
  Ca  Ca19  1  0.99266920  0.04853757  0.85198026  1
  Ta  Ta20  1  0.50100330  0.00663168  0.19896093  1
  Ta  Ta21  1  0.49691487  0.00117579  0.39920254  1
  Ta  Ta22  1  0.50017221  0.00540750  0.59968351  1
  Ta  Ta23  1  0.49545053  0.00191479  0.79987722  1
  Ti  Ti24  1  0.00009717  0.50024946  0.00066020  1
  Ti  Ti25  1  0.00589695  0.50386484  0.19911290  1
  Ti  Ti26  1  0.99863515  0.50829796  0.39918655  1
  Ti  Ti27  1  0.00307994  0.50222062  0.59857201  1
  Ti  Ti28  1  0.99749209  0.50958960  0.79912719  1
  Ti  Ti29  1  0.49166558  0.01019309  0.09894240  1
  Ti  Ti30  1  0.48779672  0.00696016  0.30018948  1
  Ti  Ti31  1  0.49803948  0.99985020  0.00038236  1
  Ti  Ti32  1  0.50043951  0.01572873  0.50005254  1
  Ti  Ti33  1  0.50962252  0.00209082  0.90143955  1
  Ti  Ti34  1  0.49101859  0.00874416  0.70085794  1
  Ti  Ti35  1  0.99748305  0.50719773  0.10047974  1
  Ti  Ti36  1  0.99437388  0.51599761  0.29973937  1
  Ti  Ti37  1  0.00897674  0.51017895  0.50002777  1
  Ti  Ti38  1  0.99891282  0.51651829  0.69952672  1
  Ti  Ti39  1  0.00907202  0.49940159  0.90059853  1
  O  O40  1  0.07657810  0.48019071  0.04932961  1
  O  O41  1  0.07657148  0.47845803  0.24967537  1
  O  O42  1  0.07686977  0.47887464  0.45009533  1
  O  O43  1  0.07637725  0.47901580  0.65004388  1
  O  O44  1  0.07441999  0.47916098  0.85051257  1
  O  O45  1  0.20991852  0.20688498  0.39273369  1
  O  O46  1  0.19519330  0.19831231  0.59275795  1
  O  O47  1  0.19380284  0.19631079  0.19265233  1
  O  O48  1  0.20714419  0.20573807  0.79322093  1
  O  O49  1  0.20779934  0.20247333  0.10604811  1
  O  O50  1  0.22211909  0.21118567  0.30673013  1
  O  O51  1  0.20569180  0.20204397  0.50670232  1
  O  O52  1  0.22127408  0.21070091  0.70683249  1
  O  O53  1  0.21008060  0.20919760  0.99186559  1
  O  O54  1  0.20443912  0.20641055  0.90809488  1
  O  O55  1  0.28407630  0.71338790  0.10629294  1
  O  O56  1  0.28918973  0.70517575  0.19269519  1
  O  O57  1  0.29751361  0.70401637  0.30659677  1
  O  O58  1  0.30366896  0.69515529  0.39254391  1
  O  O59  1  0.28728748  0.70726608  0.59252081  1
  O  O60  1  0.27921387  0.71212987  0.50714968  1
  O  O61  1  0.29119567  0.70608841  0.90813501  1
  O  O62  1  0.29258745  0.71067279  0.99172191  1
  O  O63  1  0.29638331  0.70335290  0.70680226  1
  O  O64  1  0.30431548  0.69357685  0.79305008  1
  O  O65  1  0.42569980  0.97971081  0.04944430  1
  O  O66  1  0.42107158  0.97766995  0.65015393  1
  O  O67  1  0.42271155  0.97835480  0.25010763  1
  O  O68  1  0.41973663  0.97741681  0.85035922  1
  O  O69  1  0.42004578  0.97622550  0.44993161  1
  O  O70  1  0.57645695  0.01636153  0.34989685  1
  O  O71  1  0.57702646  0.01806621  0.14970680  1
  O  O72  1  0.57750678  0.01855136  0.54998940  1
  O  O73  1  0.57396441  0.01596305  0.75009611  1
  O  O74  1  0.57624888  0.02005091  0.94992799  1
  O  O75  1  0.70736048  0.29272137  0.00756765  1
  O  O76  1  0.71447953  0.28006373  0.09058026  1
  O  O77  1  0.70493021  0.29041867  0.20973207  1
  O  O78  1  0.71600602  0.28378255  0.29239426  1
  O  O79  1  0.70514607  0.28960477  0.61003923  1
  O  O80  1  0.71008655  0.28904997  0.40869275  1
  O  O81  1  0.71057485  0.27657038  0.49077082  1
  O  O82  1  0.71455293  0.28219393  0.69257162  1
  O  O83  1  0.70815445  0.29080109  0.80873720  1
  O  O84  1  0.70420802  0.28837204  0.89227274  1
  O  O85  1  0.79288254  0.79290642  0.00754975  1
  O  O86  1  0.79287965  0.79003576  0.20806949  1
  O  O87  1  0.78926627  0.78299723  0.09195003  1
  O  O88  1  0.79011599  0.77968198  0.29093047  1
  O  O89  1  0.78831605  0.77906003  0.69115598  1
  O  O90  1  0.79498454  0.78593740  0.40981542  1
  O  O91  1  0.79170265  0.79047307  0.60833635  1
  O  O92  1  0.78311641  0.78120492  0.49236696  1
  O  O93  1  0.78792288  0.79177285  0.89242377  1
  O  O94  1  0.79559731  0.78796800  0.80993783  1
  O  O95  1  0.93238803  0.51596445  0.15014973  1
  O  O96  1  0.92779460  0.51642549  0.35056935  1
  O  O97  1  0.92887688  0.51536631  0.55064611  1
  O  O98  1  0.92789912  0.51650541  0.75082754  1
  O  O99  1  0.92418830  0.52016196  0.94989098  1
