# generated using pymatgen
data_Na5Mn2P2(CO7)2
_symmetry_space_group_name_H-M   'P 1'
_cell_length_a   9.01376656
_cell_length_b   6.73205013
_cell_length_c   15.71985717
_cell_angle_alpha   90.17173447
_cell_angle_beta   89.23462118
_cell_angle_gamma   89.82337433
_symmetry_Int_Tables_number   1
_chemical_formula_structural   Na5Mn2P2(CO7)2
_chemical_formula_sum   'Na15 Mn6 P6 C6 O42'
_cell_volume   953.80462523
_cell_formula_units_Z   3
loop_
 _symmetry_equiv_pos_site_id
 _symmetry_equiv_pos_as_xyz
  1  'x, y, z'
loop_
 _atom_site_type_symbol
 _atom_site_label
 _atom_site_symmetry_multiplicity
 _atom_site_fract_x
 _atom_site_fract_y
 _atom_site_fract_z
 _atom_site_occupancy
  Na  Na0  1  0.08491549  0.24091055  0.58316141  1
  Na  Na1  1  0.08650363  0.24038188  0.26028084  1
  Na  Na2  1  0.25630990  0.00741931  0.75178460  1
  Na  Na3  1  0.25662423  0.49348274  0.75042389  1
  Na  Na4  1  0.26339454  0.48963155  0.41803533  1
  Na  Na5  1  0.24237321  0.00302184  0.07796174  1
  Na  Na6  1  0.24185824  0.49865443  0.07714736  1
  Na  Na7  1  0.75866470  0.50142435  0.92236117  1
  Na  Na8  1  0.75832384  0.99854457  0.92233653  1
  Na  Na9  1  0.73973501  0.50274493  0.58323087  1
  Na  Na10  1  0.73902341  0.99657336  0.58408912  1
  Na  Na11  1  0.74302542  0.50793989  0.24778042  1
  Na  Na12  1  0.74324690  0.99133982  0.24653530  1
  Na  Na13  1  0.91656614  0.75057787  0.74698772  1
  Na  Na14  1  0.92931941  0.75931055  0.41442037  1
  Mn  Mn15  1  0.35702614  0.75037247  0.92622854  1
  Mn  Mn16  1  0.35325644  0.75564653  0.58888917  1
  Mn  Mn17  1  0.35331764  0.75766887  0.26438923  1
  Mn  Mn18  1  0.64327296  0.25004589  0.74068467  1
  Mn  Mn19  1  0.64241628  0.24775665  0.40594510  1
  Mn  Mn20  1  0.64333271  0.25210419  0.07312824  1
  P  P21  1  0.41930179  0.25026705  0.90222022  1
  P  P22  1  0.41623450  0.25178724  0.56884527  1
  P  P23  1  0.41779161  0.25167695  0.23013331  1
  P  P24  1  0.58192006  0.74998911  0.76685473  1
  P  P25  1  0.58747038  0.74739580  0.43057395  1
  P  P26  1  0.57669137  0.75115480  0.10017525  1
  C  C27  1  0.07038120  0.75013923  0.90659839  1
  C  C28  1  0.05726606  0.74544266  0.57905514  1
  C  C29  1  0.06742968  0.74659784  0.24381297  1
  C  C30  1  0.93552249  0.25000527  0.75351184  1
  C  C31  1  0.93552340  0.25377578  0.42292684  1
  C  C32  1  0.92928906  0.25022272  0.09422173  1
  O  O33  1  0.07709349  0.25105324  0.75440457  1
  O  O34  1  0.07633626  0.26720512  0.42556577  1
  O  O35  1  0.06972148  0.25079375  0.09640612  1
  O  O36  1  0.14387060  0.75092963  0.97828487  1
  O  O37  1  0.12033974  0.75438917  0.65337458  1
  O  O38  1  0.14131110  0.74238903  0.31625840  1
  O  O39  1  0.15199912  0.75005923  0.83747549  1
  O  O40  1  0.13985951  0.73416618  0.51118358  1
  O  O41  1  0.14800792  0.75062898  0.17537604  1
  O  O42  1  0.33085241  0.06206181  0.92919155  1
  O  O43  1  0.33059857  0.43910243  0.92938025  1
  O  O44  1  0.32302967  0.06882117  0.59589273  1
  O  O45  1  0.32099183  0.43619202  0.59417970  1
  O  O46  1  0.32139466  0.06594649  0.24768616  1
  O  O47  1  0.32225607  0.43502730  0.25583245  1
  O  O48  1  0.43746041  0.24998506  0.80295661  1
  O  O49  1  0.42985138  0.75012082  0.72323342  1
  O  O50  1  0.44562645  0.25685491  0.47084530  1
  O  O51  1  0.43474270  0.73960682  0.38776619  1
  O  O52  1  0.44702072  0.25885988  0.13043351  1
  O  O53  1  0.42337153  0.75068248  0.05732096  1
  O  O54  1  0.57606033  0.25018567  0.94271990  1
  O  O55  1  0.55510022  0.75002754  0.86694477  1
  O  O56  1  0.56973757  0.25145908  0.61276820  1
  O  O57  1  0.56600746  0.75034508  0.52937220  1
  O  O58  1  0.56917933  0.24798902  0.27475937  1
  O  O59  1  0.55240094  0.75114899  0.20024390  1
  O  O60  1  0.67860003  0.56661069  0.74318466  1
  O  O61  1  0.67799682  0.93306666  0.74342634  1
  O  O62  1  0.68556378  0.56388413  0.40532144  1
  O  O63  1  0.67990908  0.93273981  0.40325743  1
  O  O64  1  0.66895691  0.56353731  0.07554880  1
  O  O65  1  0.66740204  0.93913069  0.07580309  1
  O  O66  1  0.85155517  0.24971182  0.82127710  1
  O  O67  1  0.85295009  0.24563169  0.49186980  1
  O  O68  1  0.84747900  0.24997944  0.16321844  1
  O  O69  1  0.86726700  0.24908609  0.67955094  1
  O  O70  1  0.86751466  0.24654416  0.34927658  1
  O  O71  1  0.85500134  0.24983619  0.02245646  1
  O  O72  1  0.92947864  0.74957456  0.90417594  1
  O  O73  1  0.91359777  0.74978012  0.57380092  1
  O  O74  1  0.92603438  0.74874904  0.24704621  1
