# generated using pymatgen
data_Li3VFe(P2O7)2
_symmetry_space_group_name_H-M   'P 1'
_cell_length_a   5.00951207
_cell_length_b   7.07364079
_cell_length_c   8.31566629
_cell_angle_alpha   90.47264991
_cell_angle_beta   89.63945250
_cell_angle_gamma   71.04100428
_symmetry_Int_Tables_number   1
_chemical_formula_structural   Li3VFe(P2O7)2
_chemical_formula_sum   'Li3 V1 Fe1 P4 O14'
_cell_volume   278.66223574
_cell_formula_units_Z   1
loop_
 _symmetry_equiv_pos_site_id
 _symmetry_equiv_pos_as_xyz
  1  'x, y, z'
loop_
 _atom_site_type_symbol
 _atom_site_label
 _atom_site_symmetry_multiplicity
 _atom_site_fract_x
 _atom_site_fract_y
 _atom_site_fract_z
 _atom_site_occupancy
  Li  Li0  1  0.17277702  0.33221076  0.85667009  1
  Li  Li1  1  0.28641371  0.90676737  0.16449068  1
  Li  Li2  1  0.82976386  0.66217528  0.35877610  1
  V  V3  1  0.21304502  0.27561178  0.50407907  1
  Fe  Fe4  1  0.79700656  0.72541846  0.98683011  1
  P  P5  1  0.39685639  0.47597553  0.18183379  1
  P  P6  1  0.21162195  0.91792796  0.78450173  1
  P  P7  1  0.78896131  0.08794607  0.29098109  1
  P  P8  1  0.60139749  0.52002264  0.68152221  1
  O  O9  1  0.06346083  0.13333709  0.32790678  1
  O  O10  1  0.14984384  0.11479917  0.69247443  1
  O  O11  1  0.20316075  0.50188551  0.03828675  1
  O  O12  1  0.23739028  0.48522577  0.34271169  1
  O  O13  1  0.38933819  0.40348466  0.67415734  1
  O  O14  1  0.60017162  0.08753862  0.43419872  1
  O  O15  1  0.61649652  0.25056266  0.16123861  1
  O  O16  1  0.41975881  0.75349304  0.66100374  1
  O  O17  1  0.37342136  0.92735204  0.93983566  1
  O  O18  1  0.56525733  0.62372203  0.18724023  1
  O  O19  1  0.75487198  0.49137792  0.84139784  1
  O  O20  1  0.80610003  0.47897439  0.53634766  1
  O  O21  1  0.87921723  0.88660246  0.20017857  1
  O  O22  1  0.94945595  0.86169679  0.81400511  1
