# generated using pymatgen
data_Li32Ti13Cr3O48
_symmetry_space_group_name_H-M   'P 1'
_cell_length_a   5.09028171
_cell_length_b   8.84759264
_cell_length_c   19.64748261
_cell_angle_alpha   98.45499337
_cell_angle_beta   94.69302835
_cell_angle_gamma   89.95419892
_symmetry_Int_Tables_number   1
_chemical_formula_structural   Li32Ti13Cr3O48
_chemical_formula_sum   'Li32 Ti13 Cr3 O48'
_cell_volume   872.25062339
_cell_formula_units_Z   1
loop_
 _symmetry_equiv_pos_site_id
 _symmetry_equiv_pos_as_xyz
  1  'x, y, z'
loop_
 _atom_site_type_symbol
 _atom_site_label
 _atom_site_symmetry_multiplicity
 _atom_site_fract_x
 _atom_site_fract_y
 _atom_site_fract_z
 _atom_site_occupancy
  Li  Li0  1  0.98923071  0.16902017  0.25008491  1
  Li  Li1  1  0.87414658  0.37643868  0.37490366  1
  Li  Li2  1  0.75058889  0.24980564  0.99979309  1
  Li  Li3  1  0.74075351  0.91929101  0.99975363  1
  Li  Li4  1  0.99101844  0.17002045  0.74946210  1
  Li  Li5  1  0.76055905  0.58028921  0.49932326  1
  Li  Li6  1  0.87548744  0.37618524  0.87502844  1
  Li  Li7  1  0.75354214  0.24970086  0.50020593  1
  Li  Li8  1  0.74009518  0.91870508  0.49950258  1
  Li  Li9  1  0.62506249  0.12498836  0.12492656  1
  Li  Li10  1  0.76092716  0.58003798  0.99919165  1
  Li  Li11  1  0.51108801  0.33015265  0.24983076  1
  Li  Li12  1  0.62382279  0.12558462  0.62508326  1
  Li  Li13  1  0.49861722  0.00065293  0.24960451  1
  Li  Li14  1  0.49299792  0.66958498  0.25001554  1
  Li  Li15  1  0.50644207  0.32824137  0.74963913  1
  Li  Li16  1  0.37397651  0.87461071  0.37526541  1
  Li  Li17  1  0.50007605  0.99982496  0.75005307  1
  Li  Li18  1  0.24624149  0.75015790  0.99995309  1
  Li  Li19  1  0.49370147  0.67210176  0.75067466  1
  Li  Li20  1  0.23996800  0.42015459  0.00020311  1
  Li  Li21  1  0.37664472  0.87443525  0.87484800  1
  Li  Li22  1  0.26079640  0.08094807  0.50064067  1
  Li  Li23  1  0.24521204  0.75133439  0.49992070  1
  Li  Li24  1  0.12495222  0.62500126  0.12500279  1
  Li  Li25  1  0.24040131  0.41941422  0.50075331  1
  Li  Li26  1  0.01011740  0.82966175  0.25042044  1
  Li  Li27  1  0.26114862  0.08048433  0.00020637  1
  Li  Li28  1  0.12476478  0.62402274  0.62499331  1
  Li  Li29  1  0.99672242  0.50098914  0.25046558  1
  Li  Li30  1  0.00878294  0.83040411  0.75040706  1
  Li  Li31  1  0.99939198  0.49985158  0.75004489  1
  Ti  Ti32  1  0.88340947  0.04062734  0.37712523  1
  Ti  Ti33  1  0.87082781  0.03921449  0.87284091  1
  Ti  Ti34  1  0.62619015  0.79086705  0.12497209  1
  Ti  Ti35  1  0.62395818  0.45888538  0.12490336  1
  Ti  Ti36  1  0.62731499  0.79149355  0.62441194  1
  Ti  Ti37  1  0.62425439  0.45868939  0.62404808  1
  Ti  Ti38  1  0.37337585  0.54025486  0.37313016  1
  Ti  Ti39  1  0.37889837  0.20854670  0.37486639  1
  Ti  Ti40  1  0.37726470  0.54113455  0.87631327  1
  Ti  Ti41  1  0.37019471  0.20877336  0.87541968  1
  Ti  Ti42  1  0.12348333  0.95897099  0.12516843  1
  Ti  Ti43  1  0.12656170  0.29135861  0.12522488  1
  Ti  Ti44  1  0.12666143  0.96115708  0.62632441  1
  Cr  Cr45  1  0.86880086  0.70991444  0.37543697  1
  Cr  Cr46  1  0.87814252  0.70907967  0.87457800  1
  Cr  Cr47  1  0.12344464  0.29063734  0.62510267  1
  O  O48  1  0.96301919  0.10591187  0.06825656  1
  O  O49  1  0.92876348  0.78456633  0.06830821  1
  O  O50  1  0.92815023  0.42730126  0.06723430  1
  O  O51  1  0.96409278  0.11140118  0.56932872  1
  O  O52  1  0.82123443  0.96529959  0.18178817  1
  O  O53  1  0.82194469  0.32244997  0.18257357  1
  O  O54  1  0.92830160  0.78590244  0.56850329  1
  O  O55  1  0.92559936  0.42820751  0.56728574  1
  O  O56  1  0.78753657  0.64351821  0.18134026  1
  O  O57  1  0.71561426  0.85095183  0.31939871  1
  O  O58  1  0.82100436  0.96569341  0.68172747  1
  O  O59  1  0.83038098  0.32043213  0.68198321  1
  O  O60  1  0.67473916  0.53325072  0.31811867  1
  O  O61  1  0.67662925  0.17607321  0.31728838  1
  O  O62  1  0.78498378  0.64262981  0.68169480  1
  O  O63  1  0.70894607  0.85790114  0.81804388  1
  O  O64  1  0.46273991  0.60636076  0.06821626  1
  O  O65  1  0.58073677  0.71687891  0.43111570  1
  O  O66  1  0.57165269  0.07256797  0.43289432  1
  O  O67  1  0.68168145  0.53761983  0.81909362  1
  O  O68  1  0.67886864  0.17689676  0.81726309  1
  O  O69  1  0.42785794  0.92723486  0.06713046  1
  O  O70  1  0.42872439  0.28448383  0.06826689  1
  O  O71  1  0.53412526  0.39411412  0.43176655  1
  O  O72  1  0.46373974  0.60582389  0.56802256  1
  O  O73  1  0.57611375  0.71674517  0.93040177  1
  O  O74  1  0.57235381  0.07266091  0.93284407  1
  O  O75  1  0.32224867  0.82246685  0.18271297  1
  O  O76  1  0.32126352  0.46558907  0.18157808  1
  O  O77  1  0.42805402  0.92730157  0.56717466  1
  O  O78  1  0.42308458  0.28308504  0.56959736  1
  O  O79  1  0.53721533  0.39411561  0.93179524  1
  O  O80  1  0.28737145  0.14358327  0.18150771  1
  O  O81  1  0.21274779  0.35658890  0.31809660  1
  O  O82  1  0.32185195  0.82334662  0.68273326  1
  O  O83  1  0.31900764  0.46304399  0.68110847  1
  O  O84  1  0.17411326  0.67973849  0.31858253  1
  O  O85  1  0.17843657  0.03443360  0.31826270  1
  O  O86  1  0.28969858  0.14286468  0.68173793  1
  O  O87  1  0.21541019  0.35732403  0.81842543  1
  O  O88  1  0.06877653  0.57503436  0.43159355  1
  O  O89  1  0.07039794  0.21509980  0.43173873  1
  O  O90  1  0.16870157  0.67931368  0.81790194  1
  O  O91  1  0.17890137  0.03427250  0.81825965  1
  O  O92  1  0.04036276  0.89577436  0.43225531  1
  O  O93  1  0.07537493  0.57103681  0.93284655  1
  O  O94  1  0.07237575  0.21398923  0.93165997  1
  O  O95  1  0.03500902  0.88741709  0.93048020  1
