# generated using pymatgen
data_Li32Ti13Cr3O48
_symmetry_space_group_name_H-M   'P 1'
_cell_length_a   5.09277506
_cell_length_b   8.82593042
_cell_length_c   19.62290582
_cell_angle_alpha   98.29619075
_cell_angle_beta   94.88754843
_cell_angle_gamma   89.76548968
_symmetry_Int_Tables_number   1
_chemical_formula_structural   Li32Ti13Cr3O48
_chemical_formula_sum   'Li32 Ti13 Cr3 O48'
_cell_volume   869.58607040
_cell_formula_units_Z   1
loop_
 _symmetry_equiv_pos_site_id
 _symmetry_equiv_pos_as_xyz
  1  'x, y, z'
loop_
 _atom_site_type_symbol
 _atom_site_label
 _atom_site_symmetry_multiplicity
 _atom_site_fract_x
 _atom_site_fract_y
 _atom_site_fract_z
 _atom_site_occupancy
  Li  Li0  1  0.98708218  0.16835312  0.24943007  1
  Li  Li1  1  0.87504971  0.37630673  0.37507838  1
  Li  Li2  1  0.74958113  0.25026945  0.00011439  1
  Li  Li3  1  0.74211794  0.91926231  0.99977123  1
  Li  Li4  1  0.98921723  0.16999197  0.74956944  1
  Li  Li5  1  0.75653373  0.57873380  0.49964680  1
  Li  Li6  1  0.87399831  0.37643051  0.87474983  1
  Li  Li7  1  0.75623260  0.24830236  0.50050503  1
  Li  Li8  1  0.73977518  0.92178823  0.50027778  1
  Li  Li9  1  0.62500591  0.12504095  0.12508598  1
  Li  Li10  1  0.76012890  0.58000595  0.99946468  1
  Li  Li11  1  0.51104833  0.33277601  0.25100944  1
  Li  Li12  1  0.62532644  0.12568577  0.62482464  1
  Li  Li13  1  0.49992380  0.00023022  0.25021299  1
  Li  Li14  1  0.49109794  0.66842045  0.25041331  1
  Li  Li15  1  0.50754457  0.32962253  0.74966767  1
  Li  Li16  1  0.37463828  0.87474185  0.37499167  1
  Li  Li17  1  0.50014485  0.99987317  0.74991111  1
  Li  Li18  1  0.24541160  0.75127861  0.99980192  1
  Li  Li19  1  0.49319095  0.67056165  0.75036304  1
  Li  Li20  1  0.24106417  0.41997478  0.00008651  1
  Li  Li21  1  0.37423507  0.87452829  0.87524380  1
  Li  Li22  1  0.25817095  0.08101499  0.50017355  1
  Li  Li23  1  0.24971767  0.74876678  0.49949166  1
  Li  Li24  1  0.12507102  0.62501605  0.12502972  1
  Li  Li25  1  0.24055750  0.42090967  0.49997807  1
  Li  Li26  1  0.01002409  0.83126479  0.24982195  1
  Li  Li27  1  0.26088485  0.07954523  0.00020016  1
  Li  Li28  1  0.12584841  0.62381083  0.62509301  1
  Li  Li29  1  0.00256721  0.49900957  0.25008072  1
  Li  Li30  1  0.01023449  0.82997325  0.75026894  1
  Li  Li31  1  0.99915710  0.49992806  0.75002968  1
  Ti  Ti32  1  0.87225304  0.70415667  0.37469320  1
  Ti  Ti33  1  0.87763137  0.04023869  0.37492689  1
  Ti  Ti34  1  0.88336401  0.04071290  0.87700762  1
  Ti  Ti35  1  0.62639316  0.79115135  0.12515520  1
  Ti  Ti36  1  0.62409893  0.45892083  0.12518446  1
  Ti  Ti37  1  0.62298137  0.79063992  0.62491224  1
  Ti  Ti38  1  0.62426426  0.45782159  0.62616958  1
  Ti  Ti39  1  0.37454573  0.21083170  0.37532877  1
  Ti  Ti40  1  0.37413688  0.54053636  0.87295181  1
  Ti  Ti41  1  0.37823773  0.20828438  0.87464523  1
  Ti  Ti42  1  0.12361330  0.95873382  0.12518400  1
  Ti  Ti43  1  0.12718782  0.29118945  0.12516300  1
  Ti  Ti44  1  0.11862490  0.95882973  0.62363524  1
  Cr  Cr45  1  0.86900196  0.70953926  0.87532248  1
  Cr  Cr46  1  0.37487611  0.54318537  0.37512046  1
  Cr  Cr47  1  0.12831586  0.29046873  0.62460589  1
  O  O48  1  0.96233923  0.10661944  0.06834185  1
  O  O49  1  0.92899572  0.78435062  0.06853199  1
  O  O50  1  0.92772321  0.42781828  0.06710714  1
  O  O51  1  0.96046903  0.10691795  0.56823270  1
  O  O52  1  0.82144826  0.96571128  0.18172194  1
  O  O53  1  0.82299317  0.32238096  0.18283696  1
  O  O54  1  0.92862101  0.78527283  0.56810683  1
  O  O55  1  0.93077287  0.42589225  0.56810896  1
  O  O56  1  0.78832256  0.64326822  0.18176839  1
  O  O57  1  0.71363464  0.85579539  0.31819992  1
  O  O58  1  0.82160863  0.96545644  0.68180459  1
  O  O59  1  0.82598224  0.32058966  0.68205041  1
  O  O60  1  0.68094001  0.53376643  0.31809582  1
  O  O61  1  0.67697073  0.17762881  0.31719752  1
  O  O62  1  0.78779179  0.64287346  0.68193495  1
  O  O63  1  0.71493155  0.85128538  0.81917771  1
  O  O64  1  0.46238335  0.60673705  0.06814648  1
  O  O65  1  0.56432675  0.71171623  0.43086515  1
  O  O66  1  0.57178710  0.07364682  0.43292335  1
  O  O67  1  0.67455349  0.53302903  0.81801523  1
  O  O68  1  0.67570996  0.17621285  0.81701831  1
  O  O69  1  0.42771508  0.92777818  0.06732637  1
  O  O70  1  0.42902202  0.28427810  0.06839436  1
  O  O71  1  0.53757653  0.39675252  0.43087074  1
  O  O72  1  0.46516409  0.60633780  0.56837061  1
  O  O73  1  0.58109478  0.71687149  0.93099526  1
  O  O74  1  0.57207468  0.07200962  0.93274543  1
  O  O75  1  0.32248442  0.82219890  0.18289069  1
  O  O76  1  0.32142497  0.46580998  0.18155926  1
  O  O77  1  0.42754088  0.92787680  0.56707374  1
  O  O78  1  0.42239675  0.28365465  0.56866879  1
  O  O79  1  0.53468203  0.39382965  0.93172306  1
  O  O80  1  0.28730240  0.14357637  0.18182098  1
  O  O81  1  0.21411611  0.36130361  0.31944459  1
  O  O82  1  0.32331832  0.82365465  0.68289698  1
  O  O83  1  0.32174790  0.46544499  0.68149481  1
  O  O84  1  0.18347802  0.67509801  0.31812588  1
  O  O85  1  0.17890751  0.03575678  0.31826408  1
  O  O86  1  0.28617675  0.14734867  0.68061234  1
  O  O87  1  0.21185376  0.35685699  0.81798606  1
  O  O88  1  0.06990493  0.57203082  0.43300743  1
  O  O89  1  0.07133754  0.21559407  0.43156608  1
  O  O90  1  0.17388878  0.68010554  0.81838574  1
  O  O91  1  0.17829148  0.03444752  0.81807999  1
  O  O92  1  0.03516566  0.89298929  0.43170263  1
  O  O93  1  0.06926505  0.57461568  0.93162071  1
  O  O94  1  0.07029271  0.21510646  0.93165318  1
  O  O95  1  0.04136198  0.89504580  0.93213477  1
