# generated using pymatgen
data_LiFeF4
_symmetry_space_group_name_H-M   'P 1'
_cell_length_a   5.10904800
_cell_length_b   7.93485150
_cell_length_c   5.40537747
_cell_angle_alpha   54.12639725
_cell_angle_beta   90.00000000
_cell_angle_gamma   71.21987998
_symmetry_Int_Tables_number   1
_chemical_formula_structural   LiFeF4
_chemical_formula_sum   'Li2 Fe2 F8'
_cell_volume   162.94920930
_cell_formula_units_Z   2
loop_
 _symmetry_equiv_pos_site_id
 _symmetry_equiv_pos_as_xyz
  1  'x, y, z'
loop_
 _atom_site_type_symbol
 _atom_site_label
 _atom_site_symmetry_multiplicity
 _atom_site_fract_x
 _atom_site_fract_y
 _atom_site_fract_z
 _atom_site_occupancy
  Li  Li0  1  0.07770498  0.00000000  0.75000000  1
  Li  Li1  1  0.92229502  0.00000000  0.25000000  1
  Fe  Fe2  1  0.50000000  0.50000000  0.50000000  1
  Fe  Fe3  1  -0.00000000  0.50000000  -0.00000000  1
  F  F4  1  0.97375647  0.80627100  0.70040637  1
  F  F5  1  0.64356036  0.59043486  0.72616324  1
  F  F6  1  0.21997353  0.80627100  0.20040637  1
  F  F7  1  0.76600578  0.59043486  0.22616324  1
  F  F8  1  0.23399422  0.40956514  0.77383676  1
  F  F9  1  0.78002647  0.19372900  0.79959363  1
  F  F10  1  0.35643964  0.40956514  0.27383676  1
  F  F11  1  0.02624353  0.19372900  0.29959363  1
