# generated using pymatgen
data_In10(Pb2S7)3
_symmetry_space_group_name_H-M   'P 1'
_cell_length_a   3.90571895
_cell_length_b   14.13168433
_cell_length_c   15.92224478
_cell_angle_alpha   95.32240779
_cell_angle_beta   90.00221437
_cell_angle_gamma   97.84020839
_symmetry_Int_Tables_number   1
_chemical_formula_structural   In10(Pb2S7)3
_chemical_formula_sum   'In10 Pb6 S21'
_cell_volume   866.77828597
_cell_formula_units_Z   1
loop_
 _symmetry_equiv_pos_site_id
 _symmetry_equiv_pos_as_xyz
  1  'x, y, z'
loop_
 _atom_site_type_symbol
 _atom_site_label
 _atom_site_symmetry_multiplicity
 _atom_site_fract_x
 _atom_site_fract_y
 _atom_site_fract_z
 _atom_site_occupancy
  In  In0  1  0.68844359  0.37769235  0.48500438  1
  In  In1  1  0.50992755  0.02627113  0.12896644  1
  In  In2  1  0.22152456  0.42930676  0.69186628  1
  In  In3  1  0.78668438  0.57067637  0.30649870  1
  In  In4  1  0.90357691  0.79896712  0.01769695  1
  In  In5  1  0.73256263  0.46891881  0.89262543  1
  In  In6  1  0.31139923  0.62411323  0.51403975  1
  In  In7  1  0.26128427  0.52805588  0.10622225  1
  In  In8  1  0.09776408  0.19785273  0.98124156  1
  In  In9  1  0.48040844  0.97306870  0.87077428  1
  Pb  Pb10  1  0.06924970  0.14808216  0.70582428  1
  Pb  Pb11  1  0.12759792  0.27293208  0.24124119  1
  Pb  Pb12  1  0.93260674  0.85038446  0.29590269  1
  Pb  Pb13  1  0.86373807  0.72287590  0.75626481  1
  Pb  Pb14  1  0.04560145  0.10051616  0.43032484  1
  Pb  Pb15  1  0.95323351  0.90177883  0.56966190  1
  S  S16  1  0.46988211  0.93110035  0.40779023  1
  S  S17  1  0.59940655  0.20340762  0.09572500  1
  S  S18  1  0.53144548  0.07002484  0.59164682  1
  S  S19  1  0.32565206  0.65487337  0.23635350  1
  S  S20  1  0.27717792  0.56109468  0.81175037  1
  S  S21  1  0.22876281  0.47328144  0.40213165  1
  S  S22  1  0.71853788  0.43760224  0.18755441  1
  S  S23  1  0.57971289  0.15729835  0.87340418  1
  S  S24  1  0.61504147  0.23888209  0.36762746  1
  S  S25  1  0.80043193  0.60727630  0.02251959  1
  S  S26  1  0.02304800  0.05162633  0.23576183  1
  S  S27  1  0.67890359  0.34432923  0.76126578  1
  S  S28  1  0.19288023  0.38994181  0.97623866  1
  S  S29  1  0.39925100  0.79592180  0.90324925  1
  S  S30  1  0.00524017  0.00042072  0.99971156  1
  S  S31  1  0.84685509  0.69842967  0.43371345  1
  S  S32  1  0.38119902  0.76206677  0.63170743  1
  S  S33  1  0.96913200  0.94840320  0.76371076  1
  S  S34  1  0.42659362  0.84220942  0.12491994  1
  S  S35  1  0.15243377  0.30264375  0.56426811  1
  S  S36  1  0.75505636  0.52870735  0.59766527  1
