# generated using pymatgen
data_Ba3La3Mn2(WO6)3
_symmetry_space_group_name_H-M   'P 1'
_cell_length_a   14.26996375
_cell_length_b   14.26996375
_cell_length_c   14.26996365
_cell_angle_alpha   23.56844383
_cell_angle_beta   23.56844383
_cell_angle_gamma   23.56844548
_symmetry_Int_Tables_number   1
_chemical_formula_structural   Ba3La3Mn2(WO6)3
_chemical_formula_sum   'Ba3 La3 Mn2 W3 O18'
_cell_volume   407.99868821
_cell_formula_units_Z   1
loop_
 _symmetry_equiv_pos_site_id
 _symmetry_equiv_pos_as_xyz
  1  'x, y, z'
loop_
 _atom_site_type_symbol
 _atom_site_label
 _atom_site_symmetry_multiplicity
 _atom_site_fract_x
 _atom_site_fract_y
 _atom_site_fract_z
 _atom_site_occupancy
  Ba  Ba0  1  0.08365890  0.08365890  0.08365890  1
  Ba  Ba1  1  0.80997265  0.80997265  0.80997265  1
  Ba  Ba2  1  0.91456253  0.91456253  0.91456253  1
  La  La3  1  0.17964646  0.17964646  0.17964646  1
  La  La4  1  0.36040911  0.36040911  0.36040911  1
  La  La5  1  0.63379847  0.63379847  0.63379847  1
  Mn  Mn6  1  0.27559133  0.27559133  0.27559133  1
  Mn  Mn7  1  0.72340563  0.72340563  0.72340563  1
  W  W8  1  0.00036033  0.00036033  0.00036033  1
  W  W9  1  0.44689199  0.44689199  0.44689199  1
  W  W10  1  0.55260010  0.55260010  0.55260010  1
  O  O11  1  0.14531840  0.14531840  0.63654435  1
  O  O12  1  0.14531840  0.63654435  0.14531840  1
  O  O13  1  0.63654435  0.14531840  0.14531840  1
  O  O14  1  0.11242016  0.57049963  0.57049963  1
  O  O15  1  0.57049963  0.57049963  0.11242016  1
  O  O16  1  0.57049963  0.11242016  0.57049963  1
  O  O17  1  0.30753604  0.80073874  0.30753604  1
  O  O18  1  0.30753604  0.30753604  0.80073874  1
  O  O19  1  0.80073874  0.30753604  0.30753604  1
  O  O20  1  0.20483872  0.69212736  0.69212736  1
  O  O21  1  0.69212736  0.69212736  0.20483872  1
  O  O22  1  0.69212736  0.20483872  0.69212736  1
  O  O23  1  0.43454697  0.88521552  0.43454697  1
  O  O24  1  0.43454697  0.43454697  0.88521552  1
  O  O25  1  0.88521552  0.43454697  0.43454697  1
  O  O26  1  0.35804040  0.86062391  0.86062391  1
  O  O27  1  0.86062391  0.35804040  0.86062391  1
  O  O28  1  0.86062391  0.86062391  0.35804040  1
