# generated using pymatgen
data_Ca(BH4)2
_symmetry_space_group_name_H-M   'P 1'
_cell_length_a   4.36195476
_cell_length_b   6.97886775
_cell_length_c   6.97886775
_cell_angle_alpha   90.00000000
_cell_angle_beta   90.00000000
_cell_angle_gamma   90.00000000
_symmetry_Int_Tables_number   1
_chemical_formula_structural   Ca(BH4)2
_chemical_formula_sum   'Ca2 B4 H16'
_cell_volume   212.44724031
_cell_formula_units_Z   2
loop_
 _symmetry_equiv_pos_site_id
 _symmetry_equiv_pos_as_xyz
  1  'x, y, z'
loop_
 _atom_site_type_symbol
 _atom_site_label
 _atom_site_symmetry_multiplicity
 _atom_site_fract_x
 _atom_site_fract_y
 _atom_site_fract_z
 _atom_site_occupancy
  Ca  Ca0  1  0.52259830  0.50000000  0.00000000  1
  Ca  Ca1  1  0.02259830  0.00000000  0.50000000  1
  B  B2  1  0.02253447  0.68363009  0.79838409  1
  B  B3  1  0.02253447  0.31636991  0.20161591  1
  B  B4  1  0.52253447  0.79838409  0.31636991  1
  B  B5  1  0.52253447  0.20161591  0.68363009  1
  H  H6  1  0.02291284  0.69511251  0.62317823  1
  H  H7  1  0.02291284  0.30488749  0.37682177  1
  H  H8  1  0.52291284  0.62317823  0.30488749  1
  H  H9  1  0.52291284  0.37682177  0.69511251  1
  H  H10  1  0.79570493  0.76110902  0.86635345  1
  H  H11  1  0.79570493  0.23889098  0.13364655  1
  H  H12  1  0.29570493  0.86635345  0.23889098  1
  H  H13  1  0.29570493  0.13364655  0.76110902  1
  H  H14  1  0.24894223  0.76123765  0.86676391  1
  H  H15  1  0.24894223  0.23876235  0.13323609  1
  H  H16  1  0.74894223  0.86676391  0.23876235  1
  H  H17  1  0.74894223  0.13323609  0.76123765  1
  H  H18  1  0.02260639  0.50993978  0.82859991  1
  H  H19  1  0.02260639  0.49006022  0.17140009  1
  H  H20  1  0.52260639  0.82859991  0.49006022  1
  H  H21  1  0.52260639  0.17140009  0.50993978  1
