# generated using pymatgen
data_Na2VCoF7
_symmetry_space_group_name_H-M   'P 1'
_cell_length_a   7.42805198
_cell_length_b   7.42805198
_cell_length_c   24.95117990
_cell_angle_alpha   90.14316764
_cell_angle_beta   98.51861807
_cell_angle_gamma   119.60569319
_symmetry_Int_Tables_number   1
_chemical_formula_structural   Na2VCoF7
_chemical_formula_sum   'Na16 V8 Co8 F56'
_cell_volume   1179.17142648
_cell_formula_units_Z   8
loop_
 _symmetry_equiv_pos_site_id
 _symmetry_equiv_pos_as_xyz
  1  'x, y, z'
loop_
 _atom_site_type_symbol
 _atom_site_label
 _atom_site_symmetry_multiplicity
 _atom_site_fract_x
 _atom_site_fract_y
 _atom_site_fract_z
 _atom_site_occupancy
  Na  Na0  1  0.50000000  -0.00000000  0.50000000  1
  Na  Na1  1  0.00000000  -0.00000000  0.00000000  1
  Na  Na2  1  0.00000000  0.50000000  0.50000000  1
  Na  Na3  1  0.50000000  0.50000000  0.00000000  1
  Na  Na4  1  0.00000000  0.50000000  0.00000000  1
  Na  Na5  1  0.00000000  -0.00000000  0.50000000  1
  Na  Na6  1  0.52825261  0.77825261  0.75000000  1
  Na  Na7  1  0.47174739  0.22174739  0.25000000  1
  Na  Na8  1  0.53791486  0.29262978  0.75186444  1
  Na  Na9  1  0.04076534  0.78605042  0.74813556  1
  Na  Na10  1  0.46208514  0.70737022  0.24813556  1
  Na  Na11  1  0.95923466  0.21394958  0.25186444  1
  Na  Na12  1  0.75623212  0.88231258  0.62170850  1
  Na  Na13  1  0.76060408  0.13452362  0.87829150  1
  Na  Na14  1  0.24376788  0.11768742  0.37829150  1
  Na  Na15  1  0.23939592  0.86547638  0.12170850  1
  V  V16  1  0.50000000  0.50000000  0.50000000  1
  V  V17  1  0.50000000  -0.00000000  0.00000000  1
  V  V18  1  0.99667063  0.24667063  0.75000000  1
  V  V19  1  0.00332937  0.75332937  0.25000000  1
  V  V20  1  0.26130407  0.88801328  0.62576611  1
  V  V21  1  0.76224717  0.63553795  0.87423389  1
  V  V22  1  0.73869593  0.11198672  0.37423389  1
  V  V23  1  0.23775283  0.36446205  0.12576611  1
  Co  Co24  1  0.25858194  0.38577111  0.62766759  1
  Co  Co25  1  0.25810351  0.63091435  0.87233241  1
  Co  Co26  1  0.74141806  0.61422889  0.37233241  1
  Co  Co27  1  0.74189649  0.36908565  0.12766759  1
  Co  Co28  1  0.75974316  0.38687043  0.62620605  1
  Co  Co29  1  0.26066438  0.13353711  0.87379395  1
  Co  Co30  1  0.24025684  0.61312957  0.37379395  1
  Co  Co31  1  0.73933562  0.86646289  0.12620605  1
  F  F32  1  0.28545325  0.41472763  0.54693703  1
  F  F33  1  0.36779060  0.73851622  0.95306297  1
  F  F34  1  0.71454675  0.58527237  0.45306297  1
  F  F35  1  0.63220940  0.26148378  0.04693703  1
  F  F36  1  0.23641454  0.36364678  0.70937438  1
  F  F37  1  0.15427241  0.52704016  0.79062562  1
  F  F38  1  0.76358546  0.63635322  0.29062562  1
  F  F39  1  0.84572759  0.47295984  0.20937438  1
  F  F40  1  0.37251777  0.69865032  0.64221585  1
  F  F41  1  0.55643447  0.73030193  0.85778415  1
  F  F42  1  0.62748223  0.30134968  0.35778415  1
  F  F43  1  0.44356553  0.26969807  0.14221585  1
  F  F44  1  0.14664051  0.07494846  0.61029058  1
  F  F45  1  0.96465788  0.53634993  0.88970942  1
  F  F46  1  0.85335949  0.92505154  0.38970942  1
  F  F47  1  0.03534212  0.46365007  0.11029058  1
  F  F48  1  0.68352036  0.41518329  0.54560850  1
  F  F49  1  0.36957479  0.13791186  0.95439150  1
  F  F50  1  0.31647964  0.58481671  0.45439150  1
  F  F51  1  0.63042521  0.86208814  0.04560850  1
  F  F52  1  0.84040533  0.36656276  0.70623926  1
  F  F53  1  0.16032349  0.13416607  0.79376074  1
  F  F54  1  0.15959467  0.63343724  0.29376074  1
  F  F55  1  0.83967651  0.86583393  0.20623926  1
  F  F56  1  0.54572170  0.07583772  0.60917654  1
  F  F57  1  0.96666118  0.93654516  0.89082346  1
  F  F58  1  0.45427830  0.92416228  0.39082346  1
  F  F59  1  0.03333882  0.06345484  0.10917654  1
  F  F60  1  0.97589485  0.69783275  0.64168973  1
  F  F61  1  0.55614301  0.33420512  0.85831027  1
  F  F62  1  0.02410515  0.30216725  0.35831027  1
  F  F63  1  0.44385699  0.66579488  0.14168973  1
  F  F64  1  0.56036377  0.46296108  0.65387047  1
  F  F65  1  0.30909061  0.90649330  0.84612953  1
  F  F66  1  0.43963623  0.53703892  0.34612953  1
  F  F67  1  0.69090939  0.09350670  0.15387047  1
  F  F68  1  0.95764201  0.30715472  0.59964160  1
  F  F69  1  0.20751312  0.35800041  0.90035840  1
  F  F70  1  0.04235799  0.69284528  0.40035840  1
  F  F71  1  0.79248688  0.64199959  0.09964160  1
  F  F72  1  0.66254119  0.79448275  0.53271338  1
  F  F73  1  0.76176937  0.12982780  0.96728662  1
  F  F74  1  0.33745881  0.20551725  0.46728662  1
  F  F75  1  0.23823063  0.87017220  0.03271338  1
  F  F76  1  0.76358758  0.13798711  0.79101799  1
  F  F77  1  0.84696912  0.97256959  0.70898201  1
  F  F78  1  0.23641242  0.86201289  0.20898201  1
  F  F79  1  0.15303088  0.02743041  0.29101799  1
  F  F80  1  0.34267364  0.96907688  0.70576456  1
  F  F81  1  0.76331232  0.63690908  0.79423544  1
  F  F82  1  0.65732636  0.03092312  0.29423544  1
  F  F83  1  0.23668768  0.36309092  0.20576456  1
  F  F84  1  0.18186122  0.81122475  0.54557313  1
  F  F85  1  0.76565162  0.63628808  0.95442687  1
  F  F86  1  0.81813878  0.18877525  0.45442687  1
  F  F87  1  0.23434838  0.36371192  0.04557313  1
