# generated using pymatgen
data_Cs3DyO3
_symmetry_space_group_name_H-M   'P 1'
_cell_length_a   7.56464215
_cell_length_b   15.10839017
_cell_length_c   14.27348926
_cell_angle_alpha   90.00000000
_cell_angle_beta   91.60118876
_cell_angle_gamma   90.00000000
_symmetry_Int_Tables_number   1
_chemical_formula_structural   Cs3DyO3
_chemical_formula_sum   'Cs24 Dy8 O24'
_cell_volume   1630.67391087
_cell_formula_units_Z   8
loop_
 _symmetry_equiv_pos_site_id
 _symmetry_equiv_pos_as_xyz
  1  'x, y, z'
loop_
 _atom_site_type_symbol
 _atom_site_label
 _atom_site_symmetry_multiplicity
 _atom_site_fract_x
 _atom_site_fract_y
 _atom_site_fract_z
 _atom_site_occupancy
  Cs  Cs0  1  0.12232070  0.04541490  0.63656771  1
  Cs  Cs1  1  0.14222529  0.31174935  0.73309617  1
  Cs  Cs2  1  0.17834710  0.80250184  0.54008113  1
  Cs  Cs3  1  0.12232070  0.45458510  0.13656771  1
  Cs  Cs4  1  0.14222529  0.18825065  0.23309617  1
  Cs  Cs5  1  0.17834710  0.69749816  0.04008113  1
  Cs  Cs6  1  0.32147720  0.19749904  0.95983913  1
  Cs  Cs7  1  0.35776994  0.68824034  0.76687566  1
  Cs  Cs8  1  0.37777703  0.95447672  0.86348308  1
  Cs  Cs9  1  0.32147720  0.30250096  0.45983913  1
  Cs  Cs10  1  0.35776994  0.81175966  0.26687566  1
  Cs  Cs11  1  0.37777703  0.54552328  0.36348308  1
  Cs  Cs12  1  0.62222297  0.45447672  0.63651692  1
  Cs  Cs13  1  0.64223006  0.18824034  0.73312434  1
  Cs  Cs14  1  0.67852280  0.69749904  0.54016087  1
  Cs  Cs15  1  0.62222297  0.04552328  0.13651692  1
  Cs  Cs16  1  0.64223006  0.31175966  0.23312434  1
  Cs  Cs17  1  0.67852280  0.80250096  0.04016087  1
  Cs  Cs18  1  0.82165290  0.30250184  0.95991887  1
  Cs  Cs19  1  0.85777471  0.81174935  0.76690383  1
  Cs  Cs20  1  0.87767930  0.54541490  0.86343229  1
  Cs  Cs21  1  0.82165290  0.19749816  0.45991887  1
  Cs  Cs22  1  0.85777471  0.68825065  0.26690383  1
  Cs  Cs23  1  0.87767930  0.95458510  0.36343229  1
  Dy  Dy24  1  0.09408253  0.55948081  0.58183270  1
  Dy  Dy25  1  0.09408253  0.94051919  0.08183270  1
  Dy  Dy26  1  0.40592100  0.44036968  0.91821543  1
  Dy  Dy27  1  0.40592100  0.05963032  0.41821543  1
  Dy  Dy28  1  0.59407900  0.94036968  0.58178457  1
  Dy  Dy29  1  0.59407900  0.55963032  0.08178457  1
  Dy  Dy30  1  0.90591747  0.05948081  0.91816730  1
  Dy  Dy31  1  0.90591747  0.44051919  0.41816730  1
  O  O32  1  0.02103697  0.41751204  0.55889543  1
  O  O33  1  0.04935166  0.13480127  0.81849693  1
  O  O34  1  0.02103697  0.08248796  0.05889543  1
  O  O35  1  0.04935166  0.36519873  0.31849693  1
  O  O36  1  0.13275003  0.40494708  0.90862927  1
  O  O37  1  0.13275003  0.09505292  0.40862927  1
  O  O38  1  0.36719357  0.59491833  0.59142201  1
  O  O39  1  0.36719357  0.90508167  0.09142201  1
  O  O40  1  0.45039985  0.86515126  0.68138245  1
  O  O41  1  0.47886046  0.58246568  0.94106669  1
  O  O42  1  0.45039985  0.63484874  0.18138245  1
  O  O43  1  0.47886046  0.91753432  0.44106669  1
  O  O44  1  0.52113954  0.08246568  0.55893331  1
  O  O45  1  0.54960015  0.36515126  0.81861755  1
  O  O46  1  0.52113954  0.41753432  0.05893331  1
  O  O47  1  0.54960015  0.13484874  0.31861755  1
  O  O48  1  0.63280643  0.09491833  0.90857799  1
  O  O49  1  0.63280643  0.40508167  0.40857799  1
  O  O50  1  0.86724997  0.90494708  0.59137073  1
  O  O51  1  0.86724997  0.59505292  0.09137073  1
  O  O52  1  0.95064834  0.63480127  0.68150307  1
  O  O53  1  0.97896303  0.91751204  0.94110457  1
  O  O54  1  0.95064834  0.86519873  0.18150307  1
  O  O55  1  0.97896303  0.58248796  0.44110457  1
