# generated using pymatgen
data_MnZn2Si(HO3)2
_symmetry_space_group_name_H-M   'P 1'
_cell_length_a   8.31242792
_cell_length_b   5.35737308
_cell_length_c   11.98641094
_cell_angle_alpha   90.00000000
_cell_angle_beta   96.02008523
_cell_angle_gamma   90.00000000
_symmetry_Int_Tables_number   1
_chemical_formula_structural   MnZn2Si(HO3)2
_chemical_formula_sum   'Mn4 Zn8 Si4 H8 O24'
_cell_volume   530.84443287
_cell_formula_units_Z   4
loop_
 _symmetry_equiv_pos_site_id
 _symmetry_equiv_pos_as_xyz
  1  'x, y, z'
loop_
 _atom_site_type_symbol
 _atom_site_label
 _atom_site_symmetry_multiplicity
 _atom_site_fract_x
 _atom_site_fract_y
 _atom_site_fract_z
 _atom_site_occupancy
  Mn  Mn0  1  0.60699376  0.25400847  0.54414967  1
  Mn  Mn1  1  0.89300624  0.75400847  0.45585033  1
  Mn  Mn2  1  0.39300624  0.74599153  0.45585033  1
  Mn  Mn3  1  0.10699376  0.24599153  0.54414967  1
  Zn  Zn4  1  0.76926104  0.43426464  0.07976030  1
  Zn  Zn5  1  0.73073896  0.93426464  0.92023970  1
  Zn  Zn6  1  0.23073896  0.56573536  0.92023970  1
  Zn  Zn7  1  0.26926104  0.06573536  0.07976030  1
  Zn  Zn8  1  0.10910826  0.43595388  0.24946226  1
  Zn  Zn9  1  0.39089174  0.93595388  0.75053774  1
  Zn  Zn10  1  0.89089174  0.56404612  0.75053774  1
  Zn  Zn11  1  0.60910826  0.06404612  0.24946226  1
  Si  Si12  1  0.57049505  0.43267944  0.82887063  1
  Si  Si13  1  0.92950495  0.93267944  0.17112937  1
  Si  Si14  1  0.42950495  0.56732056  0.17112937  1
  Si  Si15  1  0.07049505  0.06732056  0.82887063  1
  H  H16  1  0.91113188  0.28086828  0.36042048  1
  H  H17  1  0.58886812  0.78086828  0.63957952  1
  H  H18  1  0.08886812  0.71913172  0.63957952  1
  H  H19  1  0.41113188  0.21913172  0.36042048  1
  H  H20  1  0.36162204  0.45396794  0.63318963  1
  H  H21  1  0.13837796  0.95396794  0.36681037  1
  H  H22  1  0.63837796  0.54603206  0.36681037  1
  H  H23  1  0.86162204  0.04603206  0.63318963  1
  O  O24  1  0.60611425  0.42319576  0.19222341  1
  O  O25  1  0.89388575  0.92319576  0.80777659  1
  O  O26  1  0.39388575  0.57680424  0.80777659  1
  O  O27  1  0.10611425  0.07680424  0.19222341  1
  O  O28  1  0.66484507  0.46243007  0.71488322  1
  O  O29  1  0.83515493  0.96243007  0.28511678  1
  O  O30  1  0.33515493  0.53756993  0.28511678  1
  O  O31  1  0.16484507  0.03756993  0.71488322  1
  O  O32  1  0.31657026  0.42960254  0.06652439  1
  O  O33  1  0.18342974  0.92960254  0.93347561  1
  O  O34  1  0.68342974  0.57039746  0.93347561  1
  O  O35  1  0.81657026  0.07039746  0.06652439  1
  O  O36  1  0.04142980  0.36293814  0.85985794  1
  O  O37  1  0.45857020  0.86293814  0.14014206  1
  O  O38  1  0.95857020  0.63706186  0.14014206  1
  O  O39  1  0.54142980  0.13706186  0.85985794  1
  O  O40  1  0.99057381  0.41246626  0.38294462  1
  O  O41  1  0.50942619  0.91246626  0.61705538  1
  O  O42  1  0.00942619  0.58753374  0.61705538  1
  O  O43  1  0.49057381  0.08753374  0.38294462  1
  O  O44  1  0.34988012  0.40525323  0.55381164  1
  O  O45  1  0.15011988  0.90525323  0.44618836  1
  O  O46  1  0.65011988  0.59474677  0.44618836  1
  O  O47  1  0.84988012  0.09474677  0.55381164  1
