# generated using pymatgen
data_K2Zn2O3
_symmetry_space_group_name_H-M   'P 1'
_cell_length_a   5.96555735
_cell_length_b   6.34892208
_cell_length_c   6.33362151
_cell_angle_alpha   90.00000000
_cell_angle_beta   113.54711853
_cell_angle_gamma   90.00000000
_symmetry_Int_Tables_number   1
_chemical_formula_structural   K2Zn2O3
_chemical_formula_sum   'K4 Zn4 O6'
_cell_volume   219.91023684
_cell_formula_units_Z   2
loop_
 _symmetry_equiv_pos_site_id
 _symmetry_equiv_pos_as_xyz
  1  'x, y, z'
loop_
 _atom_site_type_symbol
 _atom_site_label
 _atom_site_symmetry_multiplicity
 _atom_site_fract_x
 _atom_site_fract_y
 _atom_site_fract_z
 _atom_site_occupancy
  K  K0  1  0.19275752  0.63323473  0.93165663  1
  K  K1  1  0.19275752  0.86676527  0.43165663  1
  K  K2  1  0.80724248  0.13323473  0.56834337  1
  K  K3  1  0.80724248  0.36676527  0.06834337  1
  Zn  Zn4  1  0.32874704  0.38634434  0.56715570  1
  Zn  Zn5  1  0.67125296  0.88634434  0.93284430  1
  Zn  Zn6  1  0.32874704  0.11365566  0.06715570  1
  Zn  Zn7  1  0.67125296  0.61365566  0.43284430  1
  O  O8  1  -0.00000000  0.50000000  0.50000000  1
  O  O9  1  -0.00000000  0.00000000  0.00000000  1
  O  O10  1  0.41488843  0.13787874  0.79034854  1
  O  O11  1  0.58511157  0.63787874  0.70965146  1
  O  O12  1  0.41488843  0.36212126  0.29034854  1
  O  O13  1  0.58511157  0.86212126  0.20965146  1
