# generated using pymatgen
data_Er3Co11B4
_symmetry_space_group_name_H-M   'P 1'
_cell_length_a   4.99756200
_cell_length_b   4.99756214
_cell_length_c   9.74310533
_cell_angle_alpha   90.00045758
_cell_angle_beta   90.00045755
_cell_angle_gamma   119.99589864
_symmetry_Int_Tables_number   1
_chemical_formula_structural   Er3Co11B4
_chemical_formula_sum   'Er3 Co11 B4'
_cell_volume   210.74747021
_cell_formula_units_Z   1
loop_
 _symmetry_equiv_pos_site_id
 _symmetry_equiv_pos_as_xyz
  1  'x, y, z'
loop_
 _atom_site_type_symbol
 _atom_site_label
 _atom_site_symmetry_multiplicity
 _atom_site_fract_x
 _atom_site_fract_y
 _atom_site_fract_z
 _atom_site_occupancy
  Er  Er0  1  0.00000950  0.00000950  0.99992241  1
  Er  Er1  1  0.00000939  0.00000939  0.65774160  1
  Er  Er2  1  -0.00000871  -0.00000871  0.34234051  1
  Co  Co3  1  0.66655187  0.33349919  0.99993506  1
  Co  Co4  1  0.33349919  0.66655187  0.99993506  1
  Co  Co5  1  0.49999701  0.49999701  0.50003838  1
  Co  Co6  1  0.50000218  0.99999852  0.49998540  1
  Co  Co7  1  0.99999852  0.50000218  0.49998540  1
  Co  Co8  1  0.50000077  0.50000077  0.79839463  1
  Co  Co9  1  0.50000929  0.00001582  0.79843895  1
  Co  Co10  1  0.00001582  0.50000929  0.79843895  1
  Co  Co11  1  0.50000291  0.50000291  0.20159003  1
  Co  Co12  1  0.49999701  0.99999204  0.20155426  1
  Co  Co13  1  0.99999204  0.49999701  0.20155426  1
  B  B14  1  0.66669408  0.33333320  0.65025766  1
  B  B15  1  0.33333320  0.66669408  0.65025766  1
  B  B16  1  0.33331930  0.66667663  0.34981488  1
  B  B17  1  0.66667663  0.33331930  0.34981488  1
