# generated using pymatgen
data_BaNaY(BO3)2
_symmetry_space_group_name_H-M   'P 1'
_cell_length_a   12.49739068
_cell_length_b   12.49740491
_cell_length_c   12.49739949
_cell_angle_alpha   25.05506721
_cell_angle_beta   25.05536152
_cell_angle_gamma   25.05529870
_symmetry_Int_Tables_number   1
_chemical_formula_structural   BaNaY(BO3)2
_chemical_formula_sum   'Ba2 Na2 Y2 B4 O12'
_cell_volume   307.99321886
_cell_formula_units_Z   2
loop_
 _symmetry_equiv_pos_site_id
 _symmetry_equiv_pos_as_xyz
  1  'x, y, z'
loop_
 _atom_site_type_symbol
 _atom_site_label
 _atom_site_symmetry_multiplicity
 _atom_site_fract_x
 _atom_site_fract_y
 _atom_site_fract_z
 _atom_site_occupancy
  Ba  Ba0  1  0.89819904  0.89819998  0.89819905  1
  Ba  Ba1  1  0.10178944  0.10180290  0.10179670  1
  Na  Na2  1  0.61468331  0.61476093  0.61476196  1
  Na  Na3  1  0.38531999  0.38523574  0.38523130  1
  Y  Y4  1  0.00000078  -0.00000131  0.00000040  1
  Y  Y5  1  0.49998212  0.50000318  0.50000438  1
  B  B6  1  0.29333726  0.29332537  0.29332230  1
  B  B7  1  0.70666218  0.70667698  0.70667785  1
  B  B8  1  0.20601981  0.20601592  0.20601472  1
  B  B9  1  0.79395944  0.79398706  0.79398468  1
  O  O10  1  0.13125852  0.15929096  0.58946913  1
  O  O11  1  0.15931869  0.58946440  0.13123563  1
  O  O12  1  0.58948248  0.13123699  0.15929568  1
  O  O13  1  0.86873951  0.84070904  0.41053491  1
  O  O14  1  0.84068191  0.41053352  0.86876729  1
  O  O15  1  0.41051787  0.86876342  0.84070480  1
  O  O16  1  0.35406813  0.35367061  0.91072702  1
  O  O17  1  0.35368051  0.91072797  0.35405779  1
  O  O18  1  0.91073443  0.35405636  0.35366739  1
  O  O19  1  0.64591588  0.64632930  0.08927154  1
  O  O20  1  0.64630649  0.08926753  0.64594221  1
  O  O21  1  0.08924222  0.64594317  0.64633327  1
