# generated using pymatgen
data_DyScS3
_symmetry_space_group_name_H-M   'P 1'
_cell_length_a   7.00207841
_cell_length_b   6.36500194
_cell_length_c   9.55935516
_cell_angle_alpha   90.00000000
_cell_angle_beta   90.00000000
_cell_angle_gamma   90.00000000
_symmetry_Int_Tables_number   1
_chemical_formula_structural   DyScS3
_chemical_formula_sum   'Dy4 Sc4 S12'
_cell_volume   426.04366048
_cell_formula_units_Z   4
loop_
 _symmetry_equiv_pos_site_id
 _symmetry_equiv_pos_as_xyz
  1  'x, y, z'
loop_
 _atom_site_type_symbol
 _atom_site_label
 _atom_site_symmetry_multiplicity
 _atom_site_fract_x
 _atom_site_fract_y
 _atom_site_fract_z
 _atom_site_occupancy
  Dy  Dy0  1  0.89582958  0.95805560  0.50905684  1
  Dy  Dy1  1  0.39583058  0.54194440  0.50905684  1
  Dy  Dy2  1  0.10416942  0.04194440  0.00905584  1
  Dy  Dy3  1  0.60417142  0.45805560  0.00905584  1
  Sc  Sc4  1  0.99997807  0.49989488  0.25896920  1
  Sc  Sc5  1  0.00002393  0.50010812  0.75896820  1
  Sc  Sc6  1  0.49997607  0.00010812  0.25896920  1
  Sc  Sc7  1  0.50002293  -0.00010712  0.75896820  1
  S  S8  1  0.18262140  0.82655456  0.68824282  1
  S  S9  1  0.68262140  0.67344444  0.68824282  1
  S  S10  1  0.31737860  0.32655456  0.18824182  1
  S  S11  1  0.81763707  0.17337332  0.82974121  1
  S  S12  1  0.04650823  0.35537184  0.50899293  1
  S  S13  1  0.95349177  0.64462916  0.00899293  1
  S  S14  1  0.81737860  0.17344444  0.18824182  1
  S  S15  1  0.18236493  0.82662568  0.32974121  1
  S  S16  1  0.68236393  0.67337332  0.32974121  1
  S  S17  1  0.31763507  0.32662668  0.82974121  1
  S  S18  1  0.45349177  0.85537184  0.00899293  1
  S  S19  1  0.54650923  0.14463016  0.50899293  1
