# generated using pymatgen
data_DyYMg2
_symmetry_space_group_name_H-M   'P 1'
_cell_length_a   5.37122136
_cell_length_b   5.37173261
_cell_length_c   5.37239463
_cell_angle_alpha   59.98641141
_cell_angle_beta   59.99701524
_cell_angle_gamma   60.00906626
_symmetry_Int_Tables_number   1
_chemical_formula_structural   DyYMg2
_chemical_formula_sum   'Dy1 Y1 Mg2'
_cell_volume   109.60129150
_cell_formula_units_Z   1
loop_
 _symmetry_equiv_pos_site_id
 _symmetry_equiv_pos_as_xyz
  1  'x, y, z'
loop_
 _atom_site_type_symbol
 _atom_site_label
 _atom_site_symmetry_multiplicity
 _atom_site_fract_x
 _atom_site_fract_y
 _atom_site_fract_z
 _atom_site_occupancy
  Dy  Dy0  1  0.25000031  0.25000241  0.25000046  1
  Y  Y1  1  0.75000016  0.74999924  0.74999886  1
  Mg  Mg2  1  0.00000076  -0.00000108  0.99999964  1
  Mg  Mg3  1  0.49999877  0.49999943  0.50000103  1
