# generated using pymatgen
data_BaYbCo4O7
_symmetry_space_group_name_H-M   'P 1'
_cell_length_a   6.37815655
_cell_length_b   6.33644110
_cell_length_c   10.33190839
_cell_angle_alpha   89.61073040
_cell_angle_beta   90.77346491
_cell_angle_gamma   120.21801708
_symmetry_Int_Tables_number   1
_chemical_formula_structural   BaYbCo4O7
_chemical_formula_sum   'Ba2 Yb2 Co8 O14'
_cell_volume   360.78949905
_cell_formula_units_Z   2
loop_
 _symmetry_equiv_pos_site_id
 _symmetry_equiv_pos_as_xyz
  1  'x, y, z'
loop_
 _atom_site_type_symbol
 _atom_site_label
 _atom_site_symmetry_multiplicity
 _atom_site_fract_x
 _atom_site_fract_y
 _atom_site_fract_z
 _atom_site_occupancy
  Ba  Ba0  1  0.66164138  0.32774881  0.01571586  1
  Ba  Ba1  1  0.33389257  0.67225119  0.51571586  1
  Yb  Yb2  1  0.66994485  0.33804672  0.62678637  1
  Yb  Yb3  1  0.33189812  0.66195328  0.12678637  1
  Co  Co4  1  0.99215957  0.99201353  0.06308532  1
  Co  Co5  1  0.00014604  0.00798647  0.56308532  1
  Co  Co6  1  0.15739524  0.81274029  0.82096724  1
  Co  Co7  1  0.66256588  0.85778796  0.82231389  1
  Co  Co8  1  0.20190836  0.34535165  0.81928776  1
  Co  Co9  1  0.34465496  0.18725971  0.32096724  1
  Co  Co10  1  0.80477792  0.14221204  0.32231389  1
  Co  Co11  1  0.85655671  0.65464835  0.31928776  1
  O  O12  1  0.50861286  0.52722909  0.75064397  1
  O  O13  1  0.02711015  0.49189821  0.74756703  1
  O  O14  1  0.46318621  0.99322369  0.75451391  1
  O  O15  1  0.98138377  0.47277091  0.25064397  1
  O  O16  1  0.53521195  0.50810179  0.24756703  1
  O  O17  1  0.46996251  0.00677631  0.25451391  1
  O  O18  1  0.00395601  0.99680485  0.26095741  1
  O  O19  1  0.00715116  0.00319515  0.76095741  1
  O  O20  1  0.08566967  0.76027748  -0.00434409  1
  O  O21  1  0.67312682  0.91154590  0.00728820  1
  O  O22  1  0.22931173  0.31830929  0.99611714  1
  O  O23  1  0.32539219  0.23972252  0.49565591  1
  O  O24  1  0.76158092  0.08845410  0.50728820  1
  O  O25  1  0.91100244  0.68169071  0.49611714  1
