# generated using pymatgen
data_Ce8Fe8As8O7F
_symmetry_space_group_name_H-M   'P 1'
_cell_length_a   7.95222075
_cell_length_b   7.95222105
_cell_length_c   10.56299896
_cell_angle_alpha   67.86909992
_cell_angle_beta   67.86909213
_cell_angle_gamma   89.95353866
_symmetry_Int_Tables_number   1
_chemical_formula_structural   Ce8Fe8As8O7F
_chemical_formula_sum   'Ce8 Fe8 As8 O7 F1'
_cell_volume   565.37701456
_cell_formula_units_Z   1
loop_
 _symmetry_equiv_pos_site_id
 _symmetry_equiv_pos_as_xyz
  1  'x, y, z'
loop_
 _atom_site_type_symbol
 _atom_site_label
 _atom_site_symmetry_multiplicity
 _atom_site_fract_x
 _atom_site_fract_y
 _atom_site_fract_z
 _atom_site_occupancy
  Ce  Ce0  1  0.06150958  0.55155900  0.14814649  1
  Ce  Ce1  1  0.05555473  0.05575593  0.13896366  1
  Ce  Ce2  1  0.54034393  0.55029451  0.14814649  1
  Ce  Ce3  1  0.55548161  0.05528041  0.13896366  1
  Ce  Ce4  1  0.44471959  0.94451840  0.86103634  1
  Ce  Ce5  1  0.44424407  0.44444527  0.86103634  1
  Ce  Ce6  1  0.94970548  0.95965607  0.85185351  1
  Ce  Ce7  1  0.94844100  0.43849042  0.85185351  1
  Fe  Fe8  1  0.12453381  0.87453381  0.50093238  1
  Fe  Fe9  1  0.12500000  0.37500000  0.50000000  1
  Fe  Fe10  1  0.37848581  0.62848581  0.50000000  1
  Fe  Fe11  1  0.37715700  0.12284300  0.50000000  1
  Fe  Fe12  1  0.62500000  0.87500000  0.50000000  1
  Fe  Fe13  1  0.62546619  0.37546619  0.49906762  1
  Fe  Fe14  1  0.87284300  0.62715700  0.50000000  1
  Fe  Fe15  1  0.87151419  0.12151419  0.50000000  1
  As  As16  1  0.21862864  0.71827752  0.31416006  1
  As  As17  1  0.21721131  0.21756242  0.31416006  1
  As  As18  1  0.27921503  0.78008266  0.68971193  1
  As  As19  1  0.28243758  0.28278869  0.68583994  1
  As  As20  1  0.71979459  0.71892696  0.31028807  1
  As  As21  1  0.71991734  0.22078497  0.31028807  1
  As  As22  1  0.78107304  0.78020541  0.68971193  1
  As  As23  1  0.78172248  0.28137136  0.68583994  1
  O  O24  1  0.12202575  0.87202575  0.00000000  1
  O  O25  1  0.12176148  0.37823852  0.00000000  1
  O  O26  1  0.37357239  0.62357239  0.00285522  1
  O  O27  1  0.37500000  0.12500000  0.00000000  1
  O  O28  1  0.62823852  0.87176148  1.00000000  1
  O  O29  1  0.62797425  0.37797425  1.00000000  1
  O  O30  1  0.87642761  0.12642761  0.99714478  1
  F  F31  1  0.87500000  0.62500000  0.00000000  1
