# generated using pymatgen
data_V10O9
_symmetry_space_group_name_H-M   'P 1'
_cell_length_a   5.31739560
_cell_length_b   6.93728512
_cell_length_c   6.24378225
_cell_angle_alpha   103.21873023
_cell_angle_beta   106.78972295
_cell_angle_gamma   97.23682162
_symmetry_Int_Tables_number   1
_chemical_formula_structural   V10O9
_chemical_formula_sum   'V10 O9'
_cell_volume   210.05609771
_cell_formula_units_Z   1
loop_
 _symmetry_equiv_pos_site_id
 _symmetry_equiv_pos_as_xyz
  1  'x, y, z'
loop_
 _atom_site_type_symbol
 _atom_site_label
 _atom_site_symmetry_multiplicity
 _atom_site_fract_x
 _atom_site_fract_y
 _atom_site_fract_z
 _atom_site_occupancy
  V  V0  1  0.00774188  0.99705389  0.99800052  1
  V  V1  1  0.79281107  0.59917868  0.10095024  1
  V  V2  1  0.19120218  0.40247599  0.40878778  1
  V  V3  1  0.61254460  0.19999909  0.69369449  1
  V  V4  1  0.99730898  0.01025982  0.50176227  1
  V  V5  1  0.80018852  0.58683061  0.59633217  1
  V  V6  1  0.18516089  0.39069899  0.88605944  1
  V  V7  1  0.61163560  0.20728372  0.21149909  1
  V  V8  1  0.40345932  0.80091375  0.79973652  1
  V  V9  1  0.39637712  0.80339209  0.30056024  1
  O  O10  1  0.10094379  0.69531202  0.94829868  1
  O  O11  1  0.70152066  0.90196949  0.15010533  1
  O  O12  1  0.29827723  0.10593623  0.35163590  1
  O  O13  1  0.50007487  0.49729051  0.75124070  1
  O  O14  1  0.09562432  0.70626252  0.45123719  1
  O  O15  1  0.70365383  0.89434887  0.64847085  1
  O  O16  1  0.31257480  0.10270754  0.85221713  1
  O  O17  1  0.48796309  0.49961557  0.24822656  1
  O  O18  1  0.90093728  0.29847062  0.05118491  1
