# generated using pymatgen
data_MgNi2
_symmetry_space_group_name_H-M   'P 1'
_cell_length_a   4.81157388
_cell_length_b   4.81157517
_cell_length_c   4.81838132
_cell_angle_alpha   119.95705008
_cell_angle_beta   60.04295507
_cell_angle_gamma   120.00434162
_symmetry_Int_Tables_number   1
_chemical_formula_structural   MgNi2
_chemical_formula_sum   'Mg2 Ni4'
_cell_volume   78.92743384
_cell_formula_units_Z   2
loop_
 _symmetry_equiv_pos_site_id
 _symmetry_equiv_pos_as_xyz
  1  'x, y, z'
loop_
 _atom_site_type_symbol
 _atom_site_label
 _atom_site_symmetry_multiplicity
 _atom_site_fract_x
 _atom_site_fract_y
 _atom_site_fract_z
 _atom_site_occupancy
  Mg  Mg0  1  0.87491059  0.45842269  0.37527210  1
  Mg  Mg1  1  0.12508869  0.20824159  0.62472790  1
  Ni  Ni2  1  0.50242356  0.33333427  0.00000110  1
  Ni  Ni3  1  0.49757519  0.83090719  0.00000000  1
  Ni  Ni4  1  0.50000071  0.83333471  0.49999900  1
  Ni  Ni5  1  0.00000127  0.83575756  0.99999890  1
