# generated using pymatgen
data_Hg
_symmetry_space_group_name_H-M   'P 1'
_cell_length_a   3.59268676
_cell_length_b   3.59267800
_cell_length_c   11.47808706
_cell_angle_alpha   90.00008976
_cell_angle_beta   90.00005810
_cell_angle_gamma   119.98898507
_symmetry_Int_Tables_number   1
_chemical_formula_structural   Hg
_chemical_formula_sum   Hg4
_cell_volume   128.31752890
_cell_formula_units_Z   4
loop_
 _symmetry_equiv_pos_site_id
 _symmetry_equiv_pos_as_xyz
  1  'x, y, z'
loop_
 _atom_site_type_symbol
 _atom_site_label
 _atom_site_symmetry_multiplicity
 _atom_site_fract_x
 _atom_site_fract_y
 _atom_site_fract_z
 _atom_site_occupancy
  Hg  Hg0  1  0.00000030  0.99999908  0.00000205  1
  Hg  Hg1  1  0.33332707  0.66666794  0.24999887  1
  Hg  Hg2  1  0.00000101  0.99999967  0.49999879  1
  Hg  Hg3  1  0.66667161  0.33333231  0.75000129  1
