# generated using pymatgen
data_PrNi9Ge4
_symmetry_space_group_name_H-M   'P 1'
_cell_length_a   8.14221494
_cell_length_b   8.14221494
_cell_length_c   8.14221494
_cell_angle_alpha   121.39180395
_cell_angle_beta   121.39180395
_cell_angle_gamma   87.60576890
_symmetry_Int_Tables_number   1
_chemical_formula_structural   PrNi9Ge4
_chemical_formula_sum   'Pr2 Ni18 Ge8'
_cell_volume   373.30786464
_cell_formula_units_Z   2
loop_
 _symmetry_equiv_pos_site_id
 _symmetry_equiv_pos_as_xyz
  1  'x, y, z'
loop_
 _atom_site_type_symbol
 _atom_site_label
 _atom_site_symmetry_multiplicity
 _atom_site_fract_x
 _atom_site_fract_y
 _atom_site_fract_z
 _atom_site_occupancy
  Pr  Pr0  1  0.25000100  0.25000100  0.00000000  1
  Pr  Pr1  1  0.75000000  0.75000000  0.00000000  1
  Ni  Ni2  1  0.30593028  0.80593028  0.74939514  1
  Ni  Ni3  1  0.05653514  0.55653514  0.25060486  1
  Ni  Ni4  1  0.19407072  0.94346586  0.50000000  1
  Ni  Ni5  1  0.44346586  0.69407072  0.50000000  1
  Ni  Ni6  1  0.69407072  0.19407072  0.25060486  1
  Ni  Ni7  1  0.94346586  0.44346586  0.74939514  1
  Ni  Ni8  1  0.55653514  0.30593028  0.50000000  1
  Ni  Ni9  1  0.80593028  0.05653514  0.50000000  1
  Ni  Ni10  1  0.50000000  0.00000000  0.50000000  1
  Ni  Ni11  1  -0.00000000  0.50000000  0.50000000  1
  Ni  Ni12  1  0.20343554  0.06753906  0.27097460  1
  Ni  Ni13  1  0.79656646  0.93246094  0.72902640  1
  Ni  Ni14  1  0.29656646  0.56754106  0.86410651  1
  Ni  Ni15  1  0.70343554  0.43246094  0.13589549  1
  Ni  Ni16  1  0.43246094  0.29656646  0.72902640  1
  Ni  Ni17  1  0.56754006  0.70343554  0.27097460  1
  Ni  Ni18  1  0.93246094  0.20343454  0.13589449  1
  Ni  Ni19  1  0.06753906  0.79656446  0.86410451  1
  Ge  Ge20  1  0.79572440  0.29572340  0.84704495  1
  Ge  Ge21  1  0.44867845  0.94867745  0.15295405  1
  Ge  Ge22  1  0.70427460  0.55132055  0.49999900  1
  Ge  Ge23  1  0.05132155  0.20427460  0.49999900  1
  Ge  Ge24  1  0.20427560  0.70427460  0.15295405  1
  Ge  Ge25  1  0.55132155  0.05132155  0.84704495  1
  Ge  Ge26  1  0.94867745  0.79572440  0.49999900  1
  Ge  Ge27  1  0.29572340  0.44867745  0.49999900  1
