# generated using pymatgen
data_SrLa9Mg2Ga6(FeO14)2
_symmetry_space_group_name_H-M   'P 1'
_cell_length_a   5.60322117
_cell_length_b   5.58444243
_cell_length_c   27.77499340
_cell_angle_alpha   60.63648318
_cell_angle_beta   60.54451310
_cell_angle_gamma   60.42380233
_symmetry_Int_Tables_number   1
_chemical_formula_structural   SrLa9Mg2Ga6(FeO14)2
_chemical_formula_sum   'Sr1 La9 Mg2 Ga6 Fe2 O28'
_cell_volume   621.97265295
_cell_formula_units_Z   1
loop_
 _symmetry_equiv_pos_site_id
 _symmetry_equiv_pos_as_xyz
  1  'x, y, z'
loop_
 _atom_site_type_symbol
 _atom_site_label
 _atom_site_symmetry_multiplicity
 _atom_site_fract_x
 _atom_site_fract_y
 _atom_site_fract_z
 _atom_site_occupancy
  Sr  Sr0  1  0.23011064  0.75031301  0.15774204  1
  La  La1  1  0.74813976  0.29537283  0.04499126  1
  La  La2  1  0.24213466  0.72139509  0.35561327  1
  La  La3  1  0.73164231  0.23241721  0.25431412  1
  La  La4  1  0.25178402  0.74988353  0.54876586  1
  La  La5  1  0.76552196  0.22947055  0.44891920  1
  La  La6  1  0.25517320  0.74451389  0.74948810  1
  La  La7  1  0.75230899  0.24396733  0.64993648  1
  La  La8  1  0.25500543  0.74740600  0.94804185  1
  La  La9  1  0.75982125  0.25961001  0.84421702  1
  Mg  Mg10  1  0.97645156  0.51073899  0.30459587  1
  Mg  Mg11  1  0.53186781  0.98942562  0.99167684  1
  Ga  Ga12  1  0.99634613  0.49287908  0.50216124  1
  Ga  Ga13  1  0.50362579  0.98431702  0.40044510  1
  Ga  Ga14  1  0.00897317  0.49958068  0.69794955  1
  Ga  Ga15  1  0.50292366  0.99507927  0.60005289  1
  Ga  Ga16  1  0.00475984  0.50382270  0.89955823  1
  Ga  Ga17  1  0.50680728  0.99596867  0.79887810  1
  Fe  Fe18  1  0.95728747  0.55051761  0.10463800  1
  Fe  Fe19  1  0.49179377  0.00102290  0.20157338  1
  O  O20  1  0.14217194  0.29601972  0.17093641  1
  O  O21  1  0.30160732  0.68722805  0.04627251  1
  O  O22  1  0.21699811  0.16836721  0.35700648  1
  O  O23  1  0.69852348  0.31434354  0.15125556  1
  O  O24  1  0.32127402  0.66329523  0.25070902  1
  O  O25  1  0.83271916  0.70167825  0.03528542  1
  O  O26  1  0.21475818  0.19501953  0.45924711  1
  O  O27  1  0.70553583  0.87915073  0.12757716  1
  O  O28  1  0.18206224  0.22356200  0.56345048  1
  O  O29  1  0.66814580  0.31082840  0.35117038  1
  O  O30  1  0.33241850  0.65348001  0.45416762  1
  O  O31  1  0.76739302  0.78973781  0.24525432  1
  O  O32  1  0.25011008  0.17736766  0.66291078  1
  O  O33  1  0.79714482  0.78631024  0.34578600  1
  O  O34  1  0.19582524  0.25101483  0.76075348  1
  O  O35  1  0.67234716  0.32050675  0.55104350  1
  O  O36  1  0.33005354  0.67392849  0.64996435  1
  O  O37  1  0.80699769  0.77223782  0.44181628  1
  O  O38  1  0.25260778  0.18240688  0.86404874  1
  O  O39  1  0.76099036  0.81332317  0.53772470  1
  O  O40  1  0.19149006  0.29457336  0.96430399  1
  O  O41  1  0.68935392  0.31327838  0.75052595  1
  O  O42  1  0.32707608  0.68456981  0.84465278  1
  O  O43  1  0.82807232  0.74766102  0.63536300  1
  O  O44  1  0.75840904  0.81675280  0.73426194  1
  O  O45  1  0.68950527  0.31909803  0.95892257  1
  O  O46  1  0.82245371  0.73085980  0.83477073  1
  O  O47  1  0.77147660  0.83869848  0.92666036  1
