# generated using pymatgen
data_TiZn3
_symmetry_space_group_name_H-M   'P 1'
_cell_length_a   5.63775121
_cell_length_b   5.63775182
_cell_length_c   4.35086926
_cell_angle_alpha   90.00000000
_cell_angle_beta   90.00000000
_cell_angle_gamma   119.99999634
_symmetry_Int_Tables_number   1
_chemical_formula_structural   TiZn3
_chemical_formula_sum   'Ti2 Zn6'
_cell_volume   119.76186267
_cell_formula_units_Z   2
loop_
 _symmetry_equiv_pos_site_id
 _symmetry_equiv_pos_as_xyz
  1  'x, y, z'
loop_
 _atom_site_type_symbol
 _atom_site_label
 _atom_site_symmetry_multiplicity
 _atom_site_fract_x
 _atom_site_fract_y
 _atom_site_fract_z
 _atom_site_occupancy
  Ti  Ti0  1  0.33333300  0.66666600  0.75000000  1
  Ti  Ti1  1  0.66666600  0.33333200  0.25000000  1
  Zn  Zn2  1  0.16495828  0.32991656  0.25000000  1
  Zn  Zn3  1  0.67008244  0.83504072  0.25000000  1
  Zn  Zn4  1  0.16495828  0.83504072  0.25000000  1
  Zn  Zn5  1  0.83504172  0.67008244  0.75000000  1
  Zn  Zn6  1  0.32991856  0.16496028  0.75000000  1
  Zn  Zn7  1  0.83504272  0.16496028  0.75000000  1
