# generated using pymatgen
data_Ti7Fe13O30
_symmetry_space_group_name_H-M   'P 1'
_cell_length_a   5.54639875
_cell_length_b   5.54552804
_cell_length_c   27.57495948
_cell_angle_alpha   55.47170392
_cell_angle_beta   55.45550803
_cell_angle_gamma   55.35576420
_symmetry_Int_Tables_number   1
_chemical_formula_structural   Ti7Fe13O30
_chemical_formula_sum   'Ti7 Fe13 O30'
_cell_volume   536.03815439
_cell_formula_units_Z   1
loop_
 _symmetry_equiv_pos_site_id
 _symmetry_equiv_pos_as_xyz
  1  'x, y, z'
loop_
 _atom_site_type_symbol
 _atom_site_label
 _atom_site_symmetry_multiplicity
 _atom_site_fract_x
 _atom_site_fract_y
 _atom_site_fract_z
 _atom_site_occupancy
  Ti  Ti0  1  0.13645943  0.16258140  0.03028120  1
  Ti  Ti1  1  0.62384207  0.65960356  0.12895835  1
  Ti  Ti2  1  0.15578647  0.13785777  0.42877704  1
  Ti  Ti3  1  0.65504332  0.63426054  0.33103641  1
  Ti  Ti4  1  0.15030507  0.16039978  0.62635826  1
  Ti  Ti5  1  0.34993886  0.35629629  0.67165498  1
  Ti  Ti6  1  0.35295892  0.35372516  0.87121759  1
  Fe  Fe7  1  0.34804389  0.36274913  0.07259519  1
  Fe  Fe8  1  0.13547211  0.13543914  0.23104791  1
  Fe  Fe9  1  0.34813469  0.35882368  0.27079647  1
  Fe  Fe10  1  0.83163791  0.85566622  0.17290810  1
  Fe  Fe11  1  0.35623560  0.34269744  0.47054475  1
  Fe  Fe12  1  0.86372660  0.84972193  0.37183900  1
  Fe  Fe13  1  0.65602957  0.65043700  0.52426501  1
  Fe  Fe14  1  0.14495330  0.14942340  0.83098750  1
  Fe  Fe15  1  0.85975043  0.86815041  0.56672363  1
  Fe  Fe16  1  0.64833840  0.64408531  0.72930696  1
  Fe  Fe17  1  0.85285656  0.85029794  0.77394904  1
  Fe  Fe18  1  0.64300979  0.63541936  0.93137993  1
  Fe  Fe19  1  0.85939285  0.84364012  0.96901617  1
  O  O20  1  0.04661901  0.79407762  0.08481747  1
  O  O21  1  0.45800332  0.03557181  0.14922885  1
  O  O22  1  0.78270678  0.43362204  0.00710432  1
  O  O23  1  0.25588603  0.56925324  0.18379666  1
  O  O24  1  0.55241438  0.92100528  0.05264365  1
  O  O25  1  0.04700228  0.73851643  0.29109720  1
  O  O26  1  0.91708519  0.26867900  0.11071535  1
  O  O27  1  0.42168927  0.05744179  0.35211469  1
  O  O28  1  0.73552776  0.46238828  0.20758298  1
  O  O29  1  0.28575900  0.54045655  0.38654866  1
  O  O30  1  0.56569570  0.93601002  0.25360399  1
  O  O31  1  0.05850417  0.76835549  0.48799202  1
  O  O32  1  0.93338927  0.28577025  0.30863682  1
  O  O33  1  0.43165507  0.05283887  0.55732531  1
  O  O34  1  0.77478869  0.41726985  0.41206871  1
  O  O35  1  0.23417060  0.53800934  0.59334748  1
  O  O36  1  0.53405267  0.95482226  0.44971698  1
  O  O37  1  0.07184206  0.74574211  0.68674314  1
  O  O38  1  0.95625446  0.23691566  0.51153905  1
  O  O39  1  0.43335562  0.07451247  0.74653422  1
  O  O40  1  0.74985940  0.41748102  0.61648450  1
  O  O41  1  0.27565362  0.53348441  0.78930325  1
  O  O42  1  0.54697069  0.95358923  0.65096105  1
  O  O43  1  0.07128025  0.74322205  0.88433467  1
  O  O44  1  0.96137227  0.25975484  0.70926801  1
  O  O45  1  0.43200525  0.07149319  0.94858933  1
  O  O46  1  0.73673913  0.43244133  0.81406397  1
  O  O47  1  0.26647519  0.53790959  0.98891190  1
  O  O48  1  0.53911525  0.94549749  0.85395580  1
  O  O49  1  0.95221178  0.26259295  0.90732648  1
