# generated using pymatgen
data_UTi22Fe18PbO76
_symmetry_space_group_name_H-M   'P 1'
_cell_length_a   9.44803265
_cell_length_b   9.45981988
_cell_length_c   18.90591255
_cell_angle_alpha   67.32673590
_cell_angle_beta   68.57702927
_cell_angle_gamma   68.69458347
_symmetry_Int_Tables_number   1
_chemical_formula_structural   UTi22Fe18PbO76
_chemical_formula_sum   'U1 Ti22 Fe18 Pb1 O76'
_cell_volume   1401.87804661
_cell_formula_units_Z   1
loop_
 _symmetry_equiv_pos_site_id
 _symmetry_equiv_pos_as_xyz
  1  'x, y, z'
loop_
 _atom_site_type_symbol
 _atom_site_label
 _atom_site_symmetry_multiplicity
 _atom_site_fract_x
 _atom_site_fract_y
 _atom_site_fract_z
 _atom_site_occupancy
  U  U0  1  0.50693522  0.49831808  0.74829030  1
  Ti  Ti1  1  0.18838215  0.31667798  0.34497983  1
  Ti  Ti2  1  0.29925710  0.71687952  0.08027532  1
  Ti  Ti3  1  0.49008899  0.06260015  0.32886590  1
  Ti  Ti4  1  0.27807257  0.87156593  0.35723875  1
  Ti  Ti5  1  0.62320556  0.49131985  0.03948048  1
  Ti  Ti6  1  0.35678272  0.51341863  0.46077476  1
  Ti  Ti7  1  0.70782032  0.15702042  0.16062372  1
  Ti  Ti8  1  0.15404966  0.34656228  0.84620439  1
  Ti  Ti9  1  0.30537169  0.71707834  0.56778906  1
  Ti  Ti10  1  0.48928551  0.93061713  0.17933050  1
  Ti  Ti11  1  0.46797610  0.06577455  0.83091940  1
  Ti  Ti12  1  0.68892734  0.26692892  0.42666608  1
  Ti  Ti13  1  0.85490029  0.69624809  0.14073282  1
  Ti  Ti14  1  0.29071870  0.84889527  0.84063405  1
  Ti  Ti15  1  0.62815756  0.48677194  0.53924754  1
  Ti  Ti16  1  0.92506203  0.35918013  0.26072710  1
  Ti  Ti17  1  0.33840627  0.53185124  0.96153616  1
  Ti  Ti18  1  0.70382490  0.13572885  0.66053173  1
  Ti  Ti19  1  0.52243805  0.91827468  0.67421925  1
  Ti  Ti20  1  0.66618062  0.28402775  0.93016707  1
  Ti  Ti21  1  0.86226001  0.68230013  0.65121907  1
  Ti  Ti22  1  0.93059862  0.36246031  0.76296733  1
  Fe  Fe23  1  0.32041969  0.12513628  0.02038143  1
  Fe  Fe24  1  0.30520947  0.30605227  0.15306753  1
  Fe  Fe25  1  0.20968229  0.70434874  0.27610778  1
  Fe  Fe26  1  0.33664016  0.12247578  0.51838457  1
  Fe  Fe27  1  0.30251912  0.29993067  0.65156090  1
  Fe  Fe28  1  0.60459106  0.62140322  0.30694942  1
  Fe  Fe29  1  0.65820175  0.87424504  0.48903869  1
  Fe  Fe30  1  0.86217390  0.57364439  0.37152705  1
  Fe  Fe31  1  0.94448818  0.26311464  0.50041116  1
  Fe  Fe32  1  0.01000933  0.92890891  0.14183169  1
  Fe  Fe33  1  0.89313701  0.97290231  0.32498138  1
  Fe  Fe34  1  0.97805580  0.66212313  0.46318870  1
  Fe  Fe35  1  0.70283243  0.68881813  0.84829889  1
  Fe  Fe36  1  0.64380217  0.87859288  0.98959685  1
  Fe  Fe37  1  0.93704621  0.28302061  0.99888691  1
  Fe  Fe38  1  0.04410731  0.91884635  0.64483802  1
  Fe  Fe39  1  0.87148406  0.98868763  0.82139962  1
  Fe  Fe40  1  0.97864786  0.64503284  0.93693219  1
  Pb  Pb41  1  0.99248758  0.96449751  0.97370076  1
  O  O42  1  0.24061679  0.20968010  0.10779763  1
  O  O43  1  0.06231487  0.73111589  0.11012030  1
  O  O44  1  0.14528544  0.35785453  0.24385729  1
  O  O45  1  0.01629605  0.85100230  0.24802660  1
  O  O46  1  0.25212987  0.07157671  0.35287681  1
  O  O47  1  0.09667516  0.53608453  0.34919866  1
  O  O48  1  0.16629987  0.22949179  0.45954881  1
  O  O49  1  0.38254774  0.48335496  0.06817519  1
  O  O50  1  0.22392364  0.93545090  0.06863527  1
  O  O51  1  0.08074118  0.83029133  0.37900688  1
  O  O52  1  0.48759948  0.13276762  0.18600224  1
  O  O53  1  0.30522909  0.64562943  0.18108903  1
  O  O54  1  0.15938287  0.51684222  0.49384946  1
  O  O55  1  0.39541967  0.28478008  0.31125979  1
  O  O56  1  0.23635983  0.20670655  0.60548496  1
  O  O57  1  0.07415911  0.72833753  0.61989882  1
  O  O58  1  0.48806632  0.00963373  0.43074834  1
  O  O59  1  0.29955801  0.89487942  0.24234019  1
  O  O60  1  0.14646582  0.36226200  0.74023399  1
  O  O61  1  0.71742524  0.24937081  0.02538713  1
  O  O62  1  0.53128954  0.70379797  0.03503208  1
  O  O63  1  0.37611932  0.61860665  0.34916350  1
  O  O64  1  0.97917122  0.86732028  0.74873325  1
  O  O65  1  0.62829187  0.37284412  0.14171123  1
  O  O66  1  0.26103425  0.05361303  0.84575635  1
  O  O67  1  0.08395762  0.53903438  0.85354424  1
  O  O68  1  0.46723424  0.29649671  0.46245546  1
  O  O69  1  0.30111416  0.74857872  0.46598473  1
  O  O70  1  0.70086168  0.07428104  0.26980202  1
  O  O71  1  0.50415028  0.97875347  0.07334371  1
  O  O72  1  0.16105710  0.23593180  0.95576476  1
  O  O73  1  0.39104587  0.47845189  0.56956264  1
  O  O74  1  0.24980496  0.92056601  0.57483648  1
  O  O75  1  0.62089997  0.72494470  0.19128364  1
  O  O76  1  0.06430443  0.84611449  0.87683774  1
  O  O77  1  0.83606460  0.49747880  0.99848508  1
  O  O78  1  0.48327129  0.13678719  0.68450596  1
  O  O79  1  0.35331172  0.60553090  0.68952344  1
  O  O80  1  0.69796090  0.38648885  0.31906154  1
  O  O81  1  0.50773039  0.85876756  0.31261490  1
  O  O82  1  0.14230352  0.52592605  0.99013870  1
  O  O83  1  0.92432768  0.15946250  0.11000699  1
  O  O84  1  0.38746601  0.30466067  0.80756019  1
  O  O85  1  0.76165715  0.06424702  0.42091393  1
  O  O86  1  0.61928669  0.52706196  0.42702729  1
  O  O87  1  0.83666244  0.76915753  0.03286217  1
  O  O88  1  0.47454615  0.01997571  0.93092910  1
  O  O89  1  0.32682488  0.89490530  0.73279640  1
  O  O90  1  0.71659800  0.25152280  0.53126974  1
  O  O91  1  0.53902994  0.69621891  0.53808624  1
  O  O92  1  0.90733026  0.48357012  0.15971455  1
  O  O93  1  0.79226029  0.93713184  0.14437726  1
  O  O94  1  0.37946301  0.60823706  0.84517029  1
  O  O95  1  0.96433955  0.15893012  0.26859806  1
  O  O96  1  0.62983426  0.37981868  0.64820715  1
  O  O97  1  0.45857015  0.29958481  0.96184401  1
  O  O98  1  0.29485772  0.74765222  0.95707234  1
  O  O99  1  0.83399608  0.61841133  0.27024652  1
  O  O100  1  0.68336596  0.08998192  0.76873063  1
  O  O101  1  0.51938629  0.97943359  0.57072247  1
  O  O102  1  0.92630961  0.32390140  0.38679379  1
  O  O103  1  0.80857270  0.77651861  0.40041474  1
  O  O104  1  0.61942667  0.69120558  0.68883493  1
  O  O105  1  0.85078053  0.48827602  0.49554114  1
  O  O106  1  0.67567149  0.38212486  0.80835781  1
  O  O107  1  0.52744582  0.85521808  0.81386343  1
  O  O108  1  0.92698873  0.12976370  0.60983574  1
  O  O109  1  0.75556117  0.07003048  0.92151468  1
  O  O110  1  0.61232556  0.51877978  0.92755081  1
  O  O111  1  0.83391926  0.75897567  0.54358000  1
  O  O112  1  0.92032309  0.47615873  0.65759145  1
  O  O113  1  0.74673738  0.92597375  0.65725528  1
  O  O114  1  0.95652256  0.16428977  0.76810704  1
  O  O115  1  0.84121605  0.60742622  0.76516953  1
  O  O116  1  0.93654866  0.30366882  0.88177703  1
  O  O117  1  0.78033588  0.79451591  0.89384427  1
