# generated using pymatgen
data_BaMg(CO3)2
_symmetry_space_group_name_H-M   'P 1'
_cell_length_a   5.07723589
_cell_length_b   5.07723589
_cell_length_c   11.78840426
_cell_angle_alpha   77.90838951
_cell_angle_beta   77.90838951
_cell_angle_gamma   59.83392328
_symmetry_Int_Tables_number   1
_chemical_formula_structural   BaMg(CO3)2
_chemical_formula_sum   'Ba2 Mg2 C4 O12'
_cell_volume   254.94252155
_cell_formula_units_Z   2
loop_
 _symmetry_equiv_pos_site_id
 _symmetry_equiv_pos_as_xyz
  1  'x, y, z'
loop_
 _atom_site_type_symbol
 _atom_site_label
 _atom_site_symmetry_multiplicity
 _atom_site_fract_x
 _atom_site_fract_y
 _atom_site_fract_z
 _atom_site_occupancy
  Ba  Ba0  1  0.77291685  0.22708315  0.25000000  1
  Ba  Ba1  1  0.22708315  0.77291685  0.75000000  1
  Mg  Mg2  1  -0.00000000  0.50000000  0.50000000  1
  Mg  Mg3  1  0.50000000  -0.00000000  0.00000000  1
  C  C4  1  0.16162096  0.60929724  0.10830765  1
  C  C5  1  0.39070276  0.83837904  0.39169235  1
  C  C6  1  0.83837904  0.39070276  0.89169235  1
  C  C7  1  0.60929724  0.16162096  0.60830765  1
  O  O8  1  0.12756943  0.23576076  0.90212003  1
  O  O9  1  0.76423924  0.87243057  0.59787997  1
  O  O10  1  0.87243057  0.76423924  0.09787997  1
  O  O11  1  0.23576076  0.12756943  0.40212003  1
  O  O12  1  0.25275427  0.68462002  0.38602736  1
  O  O13  1  0.31537998  0.74724573  0.11397264  1
  O  O14  1  0.74724573  0.31537998  0.61397264  1
  O  O15  1  0.68462002  0.25275427  0.88602736  1
  O  O16  1  0.29924823  0.30966056  0.12313084  1
  O  O17  1  0.69033944  0.70075177  0.37686916  1
  O  O18  1  0.70075177  0.69033944  0.87686916  1
  O  O19  1  0.30966056  0.29924823  0.62313084  1
