# generated using pymatgen
data_Re2BiO6
_symmetry_space_group_name_H-M   'P 1'
_cell_length_a   4.99645908
_cell_length_b   5.59226765
_cell_length_c   8.50736969
_cell_angle_alpha   92.15818099
_cell_angle_beta   107.07689117
_cell_angle_gamma   90.00000000
_symmetry_Int_Tables_number   1
_chemical_formula_structural   Re2BiO6
_chemical_formula_sum   'Re4 Bi2 O12'
_cell_volume   227.05235813
_cell_formula_units_Z   2
loop_
 _symmetry_equiv_pos_site_id
 _symmetry_equiv_pos_as_xyz
  1  'x, y, z'
loop_
 _atom_site_type_symbol
 _atom_site_label
 _atom_site_symmetry_multiplicity
 _atom_site_fract_x
 _atom_site_fract_y
 _atom_site_fract_z
 _atom_site_occupancy
  Re  Re0  1  0.94595925  0.38760877  0.36264864  1
  Re  Re1  1  0.58331061  0.11239123  0.63735136  1
  Re  Re2  1  0.05404075  0.61239123  0.63735136  1
  Re  Re3  1  0.41668939  0.88760877  0.36264864  1
  Bi  Bi4  1  0.72472221  0.75000000  1.00000000  1
  Bi  Bi5  1  0.27527779  0.25000000  0.00000000  1
  O  O6  1  0.73751815  0.67010441  0.43163445  1
  O  O7  1  0.30588370  0.82989559  0.56836555  1
  O  O8  1  0.26248185  0.32989559  0.56836555  1
  O  O9  1  0.69411630  0.17010441  0.43163445  1
  O  O10  1  0.16705559  0.61061896  0.27757612  1
  O  O11  1  0.88947947  0.88938104  0.72242388  1
  O  O12  1  0.83294441  0.38938104  0.72242388  1
  O  O13  1  0.11052053  0.11061896  0.27757612  1
  O  O14  1  0.66914388  0.41727863  0.14149197  1
  O  O15  1  0.52765191  0.08272137  0.85850803  1
  O  O16  1  0.33085612  0.58272137  0.85850803  1
  O  O17  1  0.47234809  0.91727863  0.14149197  1
