# generated using pymatgen
data_BaP2(HO4)2
_symmetry_space_group_name_H-M   'P 1'
_cell_length_a   10.65679332
_cell_length_b   7.74532948
_cell_length_c   8.77389563
_cell_angle_alpha   90.00000000
_cell_angle_beta   90.00000000
_cell_angle_gamma   90.00000000
_symmetry_Int_Tables_number   1
_chemical_formula_structural   BaP2(HO4)2
_chemical_formula_sum   'Ba4 P8 H8 O32'
_cell_volume   724.20063958
_cell_formula_units_Z   4
loop_
 _symmetry_equiv_pos_site_id
 _symmetry_equiv_pos_as_xyz
  1  'x, y, z'
loop_
 _atom_site_type_symbol
 _atom_site_label
 _atom_site_symmetry_multiplicity
 _atom_site_fract_x
 _atom_site_fract_y
 _atom_site_fract_z
 _atom_site_occupancy
  Ba  Ba0  1  0.25000000  0.25000000  0.59925145  1
  Ba  Ba1  1  0.75000000  0.75000000  0.90074855  1
  Ba  Ba2  1  0.75000000  0.75000000  0.40074855  1
  Ba  Ba3  1  0.25000000  0.25000000  0.09925145  1
  P  P4  1  0.42802163  0.93242640  0.78969373  1
  P  P5  1  0.07197837  0.56757360  0.78969373  1
  P  P6  1  0.92802163  0.06757360  0.71030627  1
  P  P7  1  0.57197837  0.43242640  0.71030627  1
  P  P8  1  0.57197837  0.06757360  0.21030627  1
  P  P9  1  0.92802163  0.43242640  0.21030627  1
  P  P10  1  0.07197837  0.93242640  0.28969373  1
  P  P11  1  0.42802163  0.56757360  0.28969373  1
  H  H12  1  0.38931310  0.67534775  0.05451744  1
  H  H13  1  0.11068690  0.82465225  0.05451744  1
  H  H14  1  0.88931310  0.32465225  0.44548256  1
  H  H15  1  0.61068690  0.17534775  0.44548256  1
  H  H16  1  0.61068690  0.32465225  0.94548256  1
  H  H17  1  0.88931310  0.17534775  0.94548256  1
  H  H18  1  0.11068690  0.67534775  0.55451744  1
  H  H19  1  0.38931310  0.82465225  0.55451744  1
  O  O20  1  0.43284009  0.76845872  0.88884702  1
  O  O21  1  0.06715991  0.73154128  0.88884702  1
  O  O22  1  0.93284009  0.23154128  0.61115298  1
  O  O23  1  0.56715991  0.26845872  0.61115298  1
  O  O24  1  0.56715991  0.23154128  0.11115298  1
  O  O25  1  0.93284009  0.26845872  0.11115298  1
  O  O26  1  0.06715991  0.76845872  0.38884702  1
  O  O27  1  0.43284009  0.73154128  0.38884702  1
  O  O28  1  0.36046259  0.08583064  0.85837471  1
  O  O29  1  0.13953741  0.41416936  0.85837471  1
  O  O30  1  0.86046259  0.91416936  0.64162529  1
  O  O31  1  0.63953741  0.58583064  0.64162529  1
  O  O32  1  0.63953741  0.91416936  0.14162529  1
  O  O33  1  0.86046259  0.58583064  0.14162529  1
  O  O34  1  0.13953741  0.08583064  0.35837471  1
  O  O35  1  0.36046259  0.41416936  0.35837471  1
  O  O36  1  0.35397276  0.90458406  0.63304777  1
  O  O37  1  0.14602724  0.59541594  0.63304777  1
  O  O38  1  0.85397276  0.09541594  0.86695223  1
  O  O39  1  0.64602724  0.40458406  0.86695223  1
  O  O40  1  0.64602724  0.09541594  0.36695223  1
  O  O41  1  0.85397276  0.40458406  0.36695223  1
  O  O42  1  0.14602724  0.90458406  0.13304777  1
  O  O43  1  0.35397276  0.59541594  0.13304777  1
  O  O44  1  0.56994372  0.95677761  0.75733601  1
  O  O45  1  0.93005628  0.54322239  0.75733601  1
  O  O46  1  0.06994372  0.04322239  0.74266399  1
  O  O47  1  0.43005628  0.45677761  0.74266399  1
  O  O48  1  0.43005628  0.04322239  0.24266399  1
  O  O49  1  0.06994372  0.45677761  0.24266399  1
  O  O50  1  0.93005628  0.95677761  0.25733601  1
  O  O51  1  0.56994372  0.54322239  0.25733601  1
