# generated using pymatgen
data_Pr2Ni7
_symmetry_space_group_name_H-M   'P 1'
_cell_length_a   5.03428613
_cell_length_b   5.03428613
_cell_length_c   12.54843325
_cell_angle_alpha   78.42829142
_cell_angle_beta   78.42829142
_cell_angle_gamma   60.00000375
_symmetry_Int_Tables_number   1
_chemical_formula_structural   Pr2Ni7
_chemical_formula_sum   'Pr4 Ni14'
_cell_volume   267.93020353
_cell_formula_units_Z   2
loop_
 _symmetry_equiv_pos_site_id
 _symmetry_equiv_pos_as_xyz
  1  'x, y, z'
loop_
 _atom_site_type_symbol
 _atom_site_label
 _atom_site_symmetry_multiplicity
 _atom_site_fract_x
 _atom_site_fract_y
 _atom_site_fract_z
 _atom_site_occupancy
  Pr  Pr0  1  0.05063545  0.05063545  0.84809365  1
  Pr  Pr1  1  0.94936455  0.94936455  0.15190635  1
  Pr  Pr2  1  0.14687490  0.14687490  0.55937531  1
  Pr  Pr3  1  0.85312510  0.85312510  0.44062469  1
  Ni  Ni4  1  0.50000000  0.50000000  0.50000000  1
  Ni  Ni5  1  0.27892151  0.27892151  0.16323548  1
  Ni  Ni6  1  0.72107849  0.72107849  0.83676452  1
  Ni  Ni7  1  0.38756270  0.38756270  0.83731191  1
  Ni  Ni8  1  0.61243730  0.61243730  0.16268809  1
  Ni  Ni9  1  0.50000000  0.50000000  -0.00000000  1
  Ni  Ni10  1  0.50000000  0.00000000  -0.00000000  1
  Ni  Ni11  1  -0.00000000  0.50000000  -0.00000000  1
  Ni  Ni12  1  0.10810673  0.60841046  0.67507235  1
  Ni  Ni13  1  0.60841046  0.60841046  0.67507235  1
  Ni  Ni14  1  0.60841046  0.10810673  0.67507235  1
  Ni  Ni15  1  0.89189327  0.39158954  0.32492765  1
  Ni  Ni16  1  0.39158954  0.39158954  0.32492765  1
  Ni  Ni17  1  0.39158954  0.89189327  0.32492765  1
