# generated using pymatgen
data_Ba4Hf3S10
_symmetry_space_group_name_H-M   'P 1'
_cell_length_a   5.00203511
_cell_length_b   5.00203511
_cell_length_c   18.23529203
_cell_angle_alpha   97.88828465
_cell_angle_beta   97.88828465
_cell_angle_gamma   89.96264423
_symmetry_Int_Tables_number   1
_chemical_formula_structural   Ba4Hf3S10
_chemical_formula_sum   'Ba4 Hf3 S10'
_cell_volume   447.58290053
_cell_formula_units_Z   1
loop_
 _symmetry_equiv_pos_site_id
 _symmetry_equiv_pos_as_xyz
  1  'x, y, z'
loop_
 _atom_site_type_symbol
 _atom_site_label
 _atom_site_symmetry_multiplicity
 _atom_site_fract_x
 _atom_site_fract_y
 _atom_site_fract_z
 _atom_site_occupancy
  Ba  Ba0  1  0.56852978  0.56852978  0.13705955  1
  Ba  Ba1  1  0.43147022  0.43147022  0.86294045  1
  Ba  Ba2  1  0.70033730  0.70033730  0.40067461  1
  Ba  Ba3  1  0.29966270  0.29966270  0.59932539  1
  Hf  Hf4  1  0.00000000  0.00000000  0.00000000  1
  Hf  Hf5  1  0.14250371  0.14250371  0.28500743  1
  Hf  Hf6  1  0.85749629  0.85749629  0.71499257  1
  S  S7  1  0.07048690  0.07048690  0.14097381  1
  S  S8  1  0.92951310  0.92951310  0.85902619  1
  S  S9  1  0.21219397  0.21219397  0.42438795  1
  S  S10  1  0.78780603  0.78780603  0.57561205  1
  S  S11  1  0.50000000  0.00000000  0.00000000  1
  S  S12  1  0.00000000  0.50000000  0.00000000  1
  S  S13  1  0.63926781  0.13926781  0.27853562  1
  S  S14  1  0.86073219  0.36073219  0.72146438  1
  S  S15  1  0.36073219  0.86073219  0.72146438  1
  S  S16  1  0.13926781  0.63926781  0.27853562  1
