# generated using pymatgen
data_La3Ni13B2
_symmetry_space_group_name_H-M   'P 1'
_cell_length_a   5.07405820
_cell_length_b   5.06191135
_cell_length_c   11.10818032
_cell_angle_alpha   90.03157052
_cell_angle_beta   89.93701013
_cell_angle_gamma   120.07941209
_symmetry_Int_Tables_number   1
_chemical_formula_structural   La3Ni13B2
_chemical_formula_sum   'La3 Ni13 B2'
_cell_volume   246.88527437
_cell_formula_units_Z   1
loop_
 _symmetry_equiv_pos_site_id
 _symmetry_equiv_pos_as_xyz
  1  'x, y, z'
loop_
 _atom_site_type_symbol
 _atom_site_label
 _atom_site_symmetry_multiplicity
 _atom_site_fract_x
 _atom_site_fract_y
 _atom_site_fract_z
 _atom_site_occupancy
  La  La0  1  0.00002377  1.00000000  0.00013843  1
  La  La1  1  0.99988373  0.00000000  0.32858657  1
  La  La2  1  0.00009191  1.00000000  0.67149538  1
  Ni  Ni3  1  0.50007171  1.00000000  0.49990674  1
  Ni  Ni4  1  0.49991908  0.49994613  0.49985205  1
  Ni  Ni5  1  0.99997294  0.50005387  0.49985205  1
  Ni  Ni6  1  0.33258490  0.66549888  0.31654941  1
  Ni  Ni7  1  0.66708602  0.33450112  0.31654941  1
  Ni  Ni8  1  0.66725598  0.33421623  0.68371172  1
  Ni  Ni9  1  0.33303975  0.66578377  0.68371172  1
  Ni  Ni10  1  0.50027240  1.00000000  0.13190420  1
  Ni  Ni11  1  0.50035107  0.49988782  0.13207638  1
  Ni  Ni12  1  0.00046325  0.50011218  0.13207638  1
  Ni  Ni13  1  0.49974131  0.00000000  0.86784632  1
  Ni  Ni14  1  0.49963585  0.50010670  0.86763115  1
  Ni  Ni15  1  0.99952914  0.49989330  0.86763115  1
  B  B16  1  0.33403111  0.66808502  0.00024047  1
  B  B17  1  0.66594609  0.33191498  0.00024047  1
