# generated using pymatgen
data_TbGa2Ni3
_symmetry_space_group_name_H-M   'P 1'
_cell_length_a   3.89881083
_cell_length_b   8.90840056
_cell_length_c   8.93567218
_cell_angle_alpha   119.89909417
_cell_angle_beta   90.00000000
_cell_angle_gamma   90.00000000
_symmetry_Int_Tables_number   1
_chemical_formula_structural   TbGa2Ni3
_chemical_formula_sum   'Tb3 Ga6 Ni9'
_cell_volume   269.04842254
_cell_formula_units_Z   3
loop_
 _symmetry_equiv_pos_site_id
 _symmetry_equiv_pos_as_xyz
  1  'x, y, z'
loop_
 _atom_site_type_symbol
 _atom_site_label
 _atom_site_symmetry_multiplicity
 _atom_site_fract_x
 _atom_site_fract_y
 _atom_site_fract_z
 _atom_site_occupancy
  Tb  Tb0  1  0.00000000  0.99997129  0.00000000  1
  Tb  Tb1  1  0.50000000  0.33334711  0.66667945  1
  Tb  Tb2  1  0.50000000  0.66666766  0.33332055  1
  Ga  Ga3  1  0.50000000  0.31523739  0.00000000  1
  Ga  Ga4  1  0.50000000  0.68493628  0.68476990  1
  Ga  Ga5  1  0.50000000  0.00016638  0.31523010  1
  Ga  Ga6  1  0.50000000  0.68476701  1.00000000  1
  Ga  Ga7  1  0.50000000  0.31504575  0.31524989  1
  Ga  Ga8  1  0.50000000  0.99979586  0.68475011  1
  Ni  Ni9  1  -0.00000000  0.50000862  0.00000000  1
  Ni  Ni10  1  0.00000000  0.49999662  0.50000381  1
  Ni  Ni11  1  0.00000000  0.99999281  0.49999619  1
  Ni  Ni12  1  0.00000000  0.18120076  0.36241375  1
  Ni  Ni13  1  -0.00000000  0.18130014  0.81905522  1
  Ni  Ni14  1  0.00000000  0.63774419  0.81905400  1
  Ni  Ni15  1  -0.00000000  0.81878701  0.63758625  1
  Ni  Ni16  1  -0.00000000  0.36224492  0.18094478  1
  Ni  Ni17  1  -0.00000000  0.81869019  0.18094600  1
