# generated using pymatgen
data_AlBi2Se2BrCl4
_symmetry_space_group_name_H-M   'P 1'
_cell_length_a   7.07324554
_cell_length_b   8.34293463
_cell_length_c   11.56065209
_cell_angle_alpha   69.10267109
_cell_angle_beta   73.75288101
_cell_angle_gamma   72.89582141
_symmetry_Int_Tables_number   1
_chemical_formula_structural   AlBi2Se2BrCl4
_chemical_formula_sum   'Al2 Bi4 Se4 Br2 Cl8'
_cell_volume   597.35255535
_cell_formula_units_Z   2
loop_
 _symmetry_equiv_pos_site_id
 _symmetry_equiv_pos_as_xyz
  1  'x, y, z'
loop_
 _atom_site_type_symbol
 _atom_site_label
 _atom_site_symmetry_multiplicity
 _atom_site_fract_x
 _atom_site_fract_y
 _atom_site_fract_z
 _atom_site_occupancy
  Al  Al0  1  0.83235547  0.77095768  0.53955542  1
  Al  Al1  1  0.16764453  0.22904232  0.46044458  1
  Bi  Bi2  1  0.71807544  0.38694247  0.87103096  1
  Bi  Bi3  1  0.28192456  0.61305753  0.12896904  1
  Bi  Bi4  1  0.28199831  0.12192946  0.12134812  1
  Bi  Bi5  1  0.71800169  0.87807054  0.87865188  1
  Se  Se6  1  0.56426029  0.29228882  0.13242815  1
  Se  Se7  1  0.43573971  0.70771118  0.86757185  1
  Se  Se8  1  0.44422048  0.20740331  0.85896546  1
  Se  Se9  1  0.55577952  0.79259669  0.14103454  1
  Br  Br10  1  -0.00000000  -0.00000000  0.00000000  1
  Br  Br11  1  -0.00000000  0.50000000  0.00000000  1
  Cl  Cl12  1  0.05099413  0.65138821  0.66058415  1
  Cl  Cl13  1  0.94900587  0.34861179  0.33941585  1
  Cl  Cl14  1  0.94529278  0.84477194  0.33816498  1
  Cl  Cl15  1  0.05470722  0.15522806  0.66183502  1
  Cl  Cl16  1  0.64941345  0.57963995  0.58811943  1
  Cl  Cl17  1  0.35058655  0.42036005  0.41188057  1
  Cl  Cl18  1  0.33691870  0.99491114  0.40514326  1
  Cl  Cl19  1  0.66308130  0.00508886  0.59485674  1
