# generated using pymatgen
data_MnO2
_symmetry_space_group_name_H-M   'P 1'
_cell_length_a   2.93344663
_cell_length_b   9.57727728
_cell_length_c   9.57727728
_cell_angle_alpha   90.00000000
_cell_angle_beta   90.00000000
_cell_angle_gamma   90.00000000
_symmetry_Int_Tables_number   1
_chemical_formula_structural   MnO2
_chemical_formula_sum   'Mn6 O12'
_cell_volume   269.06816300
_cell_formula_units_Z   6
loop_
 _symmetry_equiv_pos_site_id
 _symmetry_equiv_pos_as_xyz
  1  'x, y, z'
loop_
 _atom_site_type_symbol
 _atom_site_label
 _atom_site_symmetry_multiplicity
 _atom_site_fract_x
 _atom_site_fract_y
 _atom_site_fract_z
 _atom_site_occupancy
  Mn  Mn0  1  0.50000000  0.50000000  -0.00000000  1
  Mn  Mn1  1  0.00000000  0.00000000  0.50000000  1
  Mn  Mn2  1  0.50000000  0.98915090  0.76688328  1
  Mn  Mn3  1  0.50000000  0.01084910  0.23311672  1
  Mn  Mn4  1  -0.00000000  0.76688328  0.01084910  1
  Mn  Mn5  1  -0.00000000  0.23311672  0.98915090  1
  O  O6  1  0.50000000  0.84697585  0.90979347  1
  O  O7  1  0.50000000  0.15302415  0.09020653  1
  O  O8  1  0.00000000  0.90979347  0.15302415  1
  O  O9  1  -0.00000000  0.09020653  0.84697585  1
  O  O10  1  0.50000000  0.90335418  0.40738071  1
  O  O11  1  0.50000000  0.09664582  0.59261929  1
  O  O12  1  -0.00000000  0.40738071  0.09664582  1
  O  O13  1  -0.00000000  0.59261929  0.90335418  1
  O  O14  1  0.50000000  0.32787085  0.89442469  1
  O  O15  1  0.50000000  0.67212915  0.10557531  1
  O  O16  1  0.00000000  0.89442469  0.67212915  1
  O  O17  1  0.00000000  0.10557531  0.32787085  1
