# generated using pymatgen
data_Yb2ZnTe2(SO7)2
_symmetry_space_group_name_H-M   'P 1'
_cell_length_a   5.44316967
_cell_length_b   8.24782836
_cell_length_c   8.35987330
_cell_angle_alpha   114.09264189
_cell_angle_beta   107.33639601
_cell_angle_gamma   95.42058138
_symmetry_Int_Tables_number   1
_chemical_formula_structural   Yb2ZnTe2(SO7)2
_chemical_formula_sum   'Yb2 Zn1 Te2 S2 O14'
_cell_volume   316.83524125
_cell_formula_units_Z   1
loop_
 _symmetry_equiv_pos_site_id
 _symmetry_equiv_pos_as_xyz
  1  'x, y, z'
loop_
 _atom_site_type_symbol
 _atom_site_label
 _atom_site_symmetry_multiplicity
 _atom_site_fract_x
 _atom_site_fract_y
 _atom_site_fract_z
 _atom_site_occupancy
  Yb  Yb0  1  0.34133309  0.76831853  0.97529575  1
  Yb  Yb1  1  0.65866691  0.23168147  0.02470425  1
  Zn  Zn2  1  0.00000000  0.50000000  0.50000000  1
  Te  Te3  1  0.61599149  0.76346180  0.64575798  1
  Te  Te4  1  0.38400851  0.23653820  0.35424202  1
  S  S5  1  0.07473944  0.27739226  0.76732509  1
  S  S6  1  0.92526056  0.72260774  0.23267491  1
  O  O7  1  0.93508018  0.68781572  0.72340073  1
  O  O8  1  0.06491982  0.31218428  0.27659927  1
  O  O9  1  0.95142047  0.27906372  0.58346502  1
  O  O10  1  0.04857953  0.72093628  0.41653498  1
  O  O11  1  0.63648856  0.92027763  0.88881137  1
  O  O12  1  0.36351144  0.07972237  0.11118863  1
  O  O13  1  0.20406878  0.46539091  0.92300247  1
  O  O14  1  0.79593122  0.53460909  0.07699753  1
  O  O15  1  0.86512056  0.18423036  0.80371012  1
  O  O16  1  0.13487944  0.81576964  0.19628988  1
  O  O17  1  0.38451702  0.57105912  0.64997919  1
  O  O18  1  0.61548298  0.42894088  0.35002081  1
  O  O19  1  0.28200353  0.17130864  0.75839150  1
  O  O20  1  0.71799647  0.82869136  0.24160850  1
