# generated using pymatgen
data_Li4Ti2Co7O18
_symmetry_space_group_name_H-M   'P 1'
_cell_length_a   8.86869210
_cell_length_b   24.93877054
_cell_length_c   2.89601145
_cell_angle_alpha   90.00000000
_cell_angle_beta   90.00000000
_cell_angle_gamma   90.00000000
_symmetry_Int_Tables_number   1
_chemical_formula_structural   Li4Ti2Co7O18
_chemical_formula_sum   'Li8 Ti4 Co14 O36'
_cell_volume   640.52323942
_cell_formula_units_Z   2
loop_
 _symmetry_equiv_pos_site_id
 _symmetry_equiv_pos_as_xyz
  1  'x, y, z'
loop_
 _atom_site_type_symbol
 _atom_site_label
 _atom_site_symmetry_multiplicity
 _atom_site_fract_x
 _atom_site_fract_y
 _atom_site_fract_z
 _atom_site_occupancy
  Li  Li0  1  0.18132814  0.99537040  -0.00000000  1
  Li  Li1  1  0.18772025  0.20808310  0.00000000  1
  Li  Li2  1  0.31227975  0.70808310  0.00000000  1
  Li  Li3  1  0.31867186  0.49537040  0.00000000  1
  Li  Li4  1  0.68132814  0.50462960  -0.00000000  1
  Li  Li5  1  0.68772025  0.29191690  -0.00000000  1
  Li  Li6  1  0.81227975  0.79191690  0.00000000  1
  Li  Li7  1  0.81867186  0.00462960  -0.00000000  1
  Ti  Ti8  1  0.00284690  0.10554593  0.00000000  1
  Ti  Ti9  1  0.49715310  0.60554593  0.00000000  1
  Ti  Ti10  1  0.50284690  0.39445407  -0.00000000  1
  Ti  Ti11  1  0.99715310  0.89445407  0.00000000  1
  Co  Co12  1  -0.00000000  0.50000000  0.00000000  1
  Co  Co13  1  0.02347509  0.31091091  0.00000000  1
  Co  Co14  1  0.14016930  0.58548247  0.50000000  1
  Co  Co15  1  0.14589965  0.80299666  0.50000000  1
  Co  Co16  1  0.35410035  0.30299666  0.50000000  1
  Co  Co17  1  0.35983070  0.08548247  0.50000000  1
  Co  Co18  1  0.47652491  0.81091091  -0.00000000  1
  Co  Co19  1  0.50000000  -0.00000000  0.00000000  1
  Co  Co20  1  0.52347509  0.18908909  -0.00000000  1
  Co  Co21  1  0.64016930  0.91451753  0.50000000  1
  Co  Co22  1  0.64589965  0.69700334  0.50000000  1
  Co  Co23  1  0.85410035  0.19700334  0.50000000  1
  Co  Co24  1  0.85983070  0.41451753  0.50000000  1
  Co  Co25  1  0.97652491  0.68908909  -0.00000000  1
  O  O26  1  -0.00353869  0.42479888  0.00000000  1
  O  O27  1  0.00353869  0.57520112  -0.00000000  1
  O  O28  1  0.04427771  0.94235143  0.50000000  1
  O  O29  1  0.05541773  0.16166473  0.50000000  1
  O  O30  1  0.09149406  0.65737408  0.50000000  1
  O  O31  1  0.10350092  0.75572879  0.00000000  1
  O  O32  1  0.15536364  0.50901418  0.50000000  1
  O  O33  1  0.14791762  0.28049810  0.50000000  1
  O  O34  1  0.18674567  0.85466084  -0.00000000  1
  O  O35  1  0.22108955  0.08843702  -0.00000000  1
  O  O36  1  0.27891045  0.58843702  0.00000000  1
  O  O37  1  0.31325433  0.35466084  0.00000000  1
  O  O38  1  0.35208238  0.78049810  0.50000000  1
  O  O39  1  0.34463636  0.00901418  0.50000000  1
  O  O40  1  0.39649908  0.25572879  0.00000000  1
  O  O41  1  0.40850594  0.15737408  0.50000000  1
  O  O42  1  0.44458227  0.66166473  0.50000000  1
  O  O43  1  0.45572229  0.44235143  0.50000000  1
  O  O44  1  0.49646131  0.07520112  0.00000000  1
  O  O45  1  0.50353869  0.92479888  0.00000000  1
  O  O46  1  0.54427771  0.55764857  0.50000000  1
  O  O47  1  0.55541773  0.33833527  0.50000000  1
  O  O48  1  0.59149406  0.84262592  0.50000000  1
  O  O49  1  0.60350092  0.74427121  0.00000000  1
  O  O50  1  0.65536364  0.99098582  0.50000000  1
  O  O51  1  0.64791762  0.21950190  0.50000000  1
  O  O52  1  0.68674567  0.64533916  0.00000000  1
  O  O53  1  0.72108955  0.41156298  -0.00000000  1
  O  O54  1  0.77891045  0.91156298  -0.00000000  1
  O  O55  1  0.81325433  0.14533916  -0.00000000  1
  O  O56  1  0.85208238  0.71950190  0.50000000  1
  O  O57  1  0.84463636  0.49098582  0.50000000  1
  O  O58  1  0.89649908  0.24427121  0.00000000  1
  O  O59  1  0.90850594  0.34262592  0.50000000  1
  O  O60  1  0.94458227  0.83833527  0.50000000  1
  O  O61  1  0.95572229  0.05764857  0.50000000  1
