# generated using pymatgen
data_CsB3H8
_symmetry_space_group_name_H-M   'P 1'
_cell_length_a   5.84731847
_cell_length_b   5.84731847
_cell_length_c   9.49761747
_cell_angle_alpha   90.00000000
_cell_angle_beta   90.00000000
_cell_angle_gamma   98.71005341
_symmetry_Int_Tables_number   1
_chemical_formula_structural   CsB3H8
_chemical_formula_sum   'Cs2 B6 H16'
_cell_volume   320.98925117
_cell_formula_units_Z   2
loop_
 _symmetry_equiv_pos_site_id
 _symmetry_equiv_pos_as_xyz
  1  'x, y, z'
loop_
 _atom_site_type_symbol
 _atom_site_label
 _atom_site_symmetry_multiplicity
 _atom_site_fract_x
 _atom_site_fract_y
 _atom_site_fract_z
 _atom_site_occupancy
  Cs  Cs0  1  0.17602482  0.82684595  0.75000000  1
  Cs  Cs1  1  0.82684595  0.17602482  0.25000000  1
  B  B2  1  0.77248145  0.22025556  0.84456981  1
  B  B3  1  0.22025556  0.77248145  0.15543019  1
  B  B4  1  0.77248145  0.22025556  0.65543019  1
  B  B5  1  0.22025556  0.77248145  0.34456981  1
  B  B6  1  0.60513302  0.39463274  0.75000000  1
  B  B7  1  0.39463274  0.60513302  0.25000000  1
  H  H8  1  0.96562509  0.29384808  0.61242024  1
  H  H9  1  0.29384808  0.96562509  0.38757976  1
  H  H10  1  0.96562509  0.29384808  0.88757976  1
  H  H11  1  0.29384808  0.96562509  0.11242024  1
  H  H12  1  0.68993187  0.02995263  0.61253301  1
  H  H13  1  0.02995263  0.68993187  0.38746699  1
  H  H14  1  0.68993187  0.02995263  0.88746699  1
  H  H15  1  0.02995263  0.68993187  0.11253301  1
  H  H16  1  0.39756738  0.33794970  0.75000000  1
  H  H17  1  0.33794970  0.39756738  0.25000000  1
  H  H18  1  0.66653207  0.60286837  0.75000000  1
  H  H19  1  0.60286837  0.66653207  0.25000000  1
  H  H20  1  0.64615252  0.35297577  0.59943483  1
  H  H21  1  0.35297577  0.64615252  0.40056517  1
  H  H22  1  0.64615252  0.35297577  0.90056517  1
  H  H23  1  0.35297577  0.64615252  0.09943483  1
