# generated using pymatgen
data_Gd3MnAlS7
_symmetry_space_group_name_H-M   'P 1'
_cell_length_a   6.10313713
_cell_length_b   9.84189939
_cell_length_c   9.84135930
_cell_angle_alpha   119.99517330
_cell_angle_beta   89.99477721
_cell_angle_gamma   90.00165793
_symmetry_Int_Tables_number   1
_chemical_formula_structural   Gd3MnAlS7
_chemical_formula_sum   'Gd6 Mn2 Al2 S14'
_cell_volume   511.96336783
_cell_formula_units_Z   2
loop_
 _symmetry_equiv_pos_site_id
 _symmetry_equiv_pos_as_xyz
  1  'x, y, z'
loop_
 _atom_site_type_symbol
 _atom_site_label
 _atom_site_symmetry_multiplicity
 _atom_site_fract_x
 _atom_site_fract_y
 _atom_site_fract_z
 _atom_site_occupancy
  Gd  Gd0  1  0.26225775  0.23415424  0.37706602  1
  Gd  Gd1  1  0.26245975  0.62293020  0.85725417  1
  Gd  Gd2  1  0.26247160  0.14312164  0.76602293  1
  Gd  Gd3  1  0.76238985  0.76586153  0.62287558  1
  Gd  Gd4  1  0.76250417  0.37713082  0.14311605  1
  Gd  Gd5  1  0.76243376  0.85720183  0.23423348  1
  Mn  Mn6  1  0.46637653  0.99990651  0.99986372  1
  Mn  Mn7  1  0.96626012  0.99958845  0.99923229  1
  Al  Al8  1  0.83861952  0.33340497  0.66684941  1
  Al  Al9  1  0.33861685  0.66680726  0.33352892  1
  S  S10  1  0.69476940  0.14541980  0.24135611  1
  S  S11  1  0.69494288  0.75806542  0.90393627  1
  S  S12  1  0.69507290  0.09612782  0.85409160  1
  S  S13  1  0.19517774  0.85405797  0.75782252  1
  S  S14  1  0.19483980  0.24161946  0.09606391  1
  S  S15  1  0.19469635  0.90419528  0.14560375  1
  S  S16  1  0.99571077  0.09599632  0.51712426  1
  S  S17  1  0.99590064  0.48295606  0.57901934  1
  S  S18  1  0.99566861  0.42115873  0.90429900  1
  S  S19  1  0.49594875  0.90411654  0.48305331  1
  S  S20  1  0.49569354  0.51700004  0.42117242  1
  S  S21  1  0.49571520  0.57900524  0.09610857  1
  S  S22  1  0.47173127  0.33339148  0.66682194  1
  S  S23  1  0.97174226  0.66678241  0.33348443  1
