# generated using pymatgen
data_Sr2CuH2(SeO3)4
_symmetry_space_group_name_H-M   'P 1'
_cell_length_a   5.38283887
_cell_length_b   7.28977268
_cell_length_c   9.21117842
_cell_angle_alpha   68.09969430
_cell_angle_beta   75.43000710
_cell_angle_gamma   80.54707174
_symmetry_Int_Tables_number   1
_chemical_formula_structural   Sr2CuH2(SeO3)4
_chemical_formula_sum   'Sr2 Cu1 H2 Se4 O12'
_cell_volume   323.57581221
_cell_formula_units_Z   1
loop_
 _symmetry_equiv_pos_site_id
 _symmetry_equiv_pos_as_xyz
  1  'x, y, z'
loop_
 _atom_site_type_symbol
 _atom_site_label
 _atom_site_symmetry_multiplicity
 _atom_site_fract_x
 _atom_site_fract_y
 _atom_site_fract_z
 _atom_site_occupancy
  Sr  Sr0  1  0.16682125  0.19031409  0.56093794  1
  Sr  Sr1  1  0.83317875  0.80968591  0.43906206  1
  Cu  Cu2  1  0.00000000  -0.00000000  0.00000000  1
  H  H3  1  0.62381099  0.43188728  0.73570550  1
  H  H4  1  0.37618901  0.56811272  0.26429450  1
  Se  Se5  1  0.19022547  0.55945730  0.77200834  1
  Se  Se6  1  0.80977453  0.44054270  0.22799166  1
  Se  Se7  1  0.59785720  0.97107884  0.81239021  1
  Se  Se8  1  0.40214280  0.02892116  0.18760979  1
  O  O9  1  0.11855320  0.79969032  0.75152151  1
  O  O10  1  0.88144680  0.20030968  0.24847849  1
  O  O11  1  0.54804010  0.57045200  0.70703182  1
  O  O12  1  0.45195990  0.42954800  0.29296818  1
  O  O13  1  0.11523828  0.53421699  0.61268773  1
  O  O14  1  0.88476172  0.46578301  0.38731227  1
  O  O15  1  0.65977465  0.04007768  0.60890170  1
  O  O16  1  0.34022535  0.95992232  0.39109830  1
  O  O17  1  0.30241326  0.11352868  0.83718010  1
  O  O18  1  0.69758674  0.88647132  0.16281990  1
  O  O19  1  0.79741347  0.12849557  0.82944996  1
  O  O20  1  0.20258653  0.87150443  0.17055004  1
