# generated using pymatgen
data_HfMo2
_symmetry_space_group_name_H-M   'P 1'
_cell_length_a   5.37819601
_cell_length_b   5.37819601
_cell_length_c   17.45633293
_cell_angle_alpha   90.00000000
_cell_angle_beta   90.00000000
_cell_angle_gamma   120.00923924
_symmetry_Int_Tables_number   1
_chemical_formula_structural   HfMo2
_chemical_formula_sum   'Hf8 Mo16'
_cell_volume   437.23655051
_cell_formula_units_Z   8
loop_
 _symmetry_equiv_pos_site_id
 _symmetry_equiv_pos_as_xyz
  1  'x, y, z'
loop_
 _atom_site_type_symbol
 _atom_site_label
 _atom_site_symmetry_multiplicity
 _atom_site_fract_x
 _atom_site_fract_y
 _atom_site_fract_z
 _atom_site_occupancy
  Hf  Hf0  1  0.00003274  0.99996726  0.59439608  1
  Hf  Hf1  1  0.99996726  0.00003274  0.40560392  1
  Hf  Hf2  1  0.99996726  0.00003274  0.09439608  1
  Hf  Hf3  1  0.00003274  0.99996726  0.90560392  1
  Hf  Hf4  1  0.66670276  0.33329724  0.34352270  1
  Hf  Hf5  1  0.33329724  0.66670276  0.65647730  1
  Hf  Hf6  1  0.33329724  0.66670276  0.84352270  1
  Hf  Hf7  1  0.66670276  0.33329724  0.15647730  1
  Mo  Mo8  1  0.66668999  0.33331001  0.62392619  1
  Mo  Mo9  1  0.33331001  0.66668999  0.37607381  1
  Mo  Mo10  1  0.33331001  0.66668999  0.12392619  1
  Mo  Mo11  1  0.66668999  0.33331001  0.87607381  1
  Mo  Mo12  1  0.50000000  0.00000000  0.50000000  1
  Mo  Mo13  1  0.50000000  0.50000000  0.50000000  1
  Mo  Mo14  1  0.00000000  0.50000000  0.50000000  1
  Mo  Mo15  1  0.50000000  0.00000000  -0.00000000  1
  Mo  Mo16  1  0.50000000  0.50000000  -0.00000000  1
  Mo  Mo17  1  0.00000000  0.50000000  -0.00000000  1
  Mo  Mo18  1  0.83653496  0.67311559  0.75000000  1
  Mo  Mo19  1  0.83655062  0.16344938  0.75000000  1
  Mo  Mo20  1  0.32688441  0.16346504  0.75000000  1
  Mo  Mo21  1  0.16346504  0.32688441  0.25000000  1
  Mo  Mo22  1  0.16344938  0.83655062  0.25000000  1
  Mo  Mo23  1  0.67311559  0.83653496  0.25000000  1
