# generated using pymatgen
data_Na2Zn(GeSe3)2
_symmetry_space_group_name_H-M   'P 1'
_cell_length_a   7.94796510
_cell_length_b   7.94796510
_cell_length_c   11.06007093
_cell_angle_alpha   111.05776277
_cell_angle_beta   111.05776277
_cell_angle_gamma   90.00000000
_symmetry_Int_Tables_number   1
_chemical_formula_structural   Na2Zn(GeSe3)2
_chemical_formula_sum   'Na4 Zn2 Ge4 Se12'
_cell_volume   601.74365042
_cell_formula_units_Z   2
loop_
 _symmetry_equiv_pos_site_id
 _symmetry_equiv_pos_as_xyz
  1  'x, y, z'
loop_
 _atom_site_type_symbol
 _atom_site_label
 _atom_site_symmetry_multiplicity
 _atom_site_fract_x
 _atom_site_fract_y
 _atom_site_fract_z
 _atom_site_occupancy
  Na  Na0  1  0.38257655  0.38257655  0.76515309  1
  Na  Na1  1  0.88257655  0.88257655  0.76515309  1
  Na  Na2  1  0.61742345  0.61742345  0.23484691  1
  Na  Na3  1  0.11742345  0.11742345  0.23484691  1
  Zn  Zn4  1  0.25000000  0.75000000  0.50000000  1
  Zn  Zn5  1  0.75000000  0.25000000  0.50000000  1
  Ge  Ge6  1  0.41504927  0.91504927  0.83009855  1
  Ge  Ge7  1  0.91504927  0.41504927  0.83009855  1
  Ge  Ge8  1  0.58495073  0.08495073  0.16990145  1
  Ge  Ge9  1  0.08495073  0.58495073  0.16990145  1
  Se  Se10  1  0.33808823  0.83808823  0.00000000  1
  Se  Se11  1  0.66191177  0.16191177  0.00000000  1
  Se  Se12  1  0.16191177  0.33808823  0.00000000  1
  Se  Se13  1  0.83808823  0.66191177  0.00000000  1
  Se  Se14  1  0.50527352  0.67213686  0.67741039  1
  Se  Se15  1  0.17213686  0.00527352  0.67741039  1
  Se  Se16  1  0.67213686  0.17213686  0.67741039  1
  Se  Se17  1  0.00527352  0.50527352  0.67741039  1
  Se  Se18  1  0.49472648  0.32786314  0.32258961  1
  Se  Se19  1  0.82786314  0.99472648  0.32258961  1
  Se  Se20  1  0.32786314  0.82786314  0.32258961  1
  Se  Se21  1  0.99472648  0.49472648  0.32258961  1
