# generated using pymatgen
data_Er2Si3Rh
_symmetry_space_group_name_H-M   'P 1'
_cell_length_a   7.84743993
_cell_length_b   8.15809158
_cell_length_c   8.15806976
_cell_angle_alpha   120.00009140
_cell_angle_beta   90.00000000
_cell_angle_gamma   90.00000000
_symmetry_Int_Tables_number   1
_chemical_formula_structural   Er2Si3Rh
_chemical_formula_sum   'Er8 Si12 Rh4'
_cell_volume   452.30795150
_cell_formula_units_Z   4
loop_
 _symmetry_equiv_pos_site_id
 _symmetry_equiv_pos_as_xyz
  1  'x, y, z'
loop_
 _atom_site_type_symbol
 _atom_site_label
 _atom_site_symmetry_multiplicity
 _atom_site_fract_x
 _atom_site_fract_y
 _atom_site_fract_z
 _atom_site_occupancy
  Er  Er0  1  0.25000000  0.99998630  0.00000285  1
  Er  Er1  1  0.75000000  0.99998346  -0.00000285  1
  Er  Er2  1  0.25000000  0.50305608  0.00897632  1
  Er  Er3  1  0.25000000  0.50591723  0.49693223  1
  Er  Er4  1  0.25000000  0.99098930  0.49407394  1
  Er  Er5  1  0.75000000  0.49407975  0.99102368  1
  Er  Er6  1  0.75000000  0.00898500  0.50306777  1
  Er  Er7  1  0.75000000  0.49691535  0.50592606  1
  Si  Si8  1  0.00148942  0.16615233  0.33222923  1
  Si  Si9  1  0.00148079  0.16606244  0.83384098  1
  Si  Si10  1  0.00148201  0.66776025  0.83393808  1
  Si  Si11  1  0.49851058  0.16615233  0.33222923  1
  Si  Si12  1  0.49851921  0.16606244  0.83384098  1
  Si  Si13  1  0.49851799  0.66776025  0.83393808  1
  Si  Si14  1  0.50148942  0.83392310  0.66777077  1
  Si  Si15  1  0.50148079  0.33222146  0.16615902  1
  Si  Si16  1  0.50148201  0.83382217  0.16606192  1
  Si  Si17  1  0.99851058  0.83392310  0.66777077  1
  Si  Si18  1  0.99851921  0.33222146  0.16615902  1
  Si  Si19  1  0.99851799  0.83382217  0.16606192  1
  Rh  Rh20  1  0.01465444  0.33332235  0.66664269  1
  Rh  Rh21  1  0.48534556  0.33332235  0.66664269  1
  Rh  Rh22  1  0.51465444  0.66667967  0.33335731  1
  Rh  Rh23  1  0.98534556  0.66667967  0.33335731  1
