# generated using pymatgen
data_Bi3Te4(ClO2)5
_symmetry_space_group_name_H-M   'P 1'
_cell_length_a   4.10918601
_cell_length_b   8.03666658
_cell_length_c   13.59025046
_cell_angle_alpha   97.69114169
_cell_angle_beta   90.00000000
_cell_angle_gamma   104.81224207
_symmetry_Int_Tables_number   1
_chemical_formula_structural   Bi3Te4(ClO2)5
_chemical_formula_sum   'Bi3 Te4 Cl5 O10'
_cell_volume   429.71457261
_cell_formula_units_Z   1
loop_
 _symmetry_equiv_pos_site_id
 _symmetry_equiv_pos_as_xyz
  1  'x, y, z'
loop_
 _atom_site_type_symbol
 _atom_site_label
 _atom_site_symmetry_multiplicity
 _atom_site_fract_x
 _atom_site_fract_y
 _atom_site_fract_z
 _atom_site_occupancy
  Bi  Bi0  1  -0.00000000  -0.00000000  0.00000000  1
  Bi  Bi1  1  0.78399269  0.56798538  0.19600462  1
  Bi  Bi2  1  0.21600731  0.43201462  0.80399538  1
  Te  Te3  1  0.16209688  0.32419377  0.50508173  1
  Te  Te4  1  0.83790312  0.67580623  0.49491827  1
  Te  Te5  1  0.47282938  0.94565876  0.22963622  1
  Te  Te6  1  0.52717062  0.05434124  0.77036378  1
  Cl  Cl7  1  0.15002254  0.30004507  0.27266428  1
  Cl  Cl8  1  0.84997746  0.69995493  0.72733572  1
  Cl  Cl9  1  0.50000000  -0.00000000  0.50000000  1
  Cl  Cl10  1  0.17480643  0.34961287  0.02443398  1
  Cl  Cl11  1  0.82519357  0.65038713  0.97556602  1
  O  O12  1  0.29236534  0.58473069  0.49941301  1
  O  O13  1  0.70763466  0.41526931  0.50058699  1
  O  O14  1  0.16683998  0.33367996  0.64196238  1
  O  O15  1  0.83316002  0.66632004  0.35803762  1
  O  O16  1  0.34656230  0.69312459  0.20351971  1
  O  O17  1  0.65343770  0.30687541  0.79648029  1
  O  O18  1  0.50422597  0.00845193  0.09925561  1
  O  O19  1  0.49577403  0.99154807  0.90074439  1
  O  O20  1  0.06138517  0.12277033  0.79862117  1
  O  O21  1  0.93861483  0.87722967  0.20137883  1
