# generated using pymatgen
data_H8C2SeS2(BrN2)2
_symmetry_space_group_name_H-M   'P 1'
_cell_length_a   9.36321382
_cell_length_b   16.75746240
_cell_length_c   9.30254055
_cell_angle_alpha   90.00000000
_cell_angle_beta   124.18456656
_cell_angle_gamma   90.00000000
_symmetry_Int_Tables_number   1
_chemical_formula_structural   H8C2SeS2(BrN2)2
_chemical_formula_sum   'H32 C8 Se4 S8 Br8 N16'
_cell_volume   1207.43028832
_cell_formula_units_Z   4
loop_
 _symmetry_equiv_pos_site_id
 _symmetry_equiv_pos_as_xyz
  1  'x, y, z'
loop_
 _atom_site_type_symbol
 _atom_site_label
 _atom_site_symmetry_multiplicity
 _atom_site_fract_x
 _atom_site_fract_y
 _atom_site_fract_z
 _atom_site_occupancy
  H  H0  1  0.23310603  0.61334798  0.68409020  1
  H  H1  1  0.76689397  0.11334798  0.81590980  1
  H  H2  1  0.76689397  0.38665202  0.31590980  1
  H  H3  1  0.23310603  0.88665202  0.18409020  1
  H  H4  1  0.27883714  0.51576616  0.76744232  1
  H  H5  1  0.72116286  0.01576616  0.73255768  1
  H  H6  1  0.72116286  0.48423384  0.23255768  1
  H  H7  1  0.27883714  0.98423384  0.26744232  1
  H  H8  1  0.21750675  0.63584466  0.41060966  1
  H  H9  1  0.78249325  0.13584466  0.08939034  1
  H  H10  1  0.78249325  0.36415534  0.58939034  1
  H  H11  1  0.21750675  0.86415534  0.91060966  1
  H  H12  1  0.25407783  0.55404202  0.32014748  1
  H  H13  1  0.74592217  0.05404202  0.17985252  1
  H  H14  1  0.74592217  0.44595798  0.67985252  1
  H  H15  1  0.25407783  0.94595798  0.82014748  1
  H  H16  1  0.04202569  0.11342465  0.60151112  1
  H  H17  1  0.95797431  0.61342465  0.89848888  1
  H  H18  1  0.95797431  0.88657535  0.39848888  1
  H  H19  1  0.04202569  0.38657535  0.10151112  1
  H  H20  1  0.93575749  0.19348006  0.47165977  1
  H  H21  1  0.06424251  0.69348006  0.02834023  1
  H  H22  1  0.06424251  0.80651994  0.52834023  1
  H  H23  1  0.93575749  0.30651994  0.97165977  1
  H  H24  1  0.30025401  0.13191271  0.62626796  1
  H  H25  1  0.69974599  0.63191271  0.87373204  1
  H  H26  1  0.69974599  0.86808729  0.37373204  1
  H  H27  1  0.30025401  0.36808729  0.12626796  1
  H  H28  1  0.97013540  0.18936834  0.66950651  1
  H  H29  1  0.02986460  0.68936834  0.83049349  1
  H  H30  1  0.02986460  0.81063166  0.33049349  1
  H  H31  1  0.97013540  0.31063166  0.16950651  1
  C  C32  1  0.26667823  0.52914084  0.54339557  1
  C  C33  1  0.73332177  0.02914084  0.95660443  1
  C  C34  1  0.73332177  0.47085916  0.45660443  1
  C  C35  1  0.26667823  0.97085916  0.04339557  1
  C  C36  1  0.19234922  0.21881010  0.66631742  1
  C  C37  1  0.80765078  0.71881010  0.83368258  1
  C  C38  1  0.80765078  0.78118990  0.33368258  1
  C  C39  1  0.19234922  0.28118990  0.16631742  1
  Se  Se40  1  0.41741175  0.37772417  0.78938784  1
  Se  Se41  1  0.58258825  0.87772417  0.71061216  1
  Se  Se42  1  0.58258825  0.62227583  0.21061216  1
  Se  Se43  1  0.41741175  0.12227583  0.28938784  1
  S  S44  1  0.32223535  0.42935251  0.53131372  1
  S  S45  1  0.67776465  0.92935251  0.96868628  1
  S  S46  1  0.67776465  0.57064749  0.46868628  1
  S  S47  1  0.32223535  0.07064749  0.03131372  1
  S  S48  1  0.17537395  0.31668635  0.72879538  1
  S  S49  1  0.82462605  0.81668635  0.77120462  1
  S  S50  1  0.82462605  0.68331365  0.27120462  1
  S  S51  1  0.17537395  0.18331365  0.22879538  1
  Br  Br52  1  0.75515861  0.48694232  0.93536992  1
  Br  Br53  1  0.24484139  0.98694232  0.56463008  1
  Br  Br54  1  0.24484139  0.51305768  0.06463008  1
  Br  Br55  1  0.75515861  0.01305768  0.43536992  1
  Br  Br56  1  0.78918913  0.26092438  0.22823481  1
  Br  Br57  1  0.21081087  0.76092438  0.27176519  1
  Br  Br58  1  0.21081087  0.73907562  0.77176519  1
  Br  Br59  1  0.78918913  0.23907562  0.72823481  1
  N  N60  1  0.25253987  0.55390609  0.66967992  1
  N  N61  1  0.74746013  0.05390609  0.83032008  1
  N  N62  1  0.74746013  0.44609391  0.33032008  1
  N  N63  1  0.25253987  0.94609391  0.16967992  1
  N  N64  1  0.24053376  0.57556483  0.41575100  1
  N  N65  1  0.75946624  0.07556483  0.08424900  1
  N  N66  1  0.75946624  0.42443517  0.58424900  1
  N  N67  1  0.24053376  0.92443517  0.91575100  1
  N  N68  1  0.02793229  0.17477768  0.60197483  1
  N  N69  1  0.97206771  0.67477768  0.89802517  1
  N  N70  1  0.97206771  0.82522232  0.39802517  1
  N  N71  1  0.02793229  0.32522232  0.10197483  1
  N  N72  1  0.31794216  0.19045124  0.66898811  1
  N  N73  1  0.68205784  0.69045124  0.83101189  1
  N  N74  1  0.68205784  0.80954876  0.33101189  1
  N  N75  1  0.31794216  0.30954876  0.16898811  1
