# generated using pymatgen
data_SrH6C2S2N2O3
_symmetry_space_group_name_H-M   'P 1'
_cell_length_a   9.54118523
_cell_length_b   7.16382123
_cell_length_c   13.52453390
_cell_angle_alpha   90.00000000
_cell_angle_beta   94.24374466
_cell_angle_gamma   90.00000000
_symmetry_Int_Tables_number   1
_chemical_formula_structural   SrH6C2S2N2O3
_chemical_formula_sum   'Sr4 H24 C8 S8 N8 O12'
_cell_volume   921.88557691
_cell_formula_units_Z   4
loop_
 _symmetry_equiv_pos_site_id
 _symmetry_equiv_pos_as_xyz
  1  'x, y, z'
loop_
 _atom_site_type_symbol
 _atom_site_label
 _atom_site_symmetry_multiplicity
 _atom_site_fract_x
 _atom_site_fract_y
 _atom_site_fract_z
 _atom_site_occupancy
  Sr  Sr0  1  0.10865491  0.75305258  0.45149295  1
  Sr  Sr1  1  0.60865491  0.74694742  0.95149295  1
  Sr  Sr2  1  0.89134509  0.24694742  0.54850705  1
  Sr  Sr3  1  0.39134509  0.25305258  0.04850705  1
  H  H4  1  0.94776445  0.99037111  0.26981205  1
  H  H5  1  0.44776445  0.50962889  0.76981205  1
  H  H6  1  0.05223555  0.00962889  0.73018795  1
  H  H7  1  0.55223555  0.49037111  0.23018795  1
  H  H8  1  0.85739308  0.81651676  0.29593794  1
  H  H9  1  0.35739308  0.68348324  0.79593794  1
  H  H10  1  0.14260692  0.18348324  0.70406206  1
  H  H11  1  0.64260692  0.31651676  0.20406206  1
  H  H12  1  0.35765010  0.78666117  0.30782237  1
  H  H13  1  0.85765010  0.71333883  0.80782237  1
  H  H14  1  0.64234990  0.21333883  0.69217763  1
  H  H15  1  0.14234990  0.28666117  0.19217763  1
  H  H16  1  0.21739856  0.81916326  0.24073453  1
  H  H17  1  0.71739856  0.68083674  0.74073453  1
  H  H18  1  0.78260144  0.18083674  0.75926547  1
  H  H19  1  0.28260144  0.31916326  0.25926547  1
  H  H20  1  0.35595977  0.93501623  0.59234854  1
  H  H21  1  0.85595977  0.56498377  0.09234854  1
  H  H22  1  0.64404023  0.06498377  0.40765146  1
  H  H23  1  0.14404023  0.43501623  0.90765146  1
  H  H24  1  0.41755395  0.73600749  0.57471118  1
  H  H25  1  0.91755395  0.76399251  0.07471118  1
  H  H26  1  0.58244605  0.26399251  0.42528882  1
  H  H27  1  0.08244605  0.23600749  0.92528882  1
  C  C28  1  0.92040378  0.39630638  0.30708628  1
  C  C29  1  0.42040378  0.10369362  0.80708628  1
  C  C30  1  0.07959622  0.60369362  0.69291372  1
  C  C31  1  0.57959622  0.89630638  0.19291372  1
  C  C32  1  0.21848247  0.23790427  0.45707063  1
  C  C33  1  0.71848247  0.26209573  0.95707063  1
  C  C34  1  0.78151753  0.76209573  0.54292937  1
  C  C35  1  0.28151753  0.73790427  0.04292937  1
  S  S36  1  0.89563756  0.29338054  0.19926437  1
  S  S37  1  0.39563756  0.20661946  0.69926437  1
  S  S38  1  0.10436244  0.70661946  0.80073563  1
  S  S39  1  0.60436244  0.79338054  0.30073563  1
  S  S40  1  0.33208676  0.39909171  0.43489422  1
  S  S41  1  0.83208676  0.10090829  0.93489422  1
  S  S42  1  0.66791324  0.60090829  0.56510578  1
  S  S43  1  0.16791324  0.89909171  0.06510578  1
  N  N44  1  0.94009694  0.46766911  0.38641189  1
  N  N45  1  0.44009694  0.03233089  0.88641189  1
  N  N46  1  0.05990306  0.53233089  0.61358811  1
  N  N47  1  0.55990306  0.96766911  0.11358811  1
  N  N48  1  0.13335256  0.12219380  0.47335531  1
  N  N49  1  0.63335256  0.37780620  0.97335531  1
  N  N50  1  0.86664744  0.87780620  0.52664469  1
  N  N51  1  0.36664744  0.62219380  0.02664469  1
  O  O52  1  0.95407391  0.86472873  0.29909875  1
  O  O53  1  0.45407391  0.63527127  0.79909875  1
  O  O54  1  0.04592609  0.13527127  0.70090125  1
  O  O55  1  0.54592609  0.36472873  0.20090125  1
  O  O56  1  0.25706618  0.81422881  0.30984147  1
  O  O57  1  0.75706618  0.68577119  0.80984147  1
  O  O58  1  0.74293382  0.18577119  0.69015853  1
  O  O59  1  0.24293382  0.31422881  0.19015853  1
  O  O60  1  0.33617639  0.81612094  0.55795828  1
  O  O61  1  0.83617639  0.68387906  0.05795828  1
  O  O62  1  0.66382361  0.18387906  0.44204172  1
  O  O63  1  0.16382361  0.31612094  0.94204172  1
