# generated using pymatgen
data_CuH6SO7
_symmetry_space_group_name_H-M   'P 1'
_cell_length_a   5.60293016
_cell_length_b   7.28355983
_cell_length_c   7.32011940
_cell_angle_alpha   87.66056009
_cell_angle_beta   83.90788158
_cell_angle_gamma   67.37931379
_symmetry_Int_Tables_number   1
_chemical_formula_structural   CuH6SO7
_chemical_formula_sum   'Cu2 H12 S2 O14'
_cell_volume   274.19072473
_cell_formula_units_Z   2
loop_
 _symmetry_equiv_pos_site_id
 _symmetry_equiv_pos_as_xyz
  1  'x, y, z'
loop_
 _atom_site_type_symbol
 _atom_site_label
 _atom_site_symmetry_multiplicity
 _atom_site_fract_x
 _atom_site_fract_y
 _atom_site_fract_z
 _atom_site_occupancy
  Cu  Cu0  1  0.13471991  0.72919161  0.99350769  1
  Cu  Cu1  1  0.86391153  0.27080839  0.49350769  1
  H  H2  1  0.03774855  0.77791567  0.34980259  1
  H  H3  1  0.81566422  0.22208433  0.84980259  1
  H  H4  1  0.96276998  0.60051265  0.27854433  1
  H  H5  1  0.56328263  0.39948735  0.77854433  1
  H  H6  1  0.56191098  0.16834410  0.29126380  1
  H  H7  1  0.73025508  0.83165590  0.79126380  1
  H  H8  1  0.59009720  0.06071690  0.48823927  1
  H  H9  1  0.65081409  0.93928310  0.98823927  1
  H  H10  1  0.60618697  0.66092040  0.01709932  1
  H  H11  1  0.26710737  0.33907960  0.51709932  1
  H  H12  1  0.48351556  0.62501587  0.21923639  1
  H  H13  1  0.10853143  0.37498413  0.71923639  1
  S  S14  1  0.15349502  0.22891996  0.07416266  1
  S  S15  1  0.38241498  0.77108004  0.57416266  1
  O  O16  1  0.99598675  0.33539743  0.24697299  1
  O  O17  1  0.33138418  0.66460257  0.74697299  1
  O  O18  1  0.52257866  0.61114988  0.43716224  1
  O  O19  1  0.13372854  0.38885012  0.93716224  1
  O  O20  1  0.42661725  0.11773653  0.11542635  1
  O  O21  1  0.54435378  0.88226347  0.61542635  1
  O  O22  1  0.13493059  0.90761543  0.50708108  1
  O  O23  1  0.04254602  0.09238457  0.00708108  1
  O  O24  1  0.96660148  0.73352360  0.24897559  1
  O  O25  1  0.70012508  0.26647640  0.74897559  1
  O  O26  1  0.59111437  0.18431154  0.42115588  1
  O  O27  1  0.77542592  0.81568846  0.92115588  1
  O  O28  1  0.47795456  0.61227277  0.08336982  1
  O  O29  1  0.09022732  0.38772723  0.58336982  1
