# generated using pymatgen
data_Ce3AlFeS7
_symmetry_space_group_name_H-M   'P 1'
_cell_length_a   5.97319781
_cell_length_b   9.94600831
_cell_length_c   9.95312048
_cell_angle_alpha   120.28670070
_cell_angle_beta   90.00000000
_cell_angle_gamma   90.00000000
_symmetry_Int_Tables_number   1
_chemical_formula_structural   Ce3AlFeS7
_chemical_formula_sum   'Ce6 Al2 Fe2 S14'
_cell_volume   510.60336587
_cell_formula_units_Z   2
loop_
 _symmetry_equiv_pos_site_id
 _symmetry_equiv_pos_as_xyz
  1  'x, y, z'
loop_
 _atom_site_type_symbol
 _atom_site_label
 _atom_site_symmetry_multiplicity
 _atom_site_fract_x
 _atom_site_fract_y
 _atom_site_fract_z
 _atom_site_occupancy
  Ce  Ce0  1  0.26014202  0.22687090  0.36538093  1
  Ce  Ce1  1  0.26033224  0.63379086  0.86060025  1
  Ce  Ce2  1  0.25987063  0.13879311  0.77359361  1
  Ce  Ce3  1  0.76014202  0.77312910  0.63461907  1
  Ce  Ce4  1  0.76033224  0.36620914  0.13939975  1
  Ce  Ce5  1  0.75987063  0.86120689  0.22640639  1
  Al  Al6  1  0.83542678  0.33350098  0.66690459  1
  Al  Al7  1  0.33542678  0.66649902  0.33309541  1
  Fe  Fe8  1  0.46869576  -0.00008671  -0.00007228  1
  Fe  Fe9  1  0.96869576  0.00008671  0.00007228  1
  S  S10  1  0.70910891  0.14474678  0.23587495  1
  S  S11  1  0.70855198  0.76358798  0.90777389  1
  S  S12  1  0.70890888  0.09194308  0.85633158  1
  S  S13  1  0.20910891  0.85525322  0.76412505  1
  S  S14  1  0.20855198  0.23641202  0.09222611  1
  S  S15  1  0.20890888  0.90805692  0.14366842  1
  S  S16  1  0.98780914  0.09529686  0.51752656  1
  S  S17  1  0.98644808  0.48199552  0.57780358  1
  S  S18  1  0.98703974  0.42298652  0.90480127  1
  S  S19  1  0.48780914  0.90470314  0.48247344  1
  S  S20  1  0.48644808  0.51800448  0.42219642  1
  S  S21  1  0.48703974  0.57701348  0.09519873  1
  S  S22  1  0.46366582  0.33272757  0.66646736  1
  S  S23  1  0.96366582  0.66727243  0.33353264  1
