# generated using pymatgen
data_Pu(SO6)2
_symmetry_space_group_name_H-M   'P 1'
_cell_length_a   5.70243880
_cell_length_b   7.55079681
_cell_length_c   13.49555244
_cell_angle_alpha   85.42424928
_cell_angle_beta   77.80314927
_cell_angle_gamma   67.81457923
_symmetry_Int_Tables_number   1
_chemical_formula_structural   Pu(SO6)2
_chemical_formula_sum   'Pu2 S4 O24'
_cell_volume   525.92523460
_cell_formula_units_Z   2
loop_
 _symmetry_equiv_pos_site_id
 _symmetry_equiv_pos_as_xyz
  1  'x, y, z'
loop_
 _atom_site_type_symbol
 _atom_site_label
 _atom_site_symmetry_multiplicity
 _atom_site_fract_x
 _atom_site_fract_y
 _atom_site_fract_z
 _atom_site_occupancy
  Pu  Pu0  1  0.62500000  0.75000000  0.75000000  1
  Pu  Pu1  1  0.37500000  0.25000000  0.25000000  1
  S  S2  1  0.68212662  0.25000000  0.63574676  1
  S  S3  1  0.06787338  0.25000000  0.86425324  1
  S  S4  1  0.31787338  0.75000000  0.36425324  1
  S  S5  1  0.93212662  0.75000000  0.13574676  1
  O  O6  1  0.43946605  0.79249165  0.65205933  1
  O  O7  1  0.38401702  0.70750835  0.84794067  1
  O  O8  1  0.76804231  0.79249165  0.84794067  1
  O  O9  1  0.90847462  0.70750835  0.65205933  1
  O  O10  1  0.56053395  0.20750835  0.34794067  1
  O  O11  1  0.61598298  0.29249165  0.15205933  1
  O  O12  1  0.23195769  0.20750835  0.15205933  1
  O  O13  1  0.09152538  0.29249165  0.34794067  1
  O  O14  1  0.59858922  0.41792032  0.70265939  1
  O  O15  1  0.21916893  0.08207968  0.79734061  1
  O  O16  1  0.98349046  0.41792032  0.79734061  1
  O  O17  1  0.69875139  0.08207968  0.70265939  1
  O  O18  1  0.40141078  0.58207968  0.29734061  1
  O  O19  1  0.78083107  0.91792032  0.20265939  1
  O  O20  1  0.01650954  0.58207968  0.20265939  1
  O  O21  1  0.30124861  0.91792032  0.29734061  1
  O  O22  1  0.93324707  0.21940123  0.56655566  1
  O  O23  1  0.21920396  0.28059877  0.93344434  1
  O  O24  1  0.84735171  0.21940123  0.93344434  1
  O  O25  1  0.50019727  0.28059877  0.56655566  1
  O  O26  1  0.06675293  0.78059877  0.43344434  1
  O  O27  1  0.78079604  0.71940123  0.06655566  1
  O  O28  1  0.15264829  0.78059877  0.06655566  1
  O  O29  1  0.49980273  0.71940123  0.43344434  1
