# generated using pymatgen
data_KAg2SbS3
_symmetry_space_group_name_H-M   'P 1'
_cell_length_a   6.86008101
_cell_length_b   9.56564476
_cell_length_c   11.07857215
_cell_angle_alpha   90.83216958
_cell_angle_beta   92.65460102
_cell_angle_gamma   90.55154612
_symmetry_Int_Tables_number   1
_chemical_formula_structural   KAg2SbS3
_chemical_formula_sum   'K4 Ag8 Sb4 S12'
_cell_volume   726.09273196
_cell_formula_units_Z   4
loop_
 _symmetry_equiv_pos_site_id
 _symmetry_equiv_pos_as_xyz
  1  'x, y, z'
loop_
 _atom_site_type_symbol
 _atom_site_label
 _atom_site_symmetry_multiplicity
 _atom_site_fract_x
 _atom_site_fract_y
 _atom_site_fract_z
 _atom_site_occupancy
  K  K0  1  0.29949141  0.57206213  0.63404306  1
  K  K1  1  0.70050859  0.42793787  0.36595694  1
  K  K2  1  0.19953425  0.42320338  0.12803065  1
  K  K3  1  0.80046575  0.57679662  0.87196935  1
  Ag  Ag4  1  0.51706894  0.73544716  0.14162662  1
  Ag  Ag5  1  0.48293106  0.26455284  0.85837338  1
  Ag  Ag6  1  0.08350422  0.83864366  0.04701962  1
  Ag  Ag7  1  0.91649578  0.16135634  0.95298038  1
  Ag  Ag8  1  0.02439241  0.10282179  0.34414750  1
  Ag  Ag9  1  0.97560759  0.89717821  0.65585250  1
  Ag  Ag10  1  0.40809892  0.15875572  0.54381442  1
  Ag  Ag11  1  0.59190108  0.84124428  0.45618558  1
  Sb  Sb12  1  0.53590930  0.05601683  0.14821619  1
  Sb  Sb13  1  0.46409070  0.94398317  0.85178381  1
  Sb  Sb14  1  0.04929325  0.79194344  0.34563569  1
  Sb  Sb15  1  0.95070675  0.20805656  0.65436431  1
  S  S16  1  0.64034943  0.08676845  0.36299965  1
  S  S17  1  0.35965057  0.91323155  0.63700035  1
  S  S18  1  0.35786428  0.66052641  0.33677485  1
  S  S19  1  0.64213572  0.33947359  0.66322515  1
  S  S20  1  0.64403882  0.28802288  0.07360672  1
  S  S21  1  0.35596118  0.71197712  0.92639328  1
  S  S22  1  0.17507462  0.08450617  0.14011589  1
  S  S23  1  0.82492538  0.91549383  0.85988411  1
  S  S24  1  0.88607899  0.68833324  0.51862147  1
  S  S25  1  0.11392101  0.31166676  0.48137853  1
  S  S26  1  0.87895654  0.66730448  0.17147099  1
  S  S27  1  0.12104346  0.33269552  0.82852901  1
