# generated using pymatgen
data_KFeCo(PO4)2
_symmetry_space_group_name_H-M   'P 1'
_cell_length_a   5.22111646
_cell_length_b   9.39141062
_cell_length_c   14.63169289
_cell_angle_alpha   90.00000000
_cell_angle_beta   90.00000000
_cell_angle_gamma   104.71501305
_symmetry_Int_Tables_number   1
_chemical_formula_structural   KFeCo(PO4)2
_chemical_formula_sum   'K4 Fe4 Co4 P8 O32'
_cell_volume   693.91396350
_cell_formula_units_Z   4
loop_
 _symmetry_equiv_pos_site_id
 _symmetry_equiv_pos_as_xyz
  1  'x, y, z'
loop_
 _atom_site_type_symbol
 _atom_site_label
 _atom_site_symmetry_multiplicity
 _atom_site_fract_x
 _atom_site_fract_y
 _atom_site_fract_z
 _atom_site_occupancy
  K  K0  1  0.17903384  0.31579527  0.82514015  1
  K  K1  1  0.82096616  0.18420473  0.32514015  1
  K  K2  1  0.82096616  0.68420473  0.17485985  1
  K  K3  1  0.17903384  0.81579527  0.67485985  1
  Fe  Fe4  1  0.77440977  0.11834953  0.62822478  1
  Fe  Fe5  1  0.22559023  0.38165047  0.12822478  1
  Fe  Fe6  1  0.22559023  0.88165047  0.37177522  1
  Fe  Fe7  1  0.77440977  0.61834953  0.87177522  1
  Co  Co8  1  0.24363632  0.46332204  0.54767226  1
  Co  Co9  1  0.75636368  0.03667796  0.04767226  1
  Co  Co10  1  0.75636368  0.53667796  0.45232774  1
  Co  Co11  1  0.24363632  0.96332204  0.95232774  1
  P  P12  1  0.74415901  0.46214521  0.67273475  1
  P  P13  1  0.25584099  0.03785479  0.17273475  1
  P  P14  1  0.25584099  0.53785479  0.32726525  1
  P  P15  1  0.74415901  0.96214521  0.82726525  1
  P  P16  1  0.30965988  0.17659500  0.50698757  1
  P  P17  1  0.69034012  0.32340500  0.00698757  1
  P  P18  1  0.69034012  0.82340500  0.49301243  1
  P  P19  1  0.30965988  0.67659500  0.99301243  1
  O  O20  1  0.88275011  0.05517505  0.74448648  1
  O  O21  1  0.11724989  0.44482495  0.24448648  1
  O  O22  1  0.11724989  0.94482495  0.25551352  1
  O  O23  1  0.88275011  0.55517505  0.75551352  1
  O  O24  1  0.76919559  0.30368269  0.68899905  1
  O  O25  1  0.23080441  0.19631731  0.18899905  1
  O  O26  1  0.23080441  0.69631731  0.31100095  1
  O  O27  1  0.76919559  0.80368269  0.81100095  1
  O  O28  1  0.91084642  0.53064893  0.58637219  1
  O  O29  1  0.08915358  0.96935107  0.08637219  1
  O  O30  1  0.08915358  0.46935107  0.41362781  1
  O  O31  1  0.91084642  0.03064893  0.91362781  1
  O  O32  1  0.45306762  0.46763606  0.66616986  1
  O  O33  1  0.54693238  0.03236394  0.16616986  1
  O  O34  1  0.54693238  0.53236394  0.33383014  1
  O  O35  1  0.45306762  0.96763606  0.83383014  1
  O  O36  1  0.50874813  0.32411098  0.48492835  1
  O  O37  1  0.49125187  0.17588902  0.98492835  1
  O  O38  1  0.49125187  0.67588902  0.51507165  1
  O  O39  1  0.50874813  0.82411098  0.01507165  1
  O  O40  1  0.06382410  0.22374788  0.54888839  1
  O  O41  1  0.93617590  0.27625212  0.04888839  1
  O  O42  1  0.93617590  0.77625212  0.45111161  1
  O  O43  1  0.06382410  0.72374788  0.95111161  1
  O  O44  1  0.41567902  0.08604672  0.58002956  1
  O  O45  1  0.58432098  0.41395328  0.08002956  1
  O  O46  1  0.58432098  0.91395328  0.41997044  1
  O  O47  1  0.41567902  0.58604672  0.91997044  1
  O  O48  1  0.22140354  0.08377504  0.42043434  1
  O  O49  1  0.77859646  0.41622496  0.92043434  1
  O  O50  1  0.77859646  0.91622496  0.57956566  1
  O  O51  1  0.22140354  0.58377504  0.07956566  1
