# generated using pymatgen
data_Hf4Si7Ni4
_symmetry_space_group_name_H-M   'P 1'
_cell_length_a   5.10756332
_cell_length_b   9.44515788
_cell_length_c   9.44515788
_cell_angle_alpha   85.80763278
_cell_angle_beta   74.31312050
_cell_angle_gamma   74.31312050
_symmetry_Int_Tables_number   1
_chemical_formula_structural   Hf4Si7Ni4
_chemical_formula_sum   'Hf8 Si14 Ni8'
_cell_volume   422.34035880
_cell_formula_units_Z   2
loop_
 _symmetry_equiv_pos_site_id
 _symmetry_equiv_pos_as_xyz
  1  'x, y, z'
loop_
 _atom_site_type_symbol
 _atom_site_label
 _atom_site_symmetry_multiplicity
 _atom_site_fract_x
 _atom_site_fract_y
 _atom_site_fract_z
 _atom_site_occupancy
  Hf  Hf0  1  0.13638146  -0.00000000  0.72723708  1
  Hf  Hf1  1  0.86361854  0.00000000  0.27276292  1
  Hf  Hf2  1  0.86361854  0.27276292  -0.00000000  1
  Hf  Hf3  1  0.13638146  0.72723708  0.00000000  1
  Hf  Hf4  1  0.50000000  0.80493963  0.19506037  1
  Hf  Hf5  1  0.50000000  0.19506037  0.80493963  1
  Hf  Hf6  1  0.69506037  0.80493963  0.80493963  1
  Hf  Hf7  1  0.30493963  0.19506037  0.19506037  1
  Si  Si8  1  0.50000000  0.59137071  0.40862929  1
  Si  Si9  1  0.50000000  0.40862929  0.59137071  1
  Si  Si10  1  0.90862929  0.59137071  0.59137071  1
  Si  Si11  1  0.09137071  0.40862929  0.40862929  1
  Si  Si12  1  0.74962538  0.00000000  0.00000000  1
  Si  Si13  1  0.25037462  0.00000000  0.00000000  1
  Si  Si14  1  0.29127795  0.00000000  0.41744411  1
  Si  Si15  1  0.70872205  -0.00000000  0.58255589  1
  Si  Si16  1  0.70872205  0.58255589  0.00000000  1
  Si  Si17  1  0.29127795  0.41744411  -0.00000000  1
  Si  Si18  1  0.00000000  0.29606281  0.70393719  1
  Si  Si19  1  -0.00000000  0.70393719  0.29606281  1
  Si  Si20  1  0.70393719  0.29606281  0.29606281  1
  Si  Si21  1  0.29606281  0.70393719  0.70393719  1
  Ni  Ni22  1  0.39707670  0.50000000  0.20584660  1
  Ni  Ni23  1  0.10292330  0.50000000  0.79415340  1
  Ni  Ni24  1  0.10292330  0.79415340  0.50000000  1
  Ni  Ni25  1  0.39707670  0.20584660  0.50000000  1
  Ni  Ni26  1  0.60292330  0.79415340  0.50000000  1
  Ni  Ni27  1  0.89707670  0.20584660  0.50000000  1
  Ni  Ni28  1  0.89707670  0.50000000  0.20584660  1
  Ni  Ni29  1  0.60292330  0.50000000  0.79415340  1
