# generated using pymatgen
data_Ce8Ga3Co
_symmetry_space_group_name_H-M   'P 1'
_cell_length_a   6.43727203
_cell_length_b   10.20197215
_cell_length_c   10.20197215
_cell_angle_alpha   120.20927791
_cell_angle_beta   90.00000000
_cell_angle_gamma   90.00000000
_symmetry_Int_Tables_number   1
_chemical_formula_structural   Ce8Ga3Co
_chemical_formula_sum   'Ce16 Ga6 Co2'
_cell_volume   579.00330464
_cell_formula_units_Z   2
loop_
 _symmetry_equiv_pos_site_id
 _symmetry_equiv_pos_as_xyz
  1  'x, y, z'
loop_
 _atom_site_type_symbol
 _atom_site_label
 _atom_site_symmetry_multiplicity
 _atom_site_fract_x
 _atom_site_fract_y
 _atom_site_fract_z
 _atom_site_occupancy
  Ce  Ce0  1  0.45908832  0.17811319  0.82188681  1
  Ce  Ce1  1  0.46106578  0.64388262  0.82155440  1
  Ce  Ce2  1  0.46106578  0.17844560  0.35611738  1
  Ce  Ce3  1  0.95908832  0.82188681  0.17811319  1
  Ce  Ce4  1  0.96106578  0.35611738  0.17844560  1
  Ce  Ce5  1  0.96106578  0.82155440  0.64388262  1
  Ce  Ce6  1  0.87449117  0.33275545  0.66724455  1
  Ce  Ce7  1  0.37449117  0.66724455  0.33275545  1
  Ce  Ce8  1  0.23253516  0.46796462  0.53203538  1
  Ce  Ce9  1  0.23171174  0.06520412  0.53271379  1
  Ce  Ce10  1  0.23171174  0.46728621  0.93479588  1
  Ce  Ce11  1  0.73253516  0.53203538  0.46796462  1
  Ce  Ce12  1  0.73171174  0.93479588  0.46728621  1
  Ce  Ce13  1  0.73171174  0.53271379  0.06520412  1
  Ce  Ce14  1  0.21143552  0.00004841  0.99995159  1
  Ce  Ce15  1  0.71143552  0.99995159  0.00004841  1
  Ga  Ga16  1  0.96453949  0.16383632  0.83616368  1
  Ga  Ga17  1  0.96554807  0.67178263  0.83571616  1
  Ga  Ga18  1  0.96554807  0.16428384  0.32821737  1
  Ga  Ga19  1  0.46453949  0.83616368  0.16383632  1
  Ga  Ga20  1  0.46554807  0.32821737  0.16428384  1
  Ga  Ga21  1  0.46554807  0.83571616  0.67178263  1
  Co  Co22  1  0.47825916  0.33346358  0.66653642  1
  Co  Co23  1  0.97825916  0.66653642  0.33346358  1
