# generated using pymatgen
data_Ce5(C2Br)3
_symmetry_space_group_name_H-M   'P 1'
_cell_length_a   3.78104573
_cell_length_b   11.29296208
_cell_length_c   13.88876619
_cell_angle_alpha   80.27680337
_cell_angle_beta   82.17667867
_cell_angle_gamma   80.36290066
_symmetry_Int_Tables_number   1
_chemical_formula_structural   Ce5(C2Br)3
_chemical_formula_sum   'Ce10 C12 Br6'
_cell_volume   572.71146860
_cell_formula_units_Z   2
loop_
 _symmetry_equiv_pos_site_id
 _symmetry_equiv_pos_as_xyz
  1  'x, y, z'
loop_
 _atom_site_type_symbol
 _atom_site_label
 _atom_site_symmetry_multiplicity
 _atom_site_fract_x
 _atom_site_fract_y
 _atom_site_fract_z
 _atom_site_occupancy
  Ce  Ce0  1  0.16990028  0.03905492  0.62114451  1
  Ce  Ce1  1  0.83009972  0.96094508  0.37885549  1
  Ce  Ce2  1  0.83342773  0.73225890  0.60088564  1
  Ce  Ce3  1  0.16657227  0.26774110  0.39911436  1
  Ce  Ce4  1  0.49805639  0.10720240  0.89668482  1
  Ce  Ce5  1  0.50194361  0.89279760  0.10331518  1
  Ce  Ce6  1  0.16115910  0.82393951  0.85374228  1
  Ce  Ce7  1  0.83884090  0.17606049  0.14625772  1
  Ce  Ce8  1  0.50032013  0.39437419  0.60498555  1
  Ce  Ce9  1  0.49967987  0.60562581  0.39501445  1
  C  C10  1  0.62841419  0.20997258  0.53319904  1
  C  C11  1  0.37158581  0.79002742  0.46680096  1
  C  C12  1  0.62686767  0.97267804  0.77358663  1
  C  C13  1  0.37313233  0.02732196  0.22641337  1
  C  C14  1  0.03700893  0.95826429  0.96771785  1
  C  C15  1  0.96299107  0.04173571  0.03228215  1
  C  C16  1  0.29970238  0.88460300  0.51599224  1
  C  C17  1  0.70029762  0.11539700  0.48400776  1
  C  C18  1  0.69896894  0.88806339  0.71399873  1
  C  C19  1  0.30103106  0.11193661  0.28600127  1
  C  C20  1  0.96322308  0.54909400  0.52445984  1
  C  C21  1  0.03677692  0.45090600  0.47554016  1
  Br  Br22  1  0.33063273  0.58846310  0.75027145  1
  Br  Br23  1  0.66936727  0.41153690  0.24972855  1
  Br  Br24  1  0.66905901  0.67119281  0.99068918  1
  Br  Br25  1  0.33094099  0.32880719  0.00931082  1
  Br  Br26  1  0.98508252  0.26900553  0.76082944  1
  Br  Br27  1  0.01491748  0.73099447  0.23917056  1
