# generated using pymatgen
data_Ag3B5O9
_symmetry_space_group_name_H-M   'P 1'
_cell_length_a   6.82145453
_cell_length_b   9.54878197
_cell_length_c   11.15106056
_cell_angle_alpha   90.00000000
_cell_angle_beta   90.00000000
_cell_angle_gamma   90.00000000
_symmetry_Int_Tables_number   1
_chemical_formula_structural   Ag3B5O9
_chemical_formula_sum   'Ag12 B20 O36'
_cell_volume   726.34197083
_cell_formula_units_Z   4
loop_
 _symmetry_equiv_pos_site_id
 _symmetry_equiv_pos_as_xyz
  1  'x, y, z'
loop_
 _atom_site_type_symbol
 _atom_site_label
 _atom_site_symmetry_multiplicity
 _atom_site_fract_x
 _atom_site_fract_y
 _atom_site_fract_z
 _atom_site_occupancy
  Ag  Ag0  1  0.81563786  0.72973070  0.77109844  1
  Ag  Ag1  1  0.68436214  0.27026930  0.27109844  1
  Ag  Ag2  1  0.31563786  0.77026930  0.22890156  1
  Ag  Ag3  1  0.18436214  0.22973070  0.72890156  1
  Ag  Ag4  1  0.56447026  0.69114548  0.98730908  1
  Ag  Ag5  1  0.93552974  0.30885452  0.48730908  1
  Ag  Ag6  1  0.06447026  0.80885452  0.01269092  1
  Ag  Ag7  1  0.43552974  0.19114548  0.51269092  1
  Ag  Ag8  1  0.02810561  0.60264988  0.57409791  1
  Ag  Ag9  1  0.47189439  0.39735012  0.07409791  1
  Ag  Ag10  1  0.52810561  0.89735012  0.42590209  1
  Ag  Ag11  1  0.97189439  0.10264988  0.92590209  1
  B  B12  1  0.52754622  0.96564826  0.73439678  1
  B  B13  1  0.97245378  0.03435174  0.23439678  1
  B  B14  1  0.02754622  0.53435174  0.26560322  1
  B  B15  1  0.47245378  0.46564826  0.76560322  1
  B  B16  1  0.29718435  0.76425510  0.78358304  1
  B  B17  1  0.20281565  0.23574490  0.28358304  1
  B  B18  1  0.79718435  0.73574490  0.21641696  1
  B  B19  1  0.70281565  0.26425510  0.71641696  1
  B  B20  1  0.85131041  0.02666035  0.62373671  1
  B  B21  1  0.64868959  0.97333965  0.12373671  1
  B  B22  1  0.35131041  0.47333965  0.37626329  1
  B  B23  1  0.14868959  0.52666035  0.87626329  1
  B  B24  1  0.79715454  0.42647689  0.88309570  1
  B  B25  1  0.70284546  0.57352311  0.38309570  1
  B  B26  1  0.29715454  0.07352311  0.11690430  1
  B  B27  1  0.20284546  0.92647689  0.61690430  1
  B  B28  1  0.49711030  0.57352018  0.56848980  1
  B  B29  1  0.00288970  0.42647982  0.06848980  1
  B  B30  1  0.99711030  0.92647982  0.43151020  1
  B  B31  1  0.50288970  0.07352018  0.93151020  1
  O  O32  1  0.94100195  0.53215057  0.84063375  1
  O  O33  1  0.55899805  0.46784943  0.34063375  1
  O  O34  1  0.44100195  0.96784943  0.15936625  1
  O  O35  1  0.05899805  0.03215057  0.65936625  1
  O  O36  1  0.67047734  0.60687892  0.51112566  1
  O  O37  1  0.82952266  0.39312108  0.01112566  1
  O  O38  1  0.17047734  0.89312108  0.48887434  1
  O  O39  1  0.32952266  0.10687892  0.98887434  1
  O  O40  1  0.45518232  0.84792693  0.81064397  1
  O  O41  1  0.04481768  0.15207307  0.31064397  1
  O  O42  1  0.95518232  0.65207307  0.18935603  1
  O  O43  1  0.54481768  0.34792693  0.68935603  1
  O  O44  1  0.73357155  0.93892960  0.70301135  1
  O  O45  1  0.76642845  0.06107040  0.20301135  1
  O  O46  1  0.23357155  0.56107040  0.29698865  1
  O  O47  1  0.26642845  0.43892960  0.79698865  1
  O  O48  1  0.73445332  0.82607709  0.12313864  1
  O  O49  1  0.76554668  0.17392291  0.62313864  1
  O  O50  1  0.23445332  0.67392291  0.87686136  1
  O  O51  1  0.26554668  0.32607709  0.37686136  1
  O  O52  1  0.33949509  0.52339202  0.50388346  1
  O  O53  1  0.16050491  0.47660798  0.00388346  1
  O  O54  1  0.83949509  0.97660798  0.49611654  1
  O  O55  1  0.66050491  0.02339202  0.99611654  1
  O  O56  1  0.48718291  0.59487078  0.69116309  1
  O  O57  1  0.01281709  0.40512922  0.19116309  1
  O  O58  1  0.98718291  0.90512922  0.30883691  1
  O  O59  1  0.51281709  0.09487078  0.80883691  1
  O  O60  1  0.17790718  0.79354443  0.68685327  1
  O  O61  1  0.32209282  0.20645557  0.18685327  1
  O  O62  1  0.67790718  0.70645557  0.31314673  1
  O  O63  1  0.82209282  0.29354443  0.81314673  1
  O  O64  1  0.40391125  0.97994391  0.62602038  1
  O  O65  1  0.09608875  0.02005609  0.12602038  1
  O  O66  1  0.90391125  0.52005609  0.37397962  1
  O  O67  1  0.59608875  0.47994391  0.87397962  1
