# generated using pymatgen
data_K7(FeTe2)4
_symmetry_space_group_name_H-M   'P 1'
_cell_length_a   8.79661774
_cell_length_b   17.36441499
_cell_length_c   17.23496405
_cell_angle_alpha   90.00000000
_cell_angle_beta   90.00000000
_cell_angle_gamma   90.00000000
_symmetry_Int_Tables_number   1
_chemical_formula_structural   K7(FeTe2)4
_chemical_formula_sum   'K28 Fe16 Te32'
_cell_volume   2632.60837321
_cell_formula_units_Z   4
loop_
 _symmetry_equiv_pos_site_id
 _symmetry_equiv_pos_as_xyz
  1  'x, y, z'
loop_
 _atom_site_type_symbol
 _atom_site_label
 _atom_site_symmetry_multiplicity
 _atom_site_fract_x
 _atom_site_fract_y
 _atom_site_fract_z
 _atom_site_occupancy
  K  K0  1  0.24329204  0.99019319  0.48915790  1
  K  K1  1  0.25670796  0.50980681  0.98915790  1
  K  K2  1  0.25670796  0.49019319  0.51084210  1
  K  K3  1  0.24329204  0.00980681  0.01084210  1
  K  K4  1  0.75670796  0.00980681  0.51084210  1
  K  K5  1  0.74329204  0.49019319  0.01084210  1
  K  K6  1  0.74329204  0.50980681  0.48915790  1
  K  K7  1  0.75670796  0.99019319  0.98915790  1
  K  K8  1  0.18064384  0.75867329  0.25039466  1
  K  K9  1  0.31935616  0.74132671  0.75039466  1
  K  K10  1  0.31935616  0.25867329  0.74960534  1
  K  K11  1  0.18064384  0.24132671  0.24960534  1
  K  K12  1  0.81935616  0.24132671  0.74960534  1
  K  K13  1  0.68064384  0.25867329  0.24960534  1
  K  K14  1  0.68064384  0.74132671  0.25039466  1
  K  K15  1  0.81935616  0.75867329  0.75039466  1
  K  K16  1  0.20377329  0.73379323  0.49918767  1
  K  K17  1  0.29622671  0.76620677  0.99918767  1
  K  K18  1  0.29622671  0.23379323  0.50081233  1
  K  K19  1  0.20377329  0.26620677  0.00081233  1
  K  K20  1  0.79622671  0.26620677  0.50081233  1
  K  K21  1  0.70377329  0.23379323  0.00081233  1
  K  K22  1  0.70377329  0.76620677  0.49918767  1
  K  K23  1  0.79622671  0.73379323  0.99918767  1
  K  K24  1  0.22097757  -0.00000000  0.25000000  1
  K  K25  1  0.27902243  0.50000000  0.75000000  1
  K  K26  1  0.77902243  -0.00000000  0.75000000  1
  K  K27  1  0.72097757  0.50000000  0.25000000  1
  Fe  Fe28  1  0.11586535  0.55429980  0.29975453  1
  Fe  Fe29  1  0.38413465  0.94570020  0.79975453  1
  Fe  Fe30  1  0.38413465  0.05429980  0.70024547  1
  Fe  Fe31  1  0.11586535  0.44570020  0.20024547  1
  Fe  Fe32  1  0.88413465  0.44570020  0.70024547  1
  Fe  Fe33  1  0.61586535  0.05429980  0.20024547  1
  Fe  Fe34  1  0.61586535  0.94570020  0.29975453  1
  Fe  Fe35  1  0.88413465  0.55429980  0.79975453  1
  Fe  Fe36  1  0.32501110  0.55030831  0.19537540  1
  Fe  Fe37  1  0.17498890  0.94969169  0.69537540  1
  Fe  Fe38  1  0.17498890  0.05030831  0.80462460  1
  Fe  Fe39  1  0.32501110  0.44969169  0.30462460  1
  Fe  Fe40  1  0.67498890  0.44969169  0.80462460  1
  Fe  Fe41  1  0.82501110  0.05030831  0.30462460  1
  Fe  Fe42  1  0.82501110  0.94969169  0.19537540  1
  Fe  Fe43  1  0.67498890  0.55030831  0.69537540  1
  Te  Te44  1  0.39340546  0.59357940  0.33727700  1
  Te  Te45  1  0.10659454  0.90642060  0.83727700  1
  Te  Te46  1  0.10659454  0.09357940  0.66272300  1
  Te  Te47  1  0.39340546  0.40642060  0.16272300  1
  Te  Te48  1  0.60659454  0.40642060  0.66272300  1
  Te  Te49  1  0.89340546  0.09357940  0.16272300  1
  Te  Te50  1  0.89340546  0.90642060  0.33727700  1
  Te  Te51  1  0.60659454  0.59357940  0.83727700  1
  Te  Te52  1  0.04614208  0.58577494  0.15431877  1
  Te  Te53  1  0.45385792  0.91422506  0.65431877  1
  Te  Te54  1  0.45385792  0.08577494  0.84568123  1
  Te  Te55  1  0.04614208  0.41422506  0.34568123  1
  Te  Te56  1  0.95385792  0.41422506  0.84568123  1
  Te  Te57  1  0.54614208  0.08577494  0.34568123  1
  Te  Te58  1  0.54614208  0.91422506  0.15431877  1
  Te  Te59  1  0.95385792  0.58577494  0.65431877  1
  Te  Te60  1  0.43541728  0.85559904  0.37614030  1
  Te  Te61  1  0.06458272  0.64440096  0.87614030  1
  Te  Te62  1  0.06458272  0.35559904  0.62385970  1
  Te  Te63  1  0.43541728  0.14440096  0.12385970  1
  Te  Te64  1  0.56458272  0.14440096  0.62385970  1
  Te  Te65  1  0.93541728  0.35559904  0.12385970  1
  Te  Te66  1  0.93541728  0.64440096  0.37614030  1
  Te  Te67  1  0.56458272  0.85559904  0.87614030  1
  Te  Te68  1  0.00777859  0.87163194  0.10702982  1
  Te  Te69  1  0.49222141  0.62836806  0.60702982  1
  Te  Te70  1  0.49222141  0.37163194  0.89297018  1
  Te  Te71  1  0.00777859  0.12836806  0.39297018  1
  Te  Te72  1  0.99222141  0.12836806  0.89297018  1
  Te  Te73  1  0.50777859  0.37163194  0.39297018  1
  Te  Te74  1  0.50777859  0.62836806  0.10702982  1
  Te  Te75  1  0.99222141  0.87163194  0.60702982  1
