# generated using pymatgen
data_Nb4Ga5
_symmetry_space_group_name_H-M   'P 1'
_cell_length_a   11.90758770
_cell_length_b   11.90758770
_cell_length_c   17.19039057
_cell_angle_alpha   90.00000000
_cell_angle_beta   90.00000000
_cell_angle_gamma   90.00000000
_symmetry_Int_Tables_number   1
_chemical_formula_structural   Nb4Ga5
_chemical_formula_sum   'Nb64 Ga80'
_cell_volume   2437.43656385
_cell_formula_units_Z   16
loop_
 _symmetry_equiv_pos_site_id
 _symmetry_equiv_pos_as_xyz
  1  'x, y, z'
loop_
 _atom_site_type_symbol
 _atom_site_label
 _atom_site_symmetry_multiplicity
 _atom_site_fract_x
 _atom_site_fract_y
 _atom_site_fract_z
 _atom_site_occupancy
  Nb  Nb0  1  0.25288663  0.25288663  0.39892641  1
  Nb  Nb1  1  0.74711337  0.74711337  0.39892641  1
  Nb  Nb2  1  0.24711337  0.75288663  0.89892641  1
  Nb  Nb3  1  0.75288663  0.24711337  0.89892641  1
  Nb  Nb4  1  0.74711337  0.74711337  0.60107359  1
  Nb  Nb5  1  0.25288663  0.25288663  0.60107359  1
  Nb  Nb6  1  0.75288663  0.24711337  0.10107359  1
  Nb  Nb7  1  0.24711337  0.75288663  0.10107359  1
  Nb  Nb8  1  0.35510698  0.84669646  0.50000000  1
  Nb  Nb9  1  0.64489302  0.15330354  0.50000000  1
  Nb  Nb10  1  0.14489302  0.34669646  0.00000000  1
  Nb  Nb11  1  0.85510698  0.65330354  0.00000000  1
  Nb  Nb12  1  0.84669646  0.35510698  0.50000000  1
  Nb  Nb13  1  0.15330354  0.64489302  0.50000000  1
  Nb  Nb14  1  0.34669646  0.14489302  0.00000000  1
  Nb  Nb15  1  0.65330354  0.85510698  0.00000000  1
  Nb  Nb16  1  0.48729635  0.79815042  0.35108068  1
  Nb  Nb17  1  0.51270365  0.20184958  0.35108068  1
  Nb  Nb18  1  0.01270365  0.29815042  0.85108068  1
  Nb  Nb19  1  0.98729635  0.70184958  0.85108068  1
  Nb  Nb20  1  0.51270365  0.20184958  0.64891932  1
  Nb  Nb21  1  0.48729635  0.79815042  0.64891932  1
  Nb  Nb22  1  0.98729635  0.70184958  0.14891932  1
  Nb  Nb23  1  0.01270365  0.29815042  0.14891932  1
  Nb  Nb24  1  0.79815042  0.48729635  0.35108068  1
  Nb  Nb25  1  0.20184958  0.51270365  0.35108068  1
  Nb  Nb26  1  0.29815042  0.01270365  0.85108068  1
  Nb  Nb27  1  0.70184958  0.98729635  0.85108068  1
  Nb  Nb28  1  0.20184958  0.51270365  0.64891932  1
  Nb  Nb29  1  0.79815042  0.48729635  0.64891932  1
  Nb  Nb30  1  0.70184958  0.98729635  0.14891932  1
  Nb  Nb31  1  0.29815042  0.01270365  0.14891932  1
  Nb  Nb32  1  0.50000000  0.00000000  0.25000000  1
  Nb  Nb33  1  -0.00000000  0.50000000  0.75000000  1
  Nb  Nb34  1  0.50000000  0.00000000  0.75000000  1
  Nb  Nb35  1  -0.00000000  0.50000000  0.25000000  1
  Nb  Nb36  1  0.29312480  0.99458188  0.35378833  1
  Nb  Nb37  1  0.70687520  0.00541812  0.35378833  1
  Nb  Nb38  1  0.20687520  0.49458188  0.85378833  1
  Nb  Nb39  1  0.79312480  0.50541812  0.85378833  1
  Nb  Nb40  1  0.70687520  0.00541812  0.64621167  1
  Nb  Nb41  1  0.29312480  0.99458188  0.64621167  1
  Nb  Nb42  1  0.79312480  0.50541812  0.14621167  1
  Nb  Nb43  1  0.20687520  0.49458188  0.14621167  1
  Nb  Nb44  1  0.99458188  0.29312480  0.35378833  1
  Nb  Nb45  1  0.00541812  0.70687520  0.35378833  1
  Nb  Nb46  1  0.49458188  0.20687520  0.85378833  1
  Nb  Nb47  1  0.50541812  0.79312480  0.85378833  1
  Nb  Nb48  1  0.00541812  0.70687520  0.64621167  1
  Nb  Nb49  1  0.99458188  0.29312480  0.64621167  1
  Nb  Nb50  1  0.50541812  0.79312480  0.14621167  1
  Nb  Nb51  1  0.49458188  0.20687520  0.14621167  1
  Nb  Nb52  1  0.89084086  0.89084086  0.24154910  1
  Nb  Nb53  1  0.10915914  0.10915914  0.24154910  1
  Nb  Nb54  1  0.60915914  0.39084086  0.74154910  1
  Nb  Nb55  1  0.39084086  0.60915914  0.74154910  1
  Nb  Nb56  1  0.10915914  0.10915914  0.75845090  1
  Nb  Nb57  1  0.89084086  0.89084086  0.75845090  1
  Nb  Nb58  1  0.39084086  0.60915914  0.25845090  1
  Nb  Nb59  1  0.60915914  0.39084086  0.25845090  1
  Nb  Nb60  1  0.11715553  0.88284447  0.50000000  1
  Nb  Nb61  1  0.88284447  0.11715553  0.50000000  1
  Nb  Nb62  1  0.38284447  0.38284447  0.00000000  1
  Nb  Nb63  1  0.61715553  0.61715553  0.00000000  1
  Ga  Ga64  1  0.43464534  0.25021363  0.50000000  1
  Ga  Ga65  1  0.56535466  0.74978637  0.50000000  1
  Ga  Ga66  1  0.06535466  0.75021363  0.00000000  1
  Ga  Ga67  1  0.93464534  0.24978637  0.00000000  1
  Ga  Ga68  1  0.25021363  0.43464534  0.50000000  1
  Ga  Ga69  1  0.74978637  0.56535466  0.50000000  1
  Ga  Ga70  1  0.75021363  0.06535466  0.00000000  1
  Ga  Ga71  1  0.24978637  0.93464534  0.00000000  1
  Ga  Ga72  1  0.23883678  0.76116322  0.37360475  1
  Ga  Ga73  1  0.76116322  0.23883678  0.37360475  1
  Ga  Ga74  1  0.26116322  0.26116322  0.87360475  1
  Ga  Ga75  1  0.73883678  0.73883678  0.87360475  1
  Ga  Ga76  1  0.76116322  0.23883678  0.62639525  1
  Ga  Ga77  1  0.23883678  0.76116322  0.62639525  1
  Ga  Ga78  1  0.73883678  0.73883678  0.12639525  1
  Ga  Ga79  1  0.26116322  0.26116322  0.12639525  1
  Ga  Ga80  1  0.16641128  0.67000764  0.23943980  1
  Ga  Ga81  1  0.83358872  0.32999236  0.23943980  1
  Ga  Ga82  1  0.33358872  0.17000764  0.73943980  1
  Ga  Ga83  1  0.66641128  0.82999236  0.73943980  1
  Ga  Ga84  1  0.83358872  0.32999236  0.76056020  1
  Ga  Ga85  1  0.16641128  0.67000764  0.76056020  1
  Ga  Ga86  1  0.66641128  0.82999236  0.26056020  1
  Ga  Ga87  1  0.33358872  0.17000764  0.26056020  1
  Ga  Ga88  1  0.67000764  0.16641128  0.23943980  1
  Ga  Ga89  1  0.32999236  0.83358872  0.23943980  1
  Ga  Ga90  1  0.17000764  0.33358872  0.73943980  1
  Ga  Ga91  1  0.82999236  0.66641128  0.73943980  1
  Ga  Ga92  1  0.32999236  0.83358872  0.76056020  1
  Ga  Ga93  1  0.67000764  0.16641128  0.76056020  1
  Ga  Ga94  1  0.82999236  0.66641128  0.26056020  1
  Ga  Ga95  1  0.17000764  0.33358872  0.26056020  1
  Ga  Ga96  1  0.09134403  0.90865597  0.31839140  1
  Ga  Ga97  1  0.90865597  0.09134403  0.31839140  1
  Ga  Ga98  1  0.40865597  0.40865597  0.81839140  1
  Ga  Ga99  1  0.59134403  0.59134403  0.81839140  1
  Ga  Ga100  1  0.90865597  0.09134403  0.68160860  1
  Ga  Ga101  1  0.09134403  0.90865597  0.68160860  1
  Ga  Ga102  1  0.59134403  0.59134403  0.18160860  1
  Ga  Ga103  1  0.40865597  0.40865597  0.18160860  1
  Ga  Ga104  1  0.28158696  0.07070495  0.50000000  1
  Ga  Ga105  1  0.71841304  0.92929505  0.50000000  1
  Ga  Ga106  1  0.21841304  0.57070495  0.00000000  1
  Ga  Ga107  1  0.78158696  0.42929505  0.00000000  1
  Ga  Ga108  1  0.07070495  0.28158696  0.50000000  1
  Ga  Ga109  1  0.92929505  0.71841304  0.50000000  1
  Ga  Ga110  1  0.57070495  0.21841304  0.00000000  1
  Ga  Ga111  1  0.42929505  0.78158696  0.00000000  1
  Ga  Ga112  1  0.50000000  0.00000000  0.42239015  1
  Ga  Ga113  1  -0.00000000  0.50000000  0.92239015  1
  Ga  Ga114  1  0.50000000  -0.00000000  0.57760985  1
  Ga  Ga115  1  -0.00000000  0.50000000  0.07760985  1
  Ga  Ga116  1  0.00000000  0.50000000  0.42239015  1
  Ga  Ga117  1  0.50000000  -0.00000000  0.92239015  1
  Ga  Ga118  1  -0.00000000  0.50000000  0.57760985  1
  Ga  Ga119  1  0.50000000  0.00000000  0.07760985  1
  Ga  Ga120  1  0.38320852  0.61679148  0.42552148  1
  Ga  Ga121  1  0.61679148  0.38320852  0.42552148  1
  Ga  Ga122  1  0.11679148  0.11679148  0.92552148  1
  Ga  Ga123  1  0.88320852  0.88320852  0.92552148  1
  Ga  Ga124  1  0.61679148  0.38320852  0.57447852  1
  Ga  Ga125  1  0.38320852  0.61679148  0.57447852  1
  Ga  Ga126  1  0.88320852  0.88320852  0.07447852  1
  Ga  Ga127  1  0.11679148  0.11679148  0.07447852  1
  Ga  Ga128  1  0.09013791  0.09013791  0.41106692  1
  Ga  Ga129  1  0.90986209  0.90986209  0.41106692  1
  Ga  Ga130  1  0.40986209  0.59013791  0.91106692  1
  Ga  Ga131  1  0.59013791  0.40986209  0.91106692  1
  Ga  Ga132  1  0.90986209  0.90986209  0.58893308  1
  Ga  Ga133  1  0.09013791  0.09013791  0.58893308  1
  Ga  Ga134  1  0.59013791  0.40986209  0.08893308  1
  Ga  Ga135  1  0.40986209  0.59013791  0.08893308  1
  Ga  Ga136  1  0.09648697  0.90351303  0.15849382  1
  Ga  Ga137  1  0.90351303  0.09648697  0.15849382  1
  Ga  Ga138  1  0.40351303  0.40351303  0.65849382  1
  Ga  Ga139  1  0.59648697  0.59648697  0.65849382  1
  Ga  Ga140  1  0.90351303  0.09648697  0.84150618  1
  Ga  Ga141  1  0.09648697  0.90351303  0.84150618  1
  Ga  Ga142  1  0.59648697  0.59648697  0.34150618  1
  Ga  Ga143  1  0.40351303  0.40351303  0.34150618  1
