# generated using pymatgen
data_Bi2(SO4)3
_symmetry_space_group_name_H-M   'P 1'
_cell_length_a   6.86315315
_cell_length_b   8.35085439
_cell_length_c   9.42917239
_cell_angle_alpha   101.52198380
_cell_angle_beta   111.34186443
_cell_angle_gamma   90.00000000
_symmetry_Int_Tables_number   1
_chemical_formula_structural   Bi2(SO4)3
_chemical_formula_sum   'Bi4 S6 O24'
_cell_volume   491.64666500
_cell_formula_units_Z   2
loop_
 _symmetry_equiv_pos_site_id
 _symmetry_equiv_pos_as_xyz
  1  'x, y, z'
loop_
 _atom_site_type_symbol
 _atom_site_label
 _atom_site_symmetry_multiplicity
 _atom_site_fract_x
 _atom_site_fract_y
 _atom_site_fract_z
 _atom_site_occupancy
  Bi  Bi0  1  0.45111644  0.44985994  0.69953720  1
  Bi  Bi1  1  0.75157925  0.05014006  0.30046280  1
  Bi  Bi2  1  0.54888356  0.55014006  0.30046280  1
  Bi  Bi3  1  0.24842075  0.94985994  0.69953720  1
  S  S4  1  0.90329853  0.30881378  0.62737796  1
  S  S5  1  0.27592058  0.19118622  0.37262204  1
  S  S6  1  0.09670147  0.69118622  0.37262204  1
  S  S7  1  0.72407942  0.80881378  0.62737796  1
  S  S8  1  0.42545665  0.25000000  0.00000000  1
  S  S9  1  0.57454335  0.75000000  0.00000000  1
  O  O10  1  0.09127252  0.42514032  0.69959315  1
  O  O11  1  0.39167937  0.07485968  0.30040685  1
  O  O12  1  0.90872748  0.57485968  0.30040685  1
  O  O13  1  0.60832063  0.92514032  0.69959315  1
  O  O14  1  0.78217892  0.32299390  0.46087522  1
  O  O15  1  0.32130370  0.17700610  0.53912478  1
  O  O16  1  0.21782108  0.67700610  0.53912478  1
  O  O17  1  0.67869630  0.82299390  0.46087522  1
  O  O18  1  0.95678943  0.13247998  0.61017674  1
  O  O19  1  0.34661269  0.36752002  0.38982326  1
  O  O20  1  0.04321057  0.86752002  0.38982326  1
  O  O21  1  0.65338731  0.63247998  0.61017674  1
  O  O22  1  0.76924677  0.33633472  0.72135195  1
  O  O23  1  0.04789482  0.16366528  0.27864805  1
  O  O24  1  0.23075323  0.66366528  0.27864805  1
  O  O25  1  0.95210518  0.83633472  0.72135195  1
  O  O26  1  0.48026611  0.25259462  0.85957263  1
  O  O27  1  0.62069348  0.24740538  0.14042737  1
  O  O28  1  0.51973389  0.74740538  0.14042737  1
  O  O29  1  0.37930652  0.75259462  0.85957263  1
  O  O30  1  0.32721544  0.40211231  0.04198051  1
  O  O31  1  0.28523493  0.09788769  0.95801949  1
  O  O32  1  0.67278456  0.59788769  0.95801949  1
  O  O33  1  0.71476507  0.90211231  0.04198051  1
