# generated using pymatgen
data_CdB10H6O19
_symmetry_space_group_name_H-M   'P 1'
_cell_length_a   7.89030154
_cell_length_b   9.90519722
_cell_length_c   19.30792838
_cell_angle_alpha   90.00000000
_cell_angle_beta   90.00000000
_cell_angle_gamma   91.19907232
_symmetry_Int_Tables_number   1
_chemical_formula_structural   CdB10H6O19
_chemical_formula_sum   'Cd4 B40 H24 O76'
_cell_volume   1508.68056582
_cell_formula_units_Z   4
loop_
 _symmetry_equiv_pos_site_id
 _symmetry_equiv_pos_as_xyz
  1  'x, y, z'
loop_
 _atom_site_type_symbol
 _atom_site_label
 _atom_site_symmetry_multiplicity
 _atom_site_fract_x
 _atom_site_fract_y
 _atom_site_fract_z
 _atom_site_occupancy
  Cd  Cd0  1  0.94682690  0.02805386  0.23081190  1
  Cd  Cd1  1  0.44682690  0.52805386  0.26918810  1
  Cd  Cd2  1  0.05317310  0.97194614  0.76918810  1
  Cd  Cd3  1  0.55317310  0.47194614  0.73081190  1
  B  B4  1  0.54545528  0.03038290  0.21445183  1
  B  B5  1  0.04545528  0.53038290  0.28554817  1
  B  B6  1  0.45454472  0.96961710  0.78554817  1
  B  B7  1  0.95454472  0.46961710  0.71445183  1
  B  B8  1  0.59977494  0.80455192  0.26212553  1
  B  B9  1  0.09977494  0.30455192  0.23787447  1
  B  B10  1  0.40022506  0.19544808  0.73787447  1
  B  B11  1  0.90022506  0.69544808  0.76212553  1
  B  B12  1  0.35322141  0.91848630  0.31417293  1
  B  B13  1  0.85322141  0.41848630  0.18582707  1
  B  B14  1  0.64677859  0.08151370  0.68582707  1
  B  B15  1  0.14677859  0.58151370  0.81417293  1
  B  B16  1  0.30436467  0.08261564  0.40785582  1
  B  B17  1  0.80436467  0.58261564  0.09214418  1
  B  B18  1  0.69563533  0.91738436  0.59214418  1
  B  B19  1  0.19563533  0.41738436  0.90785582  1
  B  B20  1  0.33920557  0.17557768  0.28876206  1
  B  B21  1  0.83920557  0.67557768  0.21123794  1
  B  B22  1  0.66079443  0.82442232  0.71123794  1
  B  B23  1  0.16079443  0.32442232  0.78876206  1
  B  B24  1  0.60450598  0.27143364  0.23022219  1
  B  B25  1  0.10450598  0.77143364  0.26977781  1
  B  B26  1  0.39549402  0.72856636  0.76977781  1
  B  B27  1  0.89549402  0.22856636  0.73022219  1
  B  B28  1  0.22482714  0.21729023  0.51302446  1
  B  B29  1  0.72482714  0.71729023  0.98697554  1
  B  B30  1  0.77517286  0.78270977  0.48697554  1
  B  B31  1  0.27517286  0.28270977  0.01302446  1
  B  B32  1  0.38677800  0.90483360  0.12021569  1
  B  B33  1  0.88677800  0.40483360  0.37978431  1
  B  B34  1  0.61322200  0.09516640  0.87978431  1
  B  B35  1  0.11322200  0.59516640  0.62021569  1
  B  B36  1  0.26193566  0.79146407  0.02059724  1
  B  B37  1  0.76193566  0.29146407  0.47940276  1
  B  B38  1  0.73806434  0.20853593  0.97940276  1
  B  B39  1  0.23806434  0.70853593  0.52059724  1
  B  B40  1  0.35210500  0.66261379  0.11818951  1
  B  B41  1  0.85210500  0.16261379  0.38181049  1
  B  B42  1  0.64789500  0.33738621  0.88181049  1
  B  B43  1  0.14789500  0.83738621  0.61818951  1
  H  H44  1  0.14221209  0.28022113  0.60515467  1
  H  H45  1  0.64221209  0.78022113  0.89484533  1
  H  H46  1  0.85778791  0.71977887  0.39484533  1
  H  H47  1  0.35778791  0.21977887  0.10515467  1
  H  H48  1  0.20769556  0.42076067  0.51344193  1
  H  H49  1  0.70769556  0.92076067  0.98655807  1
  H  H50  1  0.79230444  0.57923933  0.48655807  1
  H  H51  1  0.29230444  0.07923933  0.01344193  1
  H  H52  1  0.16420547  0.70590165  0.93684035  1
  H  H53  1  0.66420547  0.20590165  0.56315965  1
  H  H54  1  0.83579453  0.29409835  0.06315965  1
  H  H55  1  0.33579453  0.79409835  0.43684035  1
  H  H56  1  0.35566991  0.45660915  0.12329330  1
  H  H57  1  0.85566991  0.95660915  0.37670670  1
  H  H58  1  0.64433009  0.54339085  0.87670670  1
  H  H59  1  0.14433009  0.04339085  0.62329330  1
  H  H60  1  0.88783505  0.91120573  0.10456606  1
  H  H61  1  0.38783505  0.41120573  0.39543394  1
  H  H62  1  0.11216495  0.08879427  0.89543394  1
  H  H63  1  0.61216495  0.58879427  0.60456606  1
  H  H64  1  0.90814772  0.06653994  0.08836121  1
  H  H65  1  0.40814772  0.56653994  0.41163879  1
  H  H66  1  0.09185228  0.93346006  0.91163879  1
  H  H67  1  0.59185228  0.43346006  0.58836121  1
  O  O68  1  0.65423769  0.91741250  0.22676632  1
  O  O69  1  0.15423769  0.41741250  0.27323368  1
  O  O70  1  0.34576231  0.08258750  0.77323368  1
  O  O71  1  0.84576231  0.58258750  0.72676632  1
  O  O72  1  0.42359398  0.04320703  0.27508982  1
  O  O73  1  0.92359398  0.54320703  0.22491018  1
  O  O74  1  0.57640602  0.95679297  0.72491018  1
  O  O75  1  0.07640602  0.45679297  0.77508982  1
  O  O76  1  0.65915893  0.14797412  0.20996259  1
  O  O77  1  0.15915893  0.64797412  0.29003741  1
  O  O78  1  0.34084107  0.85202588  0.79003741  1
  O  O79  1  0.84084107  0.35202588  0.70996259  1
  O  O80  1  0.68057345  0.68287083  0.25393873  1
  O  O81  1  0.18057345  0.18287083  0.24606127  1
  O  O82  1  0.31942655  0.31712917  0.74606127  1
  O  O83  1  0.81942655  0.81712917  0.75393873  1
  O  O84  1  0.46510278  0.80544532  0.30646621  1
  O  O85  1  0.96510278  0.30544532  0.19353379  1
  O  O86  1  0.53489722  0.19455468  0.69353379  1
  O  O87  1  0.03489722  0.69455468  0.80646621  1
  O  O88  1  0.18582378  0.89132468  0.28296941  1
  O  O89  1  0.68582378  0.39132468  0.21703059  1
  O  O90  1  0.81417622  0.10867532  0.71703059  1
  O  O91  1  0.31417622  0.60867532  0.78296941  1
  O  O92  1  0.33657448  0.95236295  0.38774318  1
  O  O93  1  0.83657448  0.45236295  0.11225682  1
  O  O94  1  0.66342552  0.04763705  0.61225682  1
  O  O95  1  0.16342552  0.54763705  0.88774318  1
  O  O96  1  0.30644018  0.18789056  0.36220004  1
  O  O97  1  0.80644018  0.68789056  0.13779996  1
  O  O98  1  0.69355982  0.81210944  0.63779996  1
  O  O99  1  0.19355982  0.31210944  0.86220004  1
  O  O100  1  0.45441690  0.28514455  0.26593595  1
  O  O101  1  0.95441690  0.78514455  0.23406405  1
  O  O102  1  0.54558310  0.71485545  0.73406405  1
  O  O103  1  0.04558310  0.21485545  0.76593595  1
  O  O104  1  0.26570754  0.10346312  0.47716821  1
  O  O105  1  0.76570754  0.60346312  0.02283179  1
  O  O106  1  0.73429246  0.89653688  0.52283179  1
  O  O107  1  0.23429246  0.39653688  0.97716821  1
  O  O108  1  0.17004949  0.19620429  0.58110168  1
  O  O109  1  0.67004949  0.69620429  0.91889832  1
  O  O110  1  0.82995051  0.80379571  0.41889832  1
  O  O111  1  0.32995051  0.30379571  0.08110168  1
  O  O112  1  0.23456289  0.34333265  0.48370705  1
  O  O113  1  0.73456289  0.84333265  0.01629295  1
  O  O114  1  0.76543711  0.65666735  0.51629295  1
  O  O115  1  0.26543711  0.15666735  0.98370705  1
  O  O116  1  0.44570111  0.01971426  0.14918330  1
  O  O117  1  0.94570111  0.51971426  0.35081670  1
  O  O118  1  0.55429889  0.98028574  0.85081670  1
  O  O119  1  0.05429889  0.48028574  0.64918330  1
  O  O120  1  0.39074052  0.77992258  0.15398983  1
  O  O121  1  0.89074052  0.27992258  0.34601017  1
  O  O122  1  0.60925948  0.22007742  0.84601017  1
  O  O123  1  0.10925948  0.72007742  0.65398983  1
  O  O124  1  0.31788103  0.90969884  0.05321651  1
  O  O125  1  0.81788103  0.40969884  0.44678349  1
  O  O126  1  0.68211897  0.09030116  0.94678349  1
  O  O127  1  0.18211897  0.59030116  0.55321651  1
  O  O128  1  0.18239657  0.79696354  0.95837597  1
  O  O129  1  0.68239657  0.29696354  0.54162403  1
  O  O130  1  0.81760343  0.20303646  0.04162403  1
  O  O131  1  0.31760343  0.70303646  0.45837597  1
  O  O132  1  0.28916959  0.66779691  0.05209044  1
  O  O133  1  0.78916959  0.16779691  0.44790956  1
  O  O134  1  0.71083041  0.33220309  0.94790956  1
  O  O135  1  0.21083041  0.83220309  0.55209044  1
  O  O136  1  0.37722225  0.54138066  0.15070224  1
  O  O137  1  0.87722225  0.04138066  0.34929776  1
  O  O138  1  0.62277775  0.45861934  0.84929776  1
  O  O139  1  0.12277775  0.95861934  0.65070224  1
  O  O140  1  0.95706991  0.99176866  0.11590348  1
  O  O141  1  0.45706991  0.49176866  0.38409652  1
  O  O142  1  0.04293009  0.00823134  0.88409652  1
  O  O143  1  0.54293009  0.50823134  0.61590348  1
