# generated using pymatgen
data_CuH3(NO2)3
_symmetry_space_group_name_H-M   'P 1'
_cell_length_a   6.77343423
_cell_length_b   8.76791255
_cell_length_c   9.96731934
_cell_angle_alpha   90.00000000
_cell_angle_beta   102.41788201
_cell_angle_gamma   90.00000000
_symmetry_Int_Tables_number   1
_chemical_formula_structural   CuH3(NO2)3
_chemical_formula_sum   'Cu4 H12 N12 O24'
_cell_volume   578.09942611
_cell_formula_units_Z   4
loop_
 _symmetry_equiv_pos_site_id
 _symmetry_equiv_pos_as_xyz
  1  'x, y, z'
loop_
 _atom_site_type_symbol
 _atom_site_label
 _atom_site_symmetry_multiplicity
 _atom_site_fract_x
 _atom_site_fract_y
 _atom_site_fract_z
 _atom_site_occupancy
  Cu  Cu0  1  0.93735083  0.91819101  0.83348147  1
  Cu  Cu1  1  0.06264917  0.41819101  0.66651853  1
  Cu  Cu2  1  0.06264917  0.08180899  0.16651853  1
  Cu  Cu3  1  0.93735083  0.58180899  0.33348147  1
  H  H4  1  0.69362943  0.83300467  0.61486931  1
  H  H5  1  0.30637057  0.33300467  0.88513069  1
  H  H6  1  0.30637057  0.16699533  0.38513069  1
  H  H7  1  0.69362943  0.66699533  0.11486931  1
  H  H8  1  0.68730974  0.02111489  0.63240115  1
  H  H9  1  0.31269026  0.52111489  0.86759885  1
  H  H10  1  0.31269026  0.97888511  0.36759885  1
  H  H11  1  0.68730974  0.47888511  0.13240115  1
  H  H12  1  0.56595017  0.91002259  0.72158208  1
  H  H13  1  0.43404983  0.41002259  0.77841792  1
  H  H14  1  0.43404983  0.08997741  0.27841792  1
  H  H15  1  0.56595017  0.58997741  0.22158208  1
  N  N16  1  0.69437507  0.91973986  0.68407007  1
  N  N17  1  0.30562493  0.41973986  0.81592993  1
  N  N18  1  0.30562493  0.08026014  0.31592993  1
  N  N19  1  0.69437507  0.58026014  0.18407007  1
  N  N20  1  0.66584281  0.14694296  0.99403106  1
  N  N21  1  0.33415719  0.64694296  0.50596894  1
  N  N22  1  0.33415719  0.85305704  0.00596894  1
  N  N23  1  0.66584281  0.35305704  0.49403106  1
  N  N24  1  0.87207577  0.59878406  0.84348773  1
  N  N25  1  0.12792423  0.09878406  0.65651227  1
  N  N26  1  0.12792423  0.40121594  0.15651227  1
  N  N27  1  0.87207577  0.90121594  0.34348773  1
  O  O28  1  0.83412163  0.06707875  0.00415418  1
  O  O29  1  0.16587837  0.56707875  0.49584582  1
  O  O30  1  0.16587837  0.93292125  0.99584582  1
  O  O31  1  0.83412163  0.43292125  0.50415418  1
  O  O32  1  0.53320214  0.12990467  0.88770619  1
  O  O33  1  0.46679786  0.62990467  0.61229381  1
  O  O34  1  0.46679786  0.87009533  0.11229381  1
  O  O35  1  0.53320214  0.37009533  0.38770619  1
  O  O36  1  0.65041501  0.23264262  0.09097577  1
  O  O37  1  0.34958499  0.73264262  0.40902423  1
  O  O38  1  0.34958499  0.76735738  0.90902423  1
  O  O39  1  0.65041501  0.26735738  0.59097577  1
  O  O40  1  0.95913621  0.61499488  0.74164950  1
  O  O41  1  0.04086379  0.11499488  0.75835050  1
  O  O42  1  0.04086379  0.38500512  0.25835050  1
  O  O43  1  0.95913621  0.88500512  0.24164950  1
  O  O44  1  0.84424232  0.72039957  0.90915058  1
  O  O45  1  0.15575768  0.22039957  0.59084942  1
  O  O46  1  0.15575768  0.27960043  0.09084942  1
  O  O47  1  0.84424232  0.77960043  0.40915058  1
  O  O48  1  0.81803209  0.47304497  0.87844114  1
  O  O49  1  0.18196791  0.97304497  0.62155886  1
  O  O50  1  0.18196791  0.52695503  0.12155886  1
  O  O51  1  0.81803209  0.02695503  0.37844114  1
