# generated using pymatgen
data_Ni5Se4(ClO6)2
_symmetry_space_group_name_H-M   'P 1'
_cell_length_a   8.22805763
_cell_length_b   9.53039793
_cell_length_c   9.43424638
_cell_angle_alpha   101.51906591
_cell_angle_beta   92.13195608
_cell_angle_gamma   105.95846624
_symmetry_Int_Tables_number   1
_chemical_formula_structural   Ni5Se4(ClO6)2
_chemical_formula_sum   'Ni10 Se8 Cl4 O24'
_cell_volume   693.62560590
_cell_formula_units_Z   2
loop_
 _symmetry_equiv_pos_site_id
 _symmetry_equiv_pos_as_xyz
  1  'x, y, z'
loop_
 _atom_site_type_symbol
 _atom_site_label
 _atom_site_symmetry_multiplicity
 _atom_site_fract_x
 _atom_site_fract_y
 _atom_site_fract_z
 _atom_site_occupancy
  Ni  Ni0  1  0.42520595  0.27348825  0.25666644  1
  Ni  Ni1  1  0.57479405  0.72651175  0.74333356  1
  Ni  Ni2  1  0.23386479  0.55758434  0.80428507  1
  Ni  Ni3  1  0.76613521  0.44241566  0.19571493  1
  Ni  Ni4  1  0.08869175  0.17812344  0.51051634  1
  Ni  Ni5  1  0.91130825  0.82187656  0.48948366  1
  Ni  Ni6  1  0.03480431  0.86983500  0.88600929  1
  Ni  Ni7  1  0.96519569  0.13016500  0.11399071  1
  Ni  Ni8  1  0.74493568  0.80368095  0.10606896  1
  Ni  Ni9  1  0.25506432  0.19631905  0.89393104  1
  Se  Se10  1  0.17399519  0.90691861  0.23829357  1
  Se  Se11  1  0.82600481  0.09308139  0.76170643  1
  Se  Se12  1  0.27901860  0.89034769  0.68391700  1
  Se  Se13  1  0.72098140  0.10965231  0.31608300  1
  Se  Se14  1  0.44620391  0.32781451  0.61756330  1
  Se  Se15  1  0.55379609  0.67218549  0.38243670  1
  Se  Se16  1  0.84413730  0.57038851  0.89415033  1
  Se  Se17  1  0.15586270  0.42961149  0.10584967  1
  Cl  Cl18  1  0.01544077  0.39691272  0.62996667  1
  Cl  Cl19  1  0.98455923  0.60308728  0.37003333  1
  Cl  Cl20  1  0.45260629  0.72737426  0.00538266  1
  Cl  Cl21  1  0.54739371  0.27262574  0.99461734  1
  O  O22  1  0.28079009  0.98076032  0.86564981  1
  O  O23  1  0.71920991  0.01923968  0.13435019  1
  O  O24  1  0.10388108  0.96492035  0.40550987  1
  O  O25  1  0.89611892  0.03507965  0.59449013  1
  O  O26  1  0.32829930  0.30757890  0.45459164  1
  O  O27  1  0.67170070  0.69242110  0.54540836  1
  O  O28  1  0.05919852  0.81984343  0.66483168  1
  O  O29  1  0.94080148  0.18015657  0.33516832  1
  O  O30  1  0.55685421  0.50240085  0.27816621  1
  O  O31  1  0.44314579  0.49759915  0.72183379  1
  O  O32  1  0.06069706  0.65713949  0.90803321  1
  O  O33  1  0.93930294  0.34286051  0.09196679  1
  O  O34  1  0.34436156  0.04895607  0.23054711  1
  O  O35  1  0.65563844  0.95104393  0.76945289  1
  O  O36  1  0.21061974  0.26846236  0.13417582  1
  O  O37  1  0.78938026  0.73153764  0.86582418  1
  O  O38  1  0.66913435  0.27271719  0.30814610  1
  O  O39  1  0.33086565  0.72728281  0.69185390  1
  O  O40  1  0.19459554  0.39618611  0.92584990  1
  O  O41  1  0.80540446  0.60381389  0.07415010  1
  O  O42  1  0.28176090  0.20209145  0.67978581  1
  O  O43  1  0.71823910  0.79790855  0.32021419  1
  O  O44  1  0.01128353  0.92744024  0.11368620  1
  O  O45  1  0.98871647  0.07255976  0.88631380  1
