# generated using pymatgen
data_Rb7(FeTe2)4
_symmetry_space_group_name_H-M   'P 1'
_cell_length_a   9.01185502
_cell_length_b   11.06063560
_cell_length_c   16.51069392
_cell_angle_alpha   77.77759733
_cell_angle_beta   74.16252084
_cell_angle_gamma   65.95938670
_symmetry_Int_Tables_number   1
_chemical_formula_structural   Rb7(FeTe2)4
_chemical_formula_sum   'Rb14 Fe8 Te16'
_cell_volume   1436.42821789
_cell_formula_units_Z   2
loop_
 _symmetry_equiv_pos_site_id
 _symmetry_equiv_pos_as_xyz
  1  'x, y, z'
loop_
 _atom_site_type_symbol
 _atom_site_label
 _atom_site_symmetry_multiplicity
 _atom_site_fract_x
 _atom_site_fract_y
 _atom_site_fract_z
 _atom_site_occupancy
  Rb  Rb0  1  0.24464680  0.25000000  0.75000000  1
  Rb  Rb1  1  0.75535320  0.75000000  0.25000000  1
  Rb  Rb2  1  0.24179035  0.01574723  0.99184676  1
  Rb  Rb3  1  0.24938434  0.48425277  0.50815324  1
  Rb  Rb4  1  0.75820965  0.98425277  0.00815324  1
  Rb  Rb5  1  0.75061566  0.51574723  0.49184676  1
  Rb  Rb6  1  0.01258096  0.87059000  0.61554866  1
  Rb  Rb7  1  0.49871963  0.62941000  0.88445134  1
  Rb  Rb8  1  0.98741904  0.12941000  0.38445134  1
  Rb  Rb9  1  0.50128037  0.37059000  0.11554866  1
  Rb  Rb10  1  0.02266443  0.62216428  0.86424861  1
  Rb  Rb11  1  0.50907731  0.87783572  0.63575139  1
  Rb  Rb12  1  0.97733557  0.37783572  0.13575139  1
  Rb  Rb13  1  0.49092269  0.12216428  0.36424861  1
  Fe  Fe14  1  0.69541661  0.22510857  0.67222278  1
  Fe  Fe15  1  0.59274795  0.27489143  0.82777722  1
  Fe  Fe16  1  0.30458339  0.77489143  0.32777722  1
  Fe  Fe17  1  0.40725205  0.72510857  0.17222278  1
  Fe  Fe18  1  0.89756697  0.12418886  0.77442294  1
  Fe  Fe19  1  0.79617877  0.37581114  0.72557706  1
  Fe  Fe20  1  0.10243303  0.87581114  0.22557706  1
  Fe  Fe21  1  0.20382123  0.62418886  0.27442294  1
  Te  Te22  1  0.66134923  0.03458589  0.79240345  1
  Te  Te23  1  0.48833857  0.46541411  0.70759655  1
  Te  Te24  1  0.33865077  0.96541411  0.20759655  1
  Te  Te25  1  0.51166143  0.53458589  0.29240345  1
  Te  Te26  1  0.00387109  0.20931797  0.61654089  1
  Te  Te27  1  0.82972994  0.29068203  0.88345911  1
  Te  Te28  1  0.99612891  0.79068203  0.38345911  1
  Te  Te29  1  0.17027006  0.70931797  0.11654089  1
  Te  Te30  1  0.66354136  0.67974354  0.04792315  1
  Te  Te31  1  0.39120805  0.82025646  0.45207685  1
  Te  Te32  1  0.33645864  0.32025646  0.95207685  1
  Te  Te33  1  0.60879195  0.17974354  0.54792315  1
  Te  Te34  1  0.87996569  0.58232086  0.68520689  1
  Te  Te35  1  0.14749345  0.91767914  0.81479311  1
  Te  Te36  1  0.12003431  0.41767914  0.31479311  1
  Te  Te37  1  0.85250655  0.08232086  0.18520689  1
