# generated using pymatgen
data_K5Na3Cu8(S2O9)4
_symmetry_space_group_name_H-M   'P 1'
_cell_length_a   4.98616754
_cell_length_b   14.18770550
_cell_length_c   24.10953066
_cell_angle_alpha   90.31353322
_cell_angle_beta   90.00000000
_cell_angle_gamma   90.00000000
_symmetry_Int_Tables_number   1
_chemical_formula_structural   K5Na3Cu8(S2O9)4
_chemical_formula_sum   'K10 Na6 Cu16 S16 O72'
_cell_volume   1705.53755113
_cell_formula_units_Z   2
loop_
 _symmetry_equiv_pos_site_id
 _symmetry_equiv_pos_as_xyz
  1  'x, y, z'
loop_
 _atom_site_type_symbol
 _atom_site_label
 _atom_site_symmetry_multiplicity
 _atom_site_fract_x
 _atom_site_fract_y
 _atom_site_fract_z
 _atom_site_occupancy
  K  K0  1  0.79212674  0.50000000  0.25000000  1
  K  K1  1  0.20787326  0.50000000  0.75000000  1
  K  K2  1  0.25789612  0.61219510  0.95392445  1
  K  K3  1  0.25789612  0.38780490  0.54607555  1
  K  K4  1  0.74210388  0.38780490  0.04607555  1
  K  K5  1  0.74210388  0.61219510  0.45392445  1
  K  K6  1  0.78688449  0.07471829  0.06452788  1
  K  K7  1  0.78688449  0.92528171  0.43547212  1
  K  K8  1  0.21311551  0.92528171  0.93547212  1
  K  K9  1  0.21311551  0.07471829  0.56452788  1
  Na  Na10  1  0.74359675  0.25524255  0.64902819  1
  Na  Na11  1  0.74359675  0.74475745  0.85097181  1
  Na  Na12  1  0.25640325  0.74475745  0.35097181  1
  Na  Na13  1  0.25640325  0.25524255  0.14902819  1
  Na  Na14  1  0.85536720  0.00000000  0.25000000  1
  Na  Na15  1  0.14463280  0.00000000  0.75000000  1
  Cu  Cu16  1  0.22847640  0.78661975  0.08068298  1
  Cu  Cu17  1  0.22847640  0.21338025  0.41931702  1
  Cu  Cu18  1  0.77152360  0.21338025  0.91931702  1
  Cu  Cu19  1  0.77152360  0.78661975  0.58068298  1
  Cu  Cu20  1  0.27260593  0.71763512  0.19605590  1
  Cu  Cu21  1  0.27260593  0.28236488  0.30394410  1
  Cu  Cu22  1  0.72739407  0.28236488  0.80394410  1
  Cu  Cu23  1  0.72739407  0.71763512  0.69605590  1
  Cu  Cu24  1  0.72575518  0.64815739  0.11367292  1
  Cu  Cu25  1  0.72575518  0.35184261  0.38632708  1
  Cu  Cu26  1  0.27424482  0.35184261  0.88632708  1
  Cu  Cu27  1  0.27424482  0.64815739  0.61367292  1
  Cu  Cu28  1  0.78214899  0.84757355  0.15521820  1
  Cu  Cu29  1  0.78214899  0.15242645  0.34478180  1
  Cu  Cu30  1  0.21785101  0.15242645  0.84478180  1
  Cu  Cu31  1  0.21785101  0.84757355  0.65521820  1
  S  S32  1  0.76687505  0.74732851  0.27569820  1
  S  S33  1  0.76687505  0.25267149  0.22430180  1
  S  S34  1  0.23312495  0.25267149  0.72430180  1
  S  S35  1  0.23312495  0.74732851  0.77569820  1
  S  S36  1  0.74455389  0.77153447  0.00167946  1
  S  S37  1  0.74455389  0.22846553  0.49832054  1
  S  S38  1  0.25544611  0.22846553  0.99832054  1
  S  S39  1  0.25544611  0.77153447  0.50167946  1
  S  S40  1  0.23557215  0.51491242  0.12360400  1
  S  S41  1  0.23557215  0.48508758  0.37639600  1
  S  S42  1  0.76442785  0.48508758  0.87639600  1
  S  S43  1  0.76442785  0.51491242  0.62360400  1
  S  S44  1  0.29742833  0.98600746  0.14513274  1
  S  S45  1  0.29742833  0.01399254  0.35486726  1
  S  S46  1  0.70257167  0.01399254  0.85486726  1
  S  S47  1  0.70257167  0.98600746  0.64513274  1
  O  O48  1  0.73500175  0.74852422  0.33682694  1
  O  O49  1  0.73500175  0.25147578  0.16317306  1
  O  O50  1  0.26499825  0.25147578  0.66317306  1
  O  O51  1  0.26499825  0.74852422  0.83682694  1
  O  O52  1  0.04044247  0.70532077  0.26386424  1
  O  O53  1  0.04044247  0.29467923  0.23613576  1
  O  O54  1  0.95955753  0.29467923  0.73613576  1
  O  O55  1  0.95955753  0.70532077  0.76386424  1
  O  O56  1  0.56342104  0.68176688  0.25001526  1
  O  O57  1  0.56342104  0.31823312  0.24998474  1
  O  O58  1  0.43657896  0.31823312  0.74998474  1
  O  O59  1  0.43657896  0.68176688  0.75001526  1
  O  O60  1  0.74005058  0.84152680  0.25132804  1
  O  O61  1  0.74005058  0.15847320  0.24867196  1
  O  O62  1  0.25994942  0.15847320  0.74867196  1
  O  O63  1  0.25994942  0.84152680  0.75132804  1
  O  O64  1  0.90440999  0.83790553  0.03802631  1
  O  O65  1  0.90440999  0.16209447  0.46197369  1
  O  O66  1  0.09559001  0.16209447  0.96197369  1
  O  O67  1  0.09559001  0.83790553  0.53802631  1
  O  O68  1  0.80437371  0.67277376  0.01690542  1
  O  O69  1  0.80437371  0.32722624  0.48309458  1
  O  O70  1  0.19562629  0.32722624  0.98309458  1
  O  O71  1  0.19562629  0.67277376  0.51690542  1
  O  O72  1  0.80884768  0.78977809  0.94294567  1
  O  O73  1  0.80884768  0.21022191  0.55705433  1
  O  O74  1  0.19115232  0.21022191  0.05705433  1
  O  O75  1  0.19115232  0.78977809  0.44294567  1
  O  O76  1  0.44879120  0.79202011  0.00978790  1
  O  O77  1  0.44879120  0.20797989  0.49021210  1
  O  O78  1  0.55120880  0.20797989  0.99021210  1
  O  O79  1  0.55120880  0.79202011  0.50978790  1
  O  O80  1  0.28910680  0.54299430  0.18169034  1
  O  O81  1  0.28910680  0.45700570  0.31830966  1
  O  O82  1  0.71089320  0.45700570  0.81830966  1
  O  O83  1  0.71089320  0.54299430  0.68169034  1
  O  O84  1  0.27255616  0.96594342  0.08472680  1
  O  O85  1  0.27255616  0.03405658  0.41527320  1
  O  O86  1  0.72744384  0.03405658  0.91527320  1
  O  O87  1  0.72744384  0.96594342  0.58472680  1
  O  O88  1  0.23084093  0.08368675  0.15894577  1
  O  O89  1  0.23084093  0.91631325  0.34105423  1
  O  O90  1  0.76915907  0.91631325  0.84105423  1
  O  O91  1  0.76915907  0.08368675  0.65894577  1
  O  O92  1  0.28155002  0.41382780  0.11303500  1
  O  O93  1  0.28155002  0.58617220  0.38696500  1
  O  O94  1  0.71844998  0.58617220  0.88696500  1
  O  O95  1  0.71844998  0.41382780  0.61303500  1
  O  O96  1  0.40771617  0.57215669  0.08440617  1
  O  O97  1  0.40771617  0.42784331  0.41559383  1
  O  O98  1  0.59228383  0.42784331  0.91559383  1
  O  O99  1  0.59228383  0.57215669  0.58440617  1
  O  O100  1  0.99838678  0.73514963  0.13974590  1
  O  O101  1  0.99838678  0.26485037  0.36025410  1
  O  O102  1  0.00161322  0.26485037  0.86025410  1
  O  O103  1  0.00161322  0.73514963  0.63974590  1
  O  O104  1  0.50538058  0.75423690  0.13392969  1
  O  O105  1  0.50538058  0.24576310  0.36607031  1
  O  O106  1  0.49461942  0.24576310  0.86607031  1
  O  O107  1  0.49461942  0.75423690  0.63392969  1
  O  O108  1  0.94313460  0.53324338  0.10930648  1
  O  O109  1  0.94313460  0.46675662  0.39069352  1
  O  O110  1  0.05686540  0.46675662  0.89069352  1
  O  O111  1  0.05686540  0.53324338  0.60930648  1
  O  O112  1  0.58589785  0.96757802  0.16242448  1
  O  O113  1  0.58589785  0.03242198  0.33757552  1
  O  O114  1  0.41410215  0.03242198  0.83757552  1
  O  O115  1  0.41410215  0.96757802  0.66242448  1
  O  O116  1  0.12109772  0.91986124  0.17784041  1
  O  O117  1  0.12109772  0.08013876  0.32215959  1
  O  O118  1  0.87890228  0.08013876  0.82215959  1
  O  O119  1  0.87890228  0.91986124  0.67784041  1
