# generated using pymatgen
data_CaAl2Si3(HO3)4
_symmetry_space_group_name_H-M   'P 1'
_cell_length_a   6.57968426
_cell_length_b   9.75501822
_cell_length_c   10.04224273
_cell_angle_alpha   83.68304579
_cell_angle_beta   70.95833701
_cell_angle_gamma   70.29082089
_symmetry_Int_Tables_number   1
_chemical_formula_structural   CaAl2Si3(HO3)4
_chemical_formula_sum   'Ca2 Al4 Si6 H8 O24'
_cell_volume   573.59699888
_cell_formula_units_Z   2
loop_
 _symmetry_equiv_pos_site_id
 _symmetry_equiv_pos_as_xyz
  1  'x, y, z'
loop_
 _atom_site_type_symbol
 _atom_site_label
 _atom_site_symmetry_multiplicity
 _atom_site_fract_x
 _atom_site_fract_y
 _atom_site_fract_z
 _atom_site_occupancy
  Ca  Ca0  1  0.86923564  0.96093040  0.56993997  1
  Ca  Ca1  1  0.58016603  0.53906960  0.06993997  1
  Al  Al2  1  0.25648963  0.41502769  0.33687312  1
  Al  Al3  1  0.42151732  0.08497231  0.83687312  1
  Al  Al4  1  0.99797533  0.57298575  0.69871102  1
  Al  Al5  1  0.32096109  0.92701425  0.19871102  1
  Si  Si6  1  0.74328184  0.50320178  0.50193190  1
  Si  Si7  1  0.99648362  0.99679822  0.00193190  1
  Si  Si8  1  0.48705865  0.18950736  0.09406695  1
  Si  Si9  1  0.42656600  0.31049264  0.59406695  1
  Si  Si10  1  0.75241681  0.80685820  0.93557707  1
  Si  Si11  1  0.30927501  0.69314180  0.43557707  1
  H  H12  1  0.06284007  0.35154031  0.05500287  1
  H  H13  1  0.16438038  0.14845969  0.55500287  1
  H  H14  1  0.93862533  0.42770117  0.20544720  1
  H  H15  1  0.11632650  0.07229883  0.70544720  1
  H  H16  1  0.86373922  0.96921566  0.28619583  1
  H  H17  1  0.58295487  0.53078435  0.78619583  1
  H  H18  1  0.60046185  0.00581928  0.35684669  1
  H  H19  1  0.35628113  0.49418072  0.85684669  1
  O  O20  1  0.96385754  0.46885530  0.36160196  1
  O  O21  1  0.18271284  0.03114470  0.86160196  1
  O  O22  1  0.80143053  0.52879022  0.64096082  1
  O  O23  1  0.08022075  0.97120978  0.14096082  1
  O  O24  1  0.76431109  0.13776585  0.02685002  1
  O  O25  1  0.65207694  0.36223415  0.52685002  1
  O  O26  1  0.94479285  0.84890054  0.97720661  1
  O  O27  1  0.54369339  0.65109946  0.47720661  1
  O  O28  1  0.08868705  0.70444430  0.57755187  1
  O  O29  1  0.54313135  0.79555570  0.07755187  1
  O  O30  1  0.32385783  0.29516314  0.47079205  1
  O  O31  1  0.36902097  0.20483686  0.97079205  1
  O  O32  1  0.66759695  0.92899126  0.82152785  1
  O  O33  1  0.34658821  0.57100874  0.32152785  1
  O  O34  1  0.41172740  0.07279713  0.21292752  1
  O  O35  1  0.23452454  0.42720287  0.71292752  1
  O  O36  1  0.40949678  0.35061384  0.16376471  1
  O  O37  1  0.51011062  0.14938616  0.66376471  1
  O  O38  1  0.84984877  0.64332425  0.87007907  1
  O  O39  1  0.24317302  0.85667575  0.37007907  1
  O  O40  1  0.91649172  0.41447969  0.11447592  1
  O  O41  1  0.08097141  0.08552031  0.61447592  1
  O  O42  1  0.74427746  0.96952621  0.37870897  1
  O  O43  1  0.46380367  0.53047379  0.87870897  1
