# generated using pymatgen
data_Ag4Sn3S8
_symmetry_space_group_name_H-M   'P 1'
_cell_length_a   10.90748560
_cell_length_b   10.90748560
_cell_length_c   10.90748560
_cell_angle_alpha   90.00000000
_cell_angle_beta   90.00000000
_cell_angle_gamma   90.00000000
_symmetry_Int_Tables_number   1
_chemical_formula_structural   Ag4Sn3S8
_chemical_formula_sum   'Ag16 Sn12 S32'
_cell_volume   1297.69892515
_cell_formula_units_Z   4
loop_
 _symmetry_equiv_pos_site_id
 _symmetry_equiv_pos_as_xyz
  1  'x, y, z'
loop_
 _atom_site_type_symbol
 _atom_site_label
 _atom_site_symmetry_multiplicity
 _atom_site_fract_x
 _atom_site_fract_y
 _atom_site_fract_z
 _atom_site_occupancy
  Ag  Ag0  1  0.37500000  0.62500000  0.12500000  1
  Ag  Ag1  1  0.12500000  0.37500000  0.62500000  1
  Ag  Ag2  1  0.62500000  0.12500000  0.37500000  1
  Ag  Ag3  1  0.87500000  0.87500000  0.87500000  1
  Ag  Ag4  1  0.85476030  0.89523970  0.37500000  1
  Ag  Ag5  1  0.64523970  0.10476030  0.87500000  1
  Ag  Ag6  1  0.14523970  0.39523970  0.12500000  1
  Ag  Ag7  1  0.35476030  0.60476030  0.62500000  1
  Ag  Ag8  1  0.89523970  0.37500000  0.85476030  1
  Ag  Ag9  1  0.10476030  0.87500000  0.64523970  1
  Ag  Ag10  1  0.39523970  0.12500000  0.14523970  1
  Ag  Ag11  1  0.60476030  0.62500000  0.35476030  1
  Ag  Ag12  1  0.37500000  0.85476030  0.89523970  1
  Ag  Ag13  1  0.87500000  0.64523970  0.10476030  1
  Ag  Ag14  1  0.12500000  0.14523970  0.39523970  1
  Ag  Ag15  1  0.62500000  0.35476030  0.60476030  1
  Sn  Sn16  1  0.11404044  0.63595956  0.37500000  1
  Sn  Sn17  1  0.38595956  0.36404044  0.87500000  1
  Sn  Sn18  1  0.88595956  0.13595956  0.12500000  1
  Sn  Sn19  1  0.61404044  0.86404044  0.62500000  1
  Sn  Sn20  1  0.63595956  0.37500000  0.11404044  1
  Sn  Sn21  1  0.36404044  0.87500000  0.38595956  1
  Sn  Sn22  1  0.13595956  0.12500000  0.88595956  1
  Sn  Sn23  1  0.86404044  0.62500000  0.61404044  1
  Sn  Sn24  1  0.37500000  0.11404044  0.63595956  1
  Sn  Sn25  1  0.87500000  0.38595956  0.36404044  1
  Sn  Sn26  1  0.12500000  0.88595956  0.13595956  1
  Sn  Sn27  1  0.62500000  0.61404044  0.86404044  1
  S  S28  1  0.35104923  0.63835141  0.38757695  1
  S  S29  1  0.14895077  0.36164859  0.88757695  1
  S  S30  1  0.64895077  0.13835141  0.11242305  1
  S  S31  1  0.85104923  0.86164859  0.61242305  1
  S  S32  1  0.63835141  0.38757695  0.35104923  1
  S  S33  1  0.36164859  0.88757695  0.14895077  1
  S  S34  1  0.13835141  0.11242305  0.64895077  1
  S  S35  1  0.86164859  0.61242305  0.85104923  1
  S  S36  1  0.38757695  0.35104923  0.63835141  1
  S  S37  1  0.88757695  0.14895077  0.36164859  1
  S  S38  1  0.11242305  0.64895077  0.13835141  1
  S  S39  1  0.61242305  0.85104923  0.86164859  1
  S  S40  1  0.39895077  0.36242305  0.11164859  1
  S  S41  1  0.60104923  0.86242305  0.38835141  1
  S  S42  1  0.10104923  0.63757695  0.61164859  1
  S  S43  1  0.89895077  0.13757695  0.88835141  1
  S  S44  1  0.11164859  0.39895077  0.36242305  1
  S  S45  1  0.38835141  0.60104923  0.86242305  1
  S  S46  1  0.61164859  0.10104923  0.63757695  1
  S  S47  1  0.88835141  0.89895077  0.13757695  1
  S  S48  1  0.36242305  0.11164859  0.39895077  1
  S  S49  1  0.86242305  0.38835141  0.60104923  1
  S  S50  1  0.63757695  0.61164859  0.10104923  1
  S  S51  1  0.13757695  0.88835141  0.89895077  1
  S  S52  1  0.12107992  0.87892008  0.37892008  1
  S  S53  1  0.37892008  0.12107992  0.87892008  1
  S  S54  1  0.87892008  0.37892008  0.12107992  1
  S  S55  1  0.62107992  0.62107992  0.62107992  1
  S  S56  1  0.62892008  0.37107992  0.87107992  1
  S  S57  1  0.37107992  0.87107992  0.62892008  1
  S  S58  1  0.87107992  0.62892008  0.37107992  1
  S  S59  1  0.12892008  0.12892008  0.12892008  1
