# generated using pymatgen
data_VPH5O7
_symmetry_space_group_name_H-M   'P 1'
_cell_length_a   7.30552579
_cell_length_b   7.69331586
_cell_length_c   9.64540999
_cell_angle_alpha   95.40267950
_cell_angle_beta   90.00000000
_cell_angle_gamma   90.00000000
_symmetry_Int_Tables_number   1
_chemical_formula_structural   VPH5O7
_chemical_formula_sum   'V4 P4 H20 O28'
_cell_volume   539.69961713
_cell_formula_units_Z   4
loop_
 _symmetry_equiv_pos_site_id
 _symmetry_equiv_pos_as_xyz
  1  'x, y, z'
loop_
 _atom_site_type_symbol
 _atom_site_label
 _atom_site_symmetry_multiplicity
 _atom_site_fract_x
 _atom_site_fract_y
 _atom_site_fract_z
 _atom_site_occupancy
  V  V0  1  0.63449015  0.48028176  0.24579069  1
  V  V1  1  0.13449015  0.51971824  0.25420931  1
  V  V2  1  0.36550985  0.51971824  0.75420931  1
  V  V3  1  0.86550985  0.48028176  0.74579069  1
  P  P4  1  0.65159671  0.72187400  0.98906262  1
  P  P5  1  0.15159671  0.27812600  0.51093738  1
  P  P6  1  0.34840329  0.27812600  0.01093738  1
  P  P7  1  0.84840329  0.72187400  0.48906262  1
  H  H8  1  0.82680911  0.03898099  0.16012815  1
  H  H9  1  0.32680911  0.96101901  0.33987185  1
  H  H10  1  0.17319089  0.96101901  0.83987185  1
  H  H11  1  0.67319089  0.03898099  0.66012815  1
  H  H12  1  0.98138250  0.13154742  0.25883960  1
  H  H13  1  0.48138250  0.86845258  0.24116040  1
  H  H14  1  0.01861750  0.86845258  0.74116040  1
  H  H15  1  0.51861750  0.13154742  0.75883960  1
  H  H16  1  0.51864818  0.31906543  0.45680755  1
  H  H17  1  0.01864818  0.68093457  0.04319245  1
  H  H18  1  0.48135182  0.68093457  0.54319245  1
  H  H19  1  0.98135182  0.31906543  0.95680755  1
  H  H20  1  0.52602651  0.17042231  0.32808429  1
  H  H21  1  0.02602651  0.82957769  0.17191571  1
  H  H22  1  0.47397349  0.82957769  0.67191571  1
  H  H23  1  0.97397349  0.17042231  0.82808429  1
  H  H24  1  0.66364569  0.96952009  0.89380202  1
  H  H25  1  0.16364569  0.03047991  0.60619798  1
  H  H26  1  0.33635431  0.03047991  0.10619798  1
  H  H27  1  0.83635431  0.96952009  0.39380202  1
  O  O28  1  0.63088726  0.70207587  0.14596292  1
  O  O29  1  0.13088726  0.29792413  0.35403708  1
  O  O30  1  0.36911274  0.29792413  0.85403708  1
  O  O31  1  0.86911274  0.70207587  0.64596292  1
  O  O32  1  0.82260139  0.62293545  0.92919902  1
  O  O33  1  0.32260139  0.37706455  0.57080098  1
  O  O34  1  0.17739861  0.37706455  0.07080098  1
  O  O35  1  0.67739861  0.62293545  0.42919902  1
  O  O36  1  0.47726869  0.67391078  0.90710782  1
  O  O37  1  0.97726869  0.32608922  0.59289218  1
  O  O38  1  0.52273131  0.32608922  0.09289218  1
  O  O39  1  0.02273131  0.67391078  0.40710782  1
  O  O40  1  0.69056278  0.92552179  0.98671337  1
  O  O41  1  0.19056278  0.07447821  0.51328663  1
  O  O42  1  0.30943722  0.07447821  0.01328663  1
  O  O43  1  0.80943722  0.92552179  0.48671337  1
  O  O44  1  0.58651275  0.27952062  0.37019732  1
  O  O45  1  0.08651275  0.72047938  0.12980268  1
  O  O46  1  0.41348725  0.72047938  0.62980268  1
  O  O47  1  0.91348725  0.27952062  0.87019732  1
  O  O48  1  0.64170059  0.44082262  0.71295670  1
  O  O49  1  0.14170059  0.55917738  0.78704330  1
  O  O50  1  0.35829941  0.55917738  0.28704330  1
  O  O51  1  0.85829941  0.44082262  0.21295670  1
  O  O52  1  0.91333118  0.02103998  0.23567368  1
  O  O53  1  0.41333118  0.97896002  0.26432632  1
  O  O54  1  0.08666882  0.97896002  0.76432632  1
  O  O55  1  0.58666882  0.02103998  0.73567368  1
