# generated using pymatgen
data_Ca5Cr3ClO12
_symmetry_space_group_name_H-M   'P 1'
_cell_length_a   6.78206664
_cell_length_b   10.21297070
_cell_length_c   10.21343445
_cell_angle_alpha   120.00025583
_cell_angle_beta   90.00000000
_cell_angle_gamma   90.00000000
_symmetry_Int_Tables_number   1
_chemical_formula_structural   Ca5Cr3ClO12
_chemical_formula_sum   'Ca10 Cr6 Cl2 O24'
_cell_volume   612.65425922
_cell_formula_units_Z   2
loop_
 _symmetry_equiv_pos_site_id
 _symmetry_equiv_pos_as_xyz
  1  'x, y, z'
loop_
 _atom_site_type_symbol
 _atom_site_label
 _atom_site_symmetry_multiplicity
 _atom_site_fract_x
 _atom_site_fract_y
 _atom_site_fract_z
 _atom_site_occupancy
  Ca  Ca0  1  0.50265006  0.66665920  0.33335008  1
  Ca  Ca1  1  0.00265006  0.33334080  0.66664992  1
  Ca  Ca2  1  0.49734994  0.33334080  0.66664992  1
  Ca  Ca3  1  0.99734994  0.66665920  0.33335008  1
  Ca  Ca4  1  0.75000000  0.23647155  0.96994737  1
  Ca  Ca5  1  0.75000000  0.03000311  0.26653156  1
  Ca  Ca6  1  0.75000000  0.73344069  0.76351819  1
  Ca  Ca7  1  0.25000000  0.76352845  0.03005263  1
  Ca  Ca8  1  0.25000000  0.96999689  0.73346844  1
  Ca  Ca9  1  0.25000000  0.26655931  0.23648181  1
  Cr  Cr10  1  0.75000000  0.02944592  0.61703972  1
  Cr  Cr11  1  0.75000000  0.38299065  0.41242431  1
  Cr  Cr12  1  0.75000000  0.58757773  0.97057978  1
  Cr  Cr13  1  0.25000000  0.97055408  0.38296028  1
  Cr  Cr14  1  0.25000000  0.61700935  0.58757569  1
  Cr  Cr15  1  0.25000000  0.41242227  0.02942022  1
  Cl  Cl16  1  0.50000000  -0.00000000  -0.00000000  1
  Cl  Cl17  1  0.00000000  -0.00000000  -0.00000000  1
  O  O18  1  0.75000000  0.83880871  0.49695576  1
  O  O19  1  0.75000000  0.50298351  0.34183808  1
  O  O20  1  0.75000000  0.65811044  0.16114391  1
  O  O21  1  0.25000000  0.16119129  0.50304424  1
  O  O22  1  0.25000000  0.49701649  0.65816192  1
  O  O23  1  0.25000000  0.34188956  0.83885609  1
  O  O24  1  0.75000000  0.14240136  0.53372851  1
  O  O25  1  0.75000000  0.46628215  0.60871073  1
  O  O26  1  0.75000000  0.39126411  0.85757540  1
  O  O27  1  0.25000000  0.85759864  0.46627149  1
  O  O28  1  0.25000000  0.53371785  0.39128927  1
  O  O29  1  0.25000000  0.60873589  0.14242460  1
  O  O30  1  0.54969628  0.08744244  0.73782762  1
  O  O31  1  0.54969466  0.26215049  0.34961161  1
  O  O32  1  0.54967163  0.65035550  0.91255635  1
  O  O33  1  0.04969628  0.91255756  0.26217238  1
  O  O34  1  0.04969466  0.73784951  0.65038839  1
  O  O35  1  0.04967163  0.34964450  0.08744365  1
  O  O36  1  0.45030372  0.91255756  0.26217238  1
  O  O37  1  0.45030534  0.73784951  0.65038839  1
  O  O38  1  0.45032837  0.34964450  0.08744365  1
  O  O39  1  0.95030372  0.08744244  0.73782762  1
  O  O40  1  0.95030534  0.26215049  0.34961161  1
  O  O41  1  0.95032837  0.65035550  0.91255635  1
