# generated using pymatgen
data_Mg16Si8HO32
_symmetry_space_group_name_H-M   'P 1'
_cell_length_a   8.40810897
_cell_length_b   11.60526652
_cell_length_c   5.80532092
_cell_angle_alpha   90.03077065
_cell_angle_beta   89.83538936
_cell_angle_gamma   89.90642444
_symmetry_Int_Tables_number   1
_chemical_formula_structural   Mg16Si8HO32
_chemical_formula_sum   'Mg16 Si8 H1 O32'
_cell_volume   566.47043378
_cell_formula_units_Z   1
loop_
 _symmetry_equiv_pos_site_id
 _symmetry_equiv_pos_as_xyz
  1  'x, y, z'
loop_
 _atom_site_type_symbol
 _atom_site_label
 _atom_site_symmetry_multiplicity
 _atom_site_fract_x
 _atom_site_fract_y
 _atom_site_fract_z
 _atom_site_occupancy
  Mg  Mg0  1  0.78280277  0.99939928  0.24913564  1
  Mg  Mg1  1  0.21691233  0.99933715  0.74989446  1
  Mg  Mg2  1  0.24885341  0.75117949  0.75140443  1
  Mg  Mg3  1  0.24591875  0.24733304  0.74556634  1
  Mg  Mg4  1  0.98160268  0.37446049  0.99151818  1
  Mg  Mg5  1  0.99973651  0.62279268  0.49871968  1
  Mg  Mg6  1  0.99608091  0.62343339  0.99687621  1
  Mg  Mg7  1  0.99954545  0.37685632  0.49711658  1
  Mg  Mg8  1  0.28916695  0.50520058  0.72027545  1
  Mg  Mg9  1  0.72049799  0.50086642  0.25132786  1
  Mg  Mg10  1  0.74961942  0.24801954  0.25272916  1
  Mg  Mg11  1  0.75092993  0.75081888  0.24962173  1
  Mg  Mg12  1  0.49993586  0.87793539  0.49956628  1
  Mg  Mg13  1  0.50126135  0.12087173  0.99632615  1
  Mg  Mg14  1  0.49935319  0.11976721  0.49883106  1
  Mg  Mg15  1  0.50094897  0.87821633  0.99925718  1
  Si  Si16  1  0.13381863  0.13089046  0.24946594  1
  Si  Si17  1  0.13424737  0.86925243  0.25070557  1
  Si  Si18  1  0.86591519  0.86910359  0.74915751  1
  Si  Si19  1  0.86514427  0.12948721  0.74915075  1
  Si  Si20  1  0.63505995  0.63114189  0.74962540  1
  Si  Si21  1  0.63144615  0.36917009  0.74973323  1
  Si  Si22  1  0.37921671  0.36983088  0.27287231  1
  Si  Si23  1  0.36940323  0.63303160  0.25185072  1
  H  H24  1  0.21677174  0.47083878  0.06027183  1
  O  O25  1  0.03633451  0.00028846  0.24719766  1
  O  O26  1  0.96477430  0.99957523  0.74897820  1
  O  O27  1  0.53687942  0.99986772  0.24869927  1
  O  O28  1  0.46239357  0.99948361  0.74938522  1
  O  O29  1  0.00581072  0.24082758  0.24849044  1
  O  O30  1  0.00637482  0.75973110  0.24875697  1
  O  O31  1  0.99463419  0.75953651  0.74977539  1
  O  O32  1  0.99340560  0.23960116  0.74870686  1
  O  O33  1  0.25499464  0.38778292  0.03483942  1
  O  O34  1  0.25648400  0.63051539  0.48551941  1
  O  O35  1  0.74447812  0.62737275  0.51162038  1
  O  O36  1  0.73767864  0.37192463  0.99023780  1
  O  O37  1  0.74350573  0.62707383  0.98766754  1
  O  O38  1  0.74236901  0.37214273  0.51300869  1
  O  O39  1  0.25937790  0.37185189  0.49628976  1
  O  O40  1  0.25777032  0.61849898  0.01568373  1
  O  O41  1  0.53527949  0.50073594  0.75064427  1
  O  O42  1  0.46952441  0.50152093  0.26292333  1
  O  O43  1  0.04144750  0.49799045  0.75041857  1
  O  O44  1  0.96691562  0.49867980  0.24633829  1
  O  O45  1  0.50419290  0.73865318  0.74969338  1
  O  O46  1  0.49992879  0.26198896  0.75121383  1
  O  O47  1  0.49550087  0.25808569  0.24898848  1
  O  O48  1  0.49555233  0.74132854  0.24771864  1
  O  O49  1  0.75746392  0.87210152  0.51172783  1
  O  O50  1  0.75691536  0.12773093  0.98728602  1
  O  O51  1  0.24339028  0.13212401  0.01154872  1
  O  O52  1  0.24227882  0.87252727  0.48848572  1
  O  O53  1  0.24232502  0.12721174  0.48693618  1
  O  O54  1  0.24359205  0.87090397  0.01277799  1
  O  O55  1  0.75731400  0.87220106  0.98696996  1
  O  O56  1  0.75616344  0.12704669  0.51239241  1
