# generated using pymatgen
data_GdH6C2ClO7
_symmetry_space_group_name_H-M   'P 1'
_cell_length_a   5.94015743
_cell_length_b   8.25537252
_cell_length_c   16.31581920
_cell_angle_alpha   90.00000000
_cell_angle_beta   90.00000000
_cell_angle_gamma   104.09389744
_symmetry_Int_Tables_number   1
_chemical_formula_structural   GdH6C2ClO7
_chemical_formula_sum   'Gd4 H24 C8 Cl4 O28'
_cell_volume   776.01400522
_cell_formula_units_Z   4
loop_
 _symmetry_equiv_pos_site_id
 _symmetry_equiv_pos_as_xyz
  1  'x, y, z'
loop_
 _atom_site_type_symbol
 _atom_site_label
 _atom_site_symmetry_multiplicity
 _atom_site_fract_x
 _atom_site_fract_y
 _atom_site_fract_z
 _atom_site_occupancy
  Gd  Gd0  1  0.52972346  0.33369346  0.89690454  1
  Gd  Gd1  1  0.02972346  0.83369346  0.60309546  1
  Gd  Gd2  1  0.47027654  0.66630654  0.10309546  1
  Gd  Gd3  1  0.97027654  0.16630654  0.39690454  1
  H  H4  1  0.17705822  0.00924299  0.82852740  1
  H  H5  1  0.67705822  0.50924299  0.67147260  1
  H  H6  1  0.82294178  0.99075701  0.17147260  1
  H  H7  1  0.32294178  0.49075701  0.32852740  1
  H  H8  1  0.01893273  0.10947411  0.87568855  1
  H  H9  1  0.51893273  0.60947411  0.62431145  1
  H  H10  1  0.98106727  0.89052589  0.12431145  1
  H  H11  1  0.48106727  0.39052589  0.37568855  1
  H  H12  1  0.29133536  0.54704697  0.78388847  1
  H  H13  1  0.79133536  0.04704697  0.71611153  1
  H  H14  1  0.70866464  0.45295303  0.21611153  1
  H  H15  1  0.20866464  0.95295303  0.28388847  1
  H  H16  1  0.11963129  0.37259342  0.79672561  1
  H  H17  1  0.61963129  0.87259342  0.70327439  1
  H  H18  1  0.88036871  0.62740658  0.20327439  1
  H  H19  1  0.38036871  0.12740658  0.29672561  1
  H  H20  1  0.84783774  0.66817713  0.82291789  1
  H  H21  1  0.34783774  0.16817713  0.67708211  1
  H  H22  1  0.15216226  0.33182287  0.17708211  1
  H  H23  1  0.65216226  0.83182287  0.32291789  1
  H  H24  1  0.67820791  0.71105249  0.89174065  1
  H  H25  1  0.17820791  0.21105249  0.60825935  1
  H  H26  1  0.32179209  0.28894751  0.10825935  1
  H  H27  1  0.82179209  0.78894751  0.39174065  1
  C  C28  1  0.43430620  0.03350819  0.03464425  1
  C  C29  1  0.93430620  0.53350819  0.46535575  1
  C  C30  1  0.56569380  0.96649181  0.96535575  1
  C  C31  1  0.06569380  0.46649181  0.53464425  1
  C  C32  1  0.06214877  0.45478006  0.96946763  1
  C  C33  1  0.56214877  0.95478006  0.53053237  1
  C  C34  1  0.93785123  0.54521994  0.03053237  1
  C  C35  1  0.43785123  0.04521994  0.46946763  1
  Cl  Cl36  1  0.69894411  0.28389392  0.73889562  1
  Cl  Cl37  1  0.19894411  0.78389392  0.76110438  1
  Cl  Cl38  1  0.30105589  0.71610608  0.26110438  1
  Cl  Cl39  1  0.80105589  0.21610608  0.23889562  1
  O  O40  1  0.41305658  0.18242083  0.02626779  1
  O  O41  1  0.91305658  0.68242083  0.47373221  1
  O  O42  1  0.58694342  0.81757917  0.97373221  1
  O  O43  1  0.08694342  0.31757917  0.52626779  1
  O  O44  1  0.35874369  0.93657724  0.09354828  1
  O  O45  1  0.85874369  0.43657724  0.40645172  1
  O  O46  1  0.64125631  0.06342276  0.90645172  1
  O  O47  1  0.14125631  0.56342276  0.59354828  1
  O  O48  1  0.93844184  0.36043494  0.91759522  1
  O  O49  1  0.43844184  0.86043494  0.58240478  1
  O  O50  1  0.06155816  0.63956506  0.08240478  1
  O  O51  1  0.56155816  0.13956506  0.41759522  1
  O  O52  1  0.28158695  0.48228077  0.97650905  1
  O  O53  1  0.78158695  0.98228077  0.52349095  1
  O  O54  1  0.71841305  0.51771923  0.02349095  1
  O  O55  1  0.21841305  0.01771923  0.47650905  1
  O  O56  1  0.17992492  0.10652982  0.86433302  1
  O  O57  1  0.67992492  0.60652982  0.63566698  1
  O  O58  1  0.82007508  0.89347018  0.13566698  1
  O  O59  1  0.32007508  0.39347018  0.36433302  1
  O  O60  1  0.28509484  0.42831758  0.79471119  1
  O  O61  1  0.78509484  0.92831758  0.70528881  1
  O  O62  1  0.71490516  0.57168242  0.20528881  1
  O  O63  1  0.21490516  0.07168242  0.29471119  1
  O  O64  1  0.70725511  0.62144943  0.85532539  1
  O  O65  1  0.20725511  0.12144943  0.64467461  1
  O  O66  1  0.29274489  0.37855057  0.14467461  1
  O  O67  1  0.79274489  0.87855057  0.35532539  1
