# generated using pymatgen
data_SrCo2BPO7
_symmetry_space_group_name_H-M   'P 1'
_cell_length_a   6.52962030
_cell_length_b   9.08570677
_cell_length_c   9.90232637
_cell_angle_alpha   90.00000000
_cell_angle_beta   106.82813397
_cell_angle_gamma   90.00000000
_symmetry_Int_Tables_number   1
_chemical_formula_structural   SrCo2BPO7
_chemical_formula_sum   'Sr4 Co8 B4 P4 O28'
_cell_volume   562.31069377
_cell_formula_units_Z   4
loop_
 _symmetry_equiv_pos_site_id
 _symmetry_equiv_pos_as_xyz
  1  'x, y, z'
loop_
 _atom_site_type_symbol
 _atom_site_label
 _atom_site_symmetry_multiplicity
 _atom_site_fract_x
 _atom_site_fract_y
 _atom_site_fract_z
 _atom_site_occupancy
  Sr  Sr0  1  0.15052060  0.20303598  0.98597338  1
  Sr  Sr1  1  0.34947940  0.70303598  0.51402662  1
  Sr  Sr2  1  0.84947940  0.79696402  0.01402662  1
  Sr  Sr3  1  0.65052060  0.29696402  0.48597338  1
  Co  Co4  1  0.06370458  0.32161555  0.35540619  1
  Co  Co5  1  0.43629542  0.82161555  0.14459381  1
  Co  Co6  1  0.93629542  0.67838445  0.64459381  1
  Co  Co7  1  0.56370458  0.17838445  0.85540619  1
  Co  Co8  1  0.30963752  0.55363722  0.87930270  1
  Co  Co9  1  0.19036248  0.05363722  0.62069730  1
  Co  Co10  1  0.69036248  0.44636278  0.12069730  1
  Co  Co11  1  0.80963752  0.94636278  0.37930270  1
  B  B12  1  0.70598394  0.12267505  0.17016206  1
  B  B13  1  0.79401606  0.62267505  0.32983794  1
  B  B14  1  0.29401606  0.87732495  0.82983794  1
  B  B15  1  0.20598394  0.37732495  0.67016206  1
  P  P16  1  0.23263507  0.50898956  0.19137725  1
  P  P17  1  0.26736493  0.00898956  0.30862275  1
  P  P18  1  0.76736493  0.49101044  0.80862275  1
  P  P19  1  0.73263507  0.99101044  0.69137725  1
  O  O20  1  0.36177841  0.45500788  0.09064552  1
  O  O21  1  0.13822159  0.95500788  0.40935448  1
  O  O22  1  0.63822159  0.54499212  0.90935448  1
  O  O23  1  0.86177841  0.04499212  0.59064552  1
  O  O24  1  0.34040371  0.47703835  0.35069386  1
  O  O25  1  0.15959629  0.97703835  0.14930614  1
  O  O26  1  0.65959629  0.52296165  0.64930614  1
  O  O27  1  0.84040371  0.02296165  0.85069386  1
  O  O28  1  0.02382191  0.41257526  0.14752455  1
  O  O29  1  0.47617809  0.91257526  0.35247545  1
  O  O30  1  0.97617809  0.58742474  0.85247545  1
  O  O31  1  0.52382191  0.08742474  0.64752455  1
  O  O32  1  0.80561795  0.16413303  0.30915377  1
  O  O33  1  0.69438205  0.66413303  0.19084623  1
  O  O34  1  0.19438205  0.83586697  0.69084623  1
  O  O35  1  0.30561795  0.33586697  0.80915377  1
  O  O36  1  0.82245258  0.47217430  0.35328125  1
  O  O37  1  0.67754742  0.97217430  0.14671875  1
  O  O38  1  0.17754742  0.52782570  0.64671875  1
  O  O39  1  0.32245258  0.02782570  0.85328125  1
  O  O40  1  0.19031064  0.67624027  0.17455932  1
  O  O41  1  0.30968936  0.17624027  0.32544068  1
  O  O42  1  0.80968936  0.32375973  0.82544068  1
  O  O43  1  0.69031064  0.82375973  0.67455932  1
  O  O44  1  0.14197567  0.27326799  0.56504072  1
  O  O45  1  0.35802433  0.77326799  0.93495928  1
  O  O46  1  0.85802433  0.72673201  0.43495928  1
  O  O47  1  0.64197567  0.22673201  0.06504072  1
