# generated using pymatgen
data_Li2TeWO6
_symmetry_space_group_name_H-M   'P 1'
_cell_length_a   5.47570691
_cell_length_b   7.13323503
_cell_length_c   13.10793311
_cell_angle_alpha   90.00000000
_cell_angle_beta   90.00000000
_cell_angle_gamma   93.84745176
_symmetry_Int_Tables_number   1
_chemical_formula_structural   Li2TeWO6
_chemical_formula_sum   'Li8 Te4 W4 O24'
_cell_volume   510.83546803
_cell_formula_units_Z   4
loop_
 _symmetry_equiv_pos_site_id
 _symmetry_equiv_pos_as_xyz
  1  'x, y, z'
loop_
 _atom_site_type_symbol
 _atom_site_label
 _atom_site_symmetry_multiplicity
 _atom_site_fract_x
 _atom_site_fract_y
 _atom_site_fract_z
 _atom_site_occupancy
  Li  Li0  1  0.80586673  0.26109213  0.43359744  1
  Li  Li1  1  0.30586673  0.76109213  0.06640256  1
  Li  Li2  1  0.19413327  0.73890787  0.56640256  1
  Li  Li3  1  0.69413327  0.23890787  0.93359744  1
  Li  Li4  1  0.75663837  0.52066229  0.64436251  1
  Li  Li5  1  0.25663837  0.02066229  0.85563749  1
  Li  Li6  1  0.24336163  0.47933771  0.35563749  1
  Li  Li7  1  0.74336163  0.97933771  0.14436251  1
  Te  Te8  1  0.24893166  0.93027752  0.29775588  1
  Te  Te9  1  0.74893166  0.43027752  0.20224412  1
  Te  Te10  1  0.75106834  0.06972248  0.70224412  1
  Te  Te11  1  0.25106834  0.56972248  0.79775588  1
  W  W12  1  0.71792046  0.74437132  0.40431021  1
  W  W13  1  0.21792046  0.24437132  0.09568979  1
  W  W14  1  0.28207954  0.25562868  0.59568979  1
  W  W15  1  0.78207954  0.75562868  0.90431021  1
  O  O16  1  0.85386318  0.66280316  0.52018060  1
  O  O17  1  0.35386318  0.16280316  0.97981940  1
  O  O18  1  0.14613682  0.33719684  0.47981940  1
  O  O19  1  0.64613682  0.83719684  0.02018060  1
  O  O20  1  0.80587549  0.99319532  0.40626265  1
  O  O21  1  0.30587549  0.49319532  0.09373735  1
  O  O22  1  0.19412451  0.00680468  0.59373735  1
  O  O23  1  0.69412451  0.50680468  0.90626265  1
  O  O24  1  0.39163652  0.73997552  0.44285349  1
  O  O25  1  0.89163652  0.23997552  0.05714651  1
  O  O26  1  0.60836348  0.26002448  0.55714651  1
  O  O27  1  0.10836348  0.76002448  0.94285349  1
  O  O28  1  0.01586566  0.70919206  0.30605083  1
  O  O29  1  0.51586566  0.20919206  0.19394917  1
  O  O30  1  0.98413434  0.29080794  0.69394917  1
  O  O31  1  0.48413434  0.79080794  0.80605083  1
  O  O32  1  0.13978392  0.96911696  0.15743875  1
  O  O33  1  0.63978392  0.46911696  0.34256125  1
  O  O34  1  0.86021608  0.03088304  0.84256125  1
  O  O35  1  0.36021608  0.53088304  0.65743875  1
  O  O36  1  0.52867443  0.80798832  0.25173057  1
  O  O37  1  0.02867443  0.30798832  0.24826943  1
  O  O38  1  0.47132557  0.19201168  0.74826943  1
  O  O39  1  0.97132557  0.69201168  0.75173057  1
