# generated using pymatgen
data_Na2LuPWO8
_symmetry_space_group_name_H-M   'P 1'
_cell_length_a   6.82753711
_cell_length_b   11.47556653
_cell_length_c   11.47556653
_cell_angle_alpha   63.68935512
_cell_angle_beta   72.69360221
_cell_angle_gamma   72.69360221
_symmetry_Int_Tables_number   1
_chemical_formula_structural   Na2LuPWO8
_chemical_formula_sum   'Na8 Lu4 P4 W4 O32'
_cell_volume   754.92967256
_cell_formula_units_Z   4
loop_
 _symmetry_equiv_pos_site_id
 _symmetry_equiv_pos_as_xyz
  1  'x, y, z'
loop_
 _atom_site_type_symbol
 _atom_site_label
 _atom_site_symmetry_multiplicity
 _atom_site_fract_x
 _atom_site_fract_y
 _atom_site_fract_z
 _atom_site_occupancy
  Na  Na0  1  0.85685341  0.08967754  0.71629794  1
  Na  Na1  1  0.83717110  0.71629794  0.08967754  1
  Na  Na2  1  0.64314659  0.78370206  0.41032246  1
  Na  Na3  1  0.66282890  0.41032246  0.78370206  1
  Na  Na4  1  0.14314659  0.91032246  0.28370206  1
  Na  Na5  1  0.16282890  0.28370206  0.91032246  1
  Na  Na6  1  0.35685341  0.21629794  0.58967754  1
  Na  Na7  1  0.33717110  0.58967754  0.21629794  1
  Lu  Lu8  1  0.75000000  0.82276839  0.67723161  1
  Lu  Lu9  1  0.25000000  0.67723161  0.82276839  1
  Lu  Lu10  1  0.25000000  0.17723161  0.32276839  1
  Lu  Lu11  1  0.75000000  0.32276839  0.17723161  1
  P  P12  1  0.25000000  0.43020452  0.06979548  1
  P  P13  1  0.75000000  0.06979548  0.43020452  1
  P  P14  1  0.75000000  0.56979548  0.93020452  1
  P  P15  1  0.25000000  0.93020452  0.56979548  1
  W  W16  1  0.67526343  0.07473657  0.07473657  1
  W  W17  1  0.82473657  0.42526343  0.42526343  1
  W  W18  1  0.32473657  0.92526343  0.92526343  1
  W  W19  1  0.17526343  0.57473657  0.57473657  1
  O  O20  1  0.16798943  0.57466184  0.06054233  1
  O  O21  1  0.69680640  0.06054233  0.57466184  1
  O  O22  1  0.33201057  0.43945767  0.92533816  1
  O  O23  1  0.80319360  0.92533816  0.43945767  1
  O  O24  1  0.83201057  0.42533816  0.93945767  1
  O  O25  1  0.30319360  0.93945767  0.42533816  1
  O  O26  1  0.66798943  0.56054233  0.07466184  1
  O  O27  1  0.19680640  0.07466184  0.56054233  1
  O  O28  1  0.41935900  0.35702019  0.15805990  1
  O  O29  1  0.56556091  0.15805990  0.35702019  1
  O  O30  1  0.08064100  0.34194010  0.14297981  1
  O  O31  1  0.93443909  0.14297981  0.34194010  1
  O  O32  1  0.58064100  0.64297981  0.84194010  1
  O  O33  1  0.43443909  0.84194010  0.64297981  1
  O  O34  1  0.91935900  0.65805990  0.85702019  1
  O  O35  1  0.06556091  0.85702019  0.65805990  1
  O  O36  1  0.40221540  0.10577063  0.15864042  1
  O  O37  1  0.83337356  0.15864042  0.10577063  1
  O  O38  1  0.09778460  0.34135958  0.39422937  1
  O  O39  1  0.66662644  0.39422937  0.34135958  1
  O  O40  1  0.59778460  0.89422937  0.84135958  1
  O  O41  1  0.16662644  0.84135958  0.89422937  1
  O  O42  1  0.90221540  0.65864042  0.60577063  1
  O  O43  1  0.33337356  0.60577063  0.65864042  1
  O  O44  1  0.77537773  0.89855020  0.13973010  1
  O  O45  1  0.68634197  0.13973010  0.89855020  1
  O  O46  1  0.72462227  0.36026990  0.60144980  1
  O  O47  1  0.81365803  0.60144980  0.36026990  1
  O  O48  1  0.22462227  0.10144980  0.86026990  1
  O  O49  1  0.31365803  0.86026990  0.10144980  1
  O  O50  1  0.27537773  0.63973010  0.39855020  1
  O  O51  1  0.18634197  0.39855020  0.63973010  1
