# generated using pymatgen
data_Na2CaH4(CO4)2
_symmetry_space_group_name_H-M   'P 1'
_cell_length_a   6.08574266
_cell_length_b   6.49379731
_cell_length_c   10.57171683
_cell_angle_alpha   82.24876141
_cell_angle_beta   73.27183455
_cell_angle_gamma   62.05776157
_symmetry_Int_Tables_number   1
_chemical_formula_structural   Na2CaH4(CO4)2
_chemical_formula_sum   'Na4 Ca2 H8 C4 O16'
_cell_volume   353.46482347
_cell_formula_units_Z   2
loop_
 _symmetry_equiv_pos_site_id
 _symmetry_equiv_pos_as_xyz
  1  'x, y, z'
loop_
 _atom_site_type_symbol
 _atom_site_label
 _atom_site_symmetry_multiplicity
 _atom_site_fract_x
 _atom_site_fract_y
 _atom_site_fract_z
 _atom_site_occupancy
  Na  Na0  1  0.29002328  0.63158599  0.27443592  1
  Na  Na1  1  0.19604519  0.36841401  0.72556408  1
  Na  Na2  1  0.67160927  0.86841401  0.77443592  1
  Na  Na3  1  0.31445920  0.13158599  0.22556408  1
  Ca  Ca4  1  0.74841909  0.50000000  0.50000000  1
  Ca  Ca5  1  0.99841909  -0.00000000  -0.00000000  1
  H  H6  1  0.05620006  0.77779019  0.54348700  1
  H  H7  1  0.37747726  0.22220981  0.45651300  1
  H  H8  1  0.58399026  0.72220981  0.04348700  1
  H  H9  1  0.34968707  0.27779019  0.95651300  1
  H  H10  1  0.83160281  0.94138081  0.47480454  1
  H  H11  1  0.24778817  0.05861919  0.52519546  1
  H  H12  1  0.52298362  0.55861919  0.97480454  1
  H  H13  1  0.05640736  0.44138081  0.02519546  1
  C  C14  1  0.68958644  0.33369737  0.77206493  1
  C  C15  1  0.79534874  0.66630263  0.22793507  1
  C  C16  1  0.77328381  0.16630263  0.27206493  1
  C  C17  1  0.21165137  0.83369737  0.72793507  1
  O  O18  1  0.77151753  0.48806098  0.73132905  1
  O  O19  1  0.99090756  0.51193902  0.26867095  1
  O  O20  1  0.00957851  0.01193902  0.23132905  1
  O  O21  1  0.25284658  0.98806098  0.76867095  1
  O  O22  1  0.64107576  0.24230594  0.68863684  1
  O  O23  1  0.57201853  0.75769406  0.31136316  1
  O  O24  1  0.63338169  0.25769406  0.18863684  1
  O  O25  1  0.07971259  0.74230594  0.81136316  1
  O  O26  1  0.65236864  0.27267517  0.89721870  1
  O  O27  1  0.82226251  0.72732483  0.10278130  1
  O  O28  1  0.67504381  0.22732483  0.39721870  1
  O  O29  1  0.29958734  0.77267517  0.60278130  1
  O  O30  1  0.91555286  0.78214635  0.51090634  1
  O  O31  1  0.20860556  0.21785365  0.48909366  1
  O  O32  1  0.44769922  0.71785365  0.01090634  1
  O  O33  1  0.17645921  0.28214635  0.98909366  1
