# generated using pymatgen
data_KLaH2S2O9
_symmetry_space_group_name_H-M   'P 1'
_cell_length_a   7.32856033
_cell_length_b   7.32856033
_cell_length_c   13.33299187
_cell_angle_alpha   90.00000000
_cell_angle_beta   90.00000000
_cell_angle_gamma   119.99999916
_symmetry_Int_Tables_number   1
_chemical_formula_structural   KLaH2S2O9
_chemical_formula_sum   'K3 La3 H6 S6 O27'
_cell_volume   620.14833799
_cell_formula_units_Z   3
loop_
 _symmetry_equiv_pos_site_id
 _symmetry_equiv_pos_as_xyz
  1  'x, y, z'
loop_
 _atom_site_type_symbol
 _atom_site_label
 _atom_site_symmetry_multiplicity
 _atom_site_fract_x
 _atom_site_fract_y
 _atom_site_fract_z
 _atom_site_occupancy
  K  K0  1  -0.00000047  0.44794416  0.16664441  1
  K  K1  1  0.44794463  0.00000047  0.49997841  1
  K  K2  1  0.55205584  0.55205537  0.83331141  1
  La  La3  1  0.55901200  0.55901092  0.33332960  1
  La  La4  1  -0.00000108  0.44098800  0.66666360  1
  La  La5  1  0.44098908  0.00000108  0.99999660  1
  H  H6  1  0.94030121  0.02410437  0.37789784  1
  H  H7  1  0.08380316  0.05969879  0.71123184  1
  H  H8  1  0.97589563  0.91619684  0.04456484  1
  H  H9  1  0.91619917  0.97589902  0.62210245  1
  H  H10  1  0.02410098  0.94030015  0.28876845  1
  H  H11  1  0.05969985  0.08380083  0.95543545  1
  S  S12  1  0.00501843  0.44321133  0.42642770  1
  S  S13  1  0.43819290  0.99498157  0.75976170  1
  S  S14  1  0.55678867  0.56180710  0.09309470  1
  S  S15  1  0.56180380  0.55678744  0.57356952  1
  S  S16  1  0.44321256  0.00501636  0.24023552  1
  S  S17  1  0.99498364  0.43819620  0.90690252  1
  O  O18  1  0.88134409  0.25176039  0.49085431  1
  O  O19  1  0.37041630  0.11865591  0.82418831  1
  O  O20  1  0.74823961  0.62958370  0.15752131  1
  O  O21  1  0.62958493  0.74823873  0.50914628  1
  O  O22  1  0.25176127  0.88134621  0.17581228  1
  O  O23  1  0.11865379  0.37041507  0.84247928  1
  O  O24  1  0.11408337  0.62199776  0.49910767  1
  O  O25  1  0.50791439  0.88591663  0.83244167  1
  O  O26  1  0.37800224  0.49208561  0.16577467  1
  O  O27  1  0.49208579  0.37800083  0.50089115  1
  O  O28  1  0.62199917  0.11408497  0.16755715  1
  O  O29  1  0.88591503  0.50791421  0.83422415  1
  O  O30  1  0.86617967  0.47874944  0.35848138  1
  O  O31  1  0.61256977  0.13382033  0.69181538  1
  O  O32  1  0.52125056  0.38743023  0.02514838  1
  O  O33  1  0.38742800  0.52124979  0.64151486  1
  O  O34  1  0.47875021  0.86617821  0.30818086  1
  O  O35  1  0.13382179  0.61257200  0.97484786  1
  O  O36  1  0.16007786  0.41708608  0.36494816  1
  O  O37  1  0.25700822  0.83992214  0.69828216  1
  O  O38  1  0.58291392  0.74299178  0.03161516  1
  O  O39  1  0.74299035  0.58291498  0.63505009  1
  O  O40  1  0.41708502  0.16007536  0.30171609  1
  O  O41  1  0.83992464  0.25700965  0.96838309  1
  O  O42  1  0.90525307  0.90525126  0.33333360  1
  O  O43  1  -0.00000181  0.09474693  0.66666760  1
  O  O44  1  0.09474874  0.00000181  0.00000060  1
