# generated using pymatgen
data_W17O47
_symmetry_space_group_name_H-M   'P 1'
_cell_length_a   3.85561154
_cell_length_b   12.59549040
_cell_length_c   19.28164424
_cell_angle_alpha   102.09184758
_cell_angle_beta   90.00000000
_cell_angle_gamma   90.00000000
_symmetry_Int_Tables_number   1
_chemical_formula_structural   W17O47
_chemical_formula_sum   'W17 O47'
_cell_volume   915.60519586
_cell_formula_units_Z   1
loop_
 _symmetry_equiv_pos_site_id
 _symmetry_equiv_pos_as_xyz
  1  'x, y, z'
loop_
 _atom_site_type_symbol
 _atom_site_label
 _atom_site_symmetry_multiplicity
 _atom_site_fract_x
 _atom_site_fract_y
 _atom_site_fract_z
 _atom_site_occupancy
  W  W0  1  -0.00000000  0.02519415  0.35371301  1
  W  W1  1  -0.00000000  0.97480585  0.64628699  1
  W  W2  1  0.00000000  0.19463468  0.21209853  1
  W  W3  1  0.00000000  0.80536532  0.78790147  1
  W  W4  1  -0.00000000  0.49734915  0.30677899  1
  W  W5  1  -0.00000000  0.50265085  0.69322101  1
  W  W6  1  -0.00000000  0.28847020  0.03479680  1
  W  W7  1  0.00000000  0.71152980  0.96520320  1
  W  W8  1  0.00000000  0.57923845  0.12589984  1
  W  W9  1  0.00000000  0.42076155  0.87410016  1
  W  W10  1  0.00000000  0.78066145  0.46050477  1
  W  W11  1  -0.00000000  0.21933855  0.53949523  1
  W  W12  1  -0.00000000  0.75730085  0.28527301  1
  W  W13  1  0.00000000  0.24269915  0.71472699  1
  W  W14  1  0.00000000  0.88928783  0.14860082  1
  W  W15  1  -0.00000000  0.11071217  0.85139918  1
  W  W16  1  0.00000000  0.50000000  0.50000000  1
  O  O17  1  0.50000000  0.02136527  0.35703976  1
  O  O18  1  0.50000000  0.97863473  0.64296024  1
  O  O19  1  0.50000000  0.19584570  0.21485729  1
  O  O20  1  0.50000000  0.80415430  0.78514271  1
  O  O21  1  0.50000000  0.50303930  0.30557825  1
  O  O22  1  0.50000000  0.49696070  0.69442175  1
  O  O23  1  0.50000000  0.28803449  0.03292885  1
  O  O24  1  0.50000000  0.71196551  0.96707115  1
  O  O25  1  0.50000000  0.58420390  0.13121005  1
  O  O26  1  0.50000000  0.41579610  0.86878995  1
  O  O27  1  0.50000000  0.77929122  0.45674815  1
  O  O28  1  0.50000000  0.22070878  0.54325185  1
  O  O29  1  0.50000000  0.75718241  0.28454099  1
  O  O30  1  0.50000000  0.24281759  0.71545901  1
  O  O31  1  0.50000000  0.88563716  0.15290286  1
  O  O32  1  0.50000000  0.11436284  0.84709714  1
  O  O33  1  0.50000000  0.50000000  0.50000000  1
  O  O34  1  -0.00000000  0.11692667  0.45550885  1
  O  O35  1  0.00000000  0.88307333  0.54449115  1
  O  O36  1  0.00000000  0.34601283  0.50115668  1
  O  O37  1  0.00000000  0.65398717  0.49884332  1
  O  O38  1  0.00000000  0.46613670  0.39717053  1
  O  O39  1  0.00000000  0.53386330  0.60282947  1
  O  O40  1  0.00000000  0.35497997  0.25528449  1
  O  O41  1  -0.00000000  0.64502003  0.74471551  1
  O  O42  1  0.00000000  0.14503447  0.30147211  1
  O  O43  1  0.00000000  0.85496553  0.69852789  1
  O  O44  1  -0.00000000  0.58969248  0.23393400  1
  O  O45  1  0.00000000  0.41030752  0.76606600  1
  O  O46  1  -0.00000000  0.66727576  0.36067712  1
  O  O47  1  -0.00000000  0.33272424  0.63932288  1
  O  O48  1  -0.00000000  0.87070207  0.38485804  1
  O  O49  1  0.00000000  0.12929793  0.61514196  1
  O  O50  1  -0.00000000  0.90898537  0.26155033  1
  O  O51  1  0.00000000  0.09101463  0.73844967  1
  O  O52  1  0.00000000  0.74180260  0.17603750  1
  O  O53  1  -0.00000000  0.25819740  0.82396250  1
  O  O54  1  0.00000000  0.42978570  0.10699471  1
  O  O55  1  -0.00000000  0.57021430  0.89300529  1
  O  O56  1  0.00000000  0.61808098  0.03981139  1
  O  O57  1  -0.00000000  0.38191902  0.96018861  1
  O  O58  1  0.00000000  0.03905041  0.16264749  1
  O  O59  1  0.00000000  0.96094959  0.83735251  1
  O  O60  1  0.00000000  0.22056807  0.11916049  1
  O  O61  1  -0.00000000  0.77943193  0.88083951  1
  O  O62  1  0.00000000  0.16041344  0.94863142  1
  O  O63  1  0.00000000  0.83958656  0.05136858  1
