# generated using pymatgen
data_Co3B7O13F
_symmetry_space_group_name_H-M   'P 1'
_cell_length_a   8.56617842
_cell_length_b   8.56617842
_cell_length_c   8.63433674
_cell_angle_alpha   60.26078413
_cell_angle_beta   60.26078413
_cell_angle_gamma   59.99999643
_symmetry_Int_Tables_number   1
_chemical_formula_structural   Co3B7O13F
_chemical_formula_sum   'Co6 B14 O26 F2'
_cell_volume   449.76834446
_cell_formula_units_Z   2
loop_
 _symmetry_equiv_pos_site_id
 _symmetry_equiv_pos_as_xyz
  1  'x, y, z'
loop_
 _atom_site_type_symbol
 _atom_site_label
 _atom_site_symmetry_multiplicity
 _atom_site_fract_x
 _atom_site_fract_y
 _atom_site_fract_z
 _atom_site_occupancy
  Co  Co0  1  0.03369657  0.03262327  0.48013434  1
  Co  Co1  1  0.03262327  0.45354582  0.48013434  1
  Co  Co2  1  0.45354582  0.03369657  0.48013434  1
  Co  Co3  1  0.53369657  0.95354582  0.98013434  1
  Co  Co4  1  0.95354582  0.53262327  0.98013434  1
  Co  Co5  1  0.53262327  0.53369657  0.98013434  1
  B  B6  1  0.74298647  0.25042178  0.75777604  1
  B  B7  1  0.25042178  0.24881572  0.75777604  1
  B  B8  1  0.24881572  0.74298647  0.75777604  1
  B  B9  1  0.24298647  0.74881572  0.25777604  1
  B  B10  1  0.74881572  0.75042178  0.25777604  1
  B  B11  1  0.75042178  0.24298647  0.25777604  1
  B  B12  1  0.73056588  0.42329315  0.42301641  1
  B  B13  1  0.42329315  0.42312457  0.42301641  1
  B  B14  1  0.42312457  0.73056588  0.42301641  1
  B  B15  1  0.23056588  0.92312457  0.92301641  1
  B  B16  1  0.92312457  0.92329315  0.92301641  1
  B  B17  1  0.92329315  0.23056588  0.92301641  1
  B  B18  1  0.39420058  0.39420058  0.81739825  1
  B  B19  1  0.89420058  0.89420058  0.31739825  1
  O  O20  1  0.50834676  0.50834676  0.47495973  1
  O  O21  1  0.00834676  0.00834676  0.97495973  1
  O  O22  1  0.22985288  0.55208478  0.82521015  1
  O  O23  1  0.55208478  0.39285219  0.82521015  1
  O  O24  1  0.39285219  0.22985288  0.82521015  1
  O  O25  1  0.72985288  0.89285219  0.32521015  1
  O  O26  1  0.89285219  0.05208478  0.32521015  1
  O  O27  1  0.05208478  0.72985288  0.32521015  1
  O  O28  1  0.56101243  0.24161681  0.39887560  1
  O  O29  1  0.24161681  0.79849516  0.39887560  1
  O  O30  1  0.79849516  0.56101243  0.39887560  1
  O  O31  1  0.06101243  0.29849516  0.89887560  1
  O  O32  1  0.29849516  0.74161681  0.89887560  1
  O  O33  1  0.74161681  0.06101243  0.89887560  1
  O  O34  1  0.80790958  0.38529648  0.24607919  1
  O  O35  1  0.38529648  0.56071475  0.24607919  1
  O  O36  1  0.56071475  0.80790958  0.24607919  1
  O  O37  1  0.30790958  0.06071475  0.74607919  1
  O  O38  1  0.06071475  0.88529648  0.74607919  1
  O  O39  1  0.88529648  0.30790958  0.74607919  1
  O  O40  1  0.39623776  0.78429064  0.57284856  1
  O  O41  1  0.78429064  0.24662304  0.57284856  1
  O  O42  1  0.24662304  0.39623776  0.57284856  1
  O  O43  1  0.89623776  0.74662304  0.07284856  1
  O  O44  1  0.74662304  0.28429064  0.07284856  1
  O  O45  1  0.28429064  0.89623776  0.07284856  1
  F  F46  1  0.20359294  0.20359294  0.38922118  1
  F  F47  1  0.70359294  0.70359294  0.88922118  1
