# generated using pymatgen
data_Rb3TeH6(ClO2)3
_symmetry_space_group_name_H-M   'P 1'
_cell_length_a   9.26184561
_cell_length_b   9.26184561
_cell_length_c   9.26184540
_cell_angle_alpha   106.20555002
_cell_angle_beta   106.20555002
_cell_angle_gamma   106.20555240
_symmetry_Int_Tables_number   1
_chemical_formula_structural   Rb3TeH6(ClO2)3
_chemical_formula_sum   'Rb6 Te2 H12 Cl6 O12'
_cell_volume   675.49192749
_cell_formula_units_Z   2
loop_
 _symmetry_equiv_pos_site_id
 _symmetry_equiv_pos_as_xyz
  1  'x, y, z'
loop_
 _atom_site_type_symbol
 _atom_site_label
 _atom_site_symmetry_multiplicity
 _atom_site_fract_x
 _atom_site_fract_y
 _atom_site_fract_z
 _atom_site_occupancy
  Rb  Rb0  1  0.79571091  0.25001019  0.70432628  1
  Rb  Rb1  1  0.25001019  0.70432628  0.79571091  1
  Rb  Rb2  1  0.70432628  0.79571091  0.25001019  1
  Rb  Rb3  1  0.29571091  0.20432628  0.75001019  1
  Rb  Rb4  1  0.20432628  0.75001019  0.29571091  1
  Rb  Rb5  1  0.75001019  0.29571091  0.20432628  1
  Te  Te6  1  0.50000063  0.50000063  0.50000063  1
  Te  Te7  1  0.00000063  0.00000063  0.00000063  1
  H  H8  1  0.42701419  0.20136915  0.40268562  1
  H  H9  1  0.20136915  0.40268562  0.42701419  1
  H  H10  1  0.40268562  0.42701419  0.20136915  1
  H  H11  1  0.92701419  0.90268562  0.70136915  1
  H  H12  1  0.90268562  0.70136915  0.92701419  1
  H  H13  1  0.70136915  0.92701419  0.90268562  1
  H  H14  1  0.57299144  0.79863409  0.59731636  1
  H  H15  1  0.79863409  0.59731636  0.57299144  1
  H  H16  1  0.59731636  0.57299144  0.79863409  1
  H  H17  1  0.07299144  0.09731636  0.29863409  1
  H  H18  1  0.09731636  0.29863409  0.07299144  1
  H  H19  1  0.29863409  0.07299144  0.09731636  1
  Cl  Cl20  1  0.01744950  0.24999924  0.48256117  1
  Cl  Cl21  1  0.24999924  0.48256117  0.01744950  1
  Cl  Cl22  1  0.48256117  0.01744950  0.24999924  1
  Cl  Cl23  1  0.51744950  0.98256117  0.74999924  1
  Cl  Cl24  1  0.98256117  0.74999924  0.51744950  1
  Cl  Cl25  1  0.74999924  0.51744950  0.98256117  1
  O  O26  1  0.42017332  0.27975851  0.49734774  1
  O  O27  1  0.27975851  0.49734774  0.42017332  1
  O  O28  1  0.49734774  0.42017332  0.27975851  1
  O  O29  1  0.92017332  0.99734774  0.77975851  1
  O  O30  1  0.99734774  0.77975851  0.92017332  1
  O  O31  1  0.77975851  0.92017332  0.99734774  1
  O  O32  1  0.57982716  0.72024142  0.50265108  1
  O  O33  1  0.72024142  0.50265108  0.57982716  1
  O  O34  1  0.50265108  0.57982716  0.72024142  1
  O  O35  1  0.07982716  0.00265108  0.22024142  1
  O  O36  1  0.00265108  0.22024142  0.07982716  1
  O  O37  1  0.22024142  0.07982716  0.00265108  1
