# generated using pymatgen
data_MgCrH22O15
_symmetry_space_group_name_H-M   'P 1'
_cell_length_a   6.83943348
_cell_length_b   7.04309668
_cell_length_c   17.57961110
_cell_angle_alpha   87.58531399
_cell_angle_beta   89.32622091
_cell_angle_gamma   63.03791861
_symmetry_Int_Tables_number   1
_chemical_formula_structural   MgCrH22O15
_chemical_formula_sum   'Mg2 Cr2 H44 O30'
_cell_volume   754.08394046
_cell_formula_units_Z   2
loop_
 _symmetry_equiv_pos_site_id
 _symmetry_equiv_pos_as_xyz
  1  'x, y, z'
loop_
 _atom_site_type_symbol
 _atom_site_label
 _atom_site_symmetry_multiplicity
 _atom_site_fract_x
 _atom_site_fract_y
 _atom_site_fract_z
 _atom_site_occupancy
  Mg  Mg0  1  -0.00000000  -0.00000000  0.00000000  1
  Mg  Mg1  1  -0.00000000  -0.00000000  0.50000000  1
  Cr  Cr2  1  0.59182777  0.67919239  0.79755400  1
  Cr  Cr3  1  0.40817223  0.32080761  0.20244600  1
  H  H4  1  0.44288328  0.76384673  0.95229002  1
  H  H5  1  0.55711672  0.23615327  0.04770998  1
  H  H6  1  0.43117751  0.81387398  0.03958169  1
  H  H7  1  0.56882249  0.18612602  0.96041831  1
  H  H8  1  0.89303766  0.39936545  0.93213607  1
  H  H9  1  0.10696234  0.60063455  0.06786393  1
  H  H10  1  0.15096426  0.26095352  0.92558982  1
  H  H11  1  0.84903574  0.73904648  0.07441018  1
  H  H12  1  0.95763029  0.96455185  0.84462329  1
  H  H13  1  0.04236971  0.03544815  0.15537671  1
  H  H14  1  0.87659773  0.81094226  0.89028220  1
  H  H15  1  0.12340227  0.18905774  0.10971780  1
  H  H16  1  0.70010891  0.11895338  0.61507537  1
  H  H17  1  0.29989109  0.88104662  0.38492463  1
  H  H18  1  0.92253335  0.08060925  0.65561771  1
  H  H19  1  0.07746665  0.91939075  0.34438229  1
  H  H20  1  0.22742999  0.24034200  0.47617709  1
  H  H21  1  0.77257001  0.75965800  0.52382291  1
  H  H22  1  0.28531088  0.13715220  0.55991056  1
  H  H23  1  0.71468912  0.86284780  0.44008944  1
  H  H24  1  0.20030426  0.66724730  0.59968764  1
  H  H25  1  0.79969574  0.33275270  0.40031236  1
  H  H26  1  0.39867434  0.68591938  0.55918380  1
  H  H27  1  0.60132566  0.31408062  0.44081620  1
  H  H28  1  0.71959608  0.57572944  0.63608419  1
  H  H29  1  0.28040392  0.42427056  0.36391581  1
  H  H30  1  0.75863337  0.44734701  0.56188893  1
  H  H31  1  0.24136663  0.55265299  0.43811107  1
  H  H32  1  0.43198228  0.13056374  0.84301143  1
  H  H33  1  0.56801772  0.86943626  0.15698857  1
  H  H34  1  0.39654163  0.36536857  0.85465501  1
  H  H35  1  0.60345837  0.63463143  0.14534499  1
  H  H36  1  0.45728722  0.05588109  0.68247014  1
  H  H37  1  0.54271278  0.94411891  0.31752986  1
  H  H38  1  0.34304872  0.29718567  0.65563506  1
  H  H39  1  0.65695128  0.70281433  0.34436494  1
  H  H40  1  0.24592378  0.58096071  0.72931710  1
  H  H41  1  0.75407622  0.41903929  0.27068290  1
  H  H42  1  0.02717716  0.56785068  0.70631359  1
  H  H43  1  0.97282284  0.43214932  0.29368641  1
  H  H44  1  0.93617671  0.24512531  0.75502763  1
  H  H45  1  0.06382329  0.75487469  0.24497237  1
  H  H46  1  0.16324742  0.03674854  0.75873493  1
  H  H47  1  0.83675258  0.96325146  0.24126507  1
  O  O48  1  0.34021564  0.82608918  0.99418644  1
  O  O49  1  0.65978436  0.17391082  0.00581356  1
  O  O50  1  0.01699134  0.26294364  0.94885137  1
  O  O51  1  0.98300866  0.73705636  0.05114863  1
  O  O52  1  0.95284098  0.89969984  0.89512598  1
  O  O53  1  0.04715902  0.10030016  0.10487402  1
  O  O54  1  0.85050709  0.10286860  0.60494439  1
  O  O55  1  0.14949291  0.89713140  0.39505561  1
  O  O56  1  0.19390496  0.15173444  0.51436567  1
  O  O57  1  0.80609504  0.84826556  0.48563433  1
  O  O58  1  0.24225216  0.72010606  0.55190949  1
  O  O59  1  0.75774784  0.27989394  0.44809051  1
  O  O60  1  0.69931834  0.66119169  0.88315491  1
  O  O61  1  0.30068166  0.33880831  0.11684509  1
  O  O62  1  0.79088445  0.54624784  0.73511187  1
  O  O63  1  0.20911555  0.45375216  0.26488813  1
  O  O64  1  0.45579098  0.93862861  0.76980344  1
  O  O65  1  0.54420902  0.06137139  0.23019656  1
  O  O66  1  0.41679446  0.57654799  0.80147520  1
  O  O67  1  0.58320554  0.42345201  0.19852480  1
  O  O68  1  0.68650581  0.59317428  0.58047467  1
  O  O69  1  0.31349419  0.40682572  0.41952533  1
  O  O70  1  0.39308220  0.24015563  0.88145005  1
  O  O71  1  0.60691780  0.75984437  0.11854995  1
  O  O72  1  0.43864232  0.15268568  0.63700520  1
  O  O73  1  0.56135768  0.84731432  0.36299480  1
  O  O74  1  0.16940612  0.55402735  0.68628344  1
  O  O75  1  0.83059388  0.44597265  0.31371656  1
  O  O76  1  0.00267231  0.08816939  0.75290452  1
  O  O77  1  0.99732769  0.91183061  0.24709548  1
