# generated using pymatgen
data_EuV2IO9
_symmetry_space_group_name_H-M   'P 1'
_cell_length_a   7.10456752
_cell_length_b   7.29364854
_cell_length_c   14.71382241
_cell_angle_alpha   90.00000000
_cell_angle_beta   90.00000000
_cell_angle_gamma   90.00000000
_symmetry_Int_Tables_number   1
_chemical_formula_structural   EuV2IO9
_chemical_formula_sum   'Eu4 V8 I4 O36'
_cell_volume   762.44406490
_cell_formula_units_Z   4
loop_
 _symmetry_equiv_pos_site_id
 _symmetry_equiv_pos_as_xyz
  1  'x, y, z'
loop_
 _atom_site_type_symbol
 _atom_site_label
 _atom_site_symmetry_multiplicity
 _atom_site_fract_x
 _atom_site_fract_y
 _atom_site_fract_z
 _atom_site_occupancy
  Eu  Eu0  1  0.14871528  0.25000000  0.54755182  1
  Eu  Eu1  1  0.85128472  0.75000000  0.45244818  1
  Eu  Eu2  1  0.14871528  0.75000000  0.95244818  1
  Eu  Eu3  1  0.85128472  0.25000000  0.04755182  1
  V  V4  1  0.53920322  0.50000000  0.25000000  1
  V  V5  1  0.46079678  0.00000000  0.75000000  1
  V  V6  1  0.46079678  0.50000000  0.75000000  1
  V  V7  1  0.53920322  0.00000000  0.25000000  1
  V  V8  1  0.18351324  0.25000000  0.27148609  1
  V  V9  1  0.81648676  0.75000000  0.72851391  1
  V  V10  1  0.18351324  0.75000000  0.22851391  1
  V  V11  1  0.81648676  0.25000000  0.77148609  1
  I  I12  1  0.70211362  0.25000000  0.44634765  1
  I  I13  1  0.29788638  0.75000000  0.55365235  1
  I  I14  1  0.70211362  0.75000000  0.05365235  1
  I  I15  1  0.29788638  0.25000000  0.94634765  1
  O  O16  1  0.82662889  0.43037711  0.51129391  1
  O  O17  1  0.17337111  0.93037711  0.48870609  1
  O  O18  1  0.82662889  0.56962289  0.98870609  1
  O  O19  1  0.17337111  0.06962289  0.01129391  1
  O  O20  1  0.17337111  0.56962289  0.48870609  1
  O  O21  1  0.82662889  0.06962289  0.51129391  1
  O  O22  1  0.17337111  0.43037711  0.01129391  1
  O  O23  1  0.82662889  0.93037711  0.98870609  1
  O  O24  1  0.47381837  0.25000000  0.50142871  1
  O  O25  1  0.52618163  0.75000000  0.49857129  1
  O  O26  1  0.47381837  0.75000000  0.99857129  1
  O  O27  1  0.52618163  0.25000000  0.00142871  1
  O  O28  1  0.67467639  0.54520787  0.34187148  1
  O  O29  1  0.32532361  0.04520787  0.65812852  1
  O  O30  1  0.67467639  0.45479213  0.15812852  1
  O  O31  1  0.32532361  0.95479213  0.84187148  1
  O  O32  1  0.32532361  0.45479213  0.65812852  1
  O  O33  1  0.67467639  0.95479213  0.34187148  1
  O  O34  1  0.32532361  0.54520787  0.84187148  1
  O  O35  1  0.67467639  0.04520787  0.15812852  1
  O  O36  1  0.47145487  0.75000000  0.21944971  1
  O  O37  1  0.52854513  0.25000000  0.78055029  1
  O  O38  1  0.47145487  0.25000000  0.28055029  1
  O  O39  1  0.52854513  0.75000000  0.71944971  1
  O  O40  1  0.26365869  0.50000000  0.25000000  1
  O  O41  1  0.73634131  0.00000000  0.75000000  1
  O  O42  1  0.73634131  0.50000000  0.75000000  1
  O  O43  1  0.26365869  0.00000000  0.25000000  1
  O  O44  1  0.01368837  0.25000000  0.19269939  1
  O  O45  1  0.98631163  0.75000000  0.80730061  1
  O  O46  1  0.01368837  0.75000000  0.30730061  1
  O  O47  1  0.98631163  0.25000000  0.69269939  1
  O  O48  1  0.08119321  0.25000000  0.37470082  1
  O  O49  1  0.91880679  0.75000000  0.62529918  1
  O  O50  1  0.08119321  0.75000000  0.12529918  1
  O  O51  1  0.91880679  0.25000000  0.87470082  1
