# generated using pymatgen
data_Na3Np(H3O4)2
_symmetry_space_group_name_H-M   'P 1'
_cell_length_a   6.91180602
_cell_length_b   7.96584057
_cell_length_c   7.81441463
_cell_angle_alpha   90.00000000
_cell_angle_beta   90.00000000
_cell_angle_gamma   112.32965191
_symmetry_Int_Tables_number   1
_chemical_formula_structural   Na3Np(H3O4)2
_chemical_formula_sum   'Na6 Np2 H12 O16'
_cell_volume   397.98576642
_cell_formula_units_Z   2
loop_
 _symmetry_equiv_pos_site_id
 _symmetry_equiv_pos_as_xyz
  1  'x, y, z'
loop_
 _atom_site_type_symbol
 _atom_site_label
 _atom_site_symmetry_multiplicity
 _atom_site_fract_x
 _atom_site_fract_y
 _atom_site_fract_z
 _atom_site_occupancy
  Na  Na0  1  0.50000000  0.50000000  -0.00000000  1
  Na  Na1  1  0.00000000  0.50000000  0.50000000  1
  Na  Na2  1  0.40259969  0.85046608  0.17730051  1
  Na  Na3  1  0.09740031  0.14953392  0.67730051  1
  Na  Na4  1  0.59740031  0.14953392  0.82269949  1
  Na  Na5  1  0.90259969  0.85046608  0.32269949  1
  Np  Np6  1  0.00000000  0.50000000  -0.00000000  1
  Np  Np7  1  0.50000000  0.50000000  0.50000000  1
  H  H8  1  0.84455928  0.71376494  0.78934753  1
  H  H9  1  0.65544072  0.28623506  0.28934753  1
  H  H10  1  0.15544072  0.28623506  0.21065247  1
  H  H11  1  0.34455928  0.71376494  0.71065247  1
  H  H12  1  0.79272574  0.87889360  0.00016165  1
  H  H13  1  0.70727426  0.12110640  0.50016165  1
  H  H14  1  0.20727426  0.12110640  0.99983835  1
  H  H15  1  0.29272574  0.87889360  0.49983835  1
  H  H16  1  0.87346681  0.08474856  0.07201316  1
  H  H17  1  0.62653319  0.91525144  0.57201316  1
  H  H18  1  0.12653319  0.91525144  0.92798684  1
  H  H19  1  0.37346681  0.08474856  0.42798684  1
  O  O20  1  0.27996527  0.65368824  0.93470182  1
  O  O21  1  0.22003473  0.34631176  0.43470182  1
  O  O22  1  0.72003473  0.34631176  0.06529818  1
  O  O23  1  0.77996527  0.65368824  0.56529818  1
  O  O24  1  0.95487036  0.38233911  0.78275938  1
  O  O25  1  0.54512964  0.61766089  0.28275938  1
  O  O26  1  0.04512964  0.61766089  0.21724062  1
  O  O27  1  0.45487036  0.38233911  0.71724062  1
  O  O28  1  0.87839869  0.72803330  0.91367805  1
  O  O29  1  0.62160131  0.27196670  0.41367805  1
  O  O30  1  0.12160131  0.27196670  0.08632195  1
  O  O31  1  0.37839869  0.72803330  0.58632195  1
  O  O32  1  0.74753752  0.96870275  0.06339801  1
  O  O33  1  0.75246248  0.03129725  0.56339801  1
  O  O34  1  0.25246248  0.03129725  0.93660199  1
  O  O35  1  0.24753752  0.96870275  0.43660199  1
