# generated using pymatgen
data_Ca2B5H7O13
_symmetry_space_group_name_H-M   'P 1'
_cell_length_a   7.00879770
_cell_length_b   11.78724187
_cell_length_c   12.48822756
_cell_angle_alpha   110.61513598
_cell_angle_beta   90.00000000
_cell_angle_gamma   90.00000000
_symmetry_Int_Tables_number   1
_chemical_formula_structural   Ca2B5H7O13
_chemical_formula_sum   'Ca8 B20 H28 O52'
_cell_volume   965.64357392
_cell_formula_units_Z   4
loop_
 _symmetry_equiv_pos_site_id
 _symmetry_equiv_pos_as_xyz
  1  'x, y, z'
loop_
 _atom_site_type_symbol
 _atom_site_label
 _atom_site_symmetry_multiplicity
 _atom_site_fract_x
 _atom_site_fract_y
 _atom_site_fract_z
 _atom_site_occupancy
  Ca  Ca0  1  0.25828634  0.99232778  0.91709804  1
  Ca  Ca1  1  0.75828634  0.00767222  0.58290196  1
  Ca  Ca2  1  0.74171366  0.00767222  0.08290196  1
  Ca  Ca3  1  0.24171366  0.99232778  0.41709804  1
  Ca  Ca4  1  0.74878899  0.69533128  0.12462554  1
  Ca  Ca5  1  0.24878899  0.30466872  0.37537446  1
  Ca  Ca6  1  0.25121101  0.30466872  0.87537446  1
  Ca  Ca7  1  0.75121101  0.69533128  0.62462554  1
  B  B8  1  0.25103633  0.75249627  0.14562917  1
  B  B9  1  0.75103633  0.24750373  0.35437083  1
  B  B10  1  0.74896367  0.24750373  0.85437083  1
  B  B11  1  0.24896367  0.75249627  0.64562917  1
  B  B12  1  0.22627363  0.98247644  0.17025563  1
  B  B13  1  0.72627363  0.01752356  0.32974437  1
  B  B14  1  0.77372637  0.01752356  0.82974437  1
  B  B15  1  0.27372637  0.98247644  0.67025563  1
  B  B16  1  0.03700158  0.81739399  0.02009280  1
  B  B17  1  0.53700158  0.18260601  0.47990720  1
  B  B18  1  0.96299842  0.18260601  0.97990720  1
  B  B19  1  0.46299842  0.81739399  0.52009280  1
  B  B20  1  0.78645612  0.69909974  0.87553341  1
  B  B21  1  0.28645612  0.30090026  0.62446659  1
  B  B22  1  0.21354388  0.30090026  0.12446659  1
  B  B23  1  0.71354388  0.69909974  0.37553341  1
  B  B24  1  0.12251784  0.71366857  0.81128080  1
  B  B25  1  0.62251784  0.28633143  0.68871920  1
  B  B26  1  0.87748216  0.28633143  0.18871920  1
  B  B27  1  0.37748216  0.71366857  0.31128080  1
  H  H28  1  0.72053338  0.51788911  0.85357203  1
  H  H29  1  0.22053338  0.48211089  0.64642797  1
  H  H30  1  0.27946662  0.48211089  0.14642797  1
  H  H31  1  0.77946662  0.51788911  0.35357203  1
  H  H32  1  0.49864811  0.69178184  0.80394025  1
  H  H33  1  0.99864811  0.30821816  0.69605975  1
  H  H34  1  0.50135189  0.30821816  0.19605975  1
  H  H35  1  0.00135189  0.69178184  0.30394025  1
  H  H36  1  0.41408634  0.73763259  0.00569795  1
  H  H37  1  0.91408634  0.26236741  0.49430205  1
  H  H38  1  0.58591366  0.26236741  0.99430205  1
  H  H39  1  0.08591366  0.73763259  0.50569795  1
  H  H40  1  0.38865286  0.11198142  0.13795041  1
  H  H41  1  0.88865286  0.88801858  0.36204959  1
  H  H42  1  0.61134714  0.88801858  0.86204959  1
  H  H43  1  0.11134714  0.11198142  0.63795041  1
  H  H44  1  0.02945961  0.09507529  0.27706228  1
  H  H45  1  0.52945961  0.90492471  0.22293772  1
  H  H46  1  0.97054039  0.90492471  0.72293772  1
  H  H47  1  0.47054039  0.09507529  0.77706228  1
  H  H48  1  0.76492563  0.43136433  0.04779297  1
  H  H49  1  0.26492563  0.56863567  0.45220703  1
  H  H50  1  0.23507437  0.56863567  0.95220703  1
  H  H51  1  0.73507437  0.43136433  0.54779297  1
  H  H52  1  0.97073162  0.46704324  0.09445797  1
  H  H53  1  0.47073162  0.53295676  0.40554203  1
  H  H54  1  0.02926838  0.53295676  0.90554203  1
  H  H55  1  0.52926838  0.46704324  0.59445797  1
  O  O56  1  0.25726844  0.68477799  0.72511804  1
  O  O57  1  0.75726844  0.31522201  0.77488196  1
  O  O58  1  0.74273156  0.31522201  0.27488196  1
  O  O59  1  0.24273156  0.68477799  0.22511804  1
  O  O60  1  0.41702093  0.70112828  0.06467142  1
  O  O61  1  0.91702093  0.29887172  0.43532858  1
  O  O62  1  0.58297907  0.29887172  0.93532858  1
  O  O63  1  0.08297907  0.70112828  0.56467142  1
  O  O64  1  0.07236906  0.73686461  0.08356077  1
  O  O65  1  0.57236906  0.26313539  0.41643923  1
  O  O66  1  0.92763094  0.26313539  0.91643923  1
  O  O67  1  0.42763094  0.73686461  0.58356077  1
  O  O68  1  0.28990326  0.88458615  0.21114388  1
  O  O69  1  0.78990326  0.11541385  0.28885612  1
  O  O70  1  0.71009674  0.11541385  0.78885612  1
  O  O71  1  0.21009674  0.88458615  0.71114388  1
  O  O72  1  0.39069549  0.02104298  0.11053026  1
  O  O73  1  0.89069549  0.97895702  0.38946974  1
  O  O74  1  0.60930451  0.97895702  0.88946974  1
  O  O75  1  0.10930451  0.02104298  0.61053026  1
  O  O76  1  0.17246879  0.08925027  0.27293888  1
  O  O77  1  0.67246879  0.91074973  0.22706112  1
  O  O78  1  0.82753121  0.91074973  0.72706112  1
  O  O79  1  0.32753121  0.08925027  0.77293888  1
  O  O80  1  0.06386313  0.94585553  0.09098723  1
  O  O81  1  0.56386313  0.05414447  0.40901277  1
  O  O82  1  0.93613687  0.05414447  0.90901277  1
  O  O83  1  0.43613687  0.94585553  0.59098723  1
  O  O84  1  0.17485198  0.79070368  0.91945686  1
  O  O85  1  0.67485198  0.20929632  0.58054314  1
  O  O86  1  0.82514802  0.20929632  0.08054314  1
  O  O87  1  0.32514802  0.79070368  0.41945686  1
  O  O88  1  0.83720637  0.80192622  0.97978214  1
  O  O89  1  0.33720637  0.19807378  0.52021786  1
  O  O90  1  0.16279363  0.19807378  0.02021786  1
  O  O91  1  0.66279363  0.80192622  0.47978214  1
  O  O92  1  0.61992825  0.73613402  0.82152281  1
  O  O93  1  0.11992825  0.26386598  0.67847719  1
  O  O94  1  0.38007175  0.26386598  0.17847719  1
  O  O95  1  0.88007175  0.73613402  0.32152281  1
  O  O96  1  0.75819779  0.59430508  0.91240962  1
  O  O97  1  0.25819779  0.40569492  0.58759038  1
  O  O98  1  0.24180221  0.40569492  0.08759038  1
  O  O99  1  0.74180221  0.59430508  0.41240962  1
  O  O100  1  0.93929441  0.67262373  0.78682964  1
  O  O101  1  0.43929441  0.32737627  0.71317036  1
  O  O102  1  0.06070559  0.32737627  0.21317036  1
  O  O103  1  0.56070559  0.67262373  0.28682964  1
  O  O104  1  0.83653306  0.49321123  0.10853216  1
  O  O105  1  0.33653306  0.50678877  0.39146784  1
  O  O106  1  0.16346694  0.50678877  0.89146784  1
  O  O107  1  0.66346694  0.49321123  0.60853216  1
