# generated using pymatgen
data_CdRe2(H2O5)2
_symmetry_space_group_name_H-M   'P 1'
_cell_length_a   7.83331162
_cell_length_b   9.21987476
_cell_length_c   14.26982338
_cell_angle_alpha   73.80279896
_cell_angle_beta   87.48946917
_cell_angle_gamma   71.56772256
_symmetry_Int_Tables_number   1
_chemical_formula_structural   CdRe2(H2O5)2
_chemical_formula_sum   'Cd4 Re8 H16 O40'
_cell_volume   937.80171281
_cell_formula_units_Z   4
loop_
 _symmetry_equiv_pos_site_id
 _symmetry_equiv_pos_as_xyz
  1  'x, y, z'
loop_
 _atom_site_type_symbol
 _atom_site_label
 _atom_site_symmetry_multiplicity
 _atom_site_fract_x
 _atom_site_fract_y
 _atom_site_fract_z
 _atom_site_occupancy
  Cd  Cd0  1  0.74847216  0.76971821  0.65499901  1
  Cd  Cd1  1  0.25152784  0.23028179  0.34500099  1
  Cd  Cd2  1  0.76385805  0.36643053  0.84874229  1
  Cd  Cd3  1  0.23614195  0.63356947  0.15125771  1
  Re  Re4  1  0.25797297  0.63574483  0.58745871  1
  Re  Re5  1  0.74202703  0.36425517  0.41254129  1
  Re  Re6  1  0.28300852  0.86380199  0.37834622  1
  Re  Re7  1  0.71699148  0.13619801  0.62165378  1
  Re  Re8  1  0.24099534  0.09317032  0.94913969  1
  Re  Re9  1  0.75900466  0.90682968  0.05086031  1
  Re  Re10  1  0.24504056  0.59043328  0.88858981  1
  Re  Re11  1  0.75495944  0.40956672  0.11141019  1
  H  H12  1  0.81883222  0.45663210  0.63405733  1
  H  H13  1  0.18116778  0.54336790  0.36594267  1
  H  H14  1  0.00610784  0.42363814  0.68561955  1
  H  H15  1  0.99389216  0.57636186  0.31438045  1
  H  H16  1  0.70712181  0.70490567  0.87132567  1
  H  H17  1  0.29287819  0.29509433  0.12867433  1
  H  H18  1  0.52339097  0.72743618  0.81828801  1
  H  H19  1  0.47660903  0.27256382  0.18171199  1
  H  H20  1  0.76308336  0.93459245  0.78945013  1
  H  H21  1  0.23691664  0.06540755  0.21054987  1
  H  H22  1  0.04070902  0.05046665  0.69011584  1
  H  H23  1  0.95929098  0.94953335  0.30988416  1
  H  H24  1  0.51450440  0.36558227  0.71212115  1
  H  H25  1  0.48549560  0.63441773  0.28787885  1
  H  H26  1  0.53183880  0.20516015  0.79405783  1
  H  H27  1  0.46816120  0.79483985  0.20594217  1
  O  O28  1  0.04935570  0.75495632  0.61169730  1
  O  O29  1  0.95064430  0.24504368  0.38830270  1
  O  O30  1  0.25314901  0.90094892  0.49585044  1
  O  O31  1  0.74685099  0.09905108  0.50414956  1
  O  O32  1  0.32019964  0.63842634  0.45751522  1
  O  O33  1  0.67980036  0.36157366  0.54248478  1
  O  O34  1  0.42917742  0.62868592  0.66433530  1
  O  O35  1  0.57082258  0.37131408  0.33566470  1
  O  O36  1  0.65816658  0.71854189  0.53785932  1
  O  O37  1  0.34183342  0.28145811  0.46214068  1
  O  O38  1  0.48032385  0.91067437  0.34603531  1
  O  O39  1  0.51967615  0.08932563  0.65396469  1
  O  O40  1  0.76137339  0.55481981  0.36899610  1
  O  O41  1  0.23862661  0.44518019  0.63100390  1
  O  O42  1  0.04701480  0.85397827  0.35182199  1
  O  O43  1  0.95298520  0.14602173  0.64817801  1
  O  O44  1  0.04859726  0.18258848  0.86826643  1
  O  O45  1  0.95140274  0.81741152  0.13173357  1
  O  O46  1  0.24282344  0.90369408  0.01913697  1
  O  O47  1  0.75717656  0.09630592  0.98086303  1
  O  O48  1  0.23556743  0.21130451  0.02704968  1
  O  O49  1  0.76443257  0.78869549  0.97295032  1
  O  O50  1  0.43408379  0.07899335  0.88001410  1
  O  O51  1  0.56591621  0.92100665  0.11998590  1
  O  O52  1  0.45296267  0.43880280  0.89400820  1
  O  O53  1  0.54703733  0.56119720  0.10599180  1
  O  O54  1  0.17476207  0.59626795  0.00716732  1
  O  O55  1  0.82523793  0.40373205  0.99283268  1
  O  O56  1  0.08053945  0.55891932  0.82577034  1
  O  O57  1  0.91946055  0.44108068  0.17422966  1
  O  O58  1  0.27685638  0.77207956  0.82770280  1
  O  O59  1  0.72314362  0.22792044  0.17229720  1
  O  O60  1  0.87472607  0.46066739  0.69360157  1
  O  O61  1  0.12527393  0.53933261  0.30639843  1
  O  O62  1  0.65583910  0.67734389  0.81899546  1
  O  O63  1  0.34416090  0.32265611  0.18100454  1
  O  O64  1  0.83338592  0.92553311  0.73147750  1
  O  O65  1  0.16661408  0.07446689  0.26852250  1
  O  O66  1  0.60474955  0.26912566  0.75250790  1
  O  O67  1  0.39525045  0.73087434  0.24749210  1
