# generated using pymatgen
data_Ti12AlSi3C8
_symmetry_space_group_name_H-M   'P 1'
_cell_length_a   6.15953237
_cell_length_b   6.15982306
_cell_length_c   17.91182309
_cell_angle_alpha   89.98973524
_cell_angle_beta   90.00197568
_cell_angle_gamma   119.99180437
_symmetry_Int_Tables_number   1
_chemical_formula_structural   Ti12AlSi3C8
_chemical_formula_sum   'Ti24 Al2 Si6 C16'
_cell_volume   588.60270605
_cell_formula_units_Z   2
loop_
 _symmetry_equiv_pos_site_id
 _symmetry_equiv_pos_as_xyz
  1  'x, y, z'
loop_
 _atom_site_type_symbol
 _atom_site_label
 _atom_site_symmetry_multiplicity
 _atom_site_fract_x
 _atom_site_fract_y
 _atom_site_fract_z
 _atom_site_occupancy
  Ti  Ti0  1  0.00033985  0.00007442  0.00011201  1
  Ti  Ti1  1  0.00060297  0.50002886  0.00022117  1
  Ti  Ti2  1  0.50059732  0.50013905  -0.00000928  1
  Ti  Ti3  1  0.50064370  0.00002190  0.00010692  1
  Ti  Ti4  1  0.00021244  0.00003810  0.49987238  1
  Ti  Ti5  1  0.00040785  0.49995111  0.49977753  1
  Ti  Ti6  1  0.50050090  0.50008115  0.49999226  1
  Ti  Ti7  1  0.50057999  0.00005543  0.49988437  1
  Ti  Ti8  1  0.66445654  0.83223035  0.86752932  1
  Ti  Ti9  1  0.66724584  0.33351993  0.86447185  1
  Ti  Ti10  1  0.16841013  0.33618788  0.86767520  1
  Ti  Ti11  1  0.16842766  0.83208765  0.86776657  1
  Ti  Ti12  1  0.83238741  0.16793664  0.13265895  1
  Ti  Ti13  1  0.33391209  0.66662206  0.13570366  1
  Ti  Ti14  1  0.83238454  0.66394437  0.13252479  1
  Ti  Ti15  1  0.33651250  0.16805069  0.13243525  1
  Ti  Ti16  1  0.66444663  0.83218767  0.63259944  1
  Ti  Ti17  1  0.66722341  0.33347781  0.63563197  1
  Ti  Ti18  1  0.16840440  0.33615694  0.63246227  1
  Ti  Ti19  1  0.16841525  0.83203774  0.63238714  1
  Ti  Ti20  1  0.83221099  0.16788907  0.36722508  1
  Ti  Ti21  1  0.33369050  0.66659509  0.36416809  1
  Ti  Ti22  1  0.83216346  0.66388271  0.36735375  1
  Ti  Ti23  1  0.33636789  0.16805240  0.36743939  1
  Al  Al24  1  0.00060263  0.99991669  0.75012686  1
  Al  Al25  1  0.00079701  0.00024478  0.24988848  1
  Si  Si26  1  0.01118792  0.50561470  0.75012156  1
  Si  Si27  1  0.49548695  0.50575896  0.75011528  1
  Si  Si28  1  0.49487002  0.98946974  0.75011372  1
  Si  Si29  1  0.98979179  0.49430089  0.24987056  1
  Si  Si30  1  0.50559300  0.49449729  0.24986601  1
  Si  Si31  1  0.50569860  0.01073120  0.24987842  1
  C  C32  1  0.66619651  0.83291259  0.42807737  1
  C  C33  1  0.66710379  0.33322147  0.42916536  1
  C  C34  1  0.16732791  0.33406486  0.42807354  1
  C  C35  1  0.16737653  0.83291098  0.42806664  1
  C  C36  1  0.83331207  0.16713816  0.57170578  1
  C  C37  1  0.33388723  0.66682990  0.57065283  1
  C  C38  1  0.83329848  0.66599533  0.57171277  1
  C  C39  1  0.33453398  0.16714437  0.57172875  1
  C  C40  1  0.66631928  0.83295094  0.07184889  1
  C  C41  1  0.66720284  0.33327902  0.07079815  1
  C  C42  1  0.16746892  0.33412924  0.07187072  1
  C  C43  1  0.16748864  0.83292822  0.07187929  1
  C  C44  1  0.83344452  0.16712824  0.92837852  1
  C  C45  1  0.33397194  0.66685116  0.92937789  1
  C  C46  1  0.83341576  0.66607864  0.92834953  1
  C  C47  1  0.33457942  0.16715360  0.92834300  1
