# generated using pymatgen
data_ReBi9O17
_symmetry_space_group_name_H-M   'P 1'
_cell_length_a   10.09193365
_cell_length_b   10.21763421
_cell_length_c   20.12747578
_cell_angle_alpha   90.00000000
_cell_angle_beta   90.00000000
_cell_angle_gamma   108.79583262
_symmetry_Int_Tables_number   1
_chemical_formula_structural   ReBi9O17
_chemical_formula_sum   'Re4 Bi36 O68'
_cell_volume   1964.77988097
_cell_formula_units_Z   4
loop_
 _symmetry_equiv_pos_site_id
 _symmetry_equiv_pos_as_xyz
  1  'x, y, z'
loop_
 _atom_site_type_symbol
 _atom_site_label
 _atom_site_symmetry_multiplicity
 _atom_site_fract_x
 _atom_site_fract_y
 _atom_site_fract_z
 _atom_site_occupancy
  Re  Re0  1  0.95491556  0.31957547  0.06031755  1
  Re  Re1  1  0.54508444  0.18042453  0.56031755  1
  Re  Re2  1  0.04508444  0.68042453  0.93968245  1
  Re  Re3  1  0.45491556  0.81957547  0.43968245  1
  Bi  Bi4  1  0.17919825  0.09572438  0.24783338  1
  Bi  Bi5  1  0.32080175  0.40427562  0.74783338  1
  Bi  Bi6  1  0.82080175  0.90427562  0.75216662  1
  Bi  Bi7  1  0.67919825  0.59572438  0.25216662  1
  Bi  Bi8  1  0.42209348  0.81447424  0.22593359  1
  Bi  Bi9  1  0.07790652  0.68552576  0.72593359  1
  Bi  Bi10  1  0.57790652  0.18552576  0.77406641  1
  Bi  Bi11  1  0.92209348  0.31447424  0.27406641  1
  Bi  Bi12  1  0.16467507  0.06447338  0.44690233  1
  Bi  Bi13  1  0.33532493  0.43552662  0.94690233  1
  Bi  Bi14  1  0.83532493  0.93552662  0.55309767  1
  Bi  Bi15  1  0.66467507  0.56447338  0.05309767  1
  Bi  Bi16  1  0.19889363  0.06053486  0.05357837  1
  Bi  Bi17  1  0.30110637  0.43946514  0.55357837  1
  Bi  Bi18  1  0.80110637  0.93946514  0.94642163  1
  Bi  Bi19  1  0.69889363  0.56053486  0.44642163  1
  Bi  Bi20  1  0.44658210  0.82623895  0.04950141  1
  Bi  Bi21  1  0.05341790  0.67376105  0.54950141  1
  Bi  Bi22  1  0.55341790  0.17376105  0.95049859  1
  Bi  Bi23  1  0.94658210  0.32623895  0.45049859  1
  Bi  Bi24  1  0.19200019  0.10882734  0.85294007  1
  Bi  Bi25  1  0.30799981  0.39117266  0.35294007  1
  Bi  Bi26  1  0.80799981  0.89117266  0.14705993  1
  Bi  Bi27  1  0.69200019  0.60882734  0.64705993  1
  Bi  Bi28  1  0.16069869  0.05452337  0.65548401  1
  Bi  Bi29  1  0.33930131  0.44547663  0.15548401  1
  Bi  Bi30  1  0.83930131  0.94547663  0.34451599  1
  Bi  Bi31  1  0.66069869  0.55452337  0.84451599  1
  Bi  Bi32  1  0.96732861  0.30521038  0.65764499  1
  Bi  Bi33  1  0.53267139  0.19478962  0.15764499  1
  Bi  Bi34  1  0.03267139  0.69478962  0.34235501  1
  Bi  Bi35  1  0.46732861  0.80521038  0.84235501  1
  Bi  Bi36  1  0.93500714  0.30783218  0.83366045  1
  Bi  Bi37  1  0.56499286  0.19216782  0.33366045  1
  Bi  Bi38  1  0.06499286  0.69216782  0.16633955  1
  Bi  Bi39  1  0.43500714  0.80783218  0.66633955  1
  O  O40  1  0.33084743  0.87363624  0.39569467  1
  O  O41  1  0.16915257  0.62636376  0.89569467  1
  O  O42  1  0.66915257  0.12636376  0.60430533  1
  O  O43  1  0.83084743  0.37363624  0.10430533  1
  O  O44  1  0.10626027  0.46119342  0.04636909  1
  O  O45  1  0.39373973  0.03880658  0.54636909  1
  O  O46  1  0.89373973  0.53880658  0.95363091  1
  O  O47  1  0.60626027  0.96119342  0.45363091  1
  O  O48  1  0.11634310  0.75940394  0.01475625  1
  O  O49  1  0.38365690  0.74059606  0.51475625  1
  O  O50  1  0.88365690  0.24059606  0.98524375  1
  O  O51  1  0.61634310  0.25940394  0.48524375  1
  O  O52  1  0.50029407  0.30281025  0.60929323  1
  O  O53  1  0.99970593  0.19718975  0.10929323  1
  O  O54  1  0.49970593  0.69718975  0.39070677  1
  O  O55  1  0.00029407  0.80281025  0.89070677  1
  O  O56  1  0.18888318  0.74090362  0.25741994  1
  O  O57  1  0.31111682  0.75909638  0.75741994  1
  O  O58  1  0.81111682  0.25909638  0.74258006  1
  O  O59  1  0.68888318  0.24090362  0.24258006  1
  O  O60  1  0.23728330  0.32922150  0.25069019  1
  O  O61  1  0.26271670  0.17077850  0.75069019  1
  O  O62  1  0.76271670  0.67077850  0.74930981  1
  O  O63  1  0.73728330  0.82922150  0.24930981  1
  O  O64  1  0.29756681  0.77441057  0.13618614  1
  O  O65  1  0.20243319  0.72558943  0.63618614  1
  O  O66  1  0.70243319  0.22558943  0.86381386  1
  O  O67  1  0.79756681  0.27441057  0.36381386  1
  O  O68  1  0.07616522  0.40277595  0.36586375  1
  O  O69  1  0.42383478  0.09722405  0.86586375  1
  O  O70  1  0.92383478  0.59722405  0.63413625  1
  O  O71  1  0.57616522  0.90277595  0.13413625  1
  O  O72  1  0.91278972  0.59864477  0.25661438  1
  O  O73  1  0.58721028  0.90135523  0.75661438  1
  O  O74  1  0.08721028  0.40135523  0.74338562  1
  O  O75  1  0.41278972  0.09864477  0.24338562  1
  O  O76  1  0.44200512  0.60981195  0.22799432  1
  O  O77  1  0.05799488  0.89018805  0.72799432  1
  O  O78  1  0.55799488  0.39018805  0.77200568  1
  O  O79  1  0.94200512  0.10981195  0.27200568  1
  O  O80  1  0.45795428  0.57319945  0.06110509  1
  O  O81  1  0.04204572  0.92680055  0.56110509  1
  O  O82  1  0.54204572  0.42680055  0.93889491  1
  O  O83  1  0.95795428  0.07319945  0.43889491  1
  O  O84  1  0.88922575  0.52046192  0.46592481  1
  O  O85  1  0.61077425  0.97953808  0.96592481  1
  O  O86  1  0.11077425  0.47953808  0.53407519  1
  O  O87  1  0.38922575  0.02046192  0.03407519  1
  O  O88  1  0.75209214  0.66689717  0.14719692  1
  O  O89  1  0.74790786  0.83310283  0.64719692  1
  O  O90  1  0.24790786  0.33310283  0.85280308  1
  O  O91  1  0.25209214  0.16689717  0.35280308  1
  O  O92  1  0.53735150  0.38779417  0.34241483  1
  O  O93  1  0.96264850  0.11220583  0.84241483  1
  O  O94  1  0.46264850  0.61220583  0.65758517  1
  O  O95  1  0.03735150  0.88779417  0.15758517  1
  O  O96  1  0.79862528  0.69178386  0.36724325  1
  O  O97  1  0.70137472  0.80821614  0.86724325  1
  O  O98  1  0.20137472  0.30821614  0.63275675  1
  O  O99  1  0.29862528  0.19178386  0.13275675  1
  O  O100  1  0.53907294  0.40943455  0.16489406  1
  O  O101  1  0.96092706  0.09056545  0.66489406  1
  O  O102  1  0.46092706  0.59056545  0.83510594  1
  O  O103  1  0.03907294  0.90943455  0.33510594  1
  O  O104  1  0.75460089  0.71652575  0.52518760  1
  O  O105  1  0.74539911  0.78347425  0.02518760  1
  O  O106  1  0.24539911  0.28347425  0.47481240  1
  O  O107  1  0.25460089  0.21652575  0.97481240  1
