# generated using pymatgen
data_Li2Be2H4NF7
_symmetry_space_group_name_H-M   'P 1'
_cell_length_a   5.07103579
_cell_length_b   10.27301221
_cell_length_c   12.49934594
_cell_angle_alpha   90.00000000
_cell_angle_beta   90.00000000
_cell_angle_gamma   90.00000000
_symmetry_Int_Tables_number   1
_chemical_formula_structural   Li2Be2H4NF7
_chemical_formula_sum   'Li8 Be8 H16 N4 F28'
_cell_volume   651.15108422
_cell_formula_units_Z   4
loop_
 _symmetry_equiv_pos_site_id
 _symmetry_equiv_pos_as_xyz
  1  'x, y, z'
loop_
 _atom_site_type_symbol
 _atom_site_label
 _atom_site_symmetry_multiplicity
 _atom_site_fract_x
 _atom_site_fract_y
 _atom_site_fract_z
 _atom_site_occupancy
  Li  Li0  1  0.70154634  0.65431169  0.99803508  1
  Li  Li1  1  0.79845366  0.15431169  0.50196492  1
  Li  Li2  1  0.29845366  0.34568831  0.49803508  1
  Li  Li3  1  0.20154634  0.84568831  0.00196492  1
  Li  Li4  1  0.29845366  0.34568831  0.00196492  1
  Li  Li5  1  0.20154634  0.84568831  0.49803508  1
  Li  Li6  1  0.70154634  0.65431169  0.50196492  1
  Li  Li7  1  0.79845366  0.15431169  0.99803508  1
  Be  Be8  1  0.78426159  0.40008783  0.13179230  1
  Be  Be9  1  0.71573841  0.90008783  0.36820770  1
  Be  Be10  1  0.21573841  0.59991217  0.63179230  1
  Be  Be11  1  0.28426159  0.09991217  0.86820770  1
  Be  Be12  1  0.21573841  0.59991217  0.86820770  1
  Be  Be13  1  0.28426159  0.09991217  0.63179230  1
  Be  Be14  1  0.78426159  0.40008783  0.36820770  1
  Be  Be15  1  0.71573841  0.90008783  0.13179230  1
  H  H16  1  0.43857671  0.59916189  0.25000000  1
  H  H17  1  0.06142329  0.09916189  0.25000000  1
  H  H18  1  0.56142329  0.40083811  0.75000000  1
  H  H19  1  0.93857671  0.90083811  0.75000000  1
  H  H20  1  0.15239347  0.58778641  0.18344018  1
  H  H21  1  0.34760653  0.08778641  0.31655982  1
  H  H22  1  0.84760653  0.41221359  0.68344018  1
  H  H23  1  0.65239347  0.91221359  0.81655982  1
  H  H24  1  0.84760653  0.41221359  0.81655982  1
  H  H25  1  0.65239347  0.91221359  0.68344018  1
  H  H26  1  0.15239347  0.58778641  0.31655982  1
  H  H27  1  0.34760653  0.08778641  0.18344018  1
  H  H28  1  0.23031786  0.72714265  0.25000000  1
  H  H29  1  0.26968214  0.22714265  0.25000000  1
  H  H30  1  0.76968214  0.27285735  0.75000000  1
  H  H31  1  0.73031786  0.77285735  0.75000000  1
  N  N32  1  0.24349859  0.62687697  0.25000000  1
  N  N33  1  0.25650141  0.12687697  0.25000000  1
  N  N34  1  0.75650141  0.37312303  0.75000000  1
  N  N35  1  0.74349859  0.87312303  0.75000000  1
  F  F36  1  0.69538345  0.54265439  0.11595007  1
  F  F37  1  0.80461655  0.04265439  0.38404993  1
  F  F38  1  0.30461655  0.45734561  0.61595007  1
  F  F39  1  0.19538345  0.95734561  0.88404993  1
  F  F40  1  0.30461655  0.45734561  0.88404993  1
  F  F41  1  0.19538345  0.95734561  0.61595007  1
  F  F42  1  0.69538345  0.54265439  0.38404993  1
  F  F43  1  0.80461655  0.04265439  0.11595007  1
  F  F44  1  0.63880000  0.30694154  0.05241211  1
  F  F45  1  0.86120000  0.80694154  0.44758789  1
  F  F46  1  0.36120000  0.69305846  0.55241211  1
  F  F47  1  0.13880000  0.19305846  0.94758789  1
  F  F48  1  0.36120000  0.69305846  0.94758789  1
  F  F49  1  0.13880000  0.19305846  0.55241211  1
  F  F50  1  0.63880000  0.30694154  0.44758789  1
  F  F51  1  0.86120000  0.80694154  0.05241211  1
  F  F52  1  0.08775268  0.39018696  0.11963465  1
  F  F53  1  0.41224732  0.89018696  0.38036535  1
  F  F54  1  0.91224732  0.60981304  0.61963465  1
  F  F55  1  0.58775268  0.10981304  0.88036535  1
  F  F56  1  0.91224732  0.60981304  0.88036535  1
  F  F57  1  0.58775268  0.10981304  0.61963465  1
  F  F58  1  0.08775268  0.39018696  0.38036535  1
  F  F59  1  0.41224732  0.89018696  0.11963465  1
  F  F60  1  0.70353532  0.35525635  0.25000000  1
  F  F61  1  0.79646468  0.85525635  0.25000000  1
  F  F62  1  0.29646468  0.64474365  0.75000000  1
  F  F63  1  0.20353532  0.14474365  0.75000000  1
