# generated using pymatgen
data_Na2TmPWO8
_symmetry_space_group_name_H-M   'P 1'
_cell_length_a   6.86103622
_cell_length_b   11.48634655
_cell_length_c   11.48634655
_cell_angle_alpha   63.92156301
_cell_angle_beta   72.62282965
_cell_angle_gamma   72.62282965
_symmetry_Int_Tables_number   1
_chemical_formula_structural   Na2TmPWO8
_chemical_formula_sum   'Na8 Tm4 P4 W4 O32'
_cell_volume   761.01809078
_cell_formula_units_Z   4
loop_
 _symmetry_equiv_pos_site_id
 _symmetry_equiv_pos_as_xyz
  1  'x, y, z'
loop_
 _atom_site_type_symbol
 _atom_site_label
 _atom_site_symmetry_multiplicity
 _atom_site_fract_x
 _atom_site_fract_y
 _atom_site_fract_z
 _atom_site_occupancy
  Na  Na0  1  0.85773008  0.09026030  0.71559888  1
  Na  Na1  1  0.83641074  0.71559888  0.09026030  1
  Na  Na2  1  0.64226992  0.78440112  0.40973970  1
  Na  Na3  1  0.66358926  0.40973970  0.78440112  1
  Na  Na4  1  0.14226992  0.90973970  0.28440112  1
  Na  Na5  1  0.16358926  0.28440112  0.90973970  1
  Na  Na6  1  0.35773008  0.21559888  0.59026030  1
  Na  Na7  1  0.33641074  0.59026030  0.21559888  1
  Tm  Tm8  1  0.75000000  0.82238235  0.67761765  1
  Tm  Tm9  1  0.25000000  0.67761765  0.82238235  1
  Tm  Tm10  1  0.25000000  0.17761765  0.32238235  1
  Tm  Tm11  1  0.75000000  0.32238235  0.17761765  1
  P  P12  1  0.25000000  0.43082388  0.06917612  1
  P  P13  1  0.75000000  0.06917612  0.43082388  1
  P  P14  1  0.75000000  0.56917612  0.93082388  1
  P  P15  1  0.25000000  0.93082388  0.56917612  1
  W  W16  1  0.67636341  0.07363659  0.07363659  1
  W  W17  1  0.82363659  0.42636341  0.42636341  1
  W  W18  1  0.32363659  0.92636341  0.92636341  1
  W  W19  1  0.17636341  0.57363659  0.57363659  1
  O  O20  1  0.16959367  0.57502098  0.06048667  1
  O  O21  1  0.69489868  0.06048667  0.57502098  1
  O  O22  1  0.33040633  0.43951333  0.92497902  1
  O  O23  1  0.80510132  0.92497902  0.43951333  1
  O  O24  1  0.83040633  0.42497902  0.93951333  1
  O  O25  1  0.30510132  0.93951333  0.42497902  1
  O  O26  1  0.66959367  0.56048667  0.07502098  1
  O  O27  1  0.19489868  0.07502098  0.56048667  1
  O  O28  1  0.41832895  0.35827735  0.15719326  1
  O  O29  1  0.56620044  0.15719326  0.35827735  1
  O  O30  1  0.08167105  0.34280674  0.14172265  1
  O  O31  1  0.93379956  0.14172265  0.34280674  1
  O  O32  1  0.58167105  0.64172265  0.84280674  1
  O  O33  1  0.43379956  0.84280674  0.64172265  1
  O  O34  1  0.91832895  0.65719326  0.85827735  1
  O  O35  1  0.06620044  0.85827735  0.65719326  1
  O  O36  1  0.40428226  0.10558482  0.15641928  1
  O  O37  1  0.83371364  0.15641928  0.10558482  1
  O  O38  1  0.09571774  0.34358072  0.39441518  1
  O  O39  1  0.66628636  0.39441518  0.34358072  1
  O  O40  1  0.59571774  0.89441518  0.84358072  1
  O  O41  1  0.16628636  0.84358072  0.89441518  1
  O  O42  1  0.90428226  0.65641928  0.60558482  1
  O  O43  1  0.33371364  0.60558482  0.65641928  1
  O  O44  1  0.77688885  0.89799685  0.13805959  1
  O  O45  1  0.68705471  0.13805959  0.89799685  1
  O  O46  1  0.72311115  0.36194041  0.60200315  1
  O  O47  1  0.81294529  0.60200315  0.36194041  1
  O  O48  1  0.22311115  0.10200315  0.86194041  1
  O  O49  1  0.31294529  0.86194041  0.10200315  1
  O  O50  1  0.27688885  0.63805959  0.39799685  1
  O  O51  1  0.18705471  0.39799685  0.63805959  1
