# generated using pymatgen
data_Pr(Ga4Co)2
_symmetry_space_group_name_H-M   'P 1'
_cell_length_a   4.06827828
_cell_length_b   12.62084425
_cell_length_c   14.29364809
_cell_angle_alpha   90.00000000
_cell_angle_beta   90.00000000
_cell_angle_gamma   90.00000000
_symmetry_Int_Tables_number   1
_chemical_formula_structural   Pr(Ga4Co)2
_chemical_formula_sum   'Pr4 Ga32 Co8'
_cell_volume   733.90888399
_cell_formula_units_Z   4
loop_
 _symmetry_equiv_pos_site_id
 _symmetry_equiv_pos_as_xyz
  1  'x, y, z'
loop_
 _atom_site_type_symbol
 _atom_site_label
 _atom_site_symmetry_multiplicity
 _atom_site_fract_x
 _atom_site_fract_y
 _atom_site_fract_z
 _atom_site_occupancy
  Pr  Pr0  1  0.50000000  0.65814121  0.81997954  1
  Pr  Pr1  1  0.50000000  0.34185879  0.18002046  1
  Pr  Pr2  1  0.50000000  0.84185879  0.31997954  1
  Pr  Pr3  1  0.50000000  0.15814121  0.68002046  1
  Ga  Ga4  1  0.00000000  0.50000000  0.50000000  1
  Ga  Ga5  1  -0.00000000  0.00000000  -0.00000000  1
  Ga  Ga6  1  0.50000000  -0.00000000  0.50000000  1
  Ga  Ga7  1  0.50000000  0.50000000  -0.00000000  1
  Ga  Ga8  1  -0.00000000  0.66248860  0.38013582  1
  Ga  Ga9  1  0.00000000  0.33751140  0.61986418  1
  Ga  Ga10  1  0.00000000  0.83751140  0.88013582  1
  Ga  Ga11  1  -0.00000000  0.16248860  0.11986418  1
  Ga  Ga12  1  0.00000000  0.95080645  0.17981299  1
  Ga  Ga13  1  -0.00000000  0.04919355  0.82018701  1
  Ga  Ga14  1  0.00000000  0.54919355  0.67981299  1
  Ga  Ga15  1  0.00000000  0.45080645  0.32018701  1
  Ga  Ga16  1  0.00000000  0.73738086  0.17441202  1
  Ga  Ga17  1  -0.00000000  0.26261914  0.82558798  1
  Ga  Ga18  1  -0.00000000  0.76261914  0.67441202  1
  Ga  Ga19  1  -0.00000000  0.23738086  0.32558798  1
  Ga  Ga20  1  -0.00000000  0.83149975  0.49051220  1
  Ga  Ga21  1  -0.00000000  0.16850025  0.50948780  1
  Ga  Ga22  1  0.00000000  0.66850025  0.99051220  1
  Ga  Ga23  1  0.00000000  0.33149975  0.00948780  1
  Ga  Ga24  1  0.00000000  0.52252202  0.13297069  1
  Ga  Ga25  1  0.00000000  0.47747798  0.86702931  1
  Ga  Ga26  1  -0.00000000  0.97747798  0.63297069  1
  Ga  Ga27  1  0.00000000  0.02252202  0.36702931  1
  Ga  Ga28  1  0.50000000  0.66136791  0.54529940  1
  Ga  Ga29  1  0.50000000  0.33863209  0.45470060  1
  Ga  Ga30  1  0.50000000  0.83863209  0.04529940  1
  Ga  Ga31  1  0.50000000  0.16136791  0.95470060  1
  Ga  Ga32  1  0.50000000  0.90269341  0.75392344  1
  Ga  Ga33  1  0.50000000  0.09730659  0.24607656  1
  Ga  Ga34  1  0.50000000  0.59730659  0.25392344  1
  Ga  Ga35  1  0.50000000  0.40269341  0.74607656  1
  Co  Co36  1  0.50000000  0.84680186  0.59624444  1
  Co  Co37  1  0.50000000  0.15319814  0.40375556  1
  Co  Co38  1  0.50000000  0.65319814  0.09624444  1
  Co  Co39  1  0.50000000  0.34680186  0.90375556  1
  Co  Co40  1  0.50000000  0.96424048  0.90690094  1
  Co  Co41  1  0.50000000  0.03575952  0.09309906  1
  Co  Co42  1  0.50000000  0.53575952  0.40690094  1
  Co  Co43  1  0.50000000  0.46424048  0.59309906  1
