# generated using pymatgen
data_BaH6C2S2N2O3
_symmetry_space_group_name_H-M   'P 1'
_cell_length_a   8.48676434
_cell_length_b   8.48676434
_cell_length_c   13.57042350
_cell_angle_alpha   76.12863684
_cell_angle_beta   103.87136316
_cell_angle_gamma   149.03705306
_symmetry_Int_Tables_number   1
_chemical_formula_structural   BaH6C2S2N2O3
_chemical_formula_sum   'Ba2 H12 C4 S4 N4 O6'
_cell_volume   487.05394282
_cell_formula_units_Z   2
loop_
 _symmetry_equiv_pos_site_id
 _symmetry_equiv_pos_as_xyz
  1  'x, y, z'
loop_
 _atom_site_type_symbol
 _atom_site_label
 _atom_site_symmetry_multiplicity
 _atom_site_fract_x
 _atom_site_fract_y
 _atom_site_fract_z
 _atom_site_occupancy
  Ba  Ba0  1  0.87896195  0.12103805  0.72842796  1
  Ba  Ba1  1  0.12103805  0.87896195  0.27157204  1
  H  H2  1  0.20724010  0.13480785  0.61755351  1
  H  H3  1  0.86519215  0.79275990  0.61755351  1
  H  H4  1  0.79275990  0.86519215  0.38244649  1
  H  H5  1  0.13480785  0.20724010  0.38244649  1
  H  H6  1  0.06002137  0.28162904  0.97361348  1
  H  H7  1  0.71837096  0.93997863  0.97361348  1
  H  H8  1  0.93997863  0.71837096  0.02638652  1
  H  H9  1  0.28162904  0.06002137  0.02638652  1
  H  H10  1  0.23153206  0.76846794  0.74431070  1
  H  H11  1  0.76846794  0.23153206  0.25568930  1
  H  H12  1  0.27109648  0.72890352  0.86074125  1
  H  H13  1  0.72890352  0.27109648  0.13925875  1
  C  C14  1  0.65869129  0.34130871  0.50414528  1
  C  C15  1  0.34130871  0.65869129  0.49585472  1
  C  C16  1  0.56472144  0.43527856  0.85142646  1
  C  C17  1  0.43527856  0.56472144  0.14857354  1
  S  S18  1  0.65499195  0.34500805  0.62356605  1
  S  S19  1  0.34500805  0.65499195  0.37643395  1
  S  S20  1  0.66337713  0.33662287  0.91626586  1
  S  S21  1  0.33662287  0.66337713  0.08373414  1
  N  N22  1  0.66098189  0.33901811  0.41722100  1
  N  N23  1  0.33901811  0.66098189  0.58277900  1
  N  N24  1  0.49281641  0.50718359  0.80453698  1
  N  N25  1  0.50718359  0.49281641  0.19546302  1
  O  O26  1  0.00084210  0.99915790  0.62332477  1
  O  O27  1  0.99915790  0.00084210  0.37667523  1
  O  O28  1  0.90026932  0.09973068  0.93448869  1
  O  O29  1  0.09973068  0.90026932  0.06551131  1
  O  O30  1  0.28572859  0.71427141  0.79502540  1
  O  O31  1  0.71427141  0.28572859  0.20497460  1
