# generated using pymatgen
data_CaCoBP2H5O11
_symmetry_space_group_name_H-M   'P 1'
_cell_length_a   6.61291587
_cell_length_b   7.96026283
_cell_length_c   8.92330783
_cell_angle_alpha   69.41346329
_cell_angle_beta   84.10713865
_cell_angle_gamma   74.40880547
_symmetry_Int_Tables_number   1
_chemical_formula_structural   CaCoBP2H5O11
_chemical_formula_sum   'Ca2 Co2 B2 P4 H10 O22'
_cell_volume   423.53424015
_cell_formula_units_Z   2
loop_
 _symmetry_equiv_pos_site_id
 _symmetry_equiv_pos_as_xyz
  1  'x, y, z'
loop_
 _atom_site_type_symbol
 _atom_site_label
 _atom_site_symmetry_multiplicity
 _atom_site_fract_x
 _atom_site_fract_y
 _atom_site_fract_z
 _atom_site_occupancy
  Ca  Ca0  1  0.91314650  0.45081280  0.84054043  1
  Ca  Ca1  1  0.08685350  0.54918720  0.15945957  1
  Co  Co2  1  0.67324778  0.32537484  0.59672720  1
  Co  Co3  1  0.32675222  0.67462516  0.40327280  1
  B  B4  1  0.53885474  0.98066716  0.20932792  1
  B  B5  1  0.46114526  0.01933284  0.79067208  1
  P  P6  1  0.43797231  0.28632218  0.93571525  1
  P  P7  1  0.56202769  0.71367782  0.06428475  1
  P  P8  1  0.79703376  0.73709395  0.45096770  1
  P  P9  1  0.20296624  0.26290605  0.54903230  1
  H  H10  1  0.73440942  0.94938653  0.67839488  1
  H  H11  1  0.26559058  0.05061347  0.32160512  1
  H  H12  1  0.70950833  0.14864928  0.37959662  1
  H  H13  1  0.29049167  0.85135072  0.62040338  1
  H  H14  1  0.91152447  0.22738132  0.37849116  1
  H  H15  1  0.08847553  0.77261868  0.62150884  1
  H  H16  1  0.84039839  0.13105314  0.10841194  1
  H  H17  1  0.15960161  0.86894686  0.89158806  1
  H  H18  1  0.09116637  0.07580848  0.11182334  1
  H  H19  1  0.90883363  0.92419152  0.88817666  1
  O  O20  1  0.23949346  0.42799025  0.95532249  1
  O  O21  1  0.76050654  0.57200975  0.04467751  1
  O  O22  1  0.60487040  0.36633872  0.82145777  1
  O  O23  1  0.39512960  0.63366128  0.17854223  1
  O  O24  1  0.63604386  0.85114536  0.12335811  1
  O  O25  1  0.36395614  0.14885464  0.87664189  1
  O  O26  1  0.54324837  0.17226672  0.10548223  1
  O  O27  1  0.45675163  0.82773328  0.89451777  1
  O  O28  1  0.83984180  0.74316140  0.61559922  1
  O  O29  1  0.16015820  0.25683860  0.38440078  1
  O  O30  1  0.00356030  0.68555052  0.36074376  1
  O  O31  1  0.99643970  0.31444948  0.63925624  1
  O  O32  1  0.65001054  0.60956761  0.46396256  1
  O  O33  1  0.34998946  0.39043239  0.53603744  1
  O  O34  1  0.67325445  0.94315714  0.34819113  1
  O  O35  1  0.32674555  0.05684286  0.65180887  1
  O  O36  1  0.67388590  0.03796845  0.73645742  1
  O  O37  1  0.32611410  0.96203155  0.26354258  1
  O  O38  1  0.75870820  0.24389644  0.40206120  1
  O  O39  1  0.24129180  0.75610356  0.59793880  1
  O  O40  1  0.96633381  0.17454922  0.06535680  1
  O  O41  1  0.03366619  0.82545078  0.93464320  1
