# generated using pymatgen
data_Hf7Ni10
_symmetry_space_group_name_H-M   'P 1'
_cell_length_a   7.65369131
_cell_length_b   7.65369131
_cell_length_c   9.13058140
_cell_angle_alpha   90.00000000
_cell_angle_beta   90.00000000
_cell_angle_gamma   106.99992181
_symmetry_Int_Tables_number   1
_chemical_formula_structural   Hf7Ni10
_chemical_formula_sum   'Hf14 Ni20'
_cell_volume   511.48960680
_cell_formula_units_Z   2
loop_
 _symmetry_equiv_pos_site_id
 _symmetry_equiv_pos_as_xyz
  1  'x, y, z'
loop_
 _atom_site_type_symbol
 _atom_site_label
 _atom_site_symmetry_multiplicity
 _atom_site_fract_x
 _atom_site_fract_y
 _atom_site_fract_z
 _atom_site_occupancy
  Hf  Hf0  1  0.55401747  0.44598253  0.50000000  1
  Hf  Hf1  1  0.05401747  0.94598253  -0.00000000  1
  Hf  Hf2  1  0.86002298  0.13997702  0.50000000  1
  Hf  Hf3  1  0.36002298  0.63997702  -0.00000000  1
  Hf  Hf4  1  0.24746006  0.75253994  0.50000000  1
  Hf  Hf5  1  0.74746006  0.25253994  -0.00000000  1
  Hf  Hf6  1  0.05608069  0.44787536  0.25028413  1
  Hf  Hf7  1  0.55212464  0.94391931  0.74971587  1
  Hf  Hf8  1  0.55608069  0.94787536  0.24971587  1
  Hf  Hf9  1  0.05212464  0.44391931  0.75028413  1
  Hf  Hf10  1  0.36664414  0.25816510  0.18838775  1
  Hf  Hf11  1  0.74183490  0.63335586  0.81161225  1
  Hf  Hf12  1  0.86664414  0.75816510  0.31161225  1
  Hf  Hf13  1  0.24183490  0.13335586  0.68838775  1
  Ni  Ni14  1  0.70464626  0.30923842  0.29132217  1
  Ni  Ni15  1  0.69076158  0.29535374  0.70867783  1
  Ni  Ni16  1  0.20464626  0.80923842  0.20867783  1
  Ni  Ni17  1  0.19076158  0.79535374  0.79132217  1
  Ni  Ni18  1  0.91521623  0.09847147  0.20957964  1
  Ni  Ni19  1  0.90152853  0.08478377  0.79042036  1
  Ni  Ni20  1  0.41521623  0.59847147  0.29042036  1
  Ni  Ni21  1  0.40152853  0.58478377  0.70957964  1
  Ni  Ni22  1  0.20203483  0.38183048  0.49378959  1
  Ni  Ni23  1  0.61816952  0.79796517  0.50621041  1
  Ni  Ni24  1  0.70203483  0.88183048  0.00621041  1
  Ni  Ni25  1  0.11816952  0.29796517  0.99378959  1
  Ni  Ni26  1  0.48802349  0.09112799  0.49313507  1
  Ni  Ni27  1  0.90887201  0.51197651  0.50686493  1
  Ni  Ni28  1  0.98802349  0.59112799  0.00686493  1
  Ni  Ni29  1  0.40887201  0.01197651  0.99313507  1
  Ni  Ni30  1  0.16144183  0.05287917  0.39382093  1
  Ni  Ni31  1  0.94712083  0.83855817  0.60617907  1
  Ni  Ni32  1  0.66144183  0.55287917  0.10617907  1
  Ni  Ni33  1  0.44712083  0.33855817  0.89382093  1
