# generated using pymatgen
data_Ca3Al4CoO10
_symmetry_space_group_name_H-M   'P 1'
_cell_length_a   5.17789651
_cell_length_b   10.78738094
_cell_length_c   16.94246034
_cell_angle_alpha   90.00000000
_cell_angle_beta   90.00000000
_cell_angle_gamma   90.00000000
_symmetry_Int_Tables_number   1
_chemical_formula_structural   Ca3Al4CoO10
_chemical_formula_sum   'Ca12 Al16 Co4 O40'
_cell_volume   946.33708414
_cell_formula_units_Z   4
loop_
 _symmetry_equiv_pos_site_id
 _symmetry_equiv_pos_as_xyz
  1  'x, y, z'
loop_
 _atom_site_type_symbol
 _atom_site_label
 _atom_site_symmetry_multiplicity
 _atom_site_fract_x
 _atom_site_fract_y
 _atom_site_fract_z
 _atom_site_occupancy
  Ca  Ca0  1  0.29514172  0.34395546  0.60706851  1
  Ca  Ca1  1  0.70485828  0.84395546  0.39293149  1
  Ca  Ca2  1  0.29514172  0.84395546  0.89293149  1
  Ca  Ca3  1  0.70485828  0.34395546  0.10706851  1
  Ca  Ca4  1  0.29924741  0.99146718  0.61016485  1
  Ca  Ca5  1  0.70075259  0.49146718  0.38983515  1
  Ca  Ca6  1  0.29924741  0.49146718  0.88983515  1
  Ca  Ca7  1  0.70075259  0.99146718  0.11016485  1
  Ca  Ca8  1  0.72179370  0.18228804  0.29091339  1
  Ca  Ca9  1  0.27820630  0.68228804  0.70908661  1
  Ca  Ca10  1  0.72179370  0.68228804  0.20908661  1
  Ca  Ca11  1  0.27820630  0.18228804  0.79091339  1
  Al  Al12  1  0.63440694  0.16887362  0.47011508  1
  Al  Al13  1  0.36559306  0.66887362  0.52988492  1
  Al  Al14  1  0.63440694  0.66887362  0.02988492  1
  Al  Al15  1  0.36559306  0.16887362  0.97011508  1
  Al  Al16  1  0.74429279  0.17226973  0.66402420  1
  Al  Al17  1  0.25570721  0.67226973  0.33597580  1
  Al  Al18  1  0.74429279  0.67226973  0.83597580  1
  Al  Al19  1  0.25570721  0.17226973  0.16402420  1
  Al  Al20  1  0.19453814  0.42412554  0.24815911  1
  Al  Al21  1  0.80546186  0.92412554  0.75184089  1
  Al  Al22  1  0.19453814  0.92412554  0.25184089  1
  Al  Al23  1  0.80546186  0.42412554  0.74815911  1
  Al  Al24  1  0.13240313  0.02253232  0.42378386  1
  Al  Al25  1  0.86759687  0.52253232  0.57621614  1
  Al  Al26  1  0.13240313  0.52253232  0.07621614  1
  Al  Al27  1  0.86759687  0.02253232  0.92378386  1
  Co  Co28  1  0.14041380  0.32089841  0.42111576  1
  Co  Co29  1  0.85958620  0.82089841  0.57888424  1
  Co  Co30  1  0.14041380  0.82089841  0.07888424  1
  Co  Co31  1  0.85958620  0.32089841  0.92111576  1
  O  O32  1  0.08087053  0.67168932  0.83375128  1
  O  O33  1  0.91912947  0.17168932  0.16624872  1
  O  O34  1  0.08087053  0.17168932  0.66624872  1
  O  O35  1  0.91912947  0.67168932  0.33375128  1
  O  O36  1  0.42619617  0.17049703  0.07186894  1
  O  O37  1  0.57380383  0.67049703  0.92813106  1
  O  O38  1  0.42619617  0.67049703  0.42813106  1
  O  O39  1  0.57380383  0.17049703  0.57186894  1
  O  O40  1  0.96518914  0.66177086  0.05601128  1
  O  O41  1  0.03481086  0.16177086  0.94398872  1
  O  O42  1  0.96518914  0.16177086  0.44398872  1
  O  O43  1  0.03481086  0.66177086  0.55601128  1
  O  O44  1  0.40041365  0.30428175  0.21091484  1
  O  O45  1  0.59958635  0.80428175  0.78908516  1
  O  O46  1  0.40041365  0.80428175  0.28908516  1
  O  O47  1  0.59958635  0.30428175  0.71091484  1
  O  O48  1  0.01476748  0.41629192  0.00725065  1
  O  O49  1  0.98523252  0.91629192  0.99274935  1
  O  O50  1  0.01476748  0.91629192  0.49274935  1
  O  O51  1  0.98523252  0.41629192  0.50725065  1
  O  O52  1  0.00051613  0.48485390  0.17032530  1
  O  O53  1  -0.00051613  0.98485390  0.82967470  1
  O  O54  1  0.00051613  0.98485390  0.32967470  1
  O  O55  1  -0.00051613  0.48485390  0.67032530  1
  O  O56  1  0.47371857  0.53703188  0.07315085  1
  O  O57  1  0.52628143  0.03703188  0.92684915  1
  O  O58  1  0.47371857  0.03703188  0.42684915  1
  O  O59  1  0.52628143  0.53703188  0.57315085  1
  O  O60  1  0.39970443  0.04290434  0.21367014  1
  O  O61  1  0.60029557  0.54290434  0.78632986  1
  O  O62  1  0.39970443  0.54290434  0.28632986  1
  O  O63  1  0.60029557  0.04290434  0.71367014  1
  O  O64  1  0.97841480  0.86339837  0.18102658  1
  O  O65  1  0.02158520  0.36339837  0.81897342  1
  O  O66  1  0.97841480  0.36339837  0.31897342  1
  O  O67  1  0.02158520  0.86339837  0.68102658  1
  O  O68  1  0.51147435  0.79737032  0.08375807  1
  O  O69  1  0.48852565  0.29737032  0.91624193  1
  O  O70  1  0.51147435  0.29737032  0.41624193  1
  O  O71  1  0.48852565  0.79737032  0.58375807  1
