# generated using pymatgen
data_Ta3Br7
_symmetry_space_group_name_H-M   'P 1'
_cell_length_a   9.97644007
_cell_length_b   9.97644007
_cell_length_c   11.85901888
_cell_angle_alpha   90.00000000
_cell_angle_beta   90.00000000
_cell_angle_gamma   92.02734065
_symmetry_Int_Tables_number   1
_chemical_formula_structural   Ta3Br7
_chemical_formula_sum   'Ta12 Br28'
_cell_volume   1179.58170748
_cell_formula_units_Z   4
loop_
 _symmetry_equiv_pos_site_id
 _symmetry_equiv_pos_as_xyz
  1  'x, y, z'
loop_
 _atom_site_type_symbol
 _atom_site_label
 _atom_site_symmetry_multiplicity
 _atom_site_fract_x
 _atom_site_fract_y
 _atom_site_fract_z
 _atom_site_occupancy
  Ta  Ta0  1  0.95234920  0.15985478  0.60679094  1
  Ta  Ta1  1  0.84014522  0.04765080  0.39320906  1
  Ta  Ta2  1  0.34014522  0.54765080  0.10679094  1
  Ta  Ta3  1  0.45234920  0.65985478  0.89320906  1
  Ta  Ta4  1  0.04765080  0.84014522  0.39320906  1
  Ta  Ta5  1  0.15985478  0.95234920  0.60679094  1
  Ta  Ta6  1  0.65985478  0.45234920  0.89320906  1
  Ta  Ta7  1  0.54765080  0.34014522  0.10679094  1
  Ta  Ta8  1  0.88095820  0.88095820  0.58529447  1
  Ta  Ta9  1  0.11904180  0.11904180  0.41470553  1
  Ta  Ta10  1  0.61904180  0.61904180  0.08529447  1
  Ta  Ta11  1  0.38095820  0.38095820  0.91470553  1
  Br  Br12  1  0.13774997  0.13774997  0.76278221  1
  Br  Br13  1  0.86225003  0.86225003  0.23721779  1
  Br  Br14  1  0.36225003  0.36225003  0.26278221  1
  Br  Br15  1  0.63774997  0.63774997  0.73721779  1
  Br  Br16  1  0.74784856  0.25215144  0.50000000  1
  Br  Br17  1  0.24784856  0.75215144  -0.00000000  1
  Br  Br18  1  0.25215144  0.74784856  0.50000000  1
  Br  Br19  1  0.75215144  0.24784856  -0.00000000  1
  Br  Br20  1  0.78492696  0.03078993  0.74276864  1
  Br  Br21  1  0.96921007  0.21507304  0.25723136  1
  Br  Br22  1  0.46921007  0.71507304  0.24276864  1
  Br  Br23  1  0.28492696  0.53078993  0.75723136  1
  Br  Br24  1  0.21507304  0.96921007  0.25723136  1
  Br  Br25  1  0.03078993  0.78492696  0.74276864  1
  Br  Br26  1  0.53078993  0.28492696  0.75723136  1
  Br  Br27  1  0.71507304  0.46921007  0.24276864  1
  Br  Br28  1  0.10500475  0.35142334  0.51361649  1
  Br  Br29  1  0.64857666  0.89499525  0.48638351  1
  Br  Br30  1  0.14857666  0.39499525  0.01361649  1
  Br  Br31  1  0.60500475  0.85142334  0.98638351  1
  Br  Br32  1  0.89499525  0.64857666  0.48638351  1
  Br  Br33  1  0.35142334  0.10500475  0.51361649  1
  Br  Br34  1  0.85142334  0.60500475  0.98638351  1
  Br  Br35  1  0.39499525  0.14857666  0.01361649  1
  Br  Br36  1  0.88653604  0.38653604  0.75000000  1
  Br  Br37  1  0.61346396  0.11346396  0.25000000  1
  Br  Br38  1  0.11346396  0.61346396  0.25000000  1
  Br  Br39  1  0.38653604  0.88653604  0.75000000  1
