# generated using pymatgen
data_Rb3Mo4(P2O11)2
_symmetry_space_group_name_H-M   'P 1'
_cell_length_a   10.27674714
_cell_length_b   10.27674714
_cell_length_c   19.55035606
_cell_angle_alpha   90.00000000
_cell_angle_beta   90.00000000
_cell_angle_gamma   90.00000000
_symmetry_Int_Tables_number   1
_chemical_formula_structural   Rb3Mo4(P2O11)2
_chemical_formula_sum   'Rb12 Mo16 P16 O88'
_cell_volume   2064.74305033
_cell_formula_units_Z   4
loop_
 _symmetry_equiv_pos_site_id
 _symmetry_equiv_pos_as_xyz
  1  'x, y, z'
loop_
 _atom_site_type_symbol
 _atom_site_label
 _atom_site_symmetry_multiplicity
 _atom_site_fract_x
 _atom_site_fract_y
 _atom_site_fract_z
 _atom_site_occupancy
  Rb  Rb0  1  0.11300142  0.00779213  0.12306832  1
  Rb  Rb1  1  0.88699858  0.99220787  0.62306832  1
  Rb  Rb2  1  0.50779213  0.38699858  0.37306832  1
  Rb  Rb3  1  0.49220787  0.61300142  0.87306832  1
  Rb  Rb4  1  0.99220787  0.88699858  0.37693168  1
  Rb  Rb5  1  0.00779213  0.11300142  0.87693168  1
  Rb  Rb6  1  0.38699858  0.50779213  0.62693168  1
  Rb  Rb7  1  0.61300142  0.49220787  0.12693168  1
  Rb  Rb8  1  0.79186411  0.79186411  0.00000000  1
  Rb  Rb9  1  0.20813589  0.20813589  0.50000000  1
  Rb  Rb10  1  0.29186411  0.70813589  0.25000000  1
  Rb  Rb11  1  0.70813589  0.29186411  0.75000000  1
  Mo  Mo12  1  0.48288650  0.13583766  0.18876711  1
  Mo  Mo13  1  0.51711350  0.86416234  0.68876711  1
  Mo  Mo14  1  0.63583766  0.01711350  0.43876711  1
  Mo  Mo15  1  0.36416234  0.98288650  0.93876711  1
  Mo  Mo16  1  0.86416234  0.51711350  0.31123289  1
  Mo  Mo17  1  0.13583766  0.48288650  0.81123289  1
  Mo  Mo18  1  0.01711350  0.63583766  0.56123289  1
  Mo  Mo19  1  0.98288650  0.36416234  0.06123289  1
  Mo  Mo20  1  0.74441821  0.89404952  0.18533929  1
  Mo  Mo21  1  0.25558179  0.10595048  0.68533929  1
  Mo  Mo22  1  0.39404952  0.75558179  0.43533929  1
  Mo  Mo23  1  0.60595048  0.24441821  0.93533929  1
  Mo  Mo24  1  0.10595048  0.25558179  0.31466071  1
  Mo  Mo25  1  0.89404952  0.74441821  0.81466071  1
  Mo  Mo26  1  0.75558179  0.39404952  0.56466071  1
  Mo  Mo27  1  0.24441821  0.60595048  0.06466071  1
  P  P28  1  0.73763203  0.15578392  0.08027633  1
  P  P29  1  0.26236797  0.84421608  0.58027633  1
  P  P30  1  0.65578392  0.76236797  0.33027633  1
  P  P31  1  0.34421608  0.23763203  0.83027633  1
  P  P32  1  0.84421608  0.26236797  0.41972367  1
  P  P33  1  0.15578392  0.73763203  0.91972367  1
  P  P34  1  0.76236797  0.65578392  0.66972367  1
  P  P35  1  0.23763203  0.34421608  0.16972367  1
  P  P36  1  0.45456396  0.85586563  0.08999806  1
  P  P37  1  0.54543604  0.14413437  0.58999806  1
  P  P38  1  0.35586563  0.04543604  0.33999806  1
  P  P39  1  0.64413437  0.95456396  0.83999806  1
  P  P40  1  0.14413437  0.54543604  0.41000194  1
  P  P41  1  0.85586563  0.45456396  0.91000194  1
  P  P42  1  0.04543604  0.35586563  0.66000194  1
  P  P43  1  0.95456396  0.64413437  0.16000194  1
  O  O44  1  0.52229189  0.27194020  0.23643018  1
  O  O45  1  0.47770811  0.72805980  0.73643018  1
  O  O46  1  0.77194020  0.97770811  0.48643018  1
  O  O47  1  0.22805980  0.02229189  0.98643018  1
  O  O48  1  0.72805980  0.47770811  0.26356982  1
  O  O49  1  0.27194020  0.52229189  0.76356982  1
  O  O50  1  0.97770811  0.77194020  0.51356982  1
  O  O51  1  0.02229189  0.22805980  0.01356982  1
  O  O52  1  0.61685627  0.01886686  0.21374130  1
  O  O53  1  0.38314373  0.98113314  0.71374130  1
  O  O54  1  0.51886686  0.88314373  0.46374130  1
  O  O55  1  0.48113314  0.11685627  0.96374130  1
  O  O56  1  0.98113314  0.38314373  0.28625870  1
  O  O57  1  0.01886686  0.61685627  0.78625870  1
  O  O58  1  0.88314373  0.51886686  0.53625870  1
  O  O59  1  0.11685627  0.48113314  0.03625870  1
  O  O60  1  0.59814264  0.18394344  0.10647734  1
  O  O61  1  0.40185736  0.81605656  0.60647734  1
  O  O62  1  0.68394344  0.90185736  0.35647734  1
  O  O63  1  0.31605656  0.09814264  0.85647734  1
  O  O64  1  0.81605656  0.40185736  0.39352266  1
  O  O65  1  0.18394344  0.59814264  0.89352266  1
  O  O66  1  0.90185736  0.68394344  0.64352266  1
  O  O67  1  0.09814264  0.31605656  0.14352266  1
  O  O68  1  0.36303776  0.04925609  0.25998996  1
  O  O69  1  0.63696224  0.95074391  0.75998996  1
  O  O70  1  0.54925609  0.13696224  0.50998996  1
  O  O71  1  0.45074391  0.86303776  0.00998996  1
  O  O72  1  0.95074391  0.63696224  0.24001004  1
  O  O73  1  0.04925609  0.36303776  0.74001004  1
  O  O74  1  0.13696224  0.54925609  0.49001004  1
  O  O75  1  0.86303776  0.45074391  0.99001004  1
  O  O76  1  0.32657706  0.23347985  0.14289579  1
  O  O77  1  0.67342294  0.76652015  0.64289579  1
  O  O78  1  0.73347985  0.17342294  0.39289579  1
  O  O79  1  0.26652015  0.82657706  0.89289579  1
  O  O80  1  0.76652015  0.67342294  0.35710421  1
  O  O81  1  0.23347985  0.32657706  0.85710421  1
  O  O82  1  0.17342294  0.73347985  0.60710421  1
  O  O83  1  0.82657706  0.26652015  0.10710421  1
  O  O84  1  0.40874662  0.98368720  0.12303230  1
  O  O85  1  0.59125338  0.01631280  0.62303230  1
  O  O86  1  0.48368720  0.09125338  0.37303230  1
  O  O87  1  0.51631280  0.90874662  0.87303230  1
  O  O88  1  0.01631280  0.59125338  0.37696770  1
  O  O89  1  0.98368720  0.40874662  0.87696770  1
  O  O90  1  0.09125338  0.48368720  0.62696770  1
  O  O91  1  0.90874662  0.51631280  0.12696770  1
  O  O92  1  0.87422886  0.93344690  0.23675170  1
  O  O93  1  0.12577114  0.06655310  0.73675170  1
  O  O94  1  0.43344690  0.62577114  0.48675170  1
  O  O95  1  0.56655310  0.37422886  0.98675170  1
  O  O96  1  0.06655310  0.12577114  0.26324830  1
  O  O97  1  0.93344690  0.87422886  0.76324830  1
  O  O98  1  0.62577114  0.43344690  0.51324830  1
  O  O99  1  0.37422886  0.56655310  0.01324830  1
  O  O100  1  0.65607797  0.76287827  0.25059259  1
  O  O101  1  0.34392203  0.23712173  0.75059259  1
  O  O102  1  0.26287827  0.84392203  0.50059259  1
  O  O103  1  0.73712173  0.15607797  0.00059259  1
  O  O104  1  0.23712173  0.34392203  0.24940741  1
  O  O105  1  0.76287827  0.65607797  0.74940741  1
  O  O106  1  0.84392203  0.26287827  0.49940741  1
  O  O107  1  0.15607797  0.73712173  0.99940741  1
  O  O108  1  0.85545411  0.75121416  0.13620087  1
  O  O109  1  0.14454589  0.24878584  0.63620087  1
  O  O110  1  0.25121416  0.64454589  0.38620087  1
  O  O111  1  0.74878584  0.35545411  0.88620087  1
  O  O112  1  0.24878584  0.14454589  0.36379913  1
  O  O113  1  0.75121416  0.85545411  0.86379913  1
  O  O114  1  0.64454589  0.25121416  0.61379913  1
  O  O115  1  0.35545411  0.74878584  0.11379913  1
  O  O116  1  0.79023442  0.01978226  0.10316382  1
  O  O117  1  0.20976558  0.98021774  0.60316382  1
  O  O118  1  0.51978226  0.70976558  0.35316382  1
  O  O119  1  0.48021774  0.29023442  0.85316382  1
  O  O120  1  0.98021774  0.20976558  0.39683618  1
  O  O121  1  0.01978226  0.79023442  0.89683618  1
  O  O122  1  0.70976558  0.51978226  0.64683618  1
  O  O123  1  0.29023442  0.48021774  0.14683618  1
  O  O124  1  0.59363408  0.81588568  0.11196032  1
  O  O125  1  0.40636592  0.18411432  0.61196032  1
  O  O126  1  0.31588568  0.90636592  0.36196032  1
  O  O127  1  0.68411432  0.09363408  0.86196032  1
  O  O128  1  0.18411432  0.40636592  0.38803968  1
  O  O129  1  0.81588568  0.59363408  0.88803968  1
  O  O130  1  0.90636592  0.31588568  0.63803968  1
  O  O131  1  0.09363408  0.68411432  0.13803968  1
