# generated using pymatgen
data_HC2N3
_symmetry_space_group_name_H-M   'P 1'
_cell_length_a   8.36245230
_cell_length_b   9.52726514
_cell_length_c   12.63658614
_cell_angle_alpha   89.96087107
_cell_angle_beta   89.94020551
_cell_angle_gamma   116.84659814
_symmetry_Int_Tables_number   1
_chemical_formula_structural   HC2N3
_chemical_formula_sum   'H12 C24 N36'
_cell_volume   898.26080859
_cell_formula_units_Z   12
loop_
 _symmetry_equiv_pos_site_id
 _symmetry_equiv_pos_as_xyz
  1  'x, y, z'
loop_
 _atom_site_type_symbol
 _atom_site_label
 _atom_site_symmetry_multiplicity
 _atom_site_fract_x
 _atom_site_fract_y
 _atom_site_fract_z
 _atom_site_occupancy
  H  H0  1  0.40138855  0.84267715  0.95051658  1
  H  H1  1  0.32988558  0.74782342  0.82458603  1
  H  H2  1  0.59971053  0.15523568  0.05673871  1
  H  H3  1  0.66981097  0.24960804  0.18264114  1
  H  H4  1  0.34944071  0.76401394  0.61413540  1
  H  H5  1  0.64809516  0.23598199  0.39565996  1
  H  H6  1  0.10151193  0.16011099  0.44585696  1
  H  H7  1  0.16928682  0.24809424  0.31794397  1
  H  H8  1  0.90207553  0.84839715  0.55701212  1
  H  H9  1  0.83067964  0.75065338  0.68210063  1
  H  H10  1  0.15006699  0.23520408  0.11234444  1
  H  H11  1  0.84978578  0.76004071  0.89495731  1
  C  C12  1  0.14975046  0.32471450  0.96632975  1
  C  C13  1  0.03324631  0.14772602  0.83108425  1
  C  C14  1  0.17180049  0.43246395  0.80386646  1
  C  C15  1  0.08892803  0.25861117  0.65216356  1
  C  C16  1  0.22644245  0.52518904  0.63342631  1
  C  C17  1  0.35097028  0.67697043  0.46637585  1
  C  C18  1  0.46720389  0.85302603  0.33047339  1
  C  C19  1  0.27366632  0.47491341  0.13398957  1
  C  C20  1  0.41131728  0.74165612  0.15209803  1
  C  C21  1  0.54744254  0.00799992  0.18107883  1
  C  C22  1  0.45189385  0.98944409  0.82641693  1
  C  C23  1  0.58863829  0.25525152  0.85646210  1
  C  C24  1  0.72633027  0.52158458  0.87530408  1
  C  C25  1  0.53049911  0.14545933  0.67763061  1
  C  C26  1  0.66974314  0.43012788  0.70514268  1
  C  C27  1  0.64648971  0.32316371  0.54268481  1
  C  C28  1  0.77183973  0.47475593  0.37558791  1
  C  C29  1  0.90964315  0.74148714  0.35609930  1
  C  C30  1  0.82814447  0.56599803  0.20496516  1
  C  C31  1  0.96724347  0.85019505  0.17662443  1
  C  C32  1  0.85118470  0.67277623  0.04209889  1
  C  C33  1  0.95295128  0.99270285  0.68208541  1
  C  C34  1  0.32829747  0.56785224  0.30416720  1
  C  C35  1  0.04685265  0.00708610  0.32459573  1
  N  N36  1  0.19625951  0.45468653  0.90743362  1
  N  N37  1  0.06459837  0.17386918  0.93466439  1
  N  N38  1  0.09330431  0.28000869  0.76244047  1
  N  N39  1  0.22922302  0.55594831  0.73831943  1
  N  N40  1  0.02109103  0.11603464  0.61259028  1
  N  N41  1  0.15904003  0.38432975  0.58803767  1
  N  N42  1  0.30820108  0.66023903  0.57296446  1
  N  N43  1  0.30409400  0.54661007  0.40797870  1
  N  N44  1  0.43615717  0.82758013  0.43429653  1
  N  N45  1  0.54578340  0.99671506  0.28903410  1
  N  N46  1  0.40704840  0.72047076  0.26239667  1
  N  N47  1  0.27088184  0.44420995  0.23898903  1
  N  N48  1  0.19210798  0.34054208  0.07293900  1
  N  N49  1  0.34122949  0.61602636  0.08843609  1
  N  N50  1  0.47926640  0.88446978  0.11203543  1
  N  N51  1  0.61599114  0.14969688  0.13695474  1
  N  N52  1  0.38398873  0.84764617  0.87036692  1
  N  N53  1  0.52120304  0.11232108  0.89587815  1
  N  N54  1  0.65979105  0.38029606  0.92064264  1
  N  N55  1  0.80843051  0.65586129  0.93575287  1
  N  N56  1  0.45188717  0.00124520  0.71855406  1
  N  N57  1  0.59145475  0.27727640  0.74637943  1
  N  N58  1  0.72791880  0.55316073  0.77063417  1
  N  N59  1  0.56106334  0.17217155  0.57404545  1
  N  N60  1  0.69332286  0.45291846  0.60150494  1
  N  N61  1  0.68952352  0.34021561  0.43619616  1
  N  N62  1  0.83838109  0.61615481  0.42059024  1
  N  N63  1  0.97741019  0.88463324  0.39489738  1
  N  N64  1  0.77040081  0.44308530  0.27097217  1
  N  N65  1  0.90621509  0.71870528  0.24597613  1
  N  N66  1  0.80438190  0.54303110  0.10147653  1
  N  N67  1  0.93657765  0.82356819  0.07315669  1
  N  N68  1  0.04630653  0.99426375  0.21683575  1
  N  N69  1  0.88482206  0.85160003  0.63736651  1
  N  N70  1  0.95447828  0.00379187  0.79003385  1
  N  N71  1  0.11605796  0.15012064  0.36608484  1
