# generated using pymatgen
data_K3Nd(Si2O5)3
_symmetry_space_group_name_H-M   'P 1'
_cell_length_a   7.34582932
_cell_length_b   15.12565964
_cell_length_c   16.07544222
_cell_angle_alpha   90.00000000
_cell_angle_beta   90.00000000
_cell_angle_gamma   90.00000000
_symmetry_Int_Tables_number   1
_chemical_formula_structural   K3Nd(Si2O5)3
_chemical_formula_sum   'K12 Nd4 Si24 O60'
_cell_volume   1786.15064893
_cell_formula_units_Z   4
loop_
 _symmetry_equiv_pos_site_id
 _symmetry_equiv_pos_as_xyz
  1  'x, y, z'
loop_
 _atom_site_type_symbol
 _atom_site_label
 _atom_site_symmetry_multiplicity
 _atom_site_fract_x
 _atom_site_fract_y
 _atom_site_fract_z
 _atom_site_occupancy
  K  K0  1  -0.00000000  0.88116995  0.20261930  1
  K  K1  1  -0.00000000  0.11883005  0.79738070  1
  K  K2  1  -0.00000000  0.61883005  0.70261930  1
  K  K3  1  -0.00000000  0.38116995  0.29738070  1
  K  K4  1  0.50000000  0.61867727  0.35232773  1
  K  K5  1  0.50000000  0.38132273  0.64767227  1
  K  K6  1  0.50000000  0.88132273  0.85232773  1
  K  K7  1  0.50000000  0.11867727  0.14767227  1
  K  K8  1  0.50000000  0.91073714  0.43662003  1
  K  K9  1  0.50000000  0.08926286  0.56337997  1
  K  K10  1  0.50000000  0.58926286  0.93662003  1
  K  K11  1  0.50000000  0.41073714  0.06337997  1
  Nd  Nd12  1  -0.00000000  0.50000000  0.50000000  1
  Nd  Nd13  1  -0.00000000  -0.00000000  -0.00000000  1
  Nd  Nd14  1  -0.00000000  0.50000000  -0.00000000  1
  Nd  Nd15  1  -0.00000000  -0.00000000  0.50000000  1
  Si  Si16  1  -0.00000000  0.62786162  0.28940308  1
  Si  Si17  1  -0.00000000  0.37213838  0.71059692  1
  Si  Si18  1  -0.00000000  0.87213838  0.78940308  1
  Si  Si19  1  -0.00000000  0.12786162  0.21059692  1
  Si  Si20  1  0.71233297  0.63489666  0.14477050  1
  Si  Si21  1  0.71233297  0.36510334  0.85522950  1
  Si  Si22  1  0.28766703  0.86510334  0.64477050  1
  Si  Si23  1  0.28766703  0.13489666  0.35522950  1
  Si  Si24  1  0.28766703  0.36510334  0.85522950  1
  Si  Si25  1  0.28766703  0.63489666  0.14477050  1
  Si  Si26  1  0.71233297  0.13489666  0.35522950  1
  Si  Si27  1  0.71233297  0.86510334  0.64477050  1
  Si  Si28  1  -0.00000000  0.78143663  0.40783046  1
  Si  Si29  1  -0.00000000  0.21856337  0.59216954  1
  Si  Si30  1  -0.00000000  0.71856337  0.90783046  1
  Si  Si31  1  -0.00000000  0.28143663  0.09216954  1
  Si  Si32  1  0.71823517  0.80013591  0.03729773  1
  Si  Si33  1  0.71823517  0.19986409  0.96270227  1
  Si  Si34  1  0.28176483  0.69986409  0.53729773  1
  Si  Si35  1  0.28176483  0.30013591  0.46270227  1
  Si  Si36  1  0.28176483  0.19986409  0.96270227  1
  Si  Si37  1  0.28176483  0.80013591  0.03729773  1
  Si  Si38  1  0.71823517  0.30013591  0.46270227  1
  Si  Si39  1  0.71823517  0.69986409  0.53729773  1
  O  O40  1  0.81377875  0.74563909  0.45462332  1
  O  O41  1  0.81377875  0.25436091  0.54537668  1
  O  O42  1  0.18622125  0.75436091  0.95462332  1
  O  O43  1  0.18622125  0.24563909  0.04537668  1
  O  O44  1  0.18622125  0.25436091  0.54537668  1
  O  O45  1  0.18622125  0.74563909  0.45462332  1
  O  O46  1  0.81377875  0.24563909  0.04537668  1
  O  O47  1  0.81377875  0.75436091  0.95462332  1
  O  O48  1  -0.00000000  0.88649984  0.39746331  1
  O  O49  1  -0.00000000  0.11350016  0.60253669  1
  O  O50  1  -0.00000000  0.61350016  0.89746331  1
  O  O51  1  -0.00000000  0.38649984  0.10253669  1
  O  O52  1  -0.00000000  0.73427617  0.31445560  1
  O  O53  1  -0.00000000  0.26572383  0.68554440  1
  O  O54  1  -0.00000000  0.76572383  0.81445560  1
  O  O55  1  -0.00000000  0.23427617  0.18554440  1
  O  O56  1  -0.00000000  0.56180577  0.36639149  1
  O  O57  1  -0.00000000  0.43819423  0.63360851  1
  O  O58  1  -0.00000000  0.93819423  0.86639149  1
  O  O59  1  -0.00000000  0.06180577  0.13360851  1
  O  O60  1  0.81793830  0.61129303  0.23202716  1
  O  O61  1  0.81793830  0.38870697  0.76797284  1
  O  O62  1  0.18206170  0.88870697  0.73202716  1
  O  O63  1  0.18206170  0.11129303  0.26797284  1
  O  O64  1  0.18206170  0.38870697  0.76797284  1
  O  O65  1  0.18206170  0.61129303  0.23202716  1
  O  O66  1  0.81793830  0.11129303  0.26797284  1
  O  O67  1  0.81793830  0.88870697  0.73202716  1
  O  O68  1  0.50000000  0.63267633  0.17786066  1
  O  O69  1  0.50000000  0.36732367  0.82213934  1
  O  O70  1  0.50000000  0.86732367  0.67786066  1
  O  O71  1  0.50000000  0.13267633  0.32213934  1
  O  O72  1  0.74796212  0.56676628  0.07040190  1
  O  O73  1  0.74796212  0.43323372  0.92959810  1
  O  O74  1  0.25203788  0.93323372  0.57040190  1
  O  O75  1  0.25203788  0.06676628  0.42959810  1
  O  O76  1  0.25203788  0.43323372  0.92959810  1
  O  O77  1  0.25203788  0.56676628  0.07040190  1
  O  O78  1  0.74796212  0.06676628  0.42959810  1
  O  O79  1  0.74796212  0.93323372  0.57040190  1
  O  O80  1  0.76199088  0.73834407  0.12014283  1
  O  O81  1  0.76199088  0.26165593  0.87985717  1
  O  O82  1  0.23800912  0.76165593  0.62014283  1
  O  O83  1  0.23800912  0.23834407  0.37985717  1
  O  O84  1  0.23800912  0.26165593  0.87985717  1
  O  O85  1  0.23800912  0.73834407  0.12014283  1
  O  O86  1  0.76199088  0.23834407  0.37985717  1
  O  O87  1  0.76199088  0.76165593  0.62014283  1
  O  O88  1  0.78063806  0.89922016  0.05373561  1
  O  O89  1  0.78063806  0.10077984  0.94626439  1
  O  O90  1  0.21936194  0.60077984  0.55373561  1
  O  O91  1  0.21936194  0.39922016  0.44626439  1
  O  O92  1  0.21936194  0.10077984  0.94626439  1
  O  O93  1  0.21936194  0.89922016  0.05373561  1
  O  O94  1  0.78063806  0.39922016  0.44626439  1
  O  O95  1  0.78063806  0.60077984  0.55373561  1
  O  O96  1  0.50000000  0.78845638  0.01270700  1
  O  O97  1  0.50000000  0.21154362  0.98729300  1
  O  O98  1  0.50000000  0.71154362  0.51270700  1
  O  O99  1  0.50000000  0.28845638  0.48729300  1
