# generated using pymatgen
data_Ba4MgC4(N4F)2
_symmetry_space_group_name_H-M   'P 1'
_cell_length_a   8.49184875
_cell_length_b   8.55688509
_cell_length_c   8.63993622
_cell_angle_alpha   90.00000000
_cell_angle_beta   90.00000000
_cell_angle_gamma   109.06527951
_symmetry_Int_Tables_number   1
_chemical_formula_structural   Ba4MgC4(N4F)2
_chemical_formula_sum   'Ba8 Mg2 C8 N16 F4'
_cell_volume   593.37310758
_cell_formula_units_Z   2
loop_
 _symmetry_equiv_pos_site_id
 _symmetry_equiv_pos_as_xyz
  1  'x, y, z'
loop_
 _atom_site_type_symbol
 _atom_site_label
 _atom_site_symmetry_multiplicity
 _atom_site_fract_x
 _atom_site_fract_y
 _atom_site_fract_z
 _atom_site_occupancy
  Ba  Ba0  1  0.21097925  0.08722676  0.66722739  1
  Ba  Ba1  1  0.78902075  0.41277324  0.16722739  1
  Ba  Ba2  1  0.78902075  0.91277324  0.33277261  1
  Ba  Ba3  1  0.21097925  0.58722676  0.83277261  1
  Ba  Ba4  1  0.24385140  0.24309444  0.17118804  1
  Ba  Ba5  1  0.75614860  0.25690556  0.67118804  1
  Ba  Ba6  1  0.75614860  0.75690556  0.82881196  1
  Ba  Ba7  1  0.24385140  0.74309444  0.32881196  1
  Mg  Mg8  1  0.50000000  0.50000000  0.50000000  1
  Mg  Mg9  1  0.50000000  -0.00000000  -0.00000000  1
  C  C10  1  0.50521265  0.14566977  0.35463817  1
  C  C11  1  0.49478735  0.35433023  0.85463817  1
  C  C12  1  0.49478735  0.85433023  0.64536183  1
  C  C13  1  0.50521265  0.64566977  0.14536183  1
  C  C14  1  0.07654189  0.34034081  0.44499851  1
  C  C15  1  0.92345811  0.15965919  0.94499851  1
  C  C16  1  0.92345811  0.65965919  0.55500149  1
  C  C17  1  0.07654189  0.84034081  0.05500149  1
  N  N18  1  0.49896879  0.24579776  0.45567330  1
  N  N19  1  0.50103121  0.25420224  0.95567330  1
  N  N20  1  0.50103121  0.75420224  0.54432670  1
  N  N21  1  0.49896879  0.74579776  0.04432670  1
  N  N22  1  0.48944132  0.45289857  0.75152754  1
  N  N23  1  0.51055868  0.04710143  0.25152754  1
  N  N24  1  0.51055868  0.54710143  0.24847246  1
  N  N25  1  0.48944132  0.95289857  0.74847246  1
  N  N26  1  0.21720618  0.41047800  0.49914872  1
  N  N27  1  0.78279382  0.08952200  0.99914872  1
  N  N28  1  0.78279382  0.58952200  0.50085128  1
  N  N29  1  0.21720618  0.91047800  0.00085128  1
  N  N30  1  0.06187291  0.23323813  0.88741543  1
  N  N31  1  0.93812709  0.26676187  0.38741543  1
  N  N32  1  0.93812709  0.76676187  0.11258457  1
  N  N33  1  0.06187291  0.73323813  0.61258457  1
  F  F34  1  0.12967878  0.00230602  0.36920019  1
  F  F35  1  0.87032122  0.49769398  0.86920019  1
  F  F36  1  0.87032122  0.99769398  0.63079981  1
  F  F37  1  0.12967878  0.50230602  0.13079981  1
