# generated using pymatgen
data_Fe7Sb3P3(ClO6)3
_symmetry_space_group_name_H-M   'P 1'
_cell_length_a   5.26816776
_cell_length_b   15.10095295
_cell_length_c   26.03856070
_cell_angle_alpha   90.00000000
_cell_angle_beta   90.00000000
_cell_angle_gamma   90.00000000
_symmetry_Int_Tables_number   1
_chemical_formula_structural   Fe7Sb3P3(ClO6)3
_chemical_formula_sum   'Fe28 Sb12 P12 Cl12 O72'
_cell_volume   2071.48086195
_cell_formula_units_Z   4
loop_
 _symmetry_equiv_pos_site_id
 _symmetry_equiv_pos_as_xyz
  1  'x, y, z'
loop_
 _atom_site_type_symbol
 _atom_site_label
 _atom_site_symmetry_multiplicity
 _atom_site_fract_x
 _atom_site_fract_y
 _atom_site_fract_z
 _atom_site_occupancy
  Fe  Fe0  1  0.18685219  0.35446289  0.07174033  1
  Fe  Fe1  1  0.68685219  0.14553711  0.42825967  1
  Fe  Fe2  1  0.81314781  0.85446289  0.92825967  1
  Fe  Fe3  1  0.31314781  0.64553711  0.57174033  1
  Fe  Fe4  1  0.81314781  0.64553711  0.92825967  1
  Fe  Fe5  1  0.31314781  0.85446289  0.57174033  1
  Fe  Fe6  1  0.18685219  0.14553711  0.07174033  1
  Fe  Fe7  1  0.68685219  0.35446289  0.42825967  1
  Fe  Fe8  1  0.19265788  0.93109337  0.28612916  1
  Fe  Fe9  1  0.69265788  0.56890663  0.21387084  1
  Fe  Fe10  1  0.80734212  0.43109337  0.71387084  1
  Fe  Fe11  1  0.30734212  0.06890663  0.78612916  1
  Fe  Fe12  1  0.80734212  0.06890663  0.71387084  1
  Fe  Fe13  1  0.30734212  0.43109337  0.78612916  1
  Fe  Fe14  1  0.19265788  0.56890663  0.28612916  1
  Fe  Fe15  1  0.69265788  0.93109337  0.21387084  1
  Fe  Fe16  1  0.31447880  0.96481813  0.89171385  1
  Fe  Fe17  1  0.81447880  0.53518187  0.60828615  1
  Fe  Fe18  1  0.68552120  0.46481813  0.10828615  1
  Fe  Fe19  1  0.18552120  0.03518187  0.39171385  1
  Fe  Fe20  1  0.68552120  0.03518187  0.10828615  1
  Fe  Fe21  1  0.18552120  0.46481813  0.39171385  1
  Fe  Fe22  1  0.31447880  0.53518187  0.89171385  1
  Fe  Fe23  1  0.81447880  0.96481813  0.60828615  1
  Fe  Fe24  1  0.59432727  0.75000000  0.75025768  1
  Fe  Fe25  1  0.09432727  0.75000000  0.74974232  1
  Fe  Fe26  1  0.40567273  0.25000000  0.24974232  1
  Fe  Fe27  1  0.90567273  0.25000000  0.25025768  1
  Sb  Sb28  1  0.74984073  0.44087527  0.97976618  1
  Sb  Sb29  1  0.24984073  0.05912473  0.52023382  1
  Sb  Sb30  1  0.25015927  0.94087527  0.02023382  1
  Sb  Sb31  1  0.75015927  0.55912473  0.47976618  1
  Sb  Sb32  1  0.25015927  0.55912473  0.02023382  1
  Sb  Sb33  1  0.75015927  0.94087527  0.47976618  1
  Sb  Sb34  1  0.74984073  0.05912473  0.97976618  1
  Sb  Sb35  1  0.24984073  0.44087527  0.52023382  1
  Sb  Sb36  1  0.72623626  0.75000000  0.29068134  1
  Sb  Sb37  1  0.22623626  0.75000000  0.20931866  1
  Sb  Sb38  1  0.27376374  0.25000000  0.70931866  1
  Sb  Sb39  1  0.77376374  0.25000000  0.79068134  1
  P  P40  1  0.81639945  0.75000000  0.62647713  1
  P  P41  1  0.31639945  0.75000000  0.87352287  1
  P  P42  1  0.18360055  0.25000000  0.37352287  1
  P  P43  1  0.68360055  0.25000000  0.12647713  1
  P  P44  1  0.68020673  0.06461398  0.31168053  1
  P  P45  1  0.18020673  0.43538602  0.18831947  1
  P  P46  1  0.31979327  0.56461398  0.68831947  1
  P  P47  1  0.81979327  0.93538602  0.81168053  1
  P  P48  1  0.31979327  0.93538602  0.68831947  1
  P  P49  1  0.81979327  0.56461398  0.81168053  1
  P  P50  1  0.68020673  0.43538602  0.31168053  1
  P  P51  1  0.18020673  0.06461398  0.18831947  1
  Cl  Cl52  1  0.37747758  0.12465190  0.87528372  1
  Cl  Cl53  1  0.87747758  0.37534810  0.62471628  1
  Cl  Cl54  1  0.62252242  0.62465190  0.12471628  1
  Cl  Cl55  1  0.12252242  0.87534810  0.37528372  1
  Cl  Cl56  1  0.62252242  0.87534810  0.12471628  1
  Cl  Cl57  1  0.12252242  0.62465190  0.37528372  1
  Cl  Cl58  1  0.37747758  0.37534810  0.87528372  1
  Cl  Cl59  1  0.87747758  0.12465190  0.62471628  1
  Cl  Cl60  1  0.38997932  0.75000000  0.49989160  1
  Cl  Cl61  1  0.88997932  0.75000000  0.00010840  1
  Cl  Cl62  1  0.61002068  0.25000000  0.50010840  1
  Cl  Cl63  1  0.11002068  0.25000000  0.99989160  1
  O  O64  1  0.05328350  0.52777190  0.95401219  1
  O  O65  1  0.55328350  0.97222810  0.54598781  1
  O  O66  1  0.94671650  0.02777190  0.04598781  1
  O  O67  1  0.44671650  0.47222810  0.45401219  1
  O  O68  1  0.94671650  0.47222810  0.04598781  1
  O  O69  1  0.44671650  0.02777190  0.45401219  1
  O  O70  1  0.05328350  0.97222810  0.95401219  1
  O  O71  1  0.55328350  0.52777190  0.54598781  1
  O  O72  1  0.47163794  0.83452555  0.25315155  1
  O  O73  1  0.97163794  0.66547445  0.24684845  1
  O  O74  1  0.52836206  0.33452555  0.74684845  1
  O  O75  1  0.02836206  0.16547445  0.75315155  1
  O  O76  1  0.52836206  0.16547445  0.74684845  1
  O  O77  1  0.02836206  0.33452555  0.75315155  1
  O  O78  1  0.47163794  0.66547445  0.25315155  1
  O  O79  1  0.97163794  0.83452555  0.24684845  1
  O  O80  1  0.55301236  0.55614763  0.96371446  1
  O  O81  1  0.05301236  0.94385237  0.53628554  1
  O  O82  1  0.44698764  0.05614763  0.03628554  1
  O  O83  1  0.94698764  0.44385237  0.46371446  1
  O  O84  1  0.44698764  0.44385237  0.03628554  1
  O  O85  1  0.94698764  0.05614763  0.46371446  1
  O  O86  1  0.55301236  0.94385237  0.96371446  1
  O  O87  1  0.05301236  0.55614763  0.53628554  1
  O  O88  1  0.84129000  0.75000000  0.68655353  1
  O  O89  1  0.34129000  0.75000000  0.81344647  1
  O  O90  1  0.15871000  0.25000000  0.31344647  1
  O  O91  1  0.65871000  0.25000000  0.18655353  1
  O  O92  1  0.66613064  0.83233348  0.60823919  1
  O  O93  1  0.16613064  0.66766652  0.89176081  1
  O  O94  1  0.33386936  0.33233348  0.39176081  1
  O  O95  1  0.83386936  0.16766652  0.10823919  1
  O  O96  1  0.33386936  0.16766652  0.39176081  1
  O  O97  1  0.83386936  0.33233348  0.10823919  1
  O  O98  1  0.66613064  0.66766652  0.60823919  1
  O  O99  1  0.16613064  0.83233348  0.89176081  1
  O  O100  1  0.08300987  0.75000000  0.60115459  1
  O  O101  1  0.58300987  0.75000000  0.89884541  1
  O  O102  1  0.91699013  0.25000000  0.39884541  1
  O  O103  1  0.41699013  0.25000000  0.10115459  1
  O  O104  1  0.41253395  0.02629967  0.32418173  1
  O  O105  1  0.91253395  0.47370033  0.17581827  1
  O  O106  1  0.58746605  0.52629967  0.67581827  1
  O  O107  1  0.08746605  0.97370033  0.82418173  1
  O  O108  1  0.58746605  0.97370033  0.67581827  1
  O  O109  1  0.08746605  0.52629967  0.82418173  1
  O  O110  1  0.41253395  0.47370033  0.32418173  1
  O  O111  1  0.91253395  0.02629967  0.17581827  1
  O  O112  1  0.82915130  0.99587875  0.27981938  1
  O  O113  1  0.32915130  0.50412125  0.22018062  1
  O  O114  1  0.17084870  0.49587875  0.72018062  1
  O  O115  1  0.67084870  0.00412125  0.77981938  1
  O  O116  1  0.17084870  0.00412125  0.72018062  1
  O  O117  1  0.67084870  0.49587875  0.77981938  1
  O  O118  1  0.82915130  0.50412125  0.27981938  1
  O  O119  1  0.32915130  0.99587875  0.22018062  1
  O  O120  1  0.83028690  0.07806711  0.36222073  1
  O  O121  1  0.33028690  0.42193289  0.13777927  1
  O  O122  1  0.16971310  0.57806711  0.63777927  1
  O  O123  1  0.66971310  0.92193289  0.86222073  1
  O  O124  1  0.16971310  0.92193289  0.63777927  1
  O  O125  1  0.66971310  0.57806711  0.86222073  1
  O  O126  1  0.83028690  0.42193289  0.36222073  1
  O  O127  1  0.33028690  0.07806711  0.13777927  1
  O  O128  1  0.65533515  0.15447322  0.28192325  1
  O  O129  1  0.15533515  0.34552678  0.21807675  1
  O  O130  1  0.34466485  0.65447322  0.71807675  1
  O  O131  1  0.84466485  0.84552678  0.78192325  1
  O  O132  1  0.34466485  0.84552678  0.71807675  1
  O  O133  1  0.84466485  0.65447322  0.78192325  1
  O  O134  1  0.65533515  0.34552678  0.28192325  1
  O  O135  1  0.15533515  0.15447322  0.21807675  1
