# generated using pymatgen
data_Ta3(CrSi)8
_symmetry_space_group_name_H-M   'P 1'
_cell_length_a   4.81201492
_cell_length_b   13.08823225
_cell_length_c   15.66958627
_cell_angle_alpha   90.00000000
_cell_angle_beta   90.00000000
_cell_angle_gamma   90.00000000
_symmetry_Int_Tables_number   1
_chemical_formula_structural   Ta3(CrSi)8
_chemical_formula_sum   'Ta12 Cr32 Si32'
_cell_volume   986.88259106
_cell_formula_units_Z   4
loop_
 _symmetry_equiv_pos_site_id
 _symmetry_equiv_pos_as_xyz
  1  'x, y, z'
loop_
 _atom_site_type_symbol
 _atom_site_label
 _atom_site_symmetry_multiplicity
 _atom_site_fract_x
 _atom_site_fract_y
 _atom_site_fract_z
 _atom_site_occupancy
  Ta  Ta0  1  0.25000000  0.56423389  0.30503092  1
  Ta  Ta1  1  0.25000000  0.06423389  0.19496908  1
  Ta  Ta2  1  0.75000000  0.43576611  0.69496908  1
  Ta  Ta3  1  0.75000000  0.93576611  0.80503092  1
  Ta  Ta4  1  0.25000000  0.86512334  0.45791547  1
  Ta  Ta5  1  0.25000000  0.36512334  0.04208453  1
  Ta  Ta6  1  0.75000000  0.13487666  0.54208453  1
  Ta  Ta7  1  0.75000000  0.63487666  0.95791547  1
  Ta  Ta8  1  0.25000000  0.75143912  0.02826632  1
  Ta  Ta9  1  0.25000000  0.25143912  0.47173368  1
  Ta  Ta10  1  0.75000000  0.24856088  0.97173368  1
  Ta  Ta11  1  0.75000000  0.74856088  0.52826632  1
  Cr  Cr12  1  0.99304798  0.86643265  0.17216929  1
  Cr  Cr13  1  0.50695202  0.36643265  0.32783071  1
  Cr  Cr14  1  0.49304798  0.13356735  0.82783071  1
  Cr  Cr15  1  0.00695202  0.63356735  0.67216929  1
  Cr  Cr16  1  0.00695202  0.13356735  0.82783071  1
  Cr  Cr17  1  0.49304798  0.63356735  0.67216929  1
  Cr  Cr18  1  0.50695202  0.86643265  0.17216929  1
  Cr  Cr19  1  0.99304798  0.36643265  0.32783071  1
  Cr  Cr20  1  0.01039113  0.56022156  0.12243761  1
  Cr  Cr21  1  0.48960887  0.06022156  0.37756239  1
  Cr  Cr22  1  0.51039113  0.43977844  0.87756239  1
  Cr  Cr23  1  0.98960887  0.93977844  0.62243761  1
  Cr  Cr24  1  0.98960887  0.43977844  0.87756239  1
  Cr  Cr25  1  0.51039113  0.93977844  0.62243761  1
  Cr  Cr26  1  0.48960887  0.56022156  0.12243761  1
  Cr  Cr27  1  0.01039113  0.06022156  0.37756239  1
  Cr  Cr28  1  0.25000000  0.63705135  0.84513000  1
  Cr  Cr29  1  0.25000000  0.13705135  0.65487000  1
  Cr  Cr30  1  0.75000000  0.36294865  0.15487000  1
  Cr  Cr31  1  0.75000000  0.86294865  0.34513000  1
  Cr  Cr32  1  0.25000000  0.95694288  0.90562153  1
  Cr  Cr33  1  0.25000000  0.45694288  0.59437847  1
  Cr  Cr34  1  0.75000000  0.04305712  0.09437847  1
  Cr  Cr35  1  0.75000000  0.54305712  0.40562153  1
  Cr  Cr36  1  0.25000000  0.62430030  0.50693257  1
  Cr  Cr37  1  0.25000000  0.12430030  0.99306743  1
  Cr  Cr38  1  0.75000000  0.37569970  0.49306743  1
  Cr  Cr39  1  0.75000000  0.87569970  0.00693257  1
  Cr  Cr40  1  0.25000000  0.81245566  0.75068945  1
  Cr  Cr41  1  0.25000000  0.31245566  0.74931055  1
  Cr  Cr42  1  0.75000000  0.18754434  0.24931055  1
  Cr  Cr43  1  0.75000000  0.68754434  0.25068945  1
  Si  Si44  1  0.99930530  0.71128550  0.38183035  1
  Si  Si45  1  0.50069470  0.21128550  0.11816965  1
  Si  Si46  1  0.49930530  0.28871450  0.61816965  1
  Si  Si47  1  0.00069470  0.78871450  0.88183035  1
  Si  Si48  1  0.00069470  0.28871450  0.61816965  1
  Si  Si49  1  0.49930530  0.78871450  0.88183035  1
  Si  Si50  1  0.50069470  0.71128550  0.38183035  1
  Si  Si51  1  0.99930530  0.21128550  0.11816965  1
  Si  Si52  1  0.25000000  0.70970840  0.19498880  1
  Si  Si53  1  0.25000000  0.20970840  0.30501120  1
  Si  Si54  1  0.75000000  0.29029160  0.80501120  1
  Si  Si55  1  0.75000000  0.79029160  0.69498880  1
  Si  Si56  1  0.25000000  0.91008152  0.30091665  1
  Si  Si57  1  0.25000000  0.41008152  0.19908335  1
  Si  Si58  1  0.75000000  0.08991848  0.69908335  1
  Si  Si59  1  0.75000000  0.58991848  0.80091665  1
  Si  Si60  1  0.25000000  0.55024357  0.98169263  1
  Si  Si61  1  0.25000000  0.05024357  0.51830737  1
  Si  Si62  1  0.75000000  0.44975643  0.01830737  1
  Si  Si63  1  0.75000000  0.94975643  0.48169263  1
  Si  Si64  1  0.25000000  0.95281500  0.05612894  1
  Si  Si65  1  0.25000000  0.45281500  0.44387106  1
  Si  Si66  1  0.75000000  0.04718500  0.94387106  1
  Si  Si67  1  0.75000000  0.54718500  0.55612894  1
  Si  Si68  1  0.25000000  0.77442676  0.60406684  1
  Si  Si69  1  0.25000000  0.27442676  0.89593316  1
  Si  Si70  1  0.75000000  0.22557324  0.39593316  1
  Si  Si71  1  0.75000000  0.72557324  0.10406684  1
  Si  Si72  1  0.25000000  0.99674603  0.75170831  1
  Si  Si73  1  0.25000000  0.49674603  0.74829169  1
  Si  Si74  1  0.75000000  0.00325397  0.24829169  1
  Si  Si75  1  0.75000000  0.50325397  0.25170831  1
