# generated using pymatgen
data_Cs3FeMo4O15
_symmetry_space_group_name_H-M   'P 1'
_cell_length_a   10.32266991
_cell_length_b   11.77034332
_cell_length_c   15.10881972
_cell_angle_alpha   90.94503259
_cell_angle_beta   90.00000000
_cell_angle_gamma   90.00000000
_symmetry_Int_Tables_number   1
_chemical_formula_structural   Cs3FeMo4O15
_chemical_formula_sum   'Cs12 Fe4 Mo16 O60'
_cell_volume   1835.49257666
_cell_formula_units_Z   4
loop_
 _symmetry_equiv_pos_site_id
 _symmetry_equiv_pos_as_xyz
  1  'x, y, z'
loop_
 _atom_site_type_symbol
 _atom_site_label
 _atom_site_symmetry_multiplicity
 _atom_site_fract_x
 _atom_site_fract_y
 _atom_site_fract_z
 _atom_site_occupancy
  Cs  Cs0  1  0.17979504  0.74243306  0.06002538  1
  Cs  Cs1  1  0.32020496  0.24243306  0.56002538  1
  Cs  Cs2  1  0.82020496  0.25756694  0.93997462  1
  Cs  Cs3  1  0.67979504  0.75756694  0.43997462  1
  Cs  Cs4  1  0.12296766  0.00906732  0.81437064  1
  Cs  Cs5  1  0.37703234  0.50906732  0.31437064  1
  Cs  Cs6  1  0.87703234  0.99093268  0.18562936  1
  Cs  Cs7  1  0.62296766  0.49093268  0.68562936  1
  Cs  Cs8  1  0.61249639  0.98696505  0.68222572  1
  Cs  Cs9  1  0.88750361  0.48696505  0.18222572  1
  Cs  Cs10  1  0.38750361  0.01303495  0.31777428  1
  Cs  Cs11  1  0.11249639  0.51303495  0.81777428  1
  Fe  Fe12  1  -0.00000000  0.00000000  0.50000000  1
  Fe  Fe13  1  0.50000000  0.50000000  0.00000000  1
  Fe  Fe14  1  -0.00000000  0.50000000  0.50000000  1
  Fe  Fe15  1  0.50000000  0.00000000  0.00000000  1
  Mo  Mo16  1  0.27101236  0.89304727  0.55694904  1
  Mo  Mo17  1  0.22898764  0.39304727  0.05694904  1
  Mo  Mo18  1  0.72898764  0.10695273  0.44305096  1
  Mo  Mo19  1  0.77101236  0.60695273  0.94305096  1
  Mo  Mo20  1  0.29536768  0.59190870  0.56841343  1
  Mo  Mo21  1  0.20463232  0.09190870  0.06841343  1
  Mo  Mo22  1  0.70463232  0.40809130  0.43158657  1
  Mo  Mo23  1  0.79536768  0.90809130  0.93158657  1
  Mo  Mo24  1  0.93502394  0.24287660  0.62335640  1
  Mo  Mo25  1  0.56497606  0.74287660  0.12335640  1
  Mo  Mo26  1  0.06497606  0.75712340  0.37664360  1
  Mo  Mo27  1  0.43502394  0.25712340  0.87664360  1
  Mo  Mo28  1  0.97943986  0.74217627  0.64089402  1
  Mo  Mo29  1  0.52056014  0.24217627  0.14089402  1
  Mo  Mo30  1  0.02056014  0.25782373  0.35910598  1
  Mo  Mo31  1  0.47943986  0.75782373  0.85910598  1
  O  O32  1  0.42690805  0.88237116  0.51235428  1
  O  O33  1  0.07309195  0.38237116  0.01235428  1
  O  O34  1  0.57309195  0.11762884  0.48764572  1
  O  O35  1  0.92690805  0.61762884  0.98764572  1
  O  O36  1  0.29737819  0.96896234  0.65605368  1
  O  O37  1  0.20262181  0.46896234  0.15605368  1
  O  O38  1  0.70262181  0.03103766  0.34394632  1
  O  O39  1  0.79737819  0.53103766  0.84394632  1
  O  O40  1  0.19355816  0.00171472  0.48583418  1
  O  O41  1  0.30644184  0.50171472  0.98583418  1
  O  O42  1  0.80644184  0.99828528  0.51416582  1
  O  O43  1  0.69355816  0.49828528  0.01416582  1
  O  O44  1  0.24545656  0.73800898  0.60825727  1
  O  O45  1  0.25454344  0.23800898  0.10825727  1
  O  O46  1  0.75454344  0.26199102  0.39174273  1
  O  O47  1  0.74545656  0.76199102  0.89174273  1
  O  O48  1  0.04674165  0.86384638  0.57392542  1
  O  O49  1  0.45325835  0.36384638  0.07392542  1
  O  O50  1  0.95325835  0.13615362  0.42607458  1
  O  O51  1  0.54674165  0.63615362  0.92607458  1
  O  O52  1  0.22417837  0.76913900  0.42241093  1
  O  O53  1  0.27582163  0.26913900  0.92241093  1
  O  O54  1  0.77582163  0.23086100  0.57758907  1
  O  O55  1  0.72417837  0.73086100  0.07758907  1
  O  O56  1  0.44697296  0.60852651  0.51928677  1
  O  O57  1  0.05302704  0.10852651  0.01928677  1
  O  O58  1  0.55302704  0.39147349  0.48071323  1
  O  O59  1  0.94697296  0.89147349  0.98071323  1
  O  O60  1  0.31721896  0.50270283  0.66000528  1
  O  O61  1  0.18278104  0.00270283  0.16000528  1
  O  O62  1  0.68278104  0.49729717  0.33999472  1
  O  O63  1  0.81721896  0.99729717  0.83999472  1
  O  O64  1  0.19555663  0.51602837  0.48605917  1
  O  O65  1  0.30444337  0.01602837  0.98605917  1
  O  O66  1  0.80444337  0.48397163  0.51394083  1
  O  O67  1  0.69555663  0.98397163  0.01394083  1
  O  O68  1  0.92618006  0.27648372  0.73735713  1
  O  O69  1  0.57381994  0.77648372  0.23735713  1
  O  O70  1  0.07381994  0.72351628  0.26264287  1
  O  O71  1  0.42618006  0.22351628  0.76264287  1
  O  O72  1  0.02648887  0.35373098  0.56745908  1
  O  O73  1  0.47351113  0.85373098  0.06745908  1
  O  O74  1  0.97351113  0.64626902  0.43254092  1
  O  O75  1  0.52648887  0.14626902  0.93254092  1
  O  O76  1  0.01807029  0.10724857  0.60855416  1
  O  O77  1  0.48192971  0.60724857  0.10855416  1
  O  O78  1  0.98192971  0.89275143  0.39144584  1
  O  O79  1  0.51807029  0.39275143  0.89144584  1
  O  O80  1  0.81067146  0.75223599  0.63103003  1
  O  O81  1  0.68932854  0.25223599  0.13103003  1
  O  O82  1  0.18932854  0.24776401  0.36896997  1
  O  O83  1  0.31067146  0.74776401  0.86896997  1
  O  O84  1  0.02084293  0.76309074  0.75204397  1
  O  O85  1  0.47915707  0.26309074  0.25204397  1
  O  O86  1  0.97915707  0.23690926  0.24795603  1
  O  O87  1  0.52084293  0.73690926  0.74795603  1
  O  O88  1  0.02455348  0.59460223  0.61111696  1
  O  O89  1  0.47544652  0.09460223  0.11111696  1
  O  O90  1  0.97544652  0.40539777  0.38888304  1
  O  O91  1  0.52455348  0.90539777  0.88888304  1
