# generated using pymatgen
data_Na2ErPWO8
_symmetry_space_group_name_H-M   'P 1'
_cell_length_a   6.90383125
_cell_length_b   11.50897625
_cell_length_c   11.50897625
_cell_angle_alpha   63.98719476
_cell_angle_beta   72.54645550
_cell_angle_gamma   72.54645550
_symmetry_Int_Tables_number   1
_chemical_formula_structural   Na2ErPWO8
_chemical_formula_sum   'Na8 Er4 P4 W4 O32'
_cell_volume   768.71190729
_cell_formula_units_Z   4
loop_
 _symmetry_equiv_pos_site_id
 _symmetry_equiv_pos_as_xyz
  1  'x, y, z'
loop_
 _atom_site_type_symbol
 _atom_site_label
 _atom_site_symmetry_multiplicity
 _atom_site_fract_x
 _atom_site_fract_y
 _atom_site_fract_z
 _atom_site_occupancy
  Na  Na0  1  0.85728735  0.09248128  0.71385758  1
  Na  Na1  1  0.83637380  0.71385758  0.09248128  1
  Na  Na2  1  0.64271265  0.78614242  0.40751872  1
  Na  Na3  1  0.66362620  0.40751872  0.78614242  1
  Na  Na4  1  0.14271265  0.90751872  0.28614242  1
  Na  Na5  1  0.16362620  0.28614242  0.90751872  1
  Na  Na6  1  0.35728735  0.21385758  0.59248128  1
  Na  Na7  1  0.33637380  0.59248128  0.21385758  1
  Er  Er8  1  0.75000000  0.82259751  0.67740249  1
  Er  Er9  1  0.25000000  0.67740249  0.82259751  1
  Er  Er10  1  0.25000000  0.17740249  0.32259751  1
  Er  Er11  1  0.75000000  0.32259751  0.17740249  1
  P  P12  1  0.25000000  0.43046850  0.06953150  1
  P  P13  1  0.75000000  0.06953150  0.43046850  1
  P  P14  1  0.75000000  0.56953150  0.93046850  1
  P  P15  1  0.25000000  0.93046850  0.56953150  1
  W  W16  1  0.67694051  0.07305949  0.07305949  1
  W  W17  1  0.82305949  0.42694051  0.42694051  1
  W  W18  1  0.32305949  0.92694051  0.92694051  1
  W  W19  1  0.17694051  0.57305949  0.57305949  1
  O  O20  1  0.16748932  0.57418637  0.06093136  1
  O  O21  1  0.69739296  0.06093136  0.57418637  1
  O  O22  1  0.33251068  0.43906864  0.92581363  1
  O  O23  1  0.80260704  0.92581363  0.43906864  1
  O  O24  1  0.83251068  0.42581363  0.93906864  1
  O  O25  1  0.30260704  0.93906864  0.42581363  1
  O  O26  1  0.66748932  0.56093136  0.07418637  1
  O  O27  1  0.19739296  0.07418637  0.56093136  1
  O  O28  1  0.41709116  0.35868004  0.15742533  1
  O  O29  1  0.56680348  0.15742533  0.35868004  1
  O  O30  1  0.08290884  0.34257467  0.14131996  1
  O  O31  1  0.93319652  0.14131996  0.34257467  1
  O  O32  1  0.58290884  0.64131996  0.84257467  1
  O  O33  1  0.43319652  0.84257467  0.64131996  1
  O  O34  1  0.91709116  0.65742533  0.85868004  1
  O  O35  1  0.06680348  0.85868004  0.65742533  1
  O  O36  1  0.40718460  0.10438129  0.15652541  1
  O  O37  1  0.83190870  0.15652541  0.10438129  1
  O  O38  1  0.09281540  0.34347459  0.39561871  1
  O  O39  1  0.66809130  0.39561871  0.34347459  1
  O  O40  1  0.59281540  0.89561871  0.84347459  1
  O  O41  1  0.16809130  0.84347459  0.89561871  1
  O  O42  1  0.90718460  0.65652541  0.60438129  1
  O  O43  1  0.33190870  0.60438129  0.65652541  1
  O  O44  1  0.77625491  0.89773055  0.13775337  1
  O  O45  1  0.68826118  0.13775337  0.89773055  1
  O  O46  1  0.72374509  0.36224663  0.60226945  1
  O  O47  1  0.81173882  0.60226945  0.36224663  1
  O  O48  1  0.22374509  0.10226945  0.86224663  1
  O  O49  1  0.31173882  0.86224663  0.10226945  1
  O  O50  1  0.27625491  0.63775337  0.39773055  1
  O  O51  1  0.18826118  0.39773055  0.63775337  1
