# generated using pymatgen
data_Nb2Co4P3
_symmetry_space_group_name_H-M   'P 1'
_cell_length_a   3.60721692
_cell_length_b   11.91884128
_cell_length_c   11.91759917
_cell_angle_alpha   120.00344751
_cell_angle_beta   90.00000000
_cell_angle_gamma   90.00000000
_symmetry_Int_Tables_number   1
_chemical_formula_structural   Nb2Co4P3
_chemical_formula_sum   'Nb8 Co16 P12'
_cell_volume   443.72164452
_cell_formula_units_Z   4
loop_
 _symmetry_equiv_pos_site_id
 _symmetry_equiv_pos_as_xyz
  1  'x, y, z'
loop_
 _atom_site_type_symbol
 _atom_site_label
 _atom_site_symmetry_multiplicity
 _atom_site_fract_x
 _atom_site_fract_y
 _atom_site_fract_z
 _atom_site_occupancy
  Nb  Nb0  1  0.50000000  0.99996536  0.17605452  1
  Nb  Nb1  1  0.50000000  0.17616723  0.00000000  1
  Nb  Nb2  1  0.50000000  0.82391085  0.82394548  1
  Nb  Nb3  1  -0.00000000  0.33335267  0.66670881  1
  Nb  Nb4  1  -0.00000000  0.66664386  0.33329119  1
  Nb  Nb5  1  0.00000000  0.00000737  0.55231660  1
  Nb  Nb6  1  -0.00000000  0.55216238  0.00000000  1
  Nb  Nb7  1  0.00000000  0.44769077  0.44768340  1
  Co  Co8  1  0.50000000  0.00002366  0.72424809  1
  Co  Co9  1  0.50000000  0.72422548  1.00000000  1
  Co  Co10  1  0.50000000  0.27577557  0.27575191  1
  Co  Co11  1  -0.00000000  0.19191623  0.37059111  1
  Co  Co12  1  -0.00000000  0.17867966  0.80810072  1
  Co  Co13  1  0.00000000  0.62941464  0.82131880  1
  Co  Co14  1  0.00000000  0.82132512  0.62940889  1
  Co  Co15  1  -0.00000000  0.37057893  0.19189928  1
  Co  Co16  1  -0.00000000  0.80809584  0.17868120  1
  Co  Co17  1  0.50000000  0.12906279  0.48311494  1
  Co  Co18  1  0.50000000  0.35407210  0.87093775  1
  Co  Co19  1  0.50000000  0.51683730  0.64594284  1
  Co  Co20  1  0.50000000  0.64594785  0.51688506  1
  Co  Co21  1  0.50000000  0.48313435  0.12906225  1
  Co  Co22  1  0.50000000  0.87089446  0.35405716  1
  Co  Co23  1  -0.00000000  0.99992553  0.00000000  1
  P  P24  1  -0.00000000  0.00002047  0.82417810  1
  P  P25  1  -0.00000000  0.82416460  1.00000000  1
  P  P26  1  -0.00000000  0.17584237  0.17582190  1
  P  P27  1  0.50000000  0.31207813  0.48392400  1
  P  P28  1  0.50000000  0.17185387  0.68795379  1
  P  P29  1  0.50000000  0.51607724  0.82820830  1
  P  P30  1  0.50000000  0.82815413  0.51607600  1
  P  P31  1  0.50000000  0.48390007  0.31204621  1
  P  P32  1  0.50000000  0.68786894  0.17179170  1
  P  P33  1  -0.00000000  0.00002552  0.34975555  1
  P  P34  1  -0.00000000  0.34983468  1.00000000  1
  P  P35  1  -0.00000000  0.65026996  0.65024445  1
