# generated using pymatgen
data_Nb3Te4ClO15
_symmetry_space_group_name_H-M   'P 1'
_cell_length_a   8.01722524
_cell_length_b   10.45851122
_cell_length_c   19.69797861
_cell_angle_alpha   85.56184727
_cell_angle_beta   78.25807568
_cell_angle_gamma   67.46255648
_symmetry_Int_Tables_number   1
_chemical_formula_structural   Nb3Te4ClO15
_chemical_formula_sum   'Nb12 Te16 Cl4 O60'
_cell_volume   1493.58099749
_cell_formula_units_Z   4
loop_
 _symmetry_equiv_pos_site_id
 _symmetry_equiv_pos_as_xyz
  1  'x, y, z'
loop_
 _atom_site_type_symbol
 _atom_site_label
 _atom_site_symmetry_multiplicity
 _atom_site_fract_x
 _atom_site_fract_y
 _atom_site_fract_z
 _atom_site_occupancy
  Nb  Nb0  1  0.12731828  0.74023362  0.74723299  1
  Nb  Nb1  1  0.61478489  0.75976638  0.75276701  1
  Nb  Nb2  1  0.87268172  0.25976638  0.25276701  1
  Nb  Nb3  1  0.38521511  0.24023362  0.24723299  1
  Nb  Nb4  1  0.00394181  0.25435449  0.51000318  1
  Nb  Nb5  1  0.76829948  0.24564551  0.98999682  1
  Nb  Nb6  1  0.99605819  0.74564551  0.48999682  1
  Nb  Nb7  1  0.23170052  0.75435449  0.01000318  1
  Nb  Nb8  1  0.26713127  0.25157962  0.99460134  1
  Nb  Nb9  1  0.51331223  0.24842038  0.50539866  1
  Nb  Nb10  1  0.73286873  0.74842038  0.00539866  1
  Nb  Nb11  1  0.48668777  0.75157962  0.49460134  1
  Te  Te12  1  0.76905624  0.00307429  0.85614177  1
  Te  Te13  1  0.62827230  0.49692571  0.64385823  1
  Te  Te14  1  0.23094376  0.99692571  0.14385823  1
  Te  Te15  1  0.37172770  0.50307429  0.35614177  1
  Te  Te16  1  0.14346785  0.46606369  0.62469312  1
  Te  Te17  1  0.23422466  0.03393631  0.87530688  1
  Te  Te18  1  0.85653215  0.53393631  0.37530688  1
  Te  Te19  1  0.76577534  0.96606369  0.12469312  1
  Te  Te20  1  0.87448358  0.00141726  0.63644387  1
  Te  Te21  1  0.51234472  0.49858274  0.86355613  1
  Te  Te22  1  0.12551642  0.99858274  0.36355613  1
  Te  Te23  1  0.48765528  0.50141726  0.13644387  1
  Te  Te24  1  0.02711868  0.46528496  0.87097479  1
  Te  Te25  1  0.36337843  0.03471504  0.62902521  1
  Te  Te26  1  0.97288132  0.53471504  0.12902521  1
  Te  Te27  1  0.63662157  0.96528496  0.37097479  1
  Cl  Cl28  1  0.29414210  0.25000000  0.75000000  1
  Cl  Cl29  1  0.70585790  0.75000000  0.25000000  1
  Cl  Cl30  1  0.79161608  0.25000000  0.75000000  1
  Cl  Cl31  1  0.20838392  0.75000000  0.25000000  1
  O  O32  1  0.76158362  0.87567299  0.92966147  1
  O  O33  1  0.56691808  0.62432701  0.57033853  1
  O  O34  1  0.23841638  0.12432701  0.07033853  1
  O  O35  1  0.43308192  0.37567299  0.42966147  1
  O  O36  1  0.02328431  0.89865601  0.81787863  1
  O  O37  1  0.73981896  0.60134399  0.68212137  1
  O  O38  1  0.97671569  0.10134399  0.18212137  1
  O  O39  1  0.26018104  0.39865601  0.31787863  1
  O  O40  1  0.82959517  0.11827232  0.90766511  1
  O  O41  1  0.85553260  0.38172768  0.59233489  1
  O  O42  1  0.17040483  0.88172768  0.09233489  1
  O  O43  1  0.14446740  0.61827232  0.40766511  1
  O  O44  1  0.17251419  0.60530729  0.67342254  1
  O  O45  1  0.45124403  0.89469271  0.82657746  1
  O  O46  1  0.82748581  0.39469271  0.32657746  1
  O  O47  1  0.54875597  0.10530729  0.17342254  1
  O  O48  1  0.04824297  0.58457922  0.55158417  1
  O  O49  1  0.18440635  0.91542078  0.94841583  1
  O  O50  1  0.95175703  0.41542078  0.44841583  1
  O  O51  1  0.81559365  0.08457922  0.05158417  1
  O  O52  1  0.39442067  0.40617016  0.57847574  1
  O  O53  1  0.37906657  0.09382984  0.92152426  1
  O  O54  1  0.60557933  0.59382984  0.42152426  1
  O  O55  1  0.62093343  0.90617016  0.07847574  1
  O  O56  1  0.09116395  0.89035092  0.67269979  1
  O  O57  1  0.65421466  0.60964908  0.82730021  1
  O  O58  1  0.90883605  0.10964908  0.32730021  1
  O  O59  1  0.34578534  0.39035092  0.17269979  1
  O  O60  1  0.89427991  0.86817462  0.57124415  1
  O  O61  1  0.33369868  0.63182538  0.92875585  1
  O  O62  1  0.10572009  0.13182538  0.42875585  1
  O  O63  1  0.66630132  0.36817462  0.07124415  1
  O  O64  1  0.00820378  0.09074851  0.57486157  1
  O  O65  1  0.67381385  0.40925149  0.92513843  1
  O  O66  1  0.99179622  0.90925149  0.42513843  1
  O  O67  1  0.32618615  0.59074851  0.07486157  1
  O  O68  1  0.11078613  0.59910787  0.81917364  1
  O  O69  1  0.52906764  0.90089213  0.68082636  1
  O  O70  1  0.88921387  0.40089213  0.18082636  1
  O  O71  1  0.47093236  0.09910787  0.31917364  1
  O  O72  1  0.89012818  0.58823763  0.94586577  1
  O  O73  1  0.42423158  0.91176237  0.55413423  1
  O  O74  1  0.10987182  0.41176237  0.05413423  1
  O  O75  1  0.57576842  0.08823763  0.44586577  1
  O  O76  1  0.24390256  0.38696848  0.91018787  1
  O  O77  1  0.54105891  0.11303152  0.58981213  1
  O  O78  1  0.75609744  0.61303152  0.08981213  1
  O  O79  1  0.45894109  0.88696848  0.41018787  1
  O  O80  1  0.73910113  0.25248851  0.50240321  1
  O  O81  1  0.49399284  0.24751149  0.99759679  1
  O  O82  1  0.26089887  0.74751149  0.49759679  1
  O  O83  1  0.50600716  0.75248851  0.00240321  1
  O  O84  1  0.37088714  0.70837448  0.74701214  1
  O  O85  1  0.82627375  0.79162552  0.75298786  1
  O  O86  1  0.62911286  0.29162552  0.25298786  1
  O  O87  1  0.17372625  0.20837448  0.24701214  1
  O  O88  1  0.22196900  0.25043367  0.53436235  1
  O  O89  1  0.00676502  0.24956633  0.96563765  1
  O  O90  1  0.77803100  0.74956633  0.46563765  1
  O  O91  1  0.99323498  0.75043367  0.03436235  1
