# generated using pymatgen
data_CuH22C8N10O
_symmetry_space_group_name_H-M   'P 1'
_cell_length_a   15.94312163
_cell_length_b   15.94312163
_cell_length_c   13.97776213
_cell_angle_alpha   71.43083390
_cell_angle_beta   108.56916610
_cell_angle_gamma   154.00528014
_symmetry_Int_Tables_number   1
_chemical_formula_structural   CuH22C8N10O
_chemical_formula_sum   'Cu4 H88 C32 N40 O4'
_cell_volume   1471.68717323
_cell_formula_units_Z   4
loop_
 _symmetry_equiv_pos_site_id
 _symmetry_equiv_pos_as_xyz
  1  'x, y, z'
loop_
 _atom_site_type_symbol
 _atom_site_label
 _atom_site_symmetry_multiplicity
 _atom_site_fract_x
 _atom_site_fract_y
 _atom_site_fract_z
 _atom_site_occupancy
  Cu  Cu0  1  0.00000000  0.50000000  0.50000000  1
  Cu  Cu1  1  0.50000000  0.00000000  0.00000000  1
  Cu  Cu2  1  0.20568077  0.20568077  0.75000000  1
  Cu  Cu3  1  0.79431923  0.79431923  0.25000000  1
  H  H4  1  0.17857222  0.53213517  0.46579474  1
  H  H5  1  0.53213517  0.17857222  0.03420526  1
  H  H6  1  0.82142778  0.46786483  0.53420526  1
  H  H7  1  0.46786483  0.82142778  0.96579474  1
  H  H8  1  0.06852794  0.32965771  0.40519933  1
  H  H9  1  0.32965771  0.06852794  0.09480067  1
  H  H10  1  0.93147206  0.67034229  0.59480067  1
  H  H11  1  0.67034229  0.93147206  0.90519933  1
  H  H12  1  0.87158600  0.09509443  0.44910928  1
  H  H13  1  0.09509443  0.87158600  0.05089072  1
  H  H14  1  0.12841400  0.90490557  0.55089072  1
  H  H15  1  0.90490557  0.12841400  0.94910928  1
  H  H16  1  0.70418456  0.21723561  0.60709075  1
  H  H17  1  0.21723561  0.70418456  0.89290925  1
  H  H18  1  0.29581544  0.78276439  0.39290925  1
  H  H19  1  0.78276439  0.29581544  0.10709075  1
  H  H20  1  0.08499630  0.25742328  0.64897388  1
  H  H21  1  0.25742328  0.08499630  0.85102612  1
  H  H22  1  0.91500370  0.74257672  0.35102612  1
  H  H23  1  0.74257672  0.91500370  0.14897388  1
  H  H24  1  0.07037987  0.37753973  0.79395148  1
  H  H25  1  0.37753973  0.07037987  0.70604852  1
  H  H26  1  0.92962013  0.62246027  0.20604852  1
  H  H27  1  0.62246027  0.92962013  0.29395148  1
  H  H28  1  0.03209010  0.33503289  0.67442626  1
  H  H29  1  0.33503289  0.03209010  0.82557374  1
  H  H30  1  0.96790990  0.66496711  0.32557374  1
  H  H31  1  0.66496711  0.96790990  0.17442626  1
  H  H32  1  0.24272607  0.16807898  0.94338742  1
  H  H33  1  0.16807898  0.24272607  0.55661258  1
  H  H34  1  0.75727393  0.83192102  0.05661258  1
  H  H35  1  0.83192102  0.75727393  0.44338742  1
  H  H36  1  0.54272300  0.86106061  0.46552725  1
  H  H37  1  0.86106061  0.54272300  0.03447275  1
  H  H38  1  0.45727700  0.13893939  0.53447275  1
  H  H39  1  0.13893939  0.45727700  0.96552725  1
  H  H40  1  0.49271058  0.74174174  0.41694201  1
  H  H41  1  0.74174174  0.49271058  0.08305799  1
  H  H42  1  0.50728942  0.25825826  0.58305799  1
  H  H43  1  0.25825826  0.50728942  0.91694201  1
  H  H44  1  0.64589566  0.88586468  0.69173739  1
  H  H45  1  0.88586468  0.64589566  0.80826261  1
  H  H46  1  0.35410434  0.11413532  0.30826261  1
  H  H47  1  0.11413532  0.35410434  0.19173739  1
  H  H48  1  0.44749328  0.73190778  0.75316996  1
  H  H49  1  0.73190778  0.44749328  0.74683004  1
  H  H50  1  0.55250672  0.26809222  0.24683004  1
  H  H51  1  0.26809222  0.55250672  0.25316996  1
  H  H52  1  0.41077883  0.69494908  0.62767784  1
  H  H53  1  0.69494908  0.41077883  0.87232216  1
  H  H54  1  0.58922117  0.30505092  0.37232216  1
  H  H55  1  0.30505092  0.58922117  0.12767784  1
  H  H56  1  0.41697058  0.93455459  0.63538709  1
  H  H57  1  0.93455459  0.41697058  0.86461291  1
  H  H58  1  0.58302942  0.06544541  0.36461291  1
  H  H59  1  0.06544541  0.58302942  0.13538709  1
  H  H60  1  0.33383542  0.76400436  0.72533405  1
  H  H61  1  0.76400436  0.33383542  0.77466595  1
  H  H62  1  0.66616458  0.23599564  0.27466595  1
  H  H63  1  0.23599564  0.66616458  0.22533405  1
  H  H64  1  0.55634963  0.00833786  0.75323987  1
  H  H65  1  0.00833786  0.55634963  0.74676013  1
  H  H66  1  0.44365037  0.99166214  0.24676013  1
  H  H67  1  0.99166214  0.44365037  0.25323987  1
  H  H68  1  0.14824310  0.30685381  0.04943836  1
  H  H69  1  0.30685381  0.14824310  0.45056164  1
  H  H70  1  0.85175690  0.69314619  0.95056164  1
  H  H71  1  0.69314619  0.85175690  0.54943836  1
  H  H72  1  0.16120107  0.22799825  0.16311212  1
  H  H73  1  0.22799825  0.16120107  0.33688788  1
  H  H74  1  0.83879893  0.77200175  0.83688788  1
  H  H75  1  0.77200175  0.83879893  0.66311212  1
  H  H76  1  0.37534090  0.47698635  0.11857164  1
  H  H77  1  0.47698635  0.37534090  0.38142836  1
  H  H78  1  0.62465910  0.52301365  0.88142836  1
  H  H79  1  0.52301365  0.62465910  0.61857164  1
  H  H80  1  0.42738687  0.32228074  0.06338628  1
  H  H81  1  0.32228074  0.42738687  0.43661372  1
  H  H82  1  0.57261313  0.67771926  0.93661372  1
  H  H83  1  0.67771926  0.57261313  0.56338628  1
  H  H84  1  0.39736740  0.32647742  0.17132922  1
  H  H85  1  0.32647742  0.39736740  0.32867078  1
  H  H86  1  0.60263260  0.67352258  0.82867078  1
  H  H87  1  0.67352258  0.60263260  0.67132922  1
  H  H88  1  0.20044085  0.10207870  0.12002601  1
  H  H89  1  0.10207870  0.20044085  0.37997399  1
  H  H90  1  0.79955915  0.89792130  0.87997399  1
  H  H91  1  0.89792130  0.79955915  0.62002601  1
  C  C92  1  0.92433356  0.25172410  0.49486068  1
  C  C93  1  0.25172410  0.92433356  0.00513932  1
  C  C94  1  0.07566644  0.74827590  0.50513932  1
  C  C95  1  0.74827590  0.07566644  0.99486068  1
  C  C96  1  0.69478056  0.09415904  0.58142797  1
  C  C97  1  0.09415904  0.69478056  0.91857203  1
  C  C98  1  0.30521944  0.90584096  0.41857203  1
  C  C99  1  0.90584096  0.30521944  0.08142797  1
  C  C100  1  0.51252995  0.80532833  0.68077826  1
  C  C101  1  0.80532833  0.51252995  0.81922174  1
  C  C102  1  0.48747005  0.19467167  0.31922174  1
  C  C103  1  0.19467167  0.48747005  0.18077826  1
  C  C104  1  0.46243075  0.91177444  0.69204664  1
  C  C105  1  0.91177444  0.46243075  0.80795336  1
  C  C106  1  0.53756925  0.08822556  0.30795336  1
  C  C107  1  0.08822556  0.53756925  0.19204664  1
  C  C108  1  0.11304252  0.29147629  0.78615200  1
  C  C109  1  0.29147629  0.11304252  0.71384800  1
  C  C110  1  0.88695748  0.70852371  0.21384800  1
  C  C111  1  0.70852371  0.88695748  0.28615200  1
  C  C112  1  0.21325000  0.26678749  0.93703283  1
  C  C113  1  0.26678749  0.21325000  0.56296717  1
  C  C114  1  0.78675000  0.73321251  0.06296717  1
  C  C115  1  0.73321251  0.78675000  0.43703283  1
  C  C116  1  0.23622573  0.32878338  0.09522030  1
  C  C117  1  0.32878338  0.23622573  0.40477970  1
  C  C118  1  0.76377427  0.67121662  0.90477970  1
  C  C119  1  0.67121662  0.76377427  0.59522030  1
  C  C120  1  0.32328029  0.25669165  0.10076027  1
  C  C121  1  0.25669165  0.32328029  0.39923973  1
  C  C122  1  0.67671971  0.74330835  0.89923973  1
  C  C123  1  0.74330835  0.67671971  0.60076027  1
  N  N124  1  0.04983608  0.42829109  0.49049566  1
  N  N125  1  0.42829109  0.04983608  0.00950434  1
  N  N126  1  0.95016392  0.57170891  0.50950434  1
  N  N127  1  0.57170891  0.95016392  0.99049566  1
  N  N128  1  0.97910053  0.23142028  0.46188392  1
  N  N129  1  0.23142028  0.97910053  0.03811608  1
  N  N130  1  0.02089947  0.76857972  0.53811608  1
  N  N131  1  0.76857972  0.02089947  0.96188392  1
  N  N132  1  0.75249307  0.08830615  0.53429659  1
  N  N133  1  0.08830615  0.75249307  0.96570341  1
  N  N134  1  0.24750693  0.91169385  0.46570341  1
  N  N135  1  0.91169385  0.24750693  0.03429659  1
  N  N136  1  0.76386716  0.23687442  0.56587060  1
  N  N137  1  0.23687442  0.76386716  0.93412940  1
  N  N138  1  0.23613284  0.76312558  0.43412940  1
  N  N139  1  0.76312558  0.23613284  0.06587060  1
  N  N140  1  0.55339644  0.93606859  0.64577661  1
  N  N141  1  0.93606859  0.55339644  0.85422339  1
  N  N142  1  0.44660356  0.06393141  0.35422339  1
  N  N143  1  0.06393141  0.44660356  0.14577661  1
  N  N144  1  0.12895016  0.26071307  0.72168647  1
  N  N145  1  0.26071307  0.12895016  0.77831353  1
  N  N146  1  0.87104984  0.73928693  0.27831353  1
  N  N147  1  0.73928693  0.87104984  0.22168647  1
  N  N148  1  0.03606078  0.30752739  0.75026107  1
  N  N149  1  0.30752739  0.03606078  0.74973893  1
  N  N150  1  0.96393922  0.69247261  0.24973893  1
  N  N151  1  0.69247261  0.96393922  0.25026107  1
  N  N152  1  0.16246130  0.30751998  0.88721804  1
  N  N153  1  0.30751998  0.16246130  0.61278196  1
  N  N154  1  0.83753870  0.69248002  0.11278196  1
  N  N155  1  0.69248002  0.83753870  0.38721804  1
  N  N156  1  0.21726576  0.20730562  0.89363146  1
  N  N157  1  0.20730562  0.21726576  0.60636854  1
  N  N158  1  0.78273424  0.79269438  0.10636854  1
  N  N159  1  0.79269438  0.78273424  0.39363146  1
  N  N160  1  0.26261431  0.29122452  0.03924542  1
  N  N161  1  0.29122452  0.26261431  0.46075458  1
  N  N162  1  0.73738569  0.70877548  0.96075458  1
  N  N163  1  0.70877548  0.73738569  0.53924542  1
  O  O164  1  0.44457825  0.75604002  0.41917040  1
  O  O165  1  0.75604002  0.44457825  0.08082960  1
  O  O166  1  0.55542175  0.24395998  0.58082960  1
  O  O167  1  0.24395998  0.55542175  0.91917040  1
