# generated using pymatgen
data_Na2HoPWO8
_symmetry_space_group_name_H-M   'P 1'
_cell_length_a   6.93159607
_cell_length_b   11.52258425
_cell_length_c   11.52258425
_cell_angle_alpha   64.12206727
_cell_angle_beta   72.49535660
_cell_angle_gamma   72.49535660
_symmetry_Int_Tables_number   1
_chemical_formula_structural   Na2HoPWO8
_chemical_formula_sum   'Na8 Ho4 P4 W4 O32'
_cell_volume   774.11959388
_cell_formula_units_Z   4
loop_
 _symmetry_equiv_pos_site_id
 _symmetry_equiv_pos_as_xyz
  1  'x, y, z'
loop_
 _atom_site_type_symbol
 _atom_site_label
 _atom_site_symmetry_multiplicity
 _atom_site_fract_x
 _atom_site_fract_y
 _atom_site_fract_z
 _atom_site_occupancy
  Na  Na0  1  0.85761527  0.09331465  0.71276004  1
  Na  Na1  1  0.83631003  0.71276004  0.09331465  1
  Na  Na2  1  0.64238473  0.78723996  0.40668535  1
  Na  Na3  1  0.66368997  0.40668535  0.78723996  1
  Na  Na4  1  0.14238473  0.90668535  0.28723996  1
  Na  Na5  1  0.16368997  0.28723996  0.90668535  1
  Na  Na6  1  0.35761527  0.21276004  0.59331465  1
  Na  Na7  1  0.33631003  0.59331465  0.21276004  1
  Ho  Ho8  1  0.75000000  0.82267704  0.67732296  1
  Ho  Ho9  1  0.25000000  0.67732296  0.82267704  1
  Ho  Ho10  1  0.25000000  0.17732296  0.32267704  1
  Ho  Ho11  1  0.75000000  0.32267704  0.17732296  1
  P  P12  1  0.25000000  0.43040457  0.06959543  1
  P  P13  1  0.75000000  0.06959543  0.43040457  1
  P  P14  1  0.75000000  0.56959543  0.93040457  1
  P  P15  1  0.25000000  0.93040457  0.56959543  1
  W  W16  1  0.67764225  0.07235775  0.07235775  1
  W  W17  1  0.82235775  0.42764225  0.42764225  1
  W  W18  1  0.32235775  0.92764225  0.92764225  1
  W  W19  1  0.17764225  0.57235775  0.57235775  1
  O  O20  1  0.16718985  0.57397916  0.06149378  1
  O  O21  1  0.69733722  0.06149378  0.57397916  1
  O  O22  1  0.33281015  0.43850622  0.92602084  1
  O  O23  1  0.80266278  0.92602084  0.43850622  1
  O  O24  1  0.83281015  0.42602084  0.93850622  1
  O  O25  1  0.30266278  0.93850622  0.42602084  1
  O  O26  1  0.66718985  0.56149378  0.07397916  1
  O  O27  1  0.19733722  0.07397916  0.56149378  1
  O  O28  1  0.41646401  0.35919641  0.15725772  1
  O  O29  1  0.56708187  0.15725772  0.35919641  1
  O  O30  1  0.08353599  0.34274228  0.14080359  1
  O  O31  1  0.93291813  0.14080359  0.34274228  1
  O  O32  1  0.58353599  0.64080359  0.84274228  1
  O  O33  1  0.43291813  0.84274228  0.64080359  1
  O  O34  1  0.91646401  0.65725772  0.85919641  1
  O  O35  1  0.06708187  0.85919641  0.65725772  1
  O  O36  1  0.40856912  0.10379237  0.15595903  1
  O  O37  1  0.83167947  0.15595903  0.10379237  1
  O  O38  1  0.09143088  0.34404097  0.39620763  1
  O  O39  1  0.66832053  0.39620763  0.34404097  1
  O  O40  1  0.59143088  0.89620763  0.84404097  1
  O  O41  1  0.16832053  0.84404097  0.89620763  1
  O  O42  1  0.90856912  0.65595903  0.60379237  1
  O  O43  1  0.33167947  0.60379237  0.65595903  1
  O  O44  1  0.77736066  0.89729496  0.13705877  1
  O  O45  1  0.68828561  0.13705877  0.89729496  1
  O  O46  1  0.72263934  0.36294123  0.60270504  1
  O  O47  1  0.81171439  0.60270504  0.36294123  1
  O  O48  1  0.22263934  0.10270504  0.86294123  1
  O  O49  1  0.31171439  0.86294123  0.10270504  1
  O  O50  1  0.27736066  0.63705877  0.39729496  1
  O  O51  1  0.18828561  0.39729496  0.63705877  1
