# generated using pymatgen
data_K2TiF5
_symmetry_space_group_name_H-M   'P 1'
_cell_length_a   7.58933883
_cell_length_b   13.09006232
_cell_length_c   20.98014777
_cell_angle_alpha   90.00000000
_cell_angle_beta   90.00000000
_cell_angle_gamma   90.00000000
_symmetry_Int_Tables_number   1
_chemical_formula_structural   K2TiF5
_chemical_formula_sum   'K32 Ti16 F80'
_cell_volume   2084.27106513
_cell_formula_units_Z   16
loop_
 _symmetry_equiv_pos_site_id
 _symmetry_equiv_pos_as_xyz
  1  'x, y, z'
loop_
 _atom_site_type_symbol
 _atom_site_label
 _atom_site_symmetry_multiplicity
 _atom_site_fract_x
 _atom_site_fract_y
 _atom_site_fract_z
 _atom_site_occupancy
  K  K0  1  0.50000000  0.92984616  0.75000000  1
  K  K1  1  0.00000000  0.57015384  0.25000000  1
  K  K2  1  0.50000000  0.07015384  0.25000000  1
  K  K3  1  0.00000000  0.42984616  0.75000000  1
  K  K4  1  0.50982339  0.73359299  0.50589477  1
  K  K5  1  0.99017661  0.76640701  0.00589477  1
  K  K6  1  0.00982339  0.76640701  0.49410523  1
  K  K7  1  0.49017661  0.73359299  0.99410523  1
  K  K8  1  0.49017661  0.26640701  0.49410523  1
  K  K9  1  0.00982339  0.23359299  0.99410523  1
  K  K10  1  0.99017661  0.23359299  0.50589477  1
  K  K11  1  0.50982339  0.26640701  0.00589477  1
  K  K12  1  0.50000000  0.46382040  0.75000000  1
  K  K13  1  0.00000000  0.03617960  0.25000000  1
  K  K14  1  0.50000000  0.53617960  0.25000000  1
  K  K15  1  0.00000000  0.96382040  0.75000000  1
  K  K16  1  0.84781769  0.48333093  0.58295538  1
  K  K17  1  0.65218231  0.01666907  0.08295538  1
  K  K18  1  0.34781769  0.01666907  0.41704462  1
  K  K19  1  0.15218231  0.48333093  0.91704462  1
  K  K20  1  0.15218231  0.51666907  0.41704462  1
  K  K21  1  0.34781769  0.98333093  0.91704462  1
  K  K22  1  0.65218231  0.98333093  0.58295538  1
  K  K23  1  0.84781769  0.51666907  0.08295538  1
  K  K24  1  0.14422570  0.71418043  0.66421113  1
  K  K25  1  0.35577430  0.78581957  0.16421113  1
  K  K26  1  0.64422570  0.78581957  0.33578887  1
  K  K27  1  0.85577430  0.71418043  0.83578887  1
  K  K28  1  0.85577430  0.28581957  0.33578887  1
  K  K29  1  0.64422570  0.21418043  0.83578887  1
  K  K30  1  0.35577430  0.21418043  0.66421113  1
  K  K31  1  0.14422570  0.28581957  0.16421113  1
  Ti  Ti32  1  0.66174290  0.69865437  0.67179004  1
  Ti  Ti33  1  0.83825710  0.80134563  0.17179004  1
  Ti  Ti34  1  0.16174290  0.80134563  0.32820996  1
  Ti  Ti35  1  0.33825710  0.69865437  0.82820996  1
  Ti  Ti36  1  0.33825710  0.30134563  0.32820996  1
  Ti  Ti37  1  0.16174290  0.19865437  0.82820996  1
  Ti  Ti38  1  0.83825710  0.19865437  0.67179004  1
  Ti  Ti39  1  0.66174290  0.30134563  0.17179004  1
  Ti  Ti40  1  0.33467267  0.50038965  0.57682597  1
  Ti  Ti41  1  0.16532733  0.99961035  0.07682597  1
  Ti  Ti42  1  0.83467267  0.99961035  0.42317403  1
  Ti  Ti43  1  0.66532733  0.50038965  0.92317403  1
  Ti  Ti44  1  0.66532733  0.49961035  0.42317403  1
  Ti  Ti45  1  0.83467267  0.00038965  0.92317403  1
  Ti  Ti46  1  0.16532733  0.00038965  0.57682597  1
  Ti  Ti47  1  0.33467267  0.49961035  0.07682597  1
  F  F48  1  0.22373916  0.62491071  0.53876300  1
  F  F49  1  0.27626084  0.87508929  0.03876300  1
  F  F50  1  0.72373916  0.87508929  0.46123700  1
  F  F51  1  0.77626084  0.62491071  0.96123700  1
  F  F52  1  0.77626084  0.37508929  0.46123700  1
  F  F53  1  0.72373916  0.12491071  0.96123700  1
  F  F54  1  0.27626084  0.12491071  0.53876300  1
  F  F55  1  0.22373916  0.37508929  0.03876300  1
  F  F56  1  0.79434312  0.58119037  0.70345947  1
  F  F57  1  0.70565688  0.91880963  0.20345947  1
  F  F58  1  0.29434312  0.91880963  0.29654053  1
  F  F59  1  0.20565688  0.58119037  0.79654053  1
  F  F60  1  0.20565688  0.41880963  0.29654053  1
  F  F61  1  0.29434312  0.08119037  0.79654053  1
  F  F62  1  0.70565688  0.08119037  0.70345947  1
  F  F63  1  0.79434312  0.41880963  0.20345947  1
  F  F64  1  0.17306566  0.41321685  0.53022048  1
  F  F65  1  0.32693434  0.08678315  0.03022048  1
  F  F66  1  0.67306566  0.08678315  0.46977952  1
  F  F67  1  0.82693434  0.41321685  0.96977952  1
  F  F68  1  0.82693434  0.58678315  0.46977952  1
  F  F69  1  0.67306566  0.91321685  0.96977952  1
  F  F70  1  0.32693434  0.91321685  0.53022048  1
  F  F71  1  0.17306566  0.58678315  0.03022048  1
  F  F72  1  0.80045101  0.79903036  0.72233515  1
  F  F73  1  0.69954899  0.70096964  0.22233515  1
  F  F74  1  0.30045101  0.70096964  0.27766485  1
  F  F75  1  0.19954899  0.79903036  0.77766485  1
  F  F76  1  0.19954899  0.20096964  0.27766485  1
  F  F77  1  0.30045101  0.29903036  0.77766485  1
  F  F78  1  0.69954899  0.29903036  0.72233515  1
  F  F79  1  0.80045101  0.20096964  0.22233515  1
  F  F80  1  0.81564039  0.70152022  0.59637325  1
  F  F81  1  0.68435961  0.79847978  0.09637325  1
  F  F82  1  0.31564039  0.79847978  0.40362675  1
  F  F83  1  0.18435961  0.70152022  0.90362675  1
  F  F84  1  0.18435961  0.29847978  0.40362675  1
  F  F85  1  0.31564039  0.20152022  0.90362675  1
  F  F86  1  0.68435961  0.20152022  0.59637325  1
  F  F87  1  0.81564039  0.29847978  0.09637325  1
  F  F88  1  0.50964278  0.80481308  0.64032541  1
  F  F89  1  0.99035722  0.69518692  0.14032541  1
  F  F90  1  0.00964278  0.69518692  0.35967459  1
  F  F91  1  0.49035722  0.80481308  0.85967459  1
  F  F92  1  0.49035722  0.19518692  0.35967459  1
  F  F93  1  0.00964278  0.30481308  0.85967459  1
  F  F94  1  0.99035722  0.30481308  0.64032541  1
  F  F95  1  0.50964278  0.19518692  0.14032541  1
  F  F96  1  0.46885750  0.38907769  0.61322332  1
  F  F97  1  0.03114250  0.11092231  0.11322332  1
  F  F98  1  0.96885750  0.11092231  0.38677668  1
  F  F99  1  0.53114250  0.38907769  0.88677668  1
  F  F100  1  0.53114250  0.61092231  0.38677668  1
  F  F101  1  0.96885750  0.88907769  0.88677668  1
  F  F102  1  0.03114250  0.88907769  0.61322332  1
  F  F103  1  0.46885750  0.61092231  0.11322332  1
  F  F104  1  0.17728965  0.51097923  0.65181015  1
  F  F105  1  0.32271035  0.98902077  0.15181015  1
  F  F106  1  0.67728965  0.98902077  0.34818985  1
  F  F107  1  0.82271035  0.51097923  0.84818985  1
  F  F108  1  0.82271035  0.48902077  0.34818985  1
  F  F109  1  0.67728965  0.01097923  0.84818985  1
  F  F110  1  0.32271035  0.01097923  0.65181015  1
  F  F111  1  0.17728965  0.48902077  0.15181015  1
  F  F112  1  0.50000000  0.68370371  0.75000000  1
  F  F113  1  0.00000000  0.81629629  0.25000000  1
  F  F114  1  0.50000000  0.31629629  0.25000000  1
  F  F115  1  0.00000000  0.18370371  0.75000000  1
  F  F116  1  0.50000000  0.50000000  0.50000000  1
  F  F117  1  0.00000000  0.00000000  0.00000000  1
  F  F118  1  0.00000000  0.00000000  0.50000000  1
  F  F119  1  0.50000000  0.50000000  0.00000000  1
  F  F120  1  0.50417177  0.59684358  0.62276559  1
  F  F121  1  0.99582823  0.90315642  0.12276559  1
  F  F122  1  0.00417177  0.90315642  0.37723441  1
  F  F123  1  0.49582823  0.59684358  0.87723441  1
  F  F124  1  0.49582823  0.40315642  0.37723441  1
  F  F125  1  0.00417177  0.09684358  0.87723441  1
  F  F126  1  0.99582823  0.09684358  0.62276559  1
  F  F127  1  0.50417177  0.40315642  0.12276559  1
