# generated using pymatgen
data_Hg3H6Pt(NCl4)2
_symmetry_space_group_name_H-M   'P 1'
_cell_length_a   6.70992481
_cell_length_b   10.24539504
_cell_length_c   13.29172705
_cell_angle_alpha   97.77100704
_cell_angle_beta   90.00000000
_cell_angle_gamma   109.11471439
_symmetry_Int_Tables_number   1
_chemical_formula_structural   Hg3H6Pt(NCl4)2
_chemical_formula_sum   'Hg6 H12 Pt2 N4 Cl16'
_cell_volume   854.48487436
_cell_formula_units_Z   2
loop_
 _symmetry_equiv_pos_site_id
 _symmetry_equiv_pos_as_xyz
  1  'x, y, z'
loop_
 _atom_site_type_symbol
 _atom_site_label
 _atom_site_symmetry_multiplicity
 _atom_site_fract_x
 _atom_site_fract_y
 _atom_site_fract_z
 _atom_site_occupancy
  Hg  Hg0  1  0.00000000  0.00000000  0.50000000  1
  Hg  Hg1  1  0.00000000  0.00000000  -0.00000000  1
  Hg  Hg2  1  0.81659991  0.60368999  0.57978587  1
  Hg  Hg3  1  0.21290992  0.39631001  0.92021413  1
  Hg  Hg4  1  0.18340009  0.39631001  0.42021413  1
  Hg  Hg5  1  0.78709008  0.60368999  0.07978587  1
  H  H6  1  0.24473204  0.75965837  0.28129198  1
  H  H7  1  0.48507367  0.24034163  0.21870802  1
  H  H8  1  0.75526796  0.24034163  0.71870802  1
  H  H9  1  0.51492633  0.75965837  0.78129198  1
  H  H10  1  0.44198259  0.82394088  0.20687258  1
  H  H11  1  0.61804171  0.17605912  0.29312742  1
  H  H12  1  0.55801741  0.17605912  0.79312742  1
  H  H13  1  0.38195829  0.82394088  0.70687258  1
  H  H14  1  0.46823396  0.87692592  0.33125980  1
  H  H15  1  0.59130804  0.12307408  0.16874020  1
  H  H16  1  0.53176604  0.12307408  0.66874020  1
  H  H17  1  0.40869196  0.87692592  0.83125980  1
  Pt  Pt18  1  0.22939490  1.00000000  0.25000000  1
  Pt  Pt19  1  0.77060510  0.00000000  0.75000000  1
  N  N20  1  0.36377330  0.84862993  0.26930643  1
  N  N21  1  0.51514338  0.15137007  0.23069357  1
  N  N22  1  0.63622670  0.15137007  0.73069357  1
  N  N23  1  0.48485662  0.84862993  0.76930643  1
  Cl  Cl24  1  0.77577853  0.12502911  0.46659998  1
  Cl  Cl25  1  0.65074942  0.87497089  0.03340002  1
  Cl  Cl26  1  0.22422147  0.87497089  0.53340002  1
  Cl  Cl27  1  0.34925058  0.12502911  0.96659998  1
  Cl  Cl28  1  0.58648172  0.69808370  0.50755171  1
  Cl  Cl29  1  0.88839802  0.30191630  0.99244829  1
  Cl  Cl30  1  0.41351828  0.30191630  0.49244829  1
  Cl  Cl31  1  0.11160198  0.69808370  0.00755171  1
  Cl  Cl32  1  0.02539664  0.49255801  0.64959074  1
  Cl  Cl33  1  0.53283863  0.50744199  0.85040926  1
  Cl  Cl34  1  0.97460336  0.50744199  0.35040926  1
  Cl  Cl35  1  0.46716137  0.49255801  0.14959074  1
  Cl  Cl36  1  0.90786248  0.83458776  0.27264996  1
  Cl  Cl37  1  0.07327472  0.16541224  0.22735004  1
  Cl  Cl38  1  0.09213752  0.16541224  0.72735004  1
  Cl  Cl39  1  0.92672528  0.83458776  0.77264996  1
