# generated using pymatgen
data_Rb2ZnP4(HO2)8
_symmetry_space_group_name_H-M   'P 1'
_cell_length_a   7.05193750
_cell_length_b   7.48160079
_cell_length_c   7.78482701
_cell_angle_alpha   82.44288448
_cell_angle_beta   72.01351703
_cell_angle_gamma   86.68253586
_symmetry_Int_Tables_number   1
_chemical_formula_structural   Rb2ZnP4(HO2)8
_chemical_formula_sum   'Rb2 Zn1 P4 H8 O16'
_cell_volume   387.19536115
_cell_formula_units_Z   1
loop_
 _symmetry_equiv_pos_site_id
 _symmetry_equiv_pos_as_xyz
  1  'x, y, z'
loop_
 _atom_site_type_symbol
 _atom_site_label
 _atom_site_symmetry_multiplicity
 _atom_site_fract_x
 _atom_site_fract_y
 _atom_site_fract_z
 _atom_site_occupancy
  Rb  Rb0  1  0.40373509  0.28205872  0.21106510  1
  Rb  Rb1  1  0.59626491  0.71794128  0.78893490  1
  Zn  Zn2  1  -0.00000000  0.50000000  -0.00000000  1
  P  P3  1  0.73941673  0.80112478  0.25071778  1
  P  P4  1  0.26058327  0.19887522  0.74928222  1
  P  P5  1  0.15078813  0.74093917  0.25918611  1
  P  P6  1  0.84921187  0.25906083  0.74081389  1
  H  H7  1  0.42250434  0.73787595  0.41128880  1
  H  H8  1  0.57749566  0.26212405  0.58871120  1
  H  H9  1  0.22980115  0.96924233  0.04123151  1
  H  H10  1  0.77019885  0.03075767  0.95876849  1
  H  H11  1  0.88340595  0.30832325  0.35119606  1
  H  H12  1  0.11659405  0.69167675  0.64880394  1
  H  H13  1  0.88527992  0.17664449  0.20492609  1
  H  H14  1  0.11472008  0.82335551  0.79507391  1
  O  O15  1  0.74570827  0.65351499  0.13320495  1
  O  O16  1  0.25429173  0.34648501  0.86679505  1
  O  O17  1  0.55258547  0.78819978  0.42423126  1
  O  O18  1  0.44741453  0.21180022  0.57576874  1
  O  O19  1  0.76472496  0.99328081  0.15282435  1
  O  O20  1  0.23527504  0.00671919  0.84717565  1
  O  O21  1  0.91245337  0.76576547  0.35091079  1
  O  O22  1  0.08754663  0.23423453  0.64908921  1
  O  O23  1  0.19079166  0.61780599  0.11149685  1
  O  O24  1  0.80920834  0.38219401  0.88850315  1
  O  O25  1  0.22897411  0.67484852  0.41796446  1
  O  O26  1  0.77102589  0.32515148  0.58203554  1
  O  O27  1  0.23442433  0.93442913  0.17450372  1
  O  O28  1  0.76557567  0.06557087  0.82549628  1
  O  O29  1  0.94799289  0.28535716  0.22288907  1
  O  O30  1  0.05200711  0.71464284  0.77711093  1
