# generated using pymatgen
data_Na3BiH8O7
_symmetry_space_group_name_H-M   'P 1'
_cell_length_a   6.92083490
_cell_length_b   7.52388665
_cell_length_c   8.45813668
_cell_angle_alpha   94.56270554
_cell_angle_beta   89.32292936
_cell_angle_gamma   115.50870508
_symmetry_Int_Tables_number   1
_chemical_formula_structural   Na3BiH8O7
_chemical_formula_sum   'Na6 Bi2 H16 O14'
_cell_volume   396.11248118
_cell_formula_units_Z   2
loop_
 _symmetry_equiv_pos_site_id
 _symmetry_equiv_pos_as_xyz
  1  'x, y, z'
loop_
 _atom_site_type_symbol
 _atom_site_label
 _atom_site_symmetry_multiplicity
 _atom_site_fract_x
 _atom_site_fract_y
 _atom_site_fract_z
 _atom_site_occupancy
  Na  Na0  1  0.79772857  0.87591250  0.37543475  1
  Na  Na1  1  0.20227143  0.12408750  0.62456525  1
  Na  Na2  1  0.68904723  0.14802531  0.64040167  1
  Na  Na3  1  0.31095277  0.85197469  0.35959833  1
  Na  Na4  1  0.05309910  0.36660287  0.36384069  1
  Na  Na5  1  0.94690090  0.63339713  0.63615931  1
  Bi  Bi6  1  0.54352757  0.37868204  0.32823320  1
  Bi  Bi7  1  0.45647243  0.62131796  0.67176680  1
  H  H8  1  0.03962636  0.35387303  0.75620624  1
  H  H9  1  0.96037364  0.64612697  0.24379376  1
  H  H10  1  0.67549957  0.08427827  0.23342377  1
  H  H11  1  0.32450043  0.91572173  0.76657623  1
  H  H12  1  0.84904241  0.94355872  0.76002136  1
  H  H13  1  0.15095759  0.05644128  0.23997864  1
  H  H14  1  0.18399336  0.53747791  0.08142088  1
  H  H15  1  0.81600664  0.46252209  0.91857912  1
  H  H16  1  0.99212567  0.32363371  0.03012333  1
  H  H17  1  0.00787433  0.67636629  0.96987667  1
  H  H18  1  0.64727838  0.18879037  0.96089019  1
  H  H19  1  0.35272162  0.81120963  0.03910981  1
  H  H20  1  0.76697172  0.74841466  0.02532832  1
  H  H21  1  0.23302828  0.25158534  0.97467168  1
  H  H22  1  0.78024561  0.96486154  0.02138511  1
  H  H23  1  0.21975439  0.03513846  0.97861489  1
  O  O24  1  0.09109474  0.38760413  0.64876964  1
  O  O25  1  0.90890526  0.61239587  0.35123036  1
  O  O26  1  0.56568237  0.38069730  0.57665255  1
  O  O27  1  0.43431763  0.61930270  0.42334745  1
  O  O28  1  0.66976507  0.13002507  0.34445533  1
  O  O29  1  0.33023493  0.86997493  0.65554467  1
  O  O30  1  0.81451655  0.88479768  0.65041173  1
  O  O31  1  0.18548345  0.11520232  0.34958827  1
  O  O32  1  0.14075696  0.39334200  0.08679361  1
  O  O33  1  0.85924304  0.60665800  0.91320639  1
  O  O34  1  0.78772773  0.20853911  0.92203623  1
  O  O35  1  0.21227227  0.79146089  0.07796377  1
  O  O36  1  0.74512126  0.85572725  0.09041429  1
  O  O37  1  0.25487874  0.14427275  0.90958571  1
