# generated using pymatgen
data_In10(Pb2S7)3
_symmetry_space_group_name_H-M   'P 1'
_cell_length_a   3.91399298
_cell_length_b   14.13573932
_cell_length_c   15.93985646
_cell_angle_alpha   95.16540751
_cell_angle_beta   90.00000022
_cell_angle_gamma   97.95776682
_symmetry_Int_Tables_number   1
_chemical_formula_structural   In10(Pb2S7)3
_chemical_formula_sum   'In10 Pb6 S21'
_cell_volume   869.79850091
_cell_formula_units_Z   1
loop_
 _symmetry_equiv_pos_site_id
 _symmetry_equiv_pos_as_xyz
  1  'x, y, z'
loop_
 _atom_site_type_symbol
 _atom_site_label
 _atom_site_symmetry_multiplicity
 _atom_site_fract_x
 _atom_site_fract_y
 _atom_site_fract_z
 _atom_site_occupancy
  In  In0  1  0.68782164  0.37564329  0.48461815  1
  In  In1  1  0.31217836  0.62435671  0.51538185  1
  In  In2  1  0.78510112  0.57020224  0.30794524  1
  In  In3  1  0.21489888  0.42979776  0.69205476  1
  In  In4  1  0.26467461  0.52934921  0.10764548  1
  In  In5  1  0.73532539  0.47065079  0.89235452  1
  In  In6  1  0.51336326  0.02672652  0.12898542  1
  In  In7  1  0.48663674  0.97327348  0.87101458  1
  In  In8  1  0.90047384  0.80094769  0.01876894  1
  In  In9  1  0.09952616  0.19905231  0.98123106  1
  Pb  Pb10  1  0.92561945  0.85123890  0.29409468  1
  Pb  Pb11  1  0.07438055  0.14876110  0.70590532  1
  Pb  Pb12  1  0.04959636  0.09919273  0.43185103  1
  Pb  Pb13  1  0.95040364  0.90080727  0.56814897  1
  Pb  Pb14  1  0.13704267  0.27408535  0.24136141  1
  Pb  Pb15  1  0.86295733  0.72591465  0.75863859  1
  S  S16  1  0.00000000  0.00000000  0.00000000  1
  S  S17  1  0.02596235  0.05192469  0.23604736  1
  S  S18  1  0.97403765  0.94807531  0.76395264  1
  S  S19  1  0.32754332  0.65508664  0.23861606  1
  S  S20  1  0.67245668  0.34491336  0.76138394  1
  S  S21  1  0.23606616  0.47213231  0.40203953  1
  S  S22  1  0.76393384  0.52786769  0.59796047  1
  S  S23  1  0.42133713  0.84267426  0.12650932  1
  S  S24  1  0.57866287  0.15732574  0.87349068  1
  S  S25  1  0.60214314  0.20428628  0.09572704  1
  S  S26  1  0.39785686  0.79571372  0.90427296  1
  S  S27  1  0.61812809  0.23625618  0.36740469  1
  S  S28  1  0.38187191  0.76374382  0.63259531  1
  S  S29  1  0.46503728  0.93007457  0.40702928  1
  S  S30  1  0.53496272  0.06992543  0.59297072  1
  S  S31  1  0.80449338  0.60898676  0.02388711  1
  S  S32  1  0.19550662  0.39101324  0.97611289  1
  S  S33  1  0.71878641  0.43757281  0.18777793  1
  S  S34  1  0.28121359  0.56242719  0.81222207  1
  S  S35  1  0.84942280  0.69884559  0.43507922  1
  S  S36  1  0.15057720  0.30115441  0.56492078  1
