# generated using pymatgen
data_Ba2VTe4HO13
_symmetry_space_group_name_H-M   'P 1'
_cell_length_a   7.43893349
_cell_length_b   11.02033503
_cell_length_c   16.84782155
_cell_angle_alpha   94.80433420
_cell_angle_beta   90.00000000
_cell_angle_gamma   90.00000000
_symmetry_Int_Tables_number   1
_chemical_formula_structural   Ba2VTe4HO13
_chemical_formula_sum   'Ba8 V4 Te16 H4 O52'
_cell_volume   1376.32392273
_cell_formula_units_Z   4
loop_
 _symmetry_equiv_pos_site_id
 _symmetry_equiv_pos_as_xyz
  1  'x, y, z'
loop_
 _atom_site_type_symbol
 _atom_site_label
 _atom_site_symmetry_multiplicity
 _atom_site_fract_x
 _atom_site_fract_y
 _atom_site_fract_z
 _atom_site_occupancy
  Ba  Ba0  1  0.26817952  0.74700650  0.69621628  1
  Ba  Ba1  1  0.23182048  0.24700650  0.19621628  1
  Ba  Ba2  1  0.73182048  0.25299350  0.30378372  1
  Ba  Ba3  1  0.76817952  0.75299350  0.80378372  1
  Ba  Ba4  1  0.23528752  0.89038980  0.96349362  1
  Ba  Ba5  1  0.26471248  0.39038980  0.46349362  1
  Ba  Ba6  1  0.76471248  0.10961020  0.03650638  1
  Ba  Ba7  1  0.73528752  0.60961020  0.53650638  1
  V  V8  1  0.74994322  0.40670445  0.89412403  1
  V  V9  1  0.75005678  0.90670445  0.39412403  1
  V  V10  1  0.25005678  0.59329555  0.10587597  1
  V  V11  1  0.24994322  0.09329555  0.60587597  1
  Te  Te12  1  0.14816004  0.55421740  0.89475676  1
  Te  Te13  1  0.35183996  0.05421740  0.39475676  1
  Te  Te14  1  0.85183996  0.44578260  0.10524324  1
  Te  Te15  1  0.64816004  0.94578260  0.60524324  1
  Te  Te16  1  0.01997615  0.42398279  0.68717840  1
  Te  Te17  1  0.48002385  0.92398279  0.18717840  1
  Te  Te18  1  0.98002385  0.57601721  0.31282160  1
  Te  Te19  1  0.51997615  0.07601721  0.81282160  1
  Te  Te20  1  0.48256561  0.41282023  0.71850702  1
  Te  Te21  1  0.01743439  0.91282023  0.21850702  1
  Te  Te22  1  0.51743439  0.58717977  0.28149298  1
  Te  Te23  1  0.98256561  0.08717977  0.78149298  1
  Te  Te24  1  0.76736046  0.27432472  0.53326476  1
  Te  Te25  1  0.73263954  0.77432472  0.03326476  1
  Te  Te26  1  0.23263954  0.72567528  0.46673524  1
  Te  Te27  1  0.26736046  0.22567528  0.96673524  1
  H  H28  1  0.96334919  0.12684215  0.44660763  1
  H  H29  1  0.53665081  0.62684215  0.94660763  1
  H  H30  1  0.03665081  0.87315785  0.55339237  1
  H  H31  1  0.46334919  0.37315785  0.05339237  1
  O  O32  1  0.15064053  0.70313757  0.85053877  1
  O  O33  1  0.34935947  0.20313757  0.35053877  1
  O  O34  1  0.84935947  0.29686243  0.14946123  1
  O  O35  1  0.65064053  0.79686243  0.64946123  1
  O  O36  1  0.88501990  0.55214862  0.90258015  1
  O  O37  1  0.61498010  0.05214862  0.40258015  1
  O  O38  1  0.11498010  0.44785138  0.09741985  1
  O  O39  1  0.38501990  0.94785138  0.59741985  1
  O  O40  1  0.15800196  0.44433379  0.79983840  1
  O  O41  1  0.34199804  0.94433379  0.29983840  1
  O  O42  1  0.84199804  0.55566621  0.20016160  1
  O  O43  1  0.65800196  0.05566621  0.70016160  1
  O  O44  1  0.95968978  0.58780342  0.68660949  1
  O  O45  1  0.54031022  0.08780342  0.18660949  1
  O  O46  1  0.04031022  0.41219658  0.31339051  1
  O  O47  1  0.45968978  0.91219658  0.81339051  1
  O  O48  1  0.26580703  0.43991823  0.64570966  1
  O  O49  1  0.23419297  0.93991823  0.14570966  1
  O  O50  1  0.73419297  0.56008177  0.35429034  1
  O  O51  1  0.76580703  0.06008177  0.85429034  1
  O  O52  1  0.63661754  0.40232425  0.62701319  1
  O  O53  1  0.86338246  0.90232425  0.12701319  1
  O  O54  1  0.36338246  0.59767575  0.37298681  1
  O  O55  1  0.13661754  0.09767575  0.87298681  1
  O  O56  1  0.51754793  0.57872766  0.74459024  1
  O  O57  1  0.98245207  0.07872766  0.24459024  1
  O  O58  1  0.48245207  0.42127234  0.25540976  1
  O  O59  1  0.01754793  0.92127234  0.75540976  1
  O  O60  1  0.95976399  0.39156712  0.56072879  1
  O  O61  1  0.54023601  0.89156712  0.06072879  1
  O  O62  1  0.04023601  0.60843288  0.43927121  1
  O  O63  1  0.45976399  0.10843288  0.93927121  1
  O  O64  1  0.93865116  0.21421543  0.44182617  1
  O  O65  1  0.56134884  0.71421543  0.94182617  1
  O  O66  1  0.06134884  0.78578457  0.55817383  1
  O  O67  1  0.43865116  0.28578457  0.05817383  1
  O  O68  1  0.64501955  0.36406368  0.46193725  1
  O  O69  1  0.85498045  0.86406368  0.96193725  1
  O  O70  1  0.35498045  0.63593632  0.53806275  1
  O  O71  1  0.14501955  0.13593632  0.03806275  1
  O  O72  1  0.75266612  0.34574006  0.79591204  1
  O  O73  1  0.74733388  0.84574006  0.29591204  1
  O  O74  1  0.24733388  0.65425994  0.20408796  1
  O  O75  1  0.25266612  0.15425994  0.70408796  1
  O  O76  1  0.84783392  0.31599694  0.96111443  1
  O  O77  1  0.65216608  0.81599694  0.46111443  1
  O  O78  1  0.15216608  0.68400306  0.03888557  1
  O  O79  1  0.34783392  0.18400306  0.53888557  1
  O  O80  1  0.53491715  0.44252380  0.91806888  1
  O  O81  1  0.96508285  0.94252380  0.41806888  1
  O  O82  1  0.46508285  0.55747620  0.08193112  1
  O  O83  1  0.03491715  0.05747620  0.58193112  1
