# generated using pymatgen
data_Er2Mo3H2Se2O17
_symmetry_space_group_name_H-M   'P 1'
_cell_length_a   6.83018605
_cell_length_b   7.28713652
_cell_length_c   14.32592521
_cell_angle_alpha   90.00000000
_cell_angle_beta   99.59482865
_cell_angle_gamma   90.00000000
_symmetry_Int_Tables_number   1
_chemical_formula_structural   Er2Mo3H2Se2O17
_chemical_formula_sum   'Er4 Mo6 H4 Se4 O34'
_cell_volume   703.06247169
_cell_formula_units_Z   2
loop_
 _symmetry_equiv_pos_site_id
 _symmetry_equiv_pos_as_xyz
  1  'x, y, z'
loop_
 _atom_site_type_symbol
 _atom_site_label
 _atom_site_symmetry_multiplicity
 _atom_site_fract_x
 _atom_site_fract_y
 _atom_site_fract_z
 _atom_site_occupancy
  Er  Er0  1  0.61005418  0.75000000  0.54151426  1
  Er  Er1  1  0.38994582  0.25000000  0.45848574  1
  Er  Er2  1  0.25845659  0.75000000  0.12259619  1
  Er  Er3  1  0.74154341  0.25000000  0.87740381  1
  Mo  Mo4  1  0.79176820  0.99572622  0.13708379  1
  Mo  Mo5  1  0.20823180  0.49572622  0.86291621  1
  Mo  Mo6  1  0.20823180  0.00427378  0.86291621  1
  Mo  Mo7  1  0.79176820  0.50427378  0.13708379  1
  Mo  Mo8  1  0.87238789  0.25000000  0.33283943  1
  Mo  Mo9  1  0.12761211  0.75000000  0.66716057  1
  H  H10  1  0.75242856  0.64335027  0.36236184  1
  H  H11  1  0.24757144  0.14335027  0.63763816  1
  H  H12  1  0.24757144  0.35664973  0.63763816  1
  H  H13  1  0.75242856  0.85664973  0.36236184  1
  Se  Se14  1  0.21145236  0.75000000  0.38215821  1
  Se  Se15  1  0.78854764  0.25000000  0.61784179  1
  Se  Se16  1  0.25644704  0.25000000  0.18953758  1
  Se  Se17  1  0.74355296  0.75000000  0.81046242  1
  O  O18  1  0.35183699  0.92706104  0.44456671  1
  O  O19  1  0.64816301  0.42706104  0.55543329  1
  O  O20  1  0.64816301  0.07293896  0.55543329  1
  O  O21  1  0.35183699  0.57293896  0.44456671  1
  O  O22  1  0.28945727  0.75000000  0.27485882  1
  O  O23  1  0.71054273  0.25000000  0.72514118  1
  O  O24  1  0.20204170  0.25000000  0.30201829  1
  O  O25  1  0.79795830  0.75000000  0.69798171  1
  O  O26  1  0.11815438  0.05979683  0.14219798  1
  O  O27  1  0.88184562  0.55979683  0.85780202  1
  O  O28  1  0.88184562  0.94020317  0.85780202  1
  O  O29  1  0.11815438  0.44020317  0.14219798  1
  O  O30  1  0.91041543  0.75000000  0.12789221  1
  O  O31  1  0.08958457  0.25000000  0.87210779  1
  O  O32  1  0.76350190  0.06766745  0.01781841  1
  O  O33  1  0.23649810  0.56766745  0.98218159  1
  O  O34  1  0.23649810  0.93233255  0.98218159  1
  O  O35  1  0.76350190  0.43233255  0.01781841  1
  O  O36  1  0.54757720  0.92514628  0.14423171  1
  O  O37  1  0.45242280  0.42514628  0.85576829  1
  O  O38  1  0.45242280  0.07485372  0.85576829  1
  O  O39  1  0.54757720  0.57485372  0.14423171  1
  O  O40  1  0.87785865  0.00271560  0.28645236  1
  O  O41  1  0.12214135  0.50271560  0.71354764  1
  O  O42  1  0.12214135  0.99728440  0.71354764  1
  O  O43  1  0.87785865  0.49728440  0.28645236  1
  O  O44  1  0.76985010  0.25000000  0.17770430  1
  O  O45  1  0.23014990  0.75000000  0.82229570  1
  O  O46  1  0.63095357  0.25000000  0.36415154  1
  O  O47  1  0.36904643  0.75000000  0.63584846  1
  O  O48  1  0.03104176  0.25000000  0.44381239  1
  O  O49  1  0.96895824  0.75000000  0.55618761  1
  O  O50  1  0.69988997  0.75000000  0.39278413  1
  O  O51  1  0.30011003  0.25000000  0.60721587  1
