# generated using pymatgen
data_Cu3P4(SBr)3
_symmetry_space_group_name_H-M   'P 1'
_cell_length_a   6.65795167
_cell_length_b   9.93680416
_cell_length_c   18.88676794
_cell_angle_alpha   90.00000000
_cell_angle_beta   90.00000000
_cell_angle_gamma   90.00000000
_symmetry_Int_Tables_number   1
_chemical_formula_structural   Cu3P4(SBr)3
_chemical_formula_sum   'Cu12 P16 S12 Br12'
_cell_volume   1249.52518229
_cell_formula_units_Z   4
loop_
 _symmetry_equiv_pos_site_id
 _symmetry_equiv_pos_as_xyz
  1  'x, y, z'
loop_
 _atom_site_type_symbol
 _atom_site_label
 _atom_site_symmetry_multiplicity
 _atom_site_fract_x
 _atom_site_fract_y
 _atom_site_fract_z
 _atom_site_occupancy
  Cu  Cu0  1  0.49986043  0.25000000  0.86656490  1
  Cu  Cu1  1  0.00013957  0.25000000  0.36656490  1
  Cu  Cu2  1  0.50013957  0.75000000  0.13343510  1
  Cu  Cu3  1  0.99986043  0.75000000  0.63343510  1
  Cu  Cu4  1  0.99129302  0.98096803  0.18317909  1
  Cu  Cu5  1  0.50870698  0.51903197  0.68317909  1
  Cu  Cu6  1  0.00870698  0.48096803  0.81682091  1
  Cu  Cu7  1  0.49129302  0.01903197  0.31682091  1
  Cu  Cu8  1  0.00870698  0.01903197  0.81682091  1
  Cu  Cu9  1  0.49129302  0.48096803  0.31682091  1
  Cu  Cu10  1  0.99129302  0.51903197  0.18317909  1
  Cu  Cu11  1  0.50870698  0.98096803  0.68317909  1
  P  P12  1  0.59695192  0.25000000  0.97796542  1
  P  P13  1  0.90304808  0.25000000  0.47796542  1
  P  P14  1  0.40304808  0.75000000  0.02203458  1
  P  P15  1  0.09695192  0.75000000  0.52203458  1
  P  P16  1  0.84866488  0.13441650  0.11374762  1
  P  P17  1  0.65133512  0.36558350  0.61374762  1
  P  P18  1  0.15133512  0.63441650  0.88625238  1
  P  P19  1  0.34866488  0.86558350  0.38625238  1
  P  P20  1  0.15133512  0.86558350  0.88625238  1
  P  P21  1  0.34866488  0.63441650  0.38625238  1
  P  P22  1  0.84866488  0.36558350  0.11374762  1
  P  P23  1  0.65133512  0.13441650  0.61374762  1
  P  P24  1  0.57769007  0.25000000  0.15197343  1
  P  P25  1  0.92230993  0.25000000  0.65197343  1
  P  P26  1  0.42230993  0.75000000  0.84802657  1
  P  P27  1  0.07769007  0.75000000  0.34802657  1
  S  S28  1  0.38806699  0.25000000  0.06323552  1
  S  S29  1  0.11193301  0.25000000  0.56323552  1
  S  S30  1  0.61193301  0.75000000  0.93676448  1
  S  S31  1  0.88806699  0.75000000  0.43676448  1
  S  S32  1  0.78186162  0.08597165  0.00798545  1
  S  S33  1  0.71813838  0.41402835  0.50798545  1
  S  S34  1  0.21813838  0.58597165  0.99201455  1
  S  S35  1  0.28186162  0.91402835  0.49201455  1
  S  S36  1  0.21813838  0.91402835  0.99201455  1
  S  S37  1  0.28186162  0.58597165  0.49201455  1
  S  S38  1  0.78186162  0.41402835  0.00798545  1
  S  S39  1  0.71813838  0.08597165  0.50798545  1
  Br  Br40  1  0.64021236  0.04712237  0.80439797  1
  Br  Br41  1  0.85978764  0.45287763  0.30439797  1
  Br  Br42  1  0.35978764  0.54712237  0.19560203  1
  Br  Br43  1  0.14021236  0.95287763  0.69560203  1
  Br  Br44  1  0.35978764  0.95287763  0.19560203  1
  Br  Br45  1  0.14021236  0.54712237  0.69560203  1
  Br  Br46  1  0.64021236  0.45287763  0.80439797  1
  Br  Br47  1  0.85978764  0.04712237  0.30439797  1
  Br  Br48  1  0.86712729  0.75000000  0.14954154  1
  Br  Br49  1  0.63287271  0.75000000  0.64954154  1
  Br  Br50  1  0.13287271  0.25000000  0.85045846  1
  Br  Br51  1  0.36712729  0.25000000  0.35045846  1
