# generated using pymatgen
data_Lu2Ni17
_symmetry_space_group_name_H-M   'P 1'
_cell_length_a   7.99995330
_cell_length_b   8.21435827
_cell_length_c   8.21435827
_cell_angle_alpha   119.99859834
_cell_angle_beta   90.00000000
_cell_angle_gamma   90.00000000
_symmetry_Int_Tables_number   1
_chemical_formula_structural   Lu2Ni17
_chemical_formula_sum   'Lu4 Ni34'
_cell_volume   467.48911029
_cell_formula_units_Z   2
loop_
 _symmetry_equiv_pos_site_id
 _symmetry_equiv_pos_as_xyz
  1  'x, y, z'
loop_
 _atom_site_type_symbol
 _atom_site_label
 _atom_site_symmetry_multiplicity
 _atom_site_fract_x
 _atom_site_fract_y
 _atom_site_fract_z
 _atom_site_occupancy
  Lu  Lu0  1  0.75000000  0.99994216  0.00005784  1
  Lu  Lu1  1  0.25000000  0.00005784  0.99994216  1
  Lu  Lu2  1  0.25000000  0.66665739  0.33334261  1
  Lu  Lu3  1  0.75000000  0.33334261  0.66665739  1
  Ni  Ni4  1  0.60190535  0.66665516  0.33334484  1
  Ni  Ni5  1  0.39809465  0.33334484  0.66665516  1
  Ni  Ni6  1  0.10190535  0.33334484  0.66665516  1
  Ni  Ni7  1  0.89809465  0.66665516  0.33334484  1
  Ni  Ni8  1  0.50000000  0.50000000  0.00000000  1
  Ni  Ni9  1  0.50000000  0.50000000  0.50000000  1
  Ni  Ni10  1  0.50000000  -0.00000000  0.50000000  1
  Ni  Ni11  1  -0.00000000  0.50000000  0.00000000  1
  Ni  Ni12  1  -0.00000000  0.50000000  0.50000000  1
  Ni  Ni13  1  -0.00000000  -0.00000000  0.50000000  1
  Ni  Ni14  1  0.75000000  0.67223589  0.03804512  1
  Ni  Ni15  1  0.75000000  0.36566888  0.32772911  1
  Ni  Ni16  1  0.75000000  0.96208624  0.63435793  1
  Ni  Ni17  1  0.75000000  0.36564207  0.03791376  1
  Ni  Ni18  1  0.75000000  0.96195488  0.32776411  1
  Ni  Ni19  1  0.75000000  0.67227089  0.63433112  1
  Ni  Ni20  1  0.25000000  0.32776411  0.96195488  1
  Ni  Ni21  1  0.25000000  0.63433112  0.67227089  1
  Ni  Ni22  1  0.25000000  0.03791376  0.36564207  1
  Ni  Ni23  1  0.25000000  0.63435793  0.96208624  1
  Ni  Ni24  1  0.25000000  0.03804512  0.67223589  1
  Ni  Ni25  1  0.25000000  0.32772911  0.36566888  1
  Ni  Ni26  1  0.48069367  0.83475108  0.66945971  1
  Ni  Ni27  1  0.48069044  0.83480434  0.16519566  1
  Ni  Ni28  1  0.48069367  0.33054029  0.16524892  1
  Ni  Ni29  1  0.51930633  0.16524892  0.33054029  1
  Ni  Ni30  1  0.51930956  0.16519566  0.83480434  1
  Ni  Ni31  1  0.51930633  0.66945971  0.83475108  1
  Ni  Ni32  1  0.98069367  0.16524892  0.33054029  1
  Ni  Ni33  1  0.98069044  0.16519566  0.83480434  1
  Ni  Ni34  1  0.98069367  0.66945971  0.83475108  1
  Ni  Ni35  1  0.01930633  0.83475108  0.66945971  1
  Ni  Ni36  1  0.01930956  0.83480434  0.16519566  1
  Ni  Ni37  1  0.01930633  0.33054029  0.16524892  1
