# generated using pymatgen
data_Ba20Hg103
_symmetry_space_group_name_H-M   'P 1'
_cell_length_a   17.15726120
_cell_length_b   17.15726120
_cell_length_c   17.15726120
_cell_angle_alpha   60.00000000
_cell_angle_beta   60.00000000
_cell_angle_gamma   60.00000000
_symmetry_Int_Tables_number   1
_chemical_formula_structural   Ba20Hg103
_chemical_formula_sum   'Ba20 Hg103'
_cell_volume   3571.32102815
_cell_formula_units_Z   1
loop_
 _symmetry_equiv_pos_site_id
 _symmetry_equiv_pos_as_xyz
  1  'x, y, z'
loop_
 _atom_site_type_symbol
 _atom_site_label
 _atom_site_symmetry_multiplicity
 _atom_site_fract_x
 _atom_site_fract_y
 _atom_site_fract_z
 _atom_site_occupancy
  Ba  Ba0  1  0.78574710  0.40475097  0.40475097  1
  Ba  Ba1  1  0.40475097  0.78574710  0.40475097  1
  Ba  Ba2  1  0.40475097  0.40475097  0.78574710  1
  Ba  Ba3  1  0.40475097  0.40475097  0.40475097  1
  Ba  Ba4  1  0.52543218  0.15818927  0.15818927  1
  Ba  Ba5  1  0.15818927  0.52543218  0.15818927  1
  Ba  Ba6  1  0.15818927  0.15818927  0.52543218  1
  Ba  Ba7  1  0.15818927  0.15818927  0.15818927  1
  Ba  Ba8  1  0.18348004  0.81651996  0.81651996  1
  Ba  Ba9  1  0.18348004  0.81651996  0.18348004  1
  Ba  Ba10  1  0.18348004  0.18348004  0.81651996  1
  Ba  Ba11  1  0.81651996  0.18348004  0.18348004  1
  Ba  Ba12  1  0.81651996  0.18348004  0.81651996  1
  Ba  Ba13  1  0.81651996  0.81651996  0.18348004  1
  Ba  Ba14  1  0.55510698  0.94489302  0.94489302  1
  Ba  Ba15  1  0.55510698  0.94489302  0.55510698  1
  Ba  Ba16  1  0.55510698  0.55510698  0.94489302  1
  Ba  Ba17  1  0.94489302  0.55510698  0.55510698  1
  Ba  Ba18  1  0.94489302  0.55510698  0.94489302  1
  Ba  Ba19  1  0.94489302  0.94489302  0.55510698  1
  Hg  Hg20  1  0.89349037  0.17391815  0.57986568  1
  Hg  Hg21  1  0.89349037  0.57986568  0.35272580  1
  Hg  Hg22  1  0.89349037  0.35272580  0.17391815  1
  Hg  Hg23  1  0.89349037  0.17391815  0.35272580  1
  Hg  Hg24  1  0.89349037  0.57986568  0.17391815  1
  Hg  Hg25  1  0.89349037  0.35272580  0.57986568  1
  Hg  Hg26  1  0.17391815  0.89349037  0.35272580  1
  Hg  Hg27  1  0.57986568  0.89349037  0.17391815  1
  Hg  Hg28  1  0.35272580  0.89349037  0.57986568  1
  Hg  Hg29  1  0.17391815  0.89349037  0.57986568  1
  Hg  Hg30  1  0.57986568  0.89349037  0.35272580  1
  Hg  Hg31  1  0.35272580  0.89349037  0.17391815  1
  Hg  Hg32  1  0.57986568  0.35272580  0.89349037  1
  Hg  Hg33  1  0.35272580  0.17391815  0.89349037  1
  Hg  Hg34  1  0.17391815  0.57986568  0.89349037  1
  Hg  Hg35  1  0.35272580  0.57986568  0.89349037  1
  Hg  Hg36  1  0.17391815  0.35272580  0.89349037  1
  Hg  Hg37  1  0.57986568  0.17391815  0.89349037  1
  Hg  Hg38  1  0.35272580  0.57986568  0.17391815  1
  Hg  Hg39  1  0.17391815  0.35272580  0.57986568  1
  Hg  Hg40  1  0.57986568  0.17391815  0.35272580  1
  Hg  Hg41  1  0.57986568  0.35272580  0.17391815  1
  Hg  Hg42  1  0.35272580  0.17391815  0.57986568  1
  Hg  Hg43  1  0.17391815  0.57986568  0.35272580  1
  Hg  Hg44  1  0.03230543  0.20492660  0.38138399  1
  Hg  Hg45  1  0.03230543  0.38138399  0.38138399  1
  Hg  Hg46  1  0.03230543  0.38138399  0.20492660  1
  Hg  Hg47  1  0.20492660  0.03230543  0.38138399  1
  Hg  Hg48  1  0.38138399  0.03230543  0.20492660  1
  Hg  Hg49  1  0.38138399  0.03230543  0.38138399  1
  Hg  Hg50  1  0.38138399  0.38138399  0.03230543  1
  Hg  Hg51  1  0.38138399  0.20492660  0.03230543  1
  Hg  Hg52  1  0.20492660  0.38138399  0.03230543  1
  Hg  Hg53  1  0.38138399  0.38138399  0.20492660  1
  Hg  Hg54  1  0.20492660  0.38138399  0.38138399  1
  Hg  Hg55  1  0.38138399  0.20492660  0.38138399  1
  Hg  Hg56  1  0.28669308  0.69849251  0.00740720  1
  Hg  Hg57  1  0.28669308  0.00740720  0.00740720  1
  Hg  Hg58  1  0.28669308  0.00740720  0.69849251  1
  Hg  Hg59  1  0.69849251  0.28669308  0.00740720  1
  Hg  Hg60  1  0.00740720  0.28669308  0.69849251  1
  Hg  Hg61  1  0.00740720  0.28669308  0.00740720  1
  Hg  Hg62  1  0.00740720  0.00740720  0.28669308  1
  Hg  Hg63  1  0.00740720  0.69849251  0.28669308  1
  Hg  Hg64  1  0.69849251  0.00740720  0.28669308  1
  Hg  Hg65  1  0.00740720  0.00740720  0.69849251  1
  Hg  Hg66  1  0.69849251  0.00740720  0.00740720  1
  Hg  Hg67  1  0.00740720  0.69849251  0.00740720  1
  Hg  Hg68  1  0.73045981  0.18015453  0.54469283  1
  Hg  Hg69  1  0.73045981  0.54469283  0.54469283  1
  Hg  Hg70  1  0.73045981  0.54469283  0.18015453  1
  Hg  Hg71  1  0.18015453  0.73045981  0.54469283  1
  Hg  Hg72  1  0.54469283  0.73045981  0.18015453  1
  Hg  Hg73  1  0.54469283  0.73045981  0.54469283  1
  Hg  Hg74  1  0.54469283  0.54469283  0.73045981  1
  Hg  Hg75  1  0.54469283  0.18015453  0.73045981  1
  Hg  Hg76  1  0.18015453  0.54469283  0.73045981  1
  Hg  Hg77  1  0.54469283  0.54469283  0.18015453  1
  Hg  Hg78  1  0.18015453  0.54469283  0.54469283  1
  Hg  Hg79  1  0.54469283  0.18015453  0.54469283  1
  Hg  Hg80  1  0.60339599  0.79886800  0.79886800  1
  Hg  Hg81  1  0.79886800  0.60339599  0.79886800  1
  Hg  Hg82  1  0.79886800  0.79886800  0.60339599  1
  Hg  Hg83  1  0.79886800  0.79886800  0.79886800  1
  Hg  Hg84  1  0.97944547  0.67351818  0.67351818  1
  Hg  Hg85  1  0.67351818  0.97944547  0.67351818  1
  Hg  Hg86  1  0.67351818  0.67351818  0.97944547  1
  Hg  Hg87  1  0.67351818  0.67351818  0.67351818  1
  Hg  Hg88  1  0.36275008  0.54574997  0.54574997  1
  Hg  Hg89  1  0.54574997  0.36275008  0.54574997  1
  Hg  Hg90  1  0.54574997  0.54574997  0.36275008  1
  Hg  Hg91  1  0.54574997  0.54574997  0.54574997  1
  Hg  Hg92  1  0.14594498  0.95135167  0.95135167  1
  Hg  Hg93  1  0.95135167  0.14594498  0.95135167  1
  Hg  Hg94  1  0.95135167  0.95135167  0.14594498  1
  Hg  Hg95  1  0.95135167  0.95135167  0.95135167  1
  Hg  Hg96  1  0.77969843  0.07343386  0.07343386  1
  Hg  Hg97  1  0.07343386  0.77969843  0.07343386  1
  Hg  Hg98  1  0.07343386  0.07343386  0.77969843  1
  Hg  Hg99  1  0.07343386  0.07343386  0.07343386  1
  Hg  Hg100  1  0.43919897  0.04324031  0.75878036  1
  Hg  Hg101  1  0.43919897  0.75878036  0.75878036  1
  Hg  Hg102  1  0.43919897  0.75878036  0.04324031  1
  Hg  Hg103  1  0.04324031  0.43919897  0.75878036  1
  Hg  Hg104  1  0.75878036  0.43919897  0.04324031  1
  Hg  Hg105  1  0.75878036  0.43919897  0.75878036  1
  Hg  Hg106  1  0.75878036  0.75878036  0.43919897  1
  Hg  Hg107  1  0.75878036  0.04324031  0.43919897  1
  Hg  Hg108  1  0.04324031  0.75878036  0.43919897  1
  Hg  Hg109  1  0.75878036  0.75878036  0.04324031  1
  Hg  Hg110  1  0.04324031  0.75878036  0.75878036  1
  Hg  Hg111  1  0.75878036  0.04324031  0.75878036  1
  Hg  Hg112  1  0.32336737  0.67663263  0.67663263  1
  Hg  Hg113  1  0.32336737  0.67663263  0.32336737  1
  Hg  Hg114  1  0.32336737  0.32336737  0.67663263  1
  Hg  Hg115  1  0.67663263  0.32336737  0.32336737  1
  Hg  Hg116  1  0.67663263  0.32336737  0.67663263  1
  Hg  Hg117  1  0.67663263  0.67663263  0.32336737  1
  Hg  Hg118  1  0.25000000  0.25000000  0.25000000  1
  Hg  Hg119  1  0.37091862  0.87636046  0.87636046  1
  Hg  Hg120  1  0.87636046  0.37091862  0.87636046  1
  Hg  Hg121  1  0.87636046  0.87636046  0.37091862  1
  Hg  Hg122  1  0.87636046  0.87636046  0.87636046  1
