# generated using pymatgen
data_K2H6PtC4N4O3
_symmetry_space_group_name_H-M   'P 1'
_cell_length_a   13.48519761
_cell_length_b   11.88421319
_cell_length_c   6.98029472
_cell_angle_alpha   90.00000000
_cell_angle_beta   90.00000000
_cell_angle_gamma   90.00000000
_symmetry_Int_Tables_number   1
_chemical_formula_structural   K2H6PtC4N4O3
_chemical_formula_sum   'K8 H24 Pt4 C16 N16 O12'
_cell_volume   1118.66875599
_cell_formula_units_Z   4
loop_
 _symmetry_equiv_pos_site_id
 _symmetry_equiv_pos_as_xyz
  1  'x, y, z'
loop_
 _atom_site_type_symbol
 _atom_site_label
 _atom_site_symmetry_multiplicity
 _atom_site_fract_x
 _atom_site_fract_y
 _atom_site_fract_z
 _atom_site_occupancy
  K  K0  1  0.34383992  0.85979450  0.79582229  1
  K  K1  1  0.15616008  0.64020550  0.29582229  1
  K  K2  1  0.84383992  0.64020550  0.20417771  1
  K  K3  1  0.65616008  0.85979450  0.70417771  1
  K  K4  1  0.65616008  0.14020550  0.20417771  1
  K  K5  1  0.84383992  0.35979450  0.70417771  1
  K  K6  1  0.15616008  0.35979450  0.79582229  1
  K  K7  1  0.34383992  0.14020550  0.29582229  1
  H  H8  1  0.01193775  0.58113101  0.85460053  1
  H  H9  1  0.48806225  0.91886899  0.35460053  1
  H  H10  1  0.51193775  0.91886899  0.14539947  1
  H  H11  1  0.98806225  0.58113101  0.64539947  1
  H  H12  1  0.98806225  0.41886899  0.14539947  1
  H  H13  1  0.51193775  0.08113101  0.64539947  1
  H  H14  1  0.48806225  0.08113101  0.85460053  1
  H  H15  1  0.01193775  0.41886899  0.35460053  1
  H  H16  1  0.21946950  0.64052880  0.76086117  1
  H  H17  1  0.28053050  0.85947120  0.26086117  1
  H  H18  1  0.71946950  0.85947120  0.23913883  1
  H  H19  1  0.78053050  0.64052880  0.73913883  1
  H  H20  1  0.78053050  0.35947120  0.23913883  1
  H  H21  1  0.71946950  0.14052880  0.73913883  1
  H  H22  1  0.28053050  0.14052880  0.76086117  1
  H  H23  1  0.21946950  0.35947120  0.26086117  1
  H  H24  1  0.14009878  0.73210298  0.74045667  1
  H  H25  1  0.35990122  0.76789702  0.24045667  1
  H  H26  1  0.64009878  0.76789702  0.25954333  1
  H  H27  1  0.85990122  0.73210298  0.75954333  1
  H  H28  1  0.85990122  0.26789702  0.25954333  1
  H  H29  1  0.64009878  0.23210298  0.75954333  1
  H  H30  1  0.35990122  0.23210298  0.74045667  1
  H  H31  1  0.14009878  0.26789702  0.24045667  1
  Pt  Pt32  1  0.00000000  0.00000000  0.50000000  1
  Pt  Pt33  1  0.50000000  0.50000000  0.00000000  1
  Pt  Pt34  1  0.50000000  0.50000000  0.50000000  1
  Pt  Pt35  1  0.00000000  0.00000000  0.00000000  1
  C  C36  1  0.97980431  0.83398673  0.50029584  1
  C  C37  1  0.52019569  0.66601327  0.00029584  1
  C  C38  1  0.47980431  0.66601327  0.49970416  1
  C  C39  1  0.02019569  0.83398673  0.99970416  1
  C  C40  1  0.02019569  0.16601327  0.49970416  1
  C  C41  1  0.47980431  0.33398673  0.99970416  1
  C  C42  1  0.52019569  0.33398673  0.50029584  1
  C  C43  1  0.97980431  0.16601327  0.00029584  1
  C  C44  1  0.14578944  0.97571201  0.48405379  1
  C  C45  1  0.35421056  0.52428799  0.98405379  1
  C  C46  1  0.64578944  0.52428799  0.51594621  1
  C  C47  1  0.85421056  0.97571201  0.01594621  1
  C  C48  1  0.85421056  0.02428799  0.51594621  1
  C  C49  1  0.64578944  0.47571201  0.01594621  1
  C  C50  1  0.35421056  0.47571201  0.48405379  1
  C  C51  1  0.14578944  0.02428799  0.98405379  1
  N  N52  1  0.97000704  0.73566428  0.50101404  1
  N  N53  1  0.52999296  0.76433572  0.00101404  1
  N  N54  1  0.47000704  0.76433572  0.49898596  1
  N  N55  1  0.02999296  0.73566428  0.99898596  1
  N  N56  1  0.02999296  0.26433572  0.49898596  1
  N  N57  1  0.47000704  0.23566428  0.99898596  1
  N  N58  1  0.52999296  0.23566428  0.50101404  1
  N  N59  1  0.97000704  0.26433572  0.00101404  1
  N  N60  1  0.23196176  0.96131322  0.47330605  1
  N  N61  1  0.26803824  0.53868678  0.97330605  1
  N  N62  1  0.73196176  0.53868678  0.52669395  1
  N  N63  1  0.76803824  0.96131322  0.02669395  1
  N  N64  1  0.76803824  0.03868678  0.52669395  1
  N  N65  1  0.73196176  0.46131322  0.02669395  1
  N  N66  1  0.26803824  0.46131322  0.47330605  1
  N  N67  1  0.23196176  0.03868678  0.97330605  1
  O  O68  1  0.00000000  0.52759217  0.75000000  1
  O  O69  1  0.50000000  0.97240783  0.25000000  1
  O  O70  1  0.00000000  0.47240783  0.25000000  1
  O  O71  1  0.50000000  0.02759217  0.75000000  1
  O  O72  1  0.19991343  0.70426536  0.67842823  1
  O  O73  1  0.30008657  0.79573464  0.17842823  1
  O  O74  1  0.69991343  0.79573464  0.32157177  1
  O  O75  1  0.80008657  0.70426536  0.82157177  1
  O  O76  1  0.80008657  0.29573464  0.32157177  1
  O  O77  1  0.69991343  0.20426536  0.82157177  1
  O  O78  1  0.30008657  0.20426536  0.67842823  1
  O  O79  1  0.19991343  0.29573464  0.17842823  1
