# generated using pymatgen
data_Tb2Co7
_symmetry_space_group_name_H-M   'P 1'
_cell_length_a   4.96444650
_cell_length_b   4.96444650
_cell_length_c   12.36065375
_cell_angle_alpha   78.41528921
_cell_angle_beta   78.41528921
_cell_angle_gamma   59.99999250
_symmetry_Int_Tables_number   1
_chemical_formula_structural   Tb2Co7
_chemical_formula_sum   'Tb4 Co14'
_cell_volume   256.63278485
_cell_formula_units_Z   2
loop_
 _symmetry_equiv_pos_site_id
 _symmetry_equiv_pos_as_xyz
  1  'x, y, z'
loop_
 _atom_site_type_symbol
 _atom_site_label
 _atom_site_symmetry_multiplicity
 _atom_site_fract_x
 _atom_site_fract_y
 _atom_site_fract_z
 _atom_site_occupancy
  Tb  Tb0  1  0.05181649  0.05181649  0.84455052  1
  Tb  Tb1  1  0.94818351  0.94818351  0.15544948  1
  Tb  Tb2  1  0.14836580  0.14836580  0.55490259  1
  Tb  Tb3  1  0.85163420  0.85163420  0.44509741  1
  Co  Co4  1  0.50000000  0.50000000  0.50000000  1
  Co  Co5  1  0.27852148  0.27852148  0.16443557  1
  Co  Co6  1  0.72147852  0.72147852  0.83556443  1
  Co  Co7  1  0.38847672  0.38847672  0.83456984  1
  Co  Co8  1  0.61152328  0.61152328  0.16543016  1
  Co  Co9  1  0.50000000  0.50000000  0.00000000  1
  Co  Co10  1  0.50000000  -0.00000000  0.00000000  1
  Co  Co11  1  -0.00000000  0.50000000  0.00000000  1
  Co  Co12  1  0.10948204  0.60897894  0.67256009  1
  Co  Co13  1  0.60897894  0.60897894  0.67256009  1
  Co  Co14  1  0.60897894  0.10948204  0.67256009  1
  Co  Co15  1  0.89051796  0.39102106  0.32743991  1
  Co  Co16  1  0.39102106  0.39102106  0.32743991  1
  Co  Co17  1  0.39102106  0.89051796  0.32743991  1
