# generated using pymatgen
data_Y3CrS6
_symmetry_space_group_name_H-M   'P 1'
_cell_length_a   3.78227472
_cell_length_b   13.29505166
_cell_length_c   16.01330272
_cell_angle_alpha   90.00000000
_cell_angle_beta   90.00000000
_cell_angle_gamma   90.00000000
_symmetry_Int_Tables_number   1
_chemical_formula_structural   Y3CrS6
_chemical_formula_sum   'Y12 Cr4 S24'
_cell_volume   805.23753914
_cell_formula_units_Z   4
loop_
 _symmetry_equiv_pos_site_id
 _symmetry_equiv_pos_as_xyz
  1  'x, y, z'
loop_
 _atom_site_type_symbol
 _atom_site_label
 _atom_site_symmetry_multiplicity
 _atom_site_fract_x
 _atom_site_fract_y
 _atom_site_fract_z
 _atom_site_occupancy
  Y  Y0  1  -0.00000000  0.54978125  0.28067238  1
  Y  Y1  1  0.00000000  0.45021875  0.71932762  1
  Y  Y2  1  0.50000000  0.95021875  0.78067238  1
  Y  Y3  1  0.50000000  0.04978125  0.21932762  1
  Y  Y4  1  -0.00000000  0.75424471  0.09750857  1
  Y  Y5  1  -0.00000000  0.24575529  0.90249143  1
  Y  Y6  1  0.50000000  0.74575529  0.59750857  1
  Y  Y7  1  0.50000000  0.25424471  0.40249143  1
  Y  Y8  1  0.00000000  0.31970772  0.14838725  1
  Y  Y9  1  -0.00000000  0.68029228  0.85161275  1
  Y  Y10  1  0.50000000  0.18029228  0.64838725  1
  Y  Y11  1  0.50000000  0.81970772  0.35161275  1
  Cr  Cr12  1  0.00000000  -0.00000000  0.50000000  1
  Cr  Cr13  1  0.50000000  0.50000000  -0.00000000  1
  Cr  Cr14  1  0.00000000  -0.00000000  -0.00000000  1
  Cr  Cr15  1  0.50000000  0.50000000  0.50000000  1
  S  S16  1  0.00000000  0.12097568  0.10747704  1
  S  S17  1  0.00000000  0.87902432  0.89252296  1
  S  S18  1  0.50000000  0.37902432  0.60747704  1
  S  S19  1  0.50000000  0.62097568  0.39252296  1
  S  S20  1  -0.00000000  0.18763448  0.28943215  1
  S  S21  1  -0.00000000  0.81236552  0.71056785  1
  S  S22  1  0.50000000  0.31236552  0.78943215  1
  S  S23  1  0.50000000  0.68763448  0.21056785  1
  S  S24  1  -0.00000000  0.17921870  0.52125614  1
  S  S25  1  0.00000000  0.82078130  0.47874386  1
  S  S26  1  0.50000000  0.32078130  0.02125614  1
  S  S27  1  0.50000000  0.67921870  0.97874386  1
  S  S28  1  -0.00000000  0.52371132  0.09662544  1
  S  S29  1  0.00000000  0.47628868  0.90337456  1
  S  S30  1  0.50000000  0.97628868  0.59662544  1
  S  S31  1  0.50000000  0.02371132  0.40337456  1
  S  S32  1  0.00000000  0.10387477  0.75465444  1
  S  S33  1  0.00000000  0.89612523  0.24534556  1
  S  S34  1  0.50000000  0.39612523  0.25465444  1
  S  S35  1  0.50000000  0.60387477  0.74534556  1
  S  S36  1  -0.00000000  0.41759455  0.42581743  1
  S  S37  1  0.00000000  0.58240545  0.57418257  1
  S  S38  1  0.50000000  0.08240545  0.92581743  1
  S  S39  1  0.50000000  0.91759455  0.07418257  1
