# generated using pymatgen
data_Na2B5H5O12
_symmetry_space_group_name_H-M   'P 1'
_cell_length_a   8.62914814
_cell_length_b   9.64737523
_cell_length_c   6.62941526
_cell_angle_alpha   103.14670910
_cell_angle_beta   107.95159983
_cell_angle_gamma   71.71634608
_symmetry_Int_Tables_number   1
_chemical_formula_structural   Na2B5H5O12
_chemical_formula_sum   'Na4 B10 H10 O24'
_cell_volume   493.26616299
_cell_formula_units_Z   2
loop_
 _symmetry_equiv_pos_site_id
 _symmetry_equiv_pos_as_xyz
  1  'x, y, z'
loop_
 _atom_site_type_symbol
 _atom_site_label
 _atom_site_symmetry_multiplicity
 _atom_site_fract_x
 _atom_site_fract_y
 _atom_site_fract_z
 _atom_site_occupancy
  Na  Na0  1  0.09639403  0.63410481  0.96076800  1
  Na  Na1  1  0.90360597  0.36589519  0.03923200  1
  Na  Na2  1  0.41407345  0.84460955  0.43369276  1
  Na  Na3  1  0.58592655  0.15539045  0.56630724  1
  B  B4  1  0.66570550  0.83899974  0.85419658  1
  B  B5  1  0.33429450  0.16100026  0.14580342  1
  B  B6  1  0.74358491  0.71467799  0.18147689  1
  B  B7  1  0.25641509  0.28532201  0.81852311  1
  B  B8  1  0.53722197  0.64028139  0.84635734  1
  B  B9  1  0.46277803  0.35971861  0.15364266  1
  B  B10  1  0.04669047  0.62873389  0.37418120  1
  B  B11  1  0.95330953  0.37126611  0.62581880  1
  B  B12  1  0.84213364  0.73676411  0.58185255  1
  B  B13  1  0.15786636  0.26323589  0.41814745  1
  H  H14  1  0.48739894  0.04218634  0.84103522  1
  H  H15  1  0.51260106  0.95781366  0.15896478  1
  H  H16  1  0.41637943  0.48480261  0.81435029  1
  H  H17  1  0.58362057  0.51519739  0.18564971  1
  H  H18  1  0.29662093  0.57623892  0.49590886  1
  H  H19  1  0.70337907  0.42376108  0.50409114  1
  H  H20  1  0.19662831  0.02361480  0.71866204  1
  H  H21  1  0.80337169  0.97638520  0.28133796  1
  H  H22  1  0.24672117  0.93028934  0.07889961  1
  H  H23  1  0.75327883  0.06971066  0.92110039  1
  O  O24  1  0.82302707  0.77588640  0.78569248  1
  O  O25  1  0.17697293  0.22411360  0.21430752  1
  O  O26  1  0.59070762  0.98766228  0.79058916  1
  O  O27  1  0.40929238  0.01233772  0.20941084  1
  O  O28  1  0.69842299  0.84999600  0.08819456  1
  O  O29  1  0.30157701  0.15000400  0.91180544  1
  O  O30  1  0.54458406  0.74670375  0.74732860  1
  O  O31  1  0.45541594  0.25329625  0.25267140  1
  O  O32  1  0.42773466  0.55526348  0.73381800  1
  O  O33  1  0.57226534  0.44473652  0.26618200  1
  O  O34  1  0.63367329  0.61531773  0.05110262  1
  O  O35  1  0.36632671  0.38468227  0.94889738  1
  O  O36  1  0.92105255  0.63102238  0.18667594  1
  O  O37  1  0.07894745  0.36897762  0.81332406  1
  O  O38  1  0.71451646  0.75454493  0.39836682  1
  O  O39  1  0.28548354  0.24545507  0.60163318  1
  O  O40  1  0.20852836  0.58501318  0.35530852  1
  O  O41  1  0.79147164  0.41498682  0.64469148  1
  O  O42  1  0.01122380  0.66914667  0.57421899  1
  O  O43  1  0.98877620  0.33085333  0.42578101  1
  O  O44  1  0.17108194  0.94640030  0.58939217  1
  O  O45  1  0.82891806  0.05359970  0.41060783  1
  O  O46  1  0.18794728  0.84841270  0.02799233  1
  O  O47  1  0.81205272  0.15158730  0.97200767  1
