# generated using pymatgen
data_Pr11C11Cl7
_symmetry_space_group_name_H-M   'P 1'
_cell_length_a   6.84919293
_cell_length_b   7.70540262
_cell_length_c   46.99642917
_cell_angle_alpha   90.00000000
_cell_angle_beta   90.00000000
_cell_angle_gamma   103.90277081
_symmetry_Int_Tables_number   1
_chemical_formula_structural   Pr11C11Cl7
_chemical_formula_sum   'Pr44 C44 Cl28'
_cell_volume   2407.61367999
_cell_formula_units_Z   4
loop_
 _symmetry_equiv_pos_site_id
 _symmetry_equiv_pos_as_xyz
  1  'x, y, z'
loop_
 _atom_site_type_symbol
 _atom_site_label
 _atom_site_symmetry_multiplicity
 _atom_site_fract_x
 _atom_site_fract_y
 _atom_site_fract_z
 _atom_site_occupancy
  Pr  Pr0  1  0.13288069  0.39021548  0.04946150  1
  Pr  Pr1  1  0.36711931  0.60978452  0.54946150  1
  Pr  Pr2  1  0.86711931  0.60978452  0.95053850  1
  Pr  Pr3  1  0.63288069  0.39021548  0.45053850  1
  Pr  Pr4  1  0.63597207  0.39529064  0.08860878  1
  Pr  Pr5  1  0.86402793  0.60470936  0.58860878  1
  Pr  Pr6  1  0.36402793  0.60470936  0.91139122  1
  Pr  Pr7  1  0.13597207  0.39529064  0.41139122  1
  Pr  Pr8  1  0.64458738  0.24726856  0.17732486  1
  Pr  Pr9  1  0.85541262  0.75273144  0.67732486  1
  Pr  Pr10  1  0.35541262  0.75273144  0.82267514  1
  Pr  Pr11  1  0.14458738  0.24726856  0.32267514  1
  Pr  Pr12  1  0.86075807  0.76833953  0.04039703  1
  Pr  Pr13  1  0.63924193  0.23166047  0.54039703  1
  Pr  Pr14  1  0.13924193  0.23166047  0.95960297  1
  Pr  Pr15  1  0.36075807  0.76833953  0.45960297  1
  Pr  Pr16  1  0.62591118  0.31084730  0.00275228  1
  Pr  Pr17  1  0.87408882  0.68915270  0.50275228  1
  Pr  Pr18  1  0.37408882  0.68915270  0.99724772  1
  Pr  Pr19  1  0.12591118  0.31084730  0.49724772  1
  Pr  Pr20  1  0.87855819  0.69922637  0.14113571  1
  Pr  Pr21  1  0.62144181  0.30077363  0.64113571  1
  Pr  Pr22  1  0.12144181  0.30077363  0.85886429  1
  Pr  Pr23  1  0.37855819  0.69922637  0.35886429  1
  Pr  Pr24  1  0.88601677  0.54787726  0.23025523  1
  Pr  Pr25  1  0.61398323  0.45212274  0.73025523  1
  Pr  Pr26  1  0.11398323  0.45212274  0.76974477  1
  Pr  Pr27  1  0.38601677  0.54787726  0.26974477  1
  Pr  Pr28  1  0.38441209  0.62566731  0.18477678  1
  Pr  Pr29  1  0.11558791  0.37433269  0.68477678  1
  Pr  Pr30  1  0.61558791  0.37433269  0.81522322  1
  Pr  Pr31  1  0.88441209  0.62566731  0.31522322  1
  Pr  Pr32  1  0.13754547  0.32069671  0.13429407  1
  Pr  Pr33  1  0.36245453  0.67930329  0.63429407  1
  Pr  Pr34  1  0.86245453  0.67930329  0.86570593  1
  Pr  Pr35  1  0.63754547  0.32069671  0.36570593  1
  Pr  Pr36  1  0.36654883  0.77119096  0.09571615  1
  Pr  Pr37  1  0.13345117  0.22880904  0.59571615  1
  Pr  Pr38  1  0.63345117  0.22880904  0.90428385  1
  Pr  Pr39  1  0.86654883  0.77119096  0.40428385  1
  Pr  Pr40  1  0.15585526  0.17239634  0.22211479  1
  Pr  Pr41  1  0.34414474  0.82760366  0.72211479  1
  Pr  Pr42  1  0.84414474  0.82760366  0.77788521  1
  Pr  Pr43  1  0.65585526  0.17239634  0.27788521  1
  C  C44  1  0.03856511  0.37510716  0.19018101  1
  C  C45  1  0.46143489  0.62489284  0.69018101  1
  C  C46  1  0.96143489  0.62489284  0.80981899  1
  C  C47  1  0.53856511  0.37510716  0.30981899  1
  C  C48  1  0.52507248  0.50964838  0.03620319  1
  C  C49  1  0.97492752  0.49035162  0.53620319  1
  C  C50  1  0.47492752  0.49035162  0.96379681  1
  C  C51  1  0.02507248  0.50964838  0.46379681  1
  C  C52  1  0.48280093  0.57236272  0.12848453  1
  C  C53  1  0.01719907  0.42763728  0.62848453  1
  C  C54  1  0.51719907  0.42763728  0.87151547  1
  C  C55  1  0.98280093  0.57236272  0.37151547  1
  C  C56  1  0.02802915  0.51871828  0.10113819  1
  C  C57  1  0.47197085  0.48128172  0.60113819  1
  C  C58  1  0.97197085  0.48128172  0.89886181  1
  C  C59  1  0.52802915  0.51871828  0.39886181  1
  C  C60  1  0.98314220  0.49668458  0.17342672  1
  C  C61  1  0.51685780  0.50331542  0.67342672  1
  C  C62  1  0.01685780  0.50331542  0.82657328  1
  C  C63  1  0.48314220  0.49668458  0.32657328  1
  C  C64  1  0.97909189  0.62757990  0.08117737  1
  C  C65  1  0.52090811  0.37242010  0.58117737  1
  C  C66  1  0.02090811  0.37242010  0.91882263  1
  C  C67  1  0.47909189  0.62757990  0.41882263  1
  C  C68  1  0.49454879  0.42455872  0.21730242  1
  C  C69  1  0.00545121  0.57544128  0.71730242  1
  C  C70  1  0.50545121  0.57544128  0.78269758  1
  C  C71  1  0.99454879  0.42455872  0.28269758  1
  C  C72  1  0.04323582  0.31530791  0.26280531  1
  C  C73  1  0.45676418  0.68469209  0.76280531  1
  C  C74  1  0.95676418  0.68469209  0.73719469  1
  C  C75  1  0.54323582  0.31530791  0.23719469  1
  C  C76  1  0.97380489  0.56144309  0.00809623  1
  C  C77  1  0.52619511  0.43855691  0.50809623  1
  C  C78  1  0.02619511  0.43855691  0.99190377  1
  C  C79  1  0.47380489  0.56144309  0.49190377  1
  C  C80  1  0.47818018  0.62227574  0.05587627  1
  C  C81  1  0.02181982  0.37772426  0.55587627  1
  C  C82  1  0.52181982  0.37772426  0.94412373  1
  C  C83  1  0.97818018  0.62227574  0.44412373  1
  C  C84  1  0.53803797  0.45139895  0.14534212  1
  C  C85  1  0.96196203  0.54860105  0.64534212  1
  C  C86  1  0.46196203  0.54860105  0.85465788  1
  C  C87  1  0.03803797  0.45139895  0.35465788  1
  Cl  Cl88  1  0.73994511  0.11884995  0.05255920  1
  Cl  Cl89  1  0.76005489  0.88115005  0.55255920  1
  Cl  Cl90  1  0.26005489  0.88115005  0.94744080  1
  Cl  Cl91  1  0.23994511  0.11884995  0.44744080  1
  Cl  Cl92  1  0.24321991  0.12016442  0.08687205  1
  Cl  Cl93  1  0.25678009  0.87983558  0.58687205  1
  Cl  Cl94  1  0.75678009  0.87983558  0.91312795  1
  Cl  Cl95  1  0.74321991  0.12016442  0.41312795  1
  Cl  Cl96  1  0.27963600  0.82442592  0.23319367  1
  Cl  Cl97  1  0.22036400  0.17557408  0.73319367  1
  Cl  Cl98  1  0.72036400  0.17557408  0.76680633  1
  Cl  Cl99  1  0.77963600  0.82442592  0.26680633  1
  Cl  Cl100  1  0.26128737  0.97390677  0.15992106  1
  Cl  Cl101  1  0.23871263  0.02609323  0.65992106  1
  Cl  Cl102  1  0.73871263  0.02609323  0.84007894  1
  Cl  Cl103  1  0.76128737  0.97390677  0.34007894  1
  Cl  Cl104  1  0.78006192  0.88773872  0.19456571  1
  Cl  Cl105  1  0.71993808  0.11226128  0.69456571  1
  Cl  Cl106  1  0.21993808  0.11226128  0.80543429  1
  Cl  Cl107  1  0.28006192  0.88773872  0.30543429  1
  Cl  Cl108  1  0.74184683  0.05631959  0.12452405  1
  Cl  Cl109  1  0.75815317  0.94368041  0.62452405  1
  Cl  Cl110  1  0.25815317  0.94368041  0.87547595  1
  Cl  Cl111  1  0.24184683  0.05631959  0.37547595  1
  Cl  Cl112  1  0.24097537  0.04765988  0.01583253  1
  Cl  Cl113  1  0.25902463  0.95234012  0.51583253  1
  Cl  Cl114  1  0.75902463  0.95234012  0.98416747  1
  Cl  Cl115  1  0.74097537  0.04765988  0.48416747  1
