# generated using pymatgen
data_Sb2O3
_symmetry_space_group_name_H-M   'P 1'
_cell_length_a   4.84612354
_cell_length_b   8.30690770
_cell_length_c   9.69090737
_cell_angle_alpha   106.60263906
_cell_angle_beta   90.00000000
_cell_angle_gamma   90.00000000
_symmetry_Int_Tables_number   1
_chemical_formula_structural   Sb2O3
_chemical_formula_sum   'Sb8 O12'
_cell_volume   373.85574877
_cell_formula_units_Z   4
loop_
 _symmetry_equiv_pos_site_id
 _symmetry_equiv_pos_as_xyz
  1  'x, y, z'
loop_
 _atom_site_type_symbol
 _atom_site_label
 _atom_site_symmetry_multiplicity
 _atom_site_fract_x
 _atom_site_fract_y
 _atom_site_fract_z
 _atom_site_occupancy
  Sb  Sb0  1  0.64368216  0.90845990  0.80306884  1
  Sb  Sb1  1  0.14368216  0.59154010  0.69693116  1
  Sb  Sb2  1  0.35631784  0.09154010  0.19693116  1
  Sb  Sb3  1  0.85631784  0.40845990  0.30306884  1
  Sb  Sb4  1  0.17150396  0.30894844  0.89866607  1
  Sb  Sb5  1  0.67150396  0.19105156  0.60133393  1
  Sb  Sb6  1  0.82849604  0.69105156  0.10133393  1
  Sb  Sb7  1  0.32849604  0.80894844  0.39866607  1
  O  O8  1  0.03938989  0.83771072  0.78569492  1
  O  O9  1  0.53938989  0.66228928  0.71430508  1
  O  O10  1  0.96061011  0.16228928  0.21430508  1
  O  O11  1  0.46061011  0.33771072  0.28569492  1
  O  O12  1  0.32319930  0.29529495  0.69255672  1
  O  O13  1  0.82319930  0.20470505  0.80744328  1
  O  O14  1  0.67680070  0.70470505  0.30744328  1
  O  O15  1  0.17680070  0.79529495  0.19255672  1
  O  O16  1  0.10054307  0.54935938  0.89454162  1
  O  O17  1  0.60054307  0.95064062  0.60545838  1
  O  O18  1  0.89945693  0.45064062  0.10545838  1
  O  O19  1  0.39945693  0.04935938  0.39454162  1
