# generated using pymatgen
data_V3(PbO3)4
_symmetry_space_group_name_H-M   'P 1'
_cell_length_a   9.52735352
_cell_length_b   9.52735352
_cell_length_c   9.52735352
_cell_angle_alpha   109.47122063
_cell_angle_beta   109.47122063
_cell_angle_gamma   109.47122063
_symmetry_Int_Tables_number   1
_chemical_formula_structural   V3(PbO3)4
_chemical_formula_sum   'V6 Pb8 O24'
_cell_volume   665.72512894
_cell_formula_units_Z   2
loop_
 _symmetry_equiv_pos_site_id
 _symmetry_equiv_pos_as_xyz
  1  'x, y, z'
loop_
 _atom_site_type_symbol
 _atom_site_label
 _atom_site_symmetry_multiplicity
 _atom_site_fract_x
 _atom_site_fract_y
 _atom_site_fract_z
 _atom_site_occupancy
  V  V0  1  0.62500000  0.37500000  0.75000000  1
  V  V1  1  0.87500000  0.12500000  0.25000000  1
  V  V2  1  0.37500000  0.75000000  0.62500000  1
  V  V3  1  0.12500000  0.25000000  0.87500000  1
  V  V4  1  0.75000000  0.62500000  0.37500000  1
  V  V5  1  0.25000000  0.87500000  0.12500000  1
  Pb  Pb6  1  0.83562555  0.83562555  0.83562555  1
  Pb  Pb7  1  0.66437445  -0.00000000  0.50000000  1
  Pb  Pb8  1  0.50000000  0.66437445  -0.00000000  1
  Pb  Pb9  1  0.33562555  0.33562555  0.33562555  1
  Pb  Pb10  1  -0.00000000  0.50000000  0.66437445  1
  Pb  Pb11  1  0.16437445  -0.00000000  0.50000000  1
  Pb  Pb12  1  -0.00000000  0.50000000  0.16437445  1
  Pb  Pb13  1  0.50000000  0.16437445  -0.00000000  1
  O  O14  1  0.81210390  0.65346142  0.58125357  1
  O  O15  1  0.68789610  0.76914967  0.34135753  1
  O  O16  1  0.42779214  0.84653858  0.15864247  1
  O  O17  1  0.65346142  0.58125357  0.81210390  1
  O  O18  1  0.31210390  0.08125357  0.15346142  1
  O  O19  1  0.07220786  0.73085033  0.91874643  1
  O  O20  1  0.76914967  0.34135753  0.68789610  1
  O  O21  1  0.18789610  0.84135753  0.26914967  1
  O  O22  1  0.84653858  0.15864247  0.42779214  1
  O  O23  1  0.92779214  0.65864247  0.34653858  1
  O  O24  1  0.73085033  0.91874643  0.07220786  1
  O  O25  1  0.57220786  0.41874643  0.23085033  1
  O  O26  1  0.58125357  0.81210390  0.65346142  1
  O  O27  1  0.15346142  0.31210390  0.08125357  1
  O  O28  1  0.15864247  0.42779214  0.84653858  1
  O  O29  1  0.34653858  0.92779214  0.65864247  1
  O  O30  1  0.91874643  0.07220786  0.73085033  1
  O  O31  1  0.23085033  0.57220786  0.41874643  1
  O  O32  1  0.34135753  0.68789610  0.76914967  1
  O  O33  1  0.26914967  0.18789610  0.84135753  1
  O  O34  1  0.08125357  0.15346142  0.31210390  1
  O  O35  1  0.84135753  0.26914967  0.18789610  1
  O  O36  1  0.41874643  0.23085033  0.57220786  1
  O  O37  1  0.65864247  0.34653858  0.92779214  1
