# generated using pymatgen
data_U3TlF13
_symmetry_space_group_name_H-M   'P 1'
_cell_length_a   7.39772622
_cell_length_b   8.05725412
_cell_length_c   8.58130941
_cell_angle_alpha   90.00000000
_cell_angle_beta   90.00000000
_cell_angle_gamma   90.00000000
_symmetry_Int_Tables_number   1
_chemical_formula_structural   U3TlF13
_chemical_formula_sum   'U6 Tl2 F26'
_cell_volume   511.49203721
_cell_formula_units_Z   2
loop_
 _symmetry_equiv_pos_site_id
 _symmetry_equiv_pos_as_xyz
  1  'x, y, z'
loop_
 _atom_site_type_symbol
 _atom_site_label
 _atom_site_symmetry_multiplicity
 _atom_site_fract_x
 _atom_site_fract_y
 _atom_site_fract_z
 _atom_site_occupancy
  U  U0  1  0.89708637  0.74778776  0.87907548  1
  U  U1  1  0.10291363  0.25221224  0.37907548  1
  U  U2  1  0.10291363  0.74778776  0.37907548  1
  U  U3  1  0.89708637  0.25221224  0.87907548  1
  U  U4  1  0.60969131  -0.00000000  0.54201624  1
  U  U5  1  0.39030869  -0.00000000  0.04201624  1
  Tl  Tl6  1  0.39824207  0.50000000  0.73703022  1
  Tl  Tl7  1  0.60175793  0.50000000  0.23703022  1
  F  F8  1  0.61284806  0.80938550  0.99537384  1
  F  F9  1  0.38715194  0.19061450  0.49537384  1
  F  F10  1  0.38715194  0.80938550  0.49537384  1
  F  F11  1  0.61284806  0.19061450  0.99537384  1
  F  F12  1  0.90048875  -0.00000000  0.99906116  1
  F  F13  1  0.09951125  -0.00000000  0.49906116  1
  F  F14  1  0.95207804  0.69824956  0.13362834  1
  F  F15  1  0.04792196  0.30175044  0.63362834  1
  F  F16  1  0.04792196  0.69824956  0.63362834  1
  F  F17  1  0.95207804  0.30175044  0.13362834  1
  F  F18  1  0.72958597  0.50000000  0.90955666  1
  F  F19  1  0.27041403  0.50000000  0.40955666  1
  F  F20  1  0.93853558  0.50000000  0.38707181  1
  F  F21  1  0.06146442  0.50000000  0.88707181  1
  F  F22  1  0.80820874  0.82967432  0.40443697  1
  F  F23  1  0.19179126  0.17032568  0.90443697  1
  F  F24  1  0.19179126  0.82967432  0.90443697  1
  F  F25  1  0.80820874  0.17032568  0.40443697  1
  F  F26  1  0.86065997  -0.00000000  0.71866821  1
  F  F27  1  0.13934003  -0.00000000  0.21866821  1
  F  F28  1  0.46619052  -0.00000000  0.77070667  1
  F  F29  1  0.53380948  -0.00000000  0.27070667  1
  F  F30  1  0.68132069  0.74361428  0.68467988  1
  F  F31  1  0.31867931  0.25638572  0.18467988  1
  F  F32  1  0.31867931  0.74361428  0.18467988  1
  F  F33  1  0.68132069  0.25638572  0.68467988  1
