# generated using pymatgen
data_Y(Fe2Ge)2
_symmetry_space_group_name_H-M   'P 1'
_cell_length_a   4.06880660
_cell_length_b   6.65976444
_cell_length_c   7.66521284
_cell_angle_alpha   90.00000000
_cell_angle_beta   90.00000000
_cell_angle_gamma   90.00000000
_symmetry_Int_Tables_number   1
_chemical_formula_structural   Y(Fe2Ge)2
_chemical_formula_sum   'Y2 Fe8 Ge4'
_cell_volume   207.70652213
_cell_formula_units_Z   2
loop_
 _symmetry_equiv_pos_site_id
 _symmetry_equiv_pos_as_xyz
  1  'x, y, z'
loop_
 _atom_site_type_symbol
 _atom_site_label
 _atom_site_symmetry_multiplicity
 _atom_site_fract_x
 _atom_site_fract_y
 _atom_site_fract_z
 _atom_site_occupancy
  Y  Y0  1  0.00000000  -0.00000000  0.00000000  1
  Y  Y1  1  0.50000000  0.50000000  0.50000000  1
  Fe  Fe2  1  -0.00000000  0.13977970  0.62158524  1
  Fe  Fe3  1  -0.00000000  0.86022030  0.37841476  1
  Fe  Fe4  1  0.50000000  0.36022030  0.12158524  1
  Fe  Fe5  1  0.50000000  0.63977970  0.87841476  1
  Fe  Fe6  1  0.00000000  0.56528722  0.14893301  1
  Fe  Fe7  1  0.00000000  0.43471278  0.85106699  1
  Fe  Fe8  1  0.50000000  0.93471278  0.64893301  1
  Fe  Fe9  1  0.50000000  0.06528722  0.35106699  1
  Ge  Ge10  1  0.00000000  0.25516057  0.31411854  1
  Ge  Ge11  1  0.00000000  0.74483943  0.68588146  1
  Ge  Ge12  1  0.50000000  0.24483943  0.81411854  1
  Ge  Ge13  1  0.50000000  0.75516057  0.18588146  1
