# generated using pymatgen
data_YZr6(PO4)9
_symmetry_space_group_name_H-M   'P 1'
_cell_length_a   8.94978374
_cell_length_b   8.94978374
_cell_length_c   22.96513189
_cell_angle_alpha   90.00000000
_cell_angle_beta   90.00000000
_cell_angle_gamma   119.99999795
_symmetry_Int_Tables_number   1
_chemical_formula_structural   YZr6(PO4)9
_chemical_formula_sum   'Y2 Zr12 P18 O72'
_cell_volume   1593.03261505
_cell_formula_units_Z   2
loop_
 _symmetry_equiv_pos_site_id
 _symmetry_equiv_pos_as_xyz
  1  'x, y, z'
loop_
 _atom_site_type_symbol
 _atom_site_label
 _atom_site_symmetry_multiplicity
 _atom_site_fract_x
 _atom_site_fract_y
 _atom_site_fract_z
 _atom_site_occupancy
  Y  Y0  1  0.00000000  0.00000000  0.00000000  1
  Y  Y1  1  0.00000000  0.00000000  0.50000000  1
  Zr  Zr2  1  0.66666700  0.33333300  0.97167671  1
  Zr  Zr3  1  0.33333300  0.66666700  0.02832329  1
  Zr  Zr4  1  0.33333300  0.66666700  0.52832329  1
  Zr  Zr5  1  0.66666700  0.33333300  0.47167671  1
  Zr  Zr6  1  0.00000000  0.00000000  0.85053848  1
  Zr  Zr7  1  0.00000000  0.00000000  0.14946152  1
  Zr  Zr8  1  0.00000000  0.00000000  0.64946152  1
  Zr  Zr9  1  0.00000000  0.00000000  0.35053848  1
  Zr  Zr10  1  0.66666700  0.33333300  0.68692825  1
  Zr  Zr11  1  0.33333300  0.66666700  0.31307175  1
  Zr  Zr12  1  0.33333300  0.66666700  0.81307175  1
  Zr  Zr13  1  0.66666700  0.33333300  0.18692825  1
  P  P14  1  0.62681080  0.94553069  0.92110118  1
  P  P15  1  0.37318920  0.05446931  0.07889882  1
  P  P16  1  0.31871989  0.37318920  0.92110118  1
  P  P17  1  0.68128011  0.05446931  0.57889882  1
  P  P18  1  0.68128011  0.62681080  0.07889882  1
  P  P19  1  0.31871989  0.94553069  0.42110118  1
  P  P20  1  0.05446931  0.68128011  0.92110118  1
  P  P21  1  0.94553069  0.62681080  0.57889882  1
  P  P22  1  0.94553069  0.31871989  0.07889882  1
  P  P23  1  0.05446931  0.37318920  0.42110118  1
  P  P24  1  0.37318920  0.31871989  0.57889882  1
  P  P25  1  0.62681080  0.68128011  0.42110118  1
  P  P26  1  0.70831176  0.70831176  0.75000000  1
  P  P27  1  0.29168824  0.29168824  0.25000000  1
  P  P28  1  1.00000000  0.29168824  0.75000000  1
  P  P29  1  0.00000000  0.70831176  0.25000000  1
  P  P30  1  0.29168824  1.00000000  0.75000000  1
  P  P31  1  0.70831176  0.00000000  0.25000000  1
  O  O32  1  0.54459151  0.82735517  0.97383340  1
  O  O33  1  0.45540849  0.17264483  0.02616660  1
  O  O34  1  0.28276366  0.45540849  0.97383340  1
  O  O35  1  0.71723634  0.17264483  0.52616660  1
  O  O36  1  0.71723634  0.54459151  0.02616660  1
  O  O37  1  0.28276366  0.82735517  0.47383340  1
  O  O38  1  0.17264483  0.71723634  0.97383340  1
  O  O39  1  0.82735517  0.54459151  0.52616660  1
  O  O40  1  0.82735517  0.28276366  0.02616660  1
  O  O41  1  0.17264483  0.45540849  0.47383340  1
  O  O42  1  0.45540849  0.28276366  0.52616660  1
  O  O43  1  0.54459151  0.71723634  0.47383340  1
  O  O44  1  0.62455796  0.11596829  0.92575771  1
  O  O45  1  0.37544204  0.88403171  0.07424229  1
  O  O46  1  0.49141033  0.37544204  0.92575771  1
  O  O47  1  0.50858967  0.88403171  0.57424229  1
  O  O48  1  0.50858967  0.62455796  0.07424229  1
  O  O49  1  0.49141033  0.11596829  0.42575771  1
  O  O50  1  0.88403171  0.50858967  0.92575771  1
  O  O51  1  0.11596829  0.62455796  0.57424229  1
  O  O52  1  0.11596829  0.49141033  0.07424229  1
  O  O53  1  0.88403171  0.37544204  0.42575771  1
  O  O54  1  0.37544204  0.49141033  0.57424229  1
  O  O55  1  0.62455796  0.50858967  0.42575771  1
  O  O56  1  0.82308859  0.99105975  0.92135266  1
  O  O57  1  0.17691141  0.00894025  0.07864734  1
  O  O58  1  0.16797116  0.17691141  0.92135266  1
  O  O59  1  0.83202884  0.00894025  0.57864734  1
  O  O60  1  0.83202884  0.82308859  0.07864734  1
  O  O61  1  0.16797116  0.99105975  0.42135266  1
  O  O62  1  0.00894025  0.83202884  0.92135266  1
  O  O63  1  0.99105975  0.82308859  0.57864734  1
  O  O64  1  0.99105975  0.16797116  0.07864734  1
  O  O65  1  0.00894025  0.17691141  0.42135266  1
  O  O66  1  0.17691141  0.16797116  0.57864734  1
  O  O67  1  0.82308859  0.83202884  0.42135266  1
  O  O68  1  0.96916299  0.17399927  0.80409110  1
  O  O69  1  0.03083701  0.82600073  0.19590890  1
  O  O70  1  0.20483628  0.03083701  0.80409110  1
  O  O71  1  0.79516372  0.82600073  0.69590890  1
  O  O72  1  0.79516372  0.96916299  0.19590890  1
  O  O73  1  0.20483628  0.17399927  0.30409110  1
  O  O74  1  0.82600073  0.79516372  0.80409110  1
  O  O75  1  0.17399927  0.96916299  0.69590890  1
  O  O76  1  0.17399927  0.20483628  0.19590890  1
  O  O77  1  0.82600073  0.03083701  0.30409110  1
  O  O78  1  0.03083701  0.20483628  0.69590890  1
  O  O79  1  0.96916299  0.79516372  0.30409110  1
  O  O80  1  0.53959755  0.85361177  0.86427169  1
  O  O81  1  0.46040245  0.14638823  0.13572831  1
  O  O82  1  0.31401421  0.46040245  0.86427169  1
  O  O83  1  0.68598579  0.14638823  0.63572831  1
  O  O84  1  0.68598579  0.53959755  0.13572831  1
  O  O85  1  0.31401421  0.85361177  0.36427169  1
  O  O86  1  0.14638823  0.68598579  0.86427169  1
  O  O87  1  0.85361177  0.53959755  0.63572831  1
  O  O88  1  0.85361177  0.31401421  0.13572831  1
  O  O89  1  0.14638823  0.46040245  0.36427169  1
  O  O90  1  0.46040245  0.31401421  0.63572831  1
  O  O91  1  0.53959755  0.68598579  0.36427169  1
  O  O92  1  0.53189232  0.69086900  0.76010395  1
  O  O93  1  0.46810768  0.30913100  0.23989605  1
  O  O94  1  0.15897668  0.46810768  0.76010395  1
  O  O95  1  0.84102332  0.30913100  0.73989605  1
  O  O96  1  0.84102332  0.53189232  0.23989605  1
  O  O97  1  0.15897668  0.69086900  0.26010395  1
  O  O98  1  0.30913100  0.84102332  0.76010395  1
  O  O99  1  0.69086900  0.53189232  0.73989605  1
  O  O100  1  0.69086900  0.15897668  0.23989605  1
  O  O101  1  0.30913100  0.46810768  0.26010395  1
  O  O102  1  0.46810768  0.15897668  0.73989605  1
  O  O103  1  0.53189232  0.84102332  0.26010395  1
