# generated using pymatgen
data_Rb3Ca2Cl7
_symmetry_space_group_name_H-M   'P 1'
_cell_length_a   5.40645981
_cell_length_b   5.40645981
_cell_length_c   14.22796951
_cell_angle_alpha   100.95243665
_cell_angle_beta   100.95243665
_cell_angle_gamma   90.00000000
_symmetry_Int_Tables_number   1
_chemical_formula_structural   Rb3Ca2Cl7
_chemical_formula_sum   'Rb3 Ca2 Cl7'
_cell_volume   400.58725441
_cell_formula_units_Z   1
loop_
 _symmetry_equiv_pos_site_id
 _symmetry_equiv_pos_as_xyz
  1  'x, y, z'
loop_
 _atom_site_type_symbol
 _atom_site_label
 _atom_site_symmetry_multiplicity
 _atom_site_fract_x
 _atom_site_fract_y
 _atom_site_fract_z
 _atom_site_occupancy
  Rb  Rb0  1  0.31674840  0.31674840  0.63349681  1
  Rb  Rb1  1  0.68325160  0.68325160  0.36650319  1
  Rb  Rb2  1  0.50000000  0.50000000  0.00000000  1
  Ca  Ca3  1  0.09966491  0.09966491  0.19932981  1
  Ca  Ca4  1  0.90033509  0.90033509  0.80067019  1
  Cl  Cl5  1  0.09626711  0.59626711  0.19253421  1
  Cl  Cl6  1  0.90373289  0.40373289  0.80746579  1
  Cl  Cl7  1  0.59626711  0.09626711  0.19253421  1
  Cl  Cl8  1  0.40373289  0.90373289  0.80746579  1
  Cl  Cl9  1  0.19807657  0.19807657  0.39615315  1
  Cl  Cl10  1  0.80192343  0.80192343  0.60384685  1
  Cl  Cl11  1  0.00000000  0.00000000  0.00000000  1
