# generated using pymatgen
data_TbGaGe2O7
_symmetry_space_group_name_H-M   'P 1'
_cell_length_a   6.61808224
_cell_length_b   7.27889488
_cell_length_c   11.44306760
_cell_angle_alpha   96.24081602
_cell_angle_beta   90.00000000
_cell_angle_gamma   90.00000000
_symmetry_Int_Tables_number   1
_chemical_formula_structural   TbGaGe2O7
_chemical_formula_sum   'Tb4 Ga4 Ge8 O28'
_cell_volume   547.97240356
_cell_formula_units_Z   4
loop_
 _symmetry_equiv_pos_site_id
 _symmetry_equiv_pos_as_xyz
  1  'x, y, z'
loop_
 _atom_site_type_symbol
 _atom_site_label
 _atom_site_symmetry_multiplicity
 _atom_site_fract_x
 _atom_site_fract_y
 _atom_site_fract_z
 _atom_site_occupancy
  Tb  Tb0  1  0.64309417  0.72809849  0.47212902  1
  Tb  Tb1  1  0.35690583  0.27190151  0.52787098  1
  Tb  Tb2  1  0.14309417  0.77190151  0.02787098  1
  Tb  Tb3  1  0.85690583  0.22809849  0.97212902  1
  Ga  Ga4  1  0.59947153  0.01743646  0.72994053  1
  Ga  Ga5  1  0.40052847  0.98256354  0.27005947  1
  Ga  Ga6  1  0.09947153  0.48256354  0.77005947  1
  Ga  Ga7  1  0.90052847  0.51743646  0.22994053  1
  Ge  Ge8  1  0.34244665  0.24030079  0.95630126  1
  Ge  Ge9  1  0.65755335  0.75969921  0.04369874  1
  Ge  Ge10  1  0.84244665  0.25969921  0.54369874  1
  Ge  Ge11  1  0.15755335  0.74030079  0.45630126  1
  Ge  Ge12  1  0.08889504  0.92145371  0.72111381  1
  Ge  Ge13  1  0.91110496  0.07854629  0.27888619  1
  Ge  Ge14  1  0.58889504  0.57854629  0.77888619  1
  Ge  Ge15  1  0.41110496  0.42145371  0.22111381  1
  O  O16  1  0.62571566  0.76036584  0.68882948  1
  O  O17  1  0.37428434  0.23963416  0.31117052  1
  O  O18  1  0.12571566  0.73963416  0.81117052  1
  O  O19  1  0.87428434  0.26036584  0.18882948  1
  O  O20  1  0.17232646  0.06745761  0.97927812  1
  O  O21  1  0.82767354  0.93254239  0.02072188  1
  O  O22  1  0.67232646  0.43254239  0.52072188  1
  O  O23  1  0.32767354  0.56745761  0.47927812  1
  O  O24  1  0.39016191  0.43813316  0.71828982  1
  O  O25  1  0.60983809  0.56186684  0.28171018  1
  O  O26  1  0.89016191  0.06186684  0.78171018  1
  O  O27  1  0.10983809  0.93813316  0.21828982  1
  O  O28  1  0.99766003  0.82340755  0.57733653  1
  O  O29  1  0.00233997  0.17659245  0.42266347  1
  O  O30  1  0.49766003  0.67659245  0.92266347  1
  O  O31  1  0.50233997  0.32340755  0.07733653  1
  O  O32  1  0.55562534  0.16504495  0.87255993  1
  O  O33  1  0.44437466  0.83495505  0.12744007  1
  O  O34  1  0.05562534  0.33495505  0.62744007  1
  O  O35  1  0.94437466  0.66504495  0.37255993  1
  O  O36  1  0.15558699  0.40723315  0.92330090  1
  O  O37  1  0.84441301  0.59276685  0.07669910  1
  O  O38  1  0.65558699  0.09276685  0.57669910  1
  O  O39  1  0.34441301  0.90723315  0.42330090  1
  O  O40  1  0.31123768  0.03500805  0.68429044  1
  O  O41  1  0.68876232  0.96499195  0.31570956  1
  O  O42  1  0.81123768  0.46499195  0.81570956  1
  O  O43  1  0.18876232  0.53500805  0.18429044  1
