# generated using pymatgen
data_H9CSO7F3
_symmetry_space_group_name_H-M   'P 1'
_cell_length_a   7.71113993
_cell_length_b   8.78862167
_cell_length_c   13.00710692
_cell_angle_alpha   90.00000000
_cell_angle_beta   91.73580293
_cell_angle_gamma   90.00000000
_symmetry_Int_Tables_number   1
_chemical_formula_structural   H9CSO7F3
_chemical_formula_sum   'H36 C4 S4 O28 F12'
_cell_volume   881.09093348
_cell_formula_units_Z   4
loop_
 _symmetry_equiv_pos_site_id
 _symmetry_equiv_pos_as_xyz
  1  'x, y, z'
loop_
 _atom_site_type_symbol
 _atom_site_label
 _atom_site_symmetry_multiplicity
 _atom_site_fract_x
 _atom_site_fract_y
 _atom_site_fract_z
 _atom_site_occupancy
  H  H0  1  0.14198331  0.13411424  0.95119261  1
  H  H1  1  0.85801669  0.63411424  0.54880739  1
  H  H2  1  0.85801669  0.86588576  0.04880739  1
  H  H3  1  0.14198331  0.36588576  0.45119261  1
  H  H4  1  0.94690572  0.13413090  0.88336229  1
  H  H5  1  0.05309428  0.63413090  0.61663771  1
  H  H6  1  0.05309428  0.86586910  0.11663771  1
  H  H7  1  0.94690572  0.36586910  0.38336229  1
  H  H8  1  0.95701837  0.20002455  0.00846520  1
  H  H9  1  0.04298163  0.70002455  0.49153480  1
  H  H10  1  0.04298163  0.79997545  0.99153480  1
  H  H11  1  0.95701837  0.29997545  0.50846520  1
  H  H12  1  0.37520037  0.07700039  0.90611791  1
  H  H13  1  0.62479963  0.57700039  0.59388209  1
  H  H14  1  0.62479963  0.92299961  0.09388209  1
  H  H15  1  0.37520037  0.42299961  0.40611791  1
  H  H16  1  0.37866528  0.12968223  0.02282537  1
  H  H17  1  0.62133472  0.62968223  0.47717463  1
  H  H18  1  0.62133472  0.87031777  0.97717463  1
  H  H19  1  0.37866528  0.37031777  0.52282537  1
  H  H20  1  0.72860802  0.08439595  0.78813441  1
  H  H21  1  0.27139198  0.58439595  0.71186559  1
  H  H22  1  0.27139198  0.91560405  0.21186559  1
  H  H23  1  0.72860802  0.41560405  0.28813441  1
  H  H24  1  0.86585017  0.95337774  0.78198433  1
  H  H25  1  0.13414983  0.45337774  0.71801567  1
  H  H26  1  0.13414983  0.04662226  0.21801567  1
  H  H27  1  0.86585017  0.54662226  0.28198433  1
  H  H28  1  0.74002891  0.28305612  0.61104620  1
  H  H29  1  0.25997109  0.78305612  0.88895380  1
  H  H30  1  0.25997109  0.71694388  0.38895380  1
  H  H31  1  0.74002891  0.21694388  0.11104620  1
  H  H32  1  0.90998157  0.21001424  0.65905030  1
  H  H33  1  0.09001843  0.71001424  0.84094970  1
  H  H34  1  0.09001843  0.78998576  0.34094970  1
  H  H35  1  0.90998157  0.28998576  0.15905030  1
  C  C36  1  0.31887006  0.99279951  0.62104284  1
  C  C37  1  0.68112994  0.49279951  0.87895716  1
  C  C38  1  0.68112994  0.00720049  0.37895716  1
  C  C39  1  0.31887006  0.50720049  0.12104284  1
  S  S40  1  0.38656704  0.16558601  0.69570577  1
  S  S41  1  0.61343296  0.66558601  0.80429423  1
  S  S42  1  0.61343296  0.83441399  0.30429423  1
  S  S43  1  0.38656704  0.33441399  0.19570577  1
  O  O44  1  0.49287710  0.25158843  0.62371306  1
  O  O45  1  0.50712290  0.75158843  0.87628694  1
  O  O46  1  0.50712290  0.74841157  0.37628694  1
  O  O47  1  0.49287710  0.24841157  0.12371306  1
  O  O48  1  0.48700622  0.10266800  0.78393065  1
  O  O49  1  0.51299378  0.60266800  0.71606935  1
  O  O50  1  0.51299378  0.89733200  0.21606935  1
  O  O51  1  0.48700622  0.39733200  0.28393065  1
  O  O52  1  0.22346138  0.23683336  0.72108783  1
  O  O53  1  0.77653862  0.73683336  0.77891217  1
  O  O54  1  0.77653862  0.76316664  0.27891217  1
  O  O55  1  0.22346138  0.26316664  0.22108783  1
  O  O56  1  0.02045478  0.18817235  0.93973728  1
  O  O57  1  0.97954522  0.68817235  0.56026272  1
  O  O58  1  0.97954522  0.81182765  0.06026272  1
  O  O59  1  0.02045478  0.31182765  0.43973728  1
  O  O60  1  0.31329528  0.06785203  0.97119177  1
  O  O61  1  0.68670472  0.56785203  0.52880823  1
  O  O62  1  0.68670472  0.93214797  0.02880823  1
  O  O63  1  0.31329528  0.43214797  0.47119177  1
  O  O64  1  0.85492505  0.06523304  0.78664313  1
  O  O65  1  0.14507495  0.56523304  0.71335687  1
  O  O66  1  0.14507495  0.93476696  0.21335687  1
  O  O67  1  0.85492505  0.43476696  0.28664313  1
  O  O68  1  0.86752640  0.28701694  0.60993111  1
  O  O69  1  0.13247360  0.78701694  0.89006889  1
  O  O70  1  0.13247360  0.71298306  0.39006889  1
  O  O71  1  0.86752640  0.21298306  0.10993111  1
  F  F72  1  0.45876322  0.91097835  0.59361639  1
  F  F73  1  0.54123678  0.41097835  0.90638361  1
  F  F74  1  0.54123678  0.08902165  0.40638361  1
  F  F75  1  0.45876322  0.58902165  0.09361639  1
  F  F76  1  0.21727049  0.90270513  0.67873084  1
  F  F77  1  0.78272951  0.40270513  0.82126916  1
  F  F78  1  0.78272951  0.09729487  0.32126916  1
  F  F79  1  0.21727049  0.59729487  0.17873084  1
  F  F80  1  0.22707242  0.03354287  0.53491137  1
  F  F81  1  0.77292758  0.53354287  0.96508863  1
  F  F82  1  0.77292758  0.96645713  0.46508863  1
  F  F83  1  0.22707242  0.46645713  0.03491137  1
