# generated using pymatgen
data_Tb5SbPd2
_symmetry_space_group_name_H-M   'P 1'
_cell_length_a   7.82986680
_cell_length_b   7.82986680
_cell_length_c   8.76760546
_cell_angle_alpha   116.52079122
_cell_angle_beta   116.52079122
_cell_angle_gamma   90.00000000
_symmetry_Int_Tables_number   1
_chemical_formula_structural   Tb5SbPd2
_chemical_formula_sum   'Tb10 Sb2 Pd4'
_cell_volume   416.78488969
_cell_formula_units_Z   2
loop_
 _symmetry_equiv_pos_site_id
 _symmetry_equiv_pos_as_xyz
  1  'x, y, z'
loop_
 _atom_site_type_symbol
 _atom_site_label
 _atom_site_symmetry_multiplicity
 _atom_site_fract_x
 _atom_site_fract_y
 _atom_site_fract_z
 _atom_site_occupancy
  Tb  Tb0  1  -0.00000000  -0.00000000  -0.00000000  1
  Tb  Tb1  1  0.50000000  0.50000000  0.00000000  1
  Tb  Tb2  1  0.29899319  0.79899319  0.28486280  1
  Tb  Tb3  1  0.70100681  0.20100681  0.71513720  1
  Tb  Tb4  1  0.98586960  0.48586960  0.28486280  1
  Tb  Tb5  1  0.48586960  0.29899319  0.28486280  1
  Tb  Tb6  1  0.20100681  0.01413040  0.71513720  1
  Tb  Tb7  1  0.01413040  0.51413040  0.71513720  1
  Tb  Tb8  1  0.51413040  0.70100681  0.71513720  1
  Tb  Tb9  1  0.79899319  0.98586960  0.28486280  1
  Sb  Sb10  1  0.25000000  0.25000000  0.50000000  1
  Sb  Sb11  1  0.75000000  0.75000000  0.50000000  1
  Pd  Pd12  1  0.63654830  0.13654830  -0.00000000  1
  Pd  Pd13  1  0.36345170  0.86345170  0.00000000  1
  Pd  Pd14  1  0.86345170  0.63654830  -0.00000000  1
  Pd  Pd15  1  0.13654830  0.36345170  0.00000000  1
