# generated using pymatgen
data_Sm3B2(O2F)3
_symmetry_space_group_name_H-M   'P 1'
_cell_length_a   6.29305463
_cell_length_b   7.19537710
_cell_length_c   8.39377953
_cell_angle_alpha   96.24351072
_cell_angle_beta   90.00000000
_cell_angle_gamma   115.93164334
_symmetry_Int_Tables_number   1
_chemical_formula_structural   Sm3B2(O2F)3
_chemical_formula_sum   'Sm6 B4 O12 F6'
_cell_volume   339.30176123
_cell_formula_units_Z   2
loop_
 _symmetry_equiv_pos_site_id
 _symmetry_equiv_pos_as_xyz
  1  'x, y, z'
loop_
 _atom_site_type_symbol
 _atom_site_label
 _atom_site_symmetry_multiplicity
 _atom_site_fract_x
 _atom_site_fract_y
 _atom_site_fract_z
 _atom_site_occupancy
  Sm  Sm0  1  0.28634954  0.35633972  0.67944793  1
  Sm  Sm1  1  0.71365046  0.64366028  0.32055207  1
  Sm  Sm2  1  0.93000982  0.64366028  0.82055207  1
  Sm  Sm3  1  0.06999018  0.35633972  0.17944793  1
  Sm  Sm4  1  0.60099631  1.00000000  0.75000000  1
  Sm  Sm5  1  0.39900369  0.00000000  0.25000000  1
  B  B6  1  0.41054497  0.63818576  0.97811616  1
  B  B7  1  0.58945503  0.36181424  0.02188384  1
  B  B8  1  0.77235921  0.36181424  0.52188384  1
  B  B9  1  0.22764079  0.63818576  0.47811616  1
  O  O10  1  0.55077069  0.29930340  0.85826330  1
  O  O11  1  0.44922931  0.70069660  0.14173670  1
  O  O12  1  0.25146729  0.70069660  0.64173670  1
  O  O13  1  0.74853271  0.29930340  0.35826330  1
  O  O14  1  0.70471394  0.51960011  0.57473976  1
  O  O15  1  0.29528606  0.48039989  0.42526024  1
  O  O16  1  0.18511383  0.48039989  0.92526024  1
  O  O17  1  0.81488617  0.51960011  0.07473976  1
  O  O18  1  0.57951364  0.69880544  0.86550129  1
  O  O19  1  0.42048636  0.30119456  0.13449871  1
  O  O20  1  0.88070820  0.30119456  0.63449871  1
  O  O21  1  0.11929180  0.69880544  0.36550129  1
  F  F22  1  0.97595077  1.00000000  0.75000000  1
  F  F23  1  0.02404923  0.00000000  0.25000000  1
  F  F24  1  0.27045048  0.89682006  0.95704474  1
  F  F25  1  0.72954952  0.10317994  0.04295526  1
  F  F26  1  0.37363042  0.10317994  0.54295526  1
  F  F27  1  0.62636958  0.89682006  0.45704474  1
