# generated using pymatgen
data_Tb4MgGe4
_symmetry_space_group_name_H-M   'P 1'
_cell_length_a   7.26971661
_cell_length_b   7.82101010
_cell_length_c   14.66667282
_cell_angle_alpha   90.00000000
_cell_angle_beta   90.00000000
_cell_angle_gamma   90.00000000
_symmetry_Int_Tables_number   1
_chemical_formula_structural   Tb4MgGe4
_chemical_formula_sum   'Tb16 Mg4 Ge16'
_cell_volume   833.89607964
_cell_formula_units_Z   4
loop_
 _symmetry_equiv_pos_site_id
 _symmetry_equiv_pos_as_xyz
  1  'x, y, z'
loop_
 _atom_site_type_symbol
 _atom_site_label
 _atom_site_symmetry_multiplicity
 _atom_site_fract_x
 _atom_site_fract_y
 _atom_site_fract_z
 _atom_site_occupancy
  Tb  Tb0  1  0.67031493  0.82178360  0.87287822  1
  Tb  Tb1  1  0.32968507  0.17821640  0.12712178  1
  Tb  Tb2  1  0.82968507  0.32178360  0.12712178  1
  Tb  Tb3  1  0.32968507  0.17821640  0.37287822  1
  Tb  Tb4  1  0.17031493  0.67821640  0.87287822  1
  Tb  Tb5  1  0.67031493  0.82178360  0.62712178  1
  Tb  Tb6  1  0.17031493  0.67821640  0.62712178  1
  Tb  Tb7  1  0.82968507  0.32178360  0.37287822  1
  Tb  Tb8  1  0.98814235  0.81692642  0.40440151  1
  Tb  Tb9  1  0.01185765  0.18307358  0.59559849  1
  Tb  Tb10  1  0.51185765  0.31692642  0.59559849  1
  Tb  Tb11  1  0.01185765  0.18307358  0.90440151  1
  Tb  Tb12  1  0.48814235  0.68307358  0.40440151  1
  Tb  Tb13  1  0.98814235  0.81692642  0.09559849  1
  Tb  Tb14  1  0.48814235  0.68307358  0.09559849  1
  Tb  Tb15  1  0.51185765  0.31692642  0.90440151  1
  Mg  Mg16  1  0.84020028  0.48110370  0.75000000  1
  Mg  Mg17  1  0.15979972  0.51889630  0.25000000  1
  Mg  Mg18  1  0.65979972  0.98110370  0.25000000  1
  Mg  Mg19  1  0.34020028  0.01889630  0.75000000  1
  Ge  Ge20  1  0.71379150  0.13722081  0.75000000  1
  Ge  Ge21  1  0.28620850  0.86277919  0.25000000  1
  Ge  Ge22  1  0.78620850  0.63722081  0.25000000  1
  Ge  Ge23  1  0.21379150  0.36277919  0.75000000  1
  Ge  Ge24  1  0.97709157  0.91194376  0.75000000  1
  Ge  Ge25  1  0.02290843  0.08805624  0.25000000  1
  Ge  Ge26  1  0.52290843  0.41194376  0.25000000  1
  Ge  Ge27  1  0.47709157  0.58805624  0.75000000  1
  Ge  Ge28  1  0.83117534  0.53356130  0.96404088  1
  Ge  Ge29  1  0.16882466  0.46643870  0.03595912  1
  Ge  Ge30  1  0.66882466  0.03356130  0.03595912  1
  Ge  Ge31  1  0.16882466  0.46643870  0.46404088  1
  Ge  Ge32  1  0.33117534  0.96643870  0.96404088  1
  Ge  Ge33  1  0.83117534  0.53356130  0.53595912  1
  Ge  Ge34  1  0.33117534  0.96643870  0.53595912  1
  Ge  Ge35  1  0.66882466  0.03356130  0.46404088  1
