# generated using pymatgen
data_InFe17O24
_symmetry_space_group_name_H-M   'P 1'
_cell_length_a   6.00101628
_cell_length_b   10.47759524
_cell_length_c   8.60100014
_cell_angle_alpha   114.16351679
_cell_angle_beta   89.86694333
_cell_angle_gamma   73.30634540
_symmetry_Int_Tables_number   1
_chemical_formula_structural   InFe17O24
_chemical_formula_sum   'In1 Fe17 O24'
_cell_volume   468.14912103
_cell_formula_units_Z   1
loop_
 _symmetry_equiv_pos_site_id
 _symmetry_equiv_pos_as_xyz
  1  'x, y, z'
loop_
 _atom_site_type_symbol
 _atom_site_label
 _atom_site_symmetry_multiplicity
 _atom_site_fract_x
 _atom_site_fract_y
 _atom_site_fract_z
 _atom_site_occupancy
  In  In0  1  0.74943990  0.99986347  0.12081506  1
  Fe  Fe1  1  0.49830984  0.50339856  0.00545625  1
  Fe  Fe2  1  0.33148591  0.83492007  0.17185874  1
  Fe  Fe3  1  0.91488017  0.67023484  0.21553193  1
  Fe  Fe4  1  0.32849589  0.33621184  0.16633952  1
  Fe  Fe5  1  0.83503975  0.33652282  0.16671165  1
  Fe  Fe6  1  0.41540206  0.66866415  0.45049178  1
  Fe  Fe7  1  0.16761422  0.16420746  0.33649798  1
  Fe  Fe8  1  0.00165468  0.49678049  0.50175731  1
  Fe  Fe9  1  0.83458438  0.83091375  0.65767472  1
  Fe  Fe10  1  0.58498879  0.33169764  0.54573469  1
  Fe  Fe11  1  0.00407365  0.00026019  0.50299820  1
  Fe  Fe12  1  0.49651893  0.00054346  0.50396666  1
  Fe  Fe13  1  0.66516665  0.66371786  0.83033199  1
  Fe  Fe14  1  0.17121883  0.66337745  0.83012054  1
  Fe  Fe15  1  0.08551878  0.32959711  0.78073691  1
  Fe  Fe16  1  0.66686773  0.16995453  0.82736656  1
  Fe  Fe17  1  0.24952867  0.00029053  0.88648284  1
  O  O18  1  0.18288512  0.67177711  0.08779138  1
  O  O19  1  0.64626805  0.67120829  0.08781307  1
  O  O20  1  0.49922179  0.50129664  0.23746572  1
  O  O21  1  0.65893704  0.18316161  0.07008935  1
  O  O22  1  0.32682516  0.83801597  0.40189111  1
  O  O23  1  0.82631240  0.84288064  0.43109944  1
  O  O24  1  0.00131846  0.49730566  0.25828765  1
  O  O25  1  0.16527456  0.16638964  0.10752501  1
  O  O26  1  0.31858422  0.32776758  0.41586198  1
  O  O27  1  0.85515404  0.32816828  0.41607752  1
  O  O28  1  0.68234876  0.66493725  0.57701213  1
  O  O29  1  0.46395287  0.99977636  0.26092068  1
  O  O30  1  0.03155955  0.00063103  0.26430550  1
  O  O31  1  0.15191998  0.66449396  0.57677078  1
  O  O32  1  0.17476049  0.15777364  0.56379920  1
  O  O33  1  0.00146886  0.49741057  0.73517939  1
  O  O34  1  0.84186722  0.81648554  0.88694272  1
  O  O35  1  0.67442831  0.16089929  0.59105666  1
  O  O36  1  0.49855295  0.50366625  0.76135203  1
  O  O37  1  0.33107403  0.83453671  0.94279540  1
  O  O38  1  0.98715440  0.99962502  0.74798949  1
  O  O39  1  0.51418268  0.99990765  0.75236815  1
  O  O40  1  0.34753872  0.33530851  0.91211776  1
  O  O41  1  0.81762152  0.33542058  0.91261458  1
