# generated using pymatgen
data_Nd2CoRuO6
_symmetry_space_group_name_H-M   'P 1'
_cell_length_a   5.44681265
_cell_length_b   5.82096450
_cell_length_c   7.81470355
_cell_angle_alpha   90.00000000
_cell_angle_beta   90.05189842
_cell_angle_gamma   90.00000000
_symmetry_Int_Tables_number   1
_chemical_formula_structural   Nd2CoRuO6
_chemical_formula_sum   'Nd4 Co2 Ru2 O12'
_cell_volume   247.77056851
_cell_formula_units_Z   2
loop_
 _symmetry_equiv_pos_site_id
 _symmetry_equiv_pos_as_xyz
  1  'x, y, z'
loop_
 _atom_site_type_symbol
 _atom_site_label
 _atom_site_symmetry_multiplicity
 _atom_site_fract_x
 _atom_site_fract_y
 _atom_site_fract_z
 _atom_site_occupancy
  Nd  Nd0  1  0.02088681  0.43333464  0.25068989  1
  Nd  Nd1  1  0.97911319  0.56666536  0.74931011  1
  Nd  Nd2  1  0.47911319  0.93333464  0.24931011  1
  Nd  Nd3  1  0.52088681  0.06666536  0.75068989  1
  Co  Co4  1  0.00000000  0.00000000  0.50000000  1
  Co  Co5  1  0.50000000  0.50000000  -0.00000000  1
  Ru  Ru6  1  0.00000000  0.00000000  -0.00000000  1
  Ru  Ru7  1  0.50000000  0.50000000  0.50000000  1
  O  O8  1  0.30134044  0.19589269  0.04916113  1
  O  O9  1  0.69865956  0.80410731  0.95083887  1
  O  O10  1  0.19865956  0.69589269  0.45083887  1
  O  O11  1  0.80134044  0.30410731  0.54916113  1
  O  O12  1  0.18984546  0.70539324  0.05527568  1
  O  O13  1  0.81015454  0.29460676  0.94472432  1
  O  O14  1  0.31015454  0.20539324  0.44472432  1
  O  O15  1  0.68984546  0.79460676  0.55527568  1
  O  O16  1  0.89890188  0.03272333  0.24672804  1
  O  O17  1  0.10109812  0.96727667  0.75327196  1
  O  O18  1  0.60109812  0.53272333  0.25327196  1
  O  O19  1  0.39890188  0.46727667  0.74672804  1
