# generated using pymatgen
data_Nd3CrS6
_symmetry_space_group_name_H-M   'P 1'
_cell_length_a   3.90365221
_cell_length_b   13.63439794
_cell_length_c   16.30946005
_cell_angle_alpha   90.00000000
_cell_angle_beta   90.00000000
_cell_angle_gamma   90.00000000
_symmetry_Int_Tables_number   1
_chemical_formula_structural   Nd3CrS6
_chemical_formula_sum   'Nd12 Cr4 S24'
_cell_volume   868.05384791
_cell_formula_units_Z   4
loop_
 _symmetry_equiv_pos_site_id
 _symmetry_equiv_pos_as_xyz
  1  'x, y, z'
loop_
 _atom_site_type_symbol
 _atom_site_label
 _atom_site_symmetry_multiplicity
 _atom_site_fract_x
 _atom_site_fract_y
 _atom_site_fract_z
 _atom_site_occupancy
  Nd  Nd0  1  0.00000000  0.55039334  0.28212303  1
  Nd  Nd1  1  0.00000000  0.44960666  0.71787697  1
  Nd  Nd2  1  0.50000000  0.94960666  0.78212303  1
  Nd  Nd3  1  0.50000000  0.05039334  0.21787697  1
  Nd  Nd4  1  0.00000000  0.75615332  0.09635895  1
  Nd  Nd5  1  -0.00000000  0.24384668  0.90364105  1
  Nd  Nd6  1  0.50000000  0.74384668  0.59635895  1
  Nd  Nd7  1  0.50000000  0.25615332  0.40364105  1
  Nd  Nd8  1  -0.00000000  0.31925782  0.14827101  1
  Nd  Nd9  1  -0.00000000  0.68074218  0.85172899  1
  Nd  Nd10  1  0.50000000  0.18074218  0.64827101  1
  Nd  Nd11  1  0.50000000  0.81925782  0.35172899  1
  Cr  Cr12  1  -0.00000000  0.00000000  0.50000000  1
  Cr  Cr13  1  0.50000000  0.50000000  0.00000000  1
  Cr  Cr14  1  -0.00000000  -0.00000000  0.00000000  1
  Cr  Cr15  1  0.50000000  0.50000000  0.50000000  1
  S  S16  1  -0.00000000  0.12089589  0.10308873  1
  S  S17  1  -0.00000000  0.87910411  0.89691127  1
  S  S18  1  0.50000000  0.37910411  0.60308873  1
  S  S19  1  0.50000000  0.62089589  0.39691127  1
  S  S20  1  -0.00000000  0.18631840  0.28924557  1
  S  S21  1  0.00000000  0.81368160  0.71075443  1
  S  S22  1  0.50000000  0.31368160  0.78924557  1
  S  S23  1  0.50000000  0.68631840  0.21075443  1
  S  S24  1  0.00000000  0.17612526  0.52041475  1
  S  S25  1  -0.00000000  0.82387474  0.47958525  1
  S  S26  1  0.50000000  0.32387474  0.02041475  1
  S  S27  1  0.50000000  0.67612526  0.97958525  1
  S  S28  1  0.00000000  0.52429279  0.09452262  1
  S  S29  1  0.00000000  0.47570721  0.90547738  1
  S  S30  1  0.50000000  0.97570721  0.59452262  1
  S  S31  1  0.50000000  0.02429279  0.40547738  1
  S  S32  1  0.00000000  0.10320805  0.75527186  1
  S  S33  1  -0.00000000  0.89679195  0.24472814  1
  S  S34  1  0.50000000  0.39679195  0.25527186  1
  S  S35  1  0.50000000  0.60320805  0.74472814  1
  S  S36  1  -0.00000000  0.41970182  0.42883068  1
  S  S37  1  -0.00000000  0.58029818  0.57116932  1
  S  S38  1  0.50000000  0.08029818  0.92883068  1
  S  S39  1  0.50000000  0.91970182  0.07116932  1
