# generated using pymatgen
data_Nd6TiInS12
_symmetry_space_group_name_H-M   'P 1'
_cell_length_a   3.94451849
_cell_length_b   13.89332048
_cell_length_c   16.36054951
_cell_angle_alpha   90.00000000
_cell_angle_beta   90.00000000
_cell_angle_gamma   90.00000000
_symmetry_Int_Tables_number   1
_chemical_formula_structural   Nd6TiInS12
_chemical_formula_sum   'Nd12 Ti2 In2 S24'
_cell_volume   896.59835226
_cell_formula_units_Z   2
loop_
 _symmetry_equiv_pos_site_id
 _symmetry_equiv_pos_as_xyz
  1  'x, y, z'
loop_
 _atom_site_type_symbol
 _atom_site_label
 _atom_site_symmetry_multiplicity
 _atom_site_fract_x
 _atom_site_fract_y
 _atom_site_fract_z
 _atom_site_occupancy
  Nd  Nd0  1  -0.00000000  0.75961412  0.10057751  1
  Nd  Nd1  1  -0.00000000  0.24038588  0.89942249  1
  Nd  Nd2  1  0.50000000  0.74038588  0.60057751  1
  Nd  Nd3  1  0.50000000  0.25961412  0.39942249  1
  Nd  Nd4  1  -0.00000000  0.31717052  0.14971416  1
  Nd  Nd5  1  0.00000000  0.68282948  0.85028584  1
  Nd  Nd6  1  0.50000000  0.18282948  0.64971416  1
  Nd  Nd7  1  0.50000000  0.81717052  0.35028584  1
  Nd  Nd8  1  0.00000000  0.54897780  0.28269187  1
  Nd  Nd9  1  0.00000000  0.45102220  0.71730813  1
  Nd  Nd10  1  0.50000000  0.95102220  0.78269187  1
  Nd  Nd11  1  0.50000000  0.04897780  0.21730813  1
  Ti  Ti12  1  0.00000000  0.00000000  0.00000000  1
  Ti  Ti13  1  0.50000000  0.50000000  0.50000000  1
  In  In14  1  0.00000000  0.00000000  0.50000000  1
  In  In15  1  0.50000000  0.50000000  0.00000000  1
  S  S16  1  0.00000000  0.10257392  0.75379510  1
  S  S17  1  -0.00000000  0.89742608  0.24620490  1
  S  S18  1  0.50000000  0.39742608  0.25379510  1
  S  S19  1  0.50000000  0.60257392  0.74620490  1
  S  S20  1  -0.00000000  0.41698202  0.42626829  1
  S  S21  1  0.00000000  0.58301798  0.57373171  1
  S  S22  1  0.50000000  0.08301798  0.92626829  1
  S  S23  1  0.50000000  0.91698202  0.07373171  1
  S  S24  1  -0.00000000  0.18820394  0.52110328  1
  S  S25  1  0.00000000  0.81179606  0.47889672  1
  S  S26  1  0.50000000  0.31179606  0.02110328  1
  S  S27  1  0.50000000  0.68820394  0.97889672  1
  S  S28  1  -0.00000000  0.18694133  0.28767488  1
  S  S29  1  -0.00000000  0.81305867  0.71232512  1
  S  S30  1  0.50000000  0.31305867  0.78767488  1
  S  S31  1  0.50000000  0.68694133  0.21232512  1
  S  S32  1  0.00000000  0.52328999  0.10492746  1
  S  S33  1  -0.00000000  0.47671001  0.89507254  1
  S  S34  1  0.50000000  0.97671001  0.60492746  1
  S  S35  1  0.50000000  0.02328999  0.39507254  1
  S  S36  1  0.00000000  0.12030262  0.10291553  1
  S  S37  1  0.00000000  0.87969738  0.89708447  1
  S  S38  1  0.50000000  0.37969738  0.60291553  1
  S  S39  1  0.50000000  0.62030262  0.39708447  1
