# generated using pymatgen
data_NaTh2(PO4)3
_symmetry_space_group_name_H-M   'P 1'
_cell_length_a   6.86092401
_cell_length_b   8.23516918
_cell_length_c   9.45044211
_cell_angle_alpha   100.32352637
_cell_angle_beta   111.28423553
_cell_angle_gamma   90.00000000
_symmetry_Int_Tables_number   1
_chemical_formula_structural   NaTh2(PO4)3
_chemical_formula_sum   'Na2 Th4 P6 O24'
_cell_volume   488.24919032
_cell_formula_units_Z   2
loop_
 _symmetry_equiv_pos_site_id
 _symmetry_equiv_pos_as_xyz
  1  'x, y, z'
loop_
 _atom_site_type_symbol
 _atom_site_label
 _atom_site_symmetry_multiplicity
 _atom_site_fract_x
 _atom_site_fract_y
 _atom_site_fract_z
 _atom_site_occupancy
  Na  Na0  1  0.39688999  0.25000000  -0.00000000  1
  Na  Na1  1  0.60311001  0.75000000  -0.00000000  1
  Th  Th2  1  0.24837119  0.03581186  0.30635440  1
  Th  Th3  1  0.75162881  0.96418814  0.69364560  1
  Th  Th4  1  0.94201679  0.46418814  0.69364560  1
  Th  Th5  1  0.05798321  0.53581186  0.30635440  1
  P  P6  1  0.40030762  0.31285084  0.62080931  1
  P  P7  1  0.59969238  0.68714916  0.37919069  1
  P  P8  1  0.77949831  0.18714916  0.37919069  1
  P  P9  1  0.22050169  0.81285084  0.62080931  1
  P  P10  1  0.90136767  0.25000000  -0.00000000  1
  P  P11  1  0.09863233  0.75000000  -0.00000000  1
  O  O12  1  0.54575709  0.15898489  0.27642125  1
  O  O13  1  0.45424291  0.84101511  0.72357875  1
  O  O14  1  0.26933585  0.34101511  0.72357875  1
  O  O15  1  0.73066415  0.65898489  0.27642125  1
  O  O16  1  0.10740120  0.24829883  0.14313768  1
  O  O17  1  0.89259880  0.75170117  0.85686232  1
  O  O18  1  0.96426352  0.25170117  0.85686232  1
  O  O19  1  0.03573648  0.74829883  0.14313768  1
  O  O20  1  0.44599053  0.12433245  0.59395274  1
  O  O21  1  0.55400947  0.87566755  0.40604726  1
  O  O22  1  0.85203779  0.37566755  0.40604726  1
  O  O23  1  0.14796221  0.62433245  0.59395274  1
  O  O24  1  0.60551903  0.42254683  0.69245495  1
  O  O25  1  0.39448097  0.57745317  0.30754505  1
  O  O26  1  0.91306407  0.07745317  0.30754505  1
  O  O27  1  0.08693593  0.92254683  0.69245495  1
  O  O28  1  0.27460639  0.33074838  0.45014813  1
  O  O29  1  0.72539361  0.66925162  0.54985187  1
  O  O30  1  0.82445826  0.16925162  0.54985187  1
  O  O31  1  0.17554174  0.83074838  0.45014813  1
  O  O32  1  0.75191202  0.09208441  0.95044990  1
  O  O33  1  0.24808798  0.90791559  0.04955010  1
  O  O34  1  0.80146212  0.40791559  0.04955010  1
  O  O35  1  0.19853788  0.59208441  0.95044990  1
