# generated using pymatgen
data_LuTl(MoO4)2
_symmetry_space_group_name_H-M   'P 1'
_cell_length_a   6.09698313
_cell_length_b   15.15586413
_cell_length_c   9.05117808
_cell_angle_alpha   90.00000000
_cell_angle_beta   90.00000000
_cell_angle_gamma   90.00000000
_symmetry_Int_Tables_number   1
_chemical_formula_structural   LuTl(MoO4)2
_chemical_formula_sum   'Lu4 Tl4 Mo8 O32'
_cell_volume   836.37454423
_cell_formula_units_Z   4
loop_
 _symmetry_equiv_pos_site_id
 _symmetry_equiv_pos_as_xyz
  1  'x, y, z'
loop_
 _atom_site_type_symbol
 _atom_site_label
 _atom_site_symmetry_multiplicity
 _atom_site_fract_x
 _atom_site_fract_y
 _atom_site_fract_z
 _atom_site_occupancy
  Lu  Lu0  1  0.75000000  0.89368052  0.69498591  1
  Lu  Lu1  1  0.25000000  0.10631948  0.30501409  1
  Lu  Lu2  1  0.25000000  0.60631948  0.19498591  1
  Lu  Lu3  1  0.75000000  0.39368052  0.80501409  1
  Tl  Tl4  1  0.75000000  0.62539221  0.55566535  1
  Tl  Tl5  1  0.25000000  0.37460779  0.44433465  1
  Tl  Tl6  1  0.25000000  0.87460779  0.05566535  1
  Tl  Tl7  1  0.75000000  0.12539221  0.94433465  1
  Mo  Mo8  1  0.75000000  0.96125281  0.28312194  1
  Mo  Mo9  1  0.25000000  0.03874719  0.71687806  1
  Mo  Mo10  1  0.25000000  0.53874719  0.78312194  1
  Mo  Mo11  1  0.75000000  0.46125281  0.21687806  1
  Mo  Mo12  1  0.75000000  0.71625294  0.99726148  1
  Mo  Mo13  1  0.25000000  0.28374706  0.00273852  1
  Mo  Mo14  1  0.25000000  0.78374706  0.49726148  1
  Mo  Mo15  1  0.75000000  0.21625294  0.50273852  1
  O  O16  1  0.75000000  0.85231405  0.21866662  1
  O  O17  1  0.25000000  0.14768595  0.78133338  1
  O  O18  1  0.25000000  0.64768595  0.71866662  1
  O  O19  1  0.75000000  0.35231405  0.28133338  1
  O  O20  1  0.75000000  0.96331917  0.48091385  1
  O  O21  1  0.25000000  0.03668083  0.51908615  1
  O  O22  1  0.25000000  0.53668083  0.98091385  1
  O  O23  1  0.75000000  0.46331917  0.01908615  1
  O  O24  1  0.75000000  0.63967401  0.85261579  1
  O  O25  1  0.25000000  0.36032599  0.14738421  1
  O  O26  1  0.25000000  0.86032599  0.35261579  1
  O  O27  1  0.75000000  0.13967401  0.64738421  1
  O  O28  1  0.75000000  0.82384744  0.90762186  1
  O  O29  1  0.25000000  0.17615256  0.09237814  1
  O  O30  1  0.25000000  0.67615256  0.40762186  1
  O  O31  1  0.75000000  0.32384744  0.59237814  1
  O  O32  1  0.00203926  0.80483783  0.60281343  1
  O  O33  1  0.99796074  0.19516217  0.39718657  1
  O  O34  1  0.99796074  0.69516217  0.10281343  1
  O  O35  1  0.50203926  0.19516217  0.39718657  1
  O  O36  1  0.00203926  0.30483783  0.89718657  1
  O  O37  1  0.49796074  0.80483783  0.60281343  1
  O  O38  1  0.49796074  0.30483783  0.89718657  1
  O  O39  1  0.50203926  0.69516217  0.10281343  1
  O  O40  1  0.49093037  0.98124291  0.78853708  1
  O  O41  1  0.50906963  0.01875709  0.21146292  1
  O  O42  1  0.50906963  0.51875709  0.28853708  1
  O  O43  1  0.99093037  0.01875709  0.21146292  1
  O  O44  1  0.49093037  0.48124291  0.71146292  1
  O  O45  1  0.00906963  0.98124291  0.78853708  1
  O  O46  1  0.00906963  0.48124291  0.71146292  1
  O  O47  1  0.99093037  0.51875709  0.28853708  1
