# generated using pymatgen
data_Mg2Cr5(PO4)6
_symmetry_space_group_name_H-M   'P 1'
_cell_length_a   6.37460443
_cell_length_b   8.00108788
_cell_length_c   9.41837118
_cell_angle_alpha   105.40874440
_cell_angle_beta   108.26973640
_cell_angle_gamma   101.12418700
_symmetry_Int_Tables_number   1
_chemical_formula_structural   Mg2Cr5(PO4)6
_chemical_formula_sum   'Mg2 Cr5 P6 O24'
_cell_volume   419.26343747
_cell_formula_units_Z   1
loop_
 _symmetry_equiv_pos_site_id
 _symmetry_equiv_pos_as_xyz
  1  'x, y, z'
loop_
 _atom_site_type_symbol
 _atom_site_label
 _atom_site_symmetry_multiplicity
 _atom_site_fract_x
 _atom_site_fract_y
 _atom_site_fract_z
 _atom_site_occupancy
  Mg  Mg0  1  0.28491838  0.31049783  0.79147281  1
  Mg  Mg1  1  0.71508162  0.68950217  0.20852719  1
  Cr  Cr2  1  0.05127042  0.21751686  0.02383066  1
  Cr  Cr3  1  0.94872958  0.78248314  0.97616934  1
  Cr  Cr4  1  0.61726371  0.04121702  0.38859530  1
  Cr  Cr5  1  0.38273629  0.95878298  0.61140470  1
  Cr  Cr6  1  0.00000000  0.50000000  0.50000000  1
  P  P7  1  0.60744486  0.26614981  0.13183067  1
  P  P8  1  0.39255514  0.73385019  0.86816933  1
  P  P9  1  0.09295344  0.09406121  0.33334060  1
  P  P10  1  0.90704656  0.90593879  0.66665940  1
  P  P11  1  0.22640801  0.64818138  0.26616216  1
  P  P12  1  0.77359199  0.35181862  0.73383784  1
  O  O13  1  0.55120659  0.13052004  0.21244084  1
  O  O14  1  0.44879341  0.86947996  0.78755916  1
  O  O15  1  0.72653529  0.46163870  0.25833288  1
  O  O16  1  0.27346471  0.53836130  0.74166712  1
  O  O17  1  0.37222360  0.26440186  0.00634534  1
  O  O18  1  0.62777640  0.73559814  0.99365466  1
  O  O19  1  0.22729088  0.70332996  0.43953386  1
  O  O20  1  0.77270912  0.29667004  0.56046614  1
  O  O21  1  0.06963449  0.04835137  0.15529349  1
  O  O22  1  0.93036551  0.95164863  0.84470651  1
  O  O23  1  0.11817752  0.28830197  0.41808716  1
  O  O24  1  0.88182248  0.71169803  0.58191284  1
  O  O25  1  0.20760651  0.44844540  0.20463271  1
  O  O26  1  0.79239349  0.55155460  0.79536729  1
  O  O27  1  0.31432962  0.04181230  0.41848849  1
  O  O28  1  0.68567038  0.95818770  0.58151151  1
  O  O29  1  0.11981285  0.03639139  0.66093562  1
  O  O30  1  0.88018715  0.96360861  0.33906438  1
  O  O31  1  0.45643630  0.76349321  0.26820851  1
  O  O32  1  0.54356370  0.23650679  0.73179149  1
  O  O33  1  0.01227813  0.68779212  0.15826306  1
  O  O34  1  0.98772187  0.31220788  0.84173694  1
  O  O35  1  0.75215239  0.21441620  0.03478077  1
  O  O36  1  0.24784761  0.78558380  0.96521923  1
