# generated using pymatgen
data_CuH4C2S2N2Cl
_symmetry_space_group_name_H-M   'P 1'
_cell_length_a   15.57342370
_cell_length_b   6.95099659
_cell_length_c   11.56708615
_cell_angle_alpha   90.00000000
_cell_angle_beta   90.00000000
_cell_angle_gamma   90.00000000
_symmetry_Int_Tables_number   1
_chemical_formula_structural   CuH4C2S2N2Cl
_chemical_formula_sum   'Cu8 H32 C16 S16 N16 Cl8'
_cell_volume   1252.14650330
_cell_formula_units_Z   8
loop_
 _symmetry_equiv_pos_site_id
 _symmetry_equiv_pos_as_xyz
  1  'x, y, z'
loop_
 _atom_site_type_symbol
 _atom_site_label
 _atom_site_symmetry_multiplicity
 _atom_site_fract_x
 _atom_site_fract_y
 _atom_site_fract_z
 _atom_site_occupancy
  Cu  Cu0  1  0.66798888  0.11498241  0.25574363  1
  Cu  Cu1  1  0.16798888  0.38501759  0.74425637  1
  Cu  Cu2  1  0.33201112  0.61498241  0.24425637  1
  Cu  Cu3  1  0.83201112  0.88501759  0.75574363  1
  Cu  Cu4  1  0.33201112  0.88501759  0.74425637  1
  Cu  Cu5  1  0.83201112  0.61498241  0.25574363  1
  Cu  Cu6  1  0.66798888  0.38501759  0.75574363  1
  Cu  Cu7  1  0.16798888  0.11498241  0.24425637  1
  H  H8  1  0.90598672  0.02147521  0.43185233  1
  H  H9  1  0.40598672  0.47852479  0.56814767  1
  H  H10  1  0.09401328  0.52147521  0.06814767  1
  H  H11  1  0.59401328  0.97852479  0.93185233  1
  H  H12  1  0.09401328  0.97852479  0.56814767  1
  H  H13  1  0.59401328  0.52147521  0.43185233  1
  H  H14  1  0.90598672  0.47852479  0.93185233  1
  H  H15  1  0.40598672  0.02147521  0.06814767  1
  H  H16  1  0.79487137  0.07345569  0.41942349  1
  H  H17  1  0.29487137  0.42654431  0.58057651  1
  H  H18  1  0.20512863  0.57345569  0.08057651  1
  H  H19  1  0.70512863  0.92654431  0.91942349  1
  H  H20  1  0.20512863  0.92654431  0.58057651  1
  H  H21  1  0.70512863  0.57345569  0.41942349  1
  H  H22  1  0.79487137  0.42654431  0.91942349  1
  H  H23  1  0.29487137  0.07345569  0.08057651  1
  H  H24  1  0.91864134  0.15730151  0.07277250  1
  H  H25  1  0.41864134  0.34269849  0.92722750  1
  H  H26  1  0.08135866  0.65730151  0.42722750  1
  H  H27  1  0.58135866  0.84269849  0.57277250  1
  H  H28  1  0.08135866  0.84269849  0.92722750  1
  H  H29  1  0.58135866  0.65730151  0.07277250  1
  H  H30  1  0.91864134  0.34269849  0.57277250  1
  H  H31  1  0.41864134  0.15730151  0.42722750  1
  H  H32  1  0.03196468  0.15837364  0.09080176  1
  H  H33  1  0.53196468  0.34162636  0.90919824  1
  H  H34  1  0.96803532  0.65837364  0.40919824  1
  H  H35  1  0.46803532  0.84162636  0.59080176  1
  H  H36  1  0.96803532  0.84162636  0.90919824  1
  H  H37  1  0.46803532  0.65837364  0.09080176  1
  H  H38  1  0.03196468  0.34162636  0.59080176  1
  H  H39  1  0.53196468  0.15837364  0.40919824  1
  C  C40  1  0.87060665  0.15834148  0.28373324  1
  C  C41  1  0.37060665  0.34165852  0.71626676  1
  C  C42  1  0.12939335  0.65834148  0.21626676  1
  C  C43  1  0.62939335  0.84165852  0.78373324  1
  C  C44  1  0.12939335  0.84165852  0.71626676  1
  C  C45  1  0.62939335  0.65834148  0.28373324  1
  C  C46  1  0.87060665  0.34165852  0.78373324  1
  C  C47  1  0.37060665  0.15834148  0.21626676  1
  C  C48  1  0.96099979  0.16102769  0.23931489  1
  C  C49  1  0.46099979  0.33897231  0.76068511  1
  C  C50  1  0.03900021  0.66102769  0.26068511  1
  C  C51  1  0.53900021  0.83897231  0.73931489  1
  C  C52  1  0.03900021  0.83897231  0.76068511  1
  C  C53  1  0.53900021  0.66102769  0.23931489  1
  C  C54  1  0.96099979  0.33897231  0.73931489  1
  C  C55  1  0.46099979  0.16102769  0.26068511  1
  S  S56  1  0.79236202  0.25424930  0.19908659  1
  S  S57  1  0.29236202  0.24575070  0.80091341  1
  S  S58  1  0.20763798  0.75424930  0.30091341  1
  S  S59  1  0.70763798  0.74575070  0.69908659  1
  S  S60  1  0.20763798  0.74575070  0.80091341  1
  S  S61  1  0.70763798  0.75424930  0.19908659  1
  S  S62  1  0.79236202  0.24575070  0.69908659  1
  S  S63  1  0.29236202  0.25424930  0.30091341  1
  S  S64  1  0.04286859  0.16115080  0.33528735  1
  S  S65  1  0.54286859  0.33884920  0.66471265  1
  S  S66  1  0.95713141  0.66115080  0.16471265  1
  S  S67  1  0.45713141  0.83884920  0.83528735  1
  S  S68  1  0.95713141  0.83884920  0.66471265  1
  S  S69  1  0.45713141  0.66115080  0.33528735  1
  S  S70  1  0.04286859  0.33884920  0.83528735  1
  S  S71  1  0.54286859  0.16115080  0.16471265  1
  N  N72  1  0.85642514  0.07978461  0.38580771  1
  N  N73  1  0.35642514  0.42021539  0.61419229  1
  N  N74  1  0.14357486  0.57978461  0.11419229  1
  N  N75  1  0.64357486  0.92021539  0.88580771  1
  N  N76  1  0.14357486  0.92021539  0.61419229  1
  N  N77  1  0.64357486  0.57978461  0.38580771  1
  N  N78  1  0.85642514  0.42021539  0.88580771  1
  N  N79  1  0.35642514  0.07978461  0.11419229  1
  N  N80  1  0.97105568  0.16881871  0.12601667  1
  N  N81  1  0.47105568  0.33118129  0.87398333  1
  N  N82  1  0.02894432  0.66881871  0.37398333  1
  N  N83  1  0.52894432  0.83118129  0.62601667  1
  N  N84  1  0.02894432  0.83118129  0.87398333  1
  N  N85  1  0.52894432  0.66881871  0.12601667  1
  N  N86  1  0.97105568  0.33118129  0.62601667  1
  N  N87  1  0.47105568  0.16881871  0.37398333  1
  Cl  Cl88  1  0.66085853  0.08509585  0.45593551  1
  Cl  Cl89  1  0.16085853  0.41490415  0.54406449  1
  Cl  Cl90  1  0.33914147  0.58509585  0.04406449  1
  Cl  Cl91  1  0.83914147  0.91490415  0.95593551  1
  Cl  Cl92  1  0.33914147  0.91490415  0.54406449  1
  Cl  Cl93  1  0.83914147  0.58509585  0.45593551  1
  Cl  Cl94  1  0.66085853  0.41490415  0.95593551  1
  Cl  Cl95  1  0.16085853  0.08509585  0.04406449  1
