# generated using pymatgen
data_Rb3FeCl5
_symmetry_space_group_name_H-M   'P 1'
_cell_length_a   8.98579765
_cell_length_b   8.98579765
_cell_length_c   9.70206081
_cell_angle_alpha   117.58648998
_cell_angle_beta   117.58648998
_cell_angle_gamma   90.00000000
_symmetry_Int_Tables_number   1
_chemical_formula_structural   Rb3FeCl5
_chemical_formula_sum   'Rb6 Fe2 Cl10'
_cell_volume   592.01624798
_cell_formula_units_Z   2
loop_
 _symmetry_equiv_pos_site_id
 _symmetry_equiv_pos_as_xyz
  1  'x, y, z'
loop_
 _atom_site_type_symbol
 _atom_site_label
 _atom_site_symmetry_multiplicity
 _atom_site_fract_x
 _atom_site_fract_y
 _atom_site_fract_z
 _atom_site_occupancy
  Rb  Rb0  1  0.25000000  0.25000000  0.50000000  1
  Rb  Rb1  1  0.75000000  0.75000000  0.50000000  1
  Rb  Rb2  1  0.66769304  0.16769304  0.00000000  1
  Rb  Rb3  1  0.33230696  0.83230696  -0.00000000  1
  Rb  Rb4  1  0.83230696  0.66769304  -0.00000000  1
  Rb  Rb5  1  0.16769304  0.33230696  0.00000000  1
  Fe  Fe6  1  0.25000000  0.75000000  0.50000000  1
  Fe  Fe7  1  0.75000000  0.25000000  0.50000000  1
  Cl  Cl8  1  0.29584390  0.79584390  0.30731864  1
  Cl  Cl9  1  0.70415610  0.20415610  0.69268136  1
  Cl  Cl10  1  0.01147473  0.51147473  0.30731864  1
  Cl  Cl11  1  0.51147473  0.29584390  0.30731864  1
  Cl  Cl12  1  0.20415610  0.98852527  0.69268136  1
  Cl  Cl13  1  0.98852527  0.48852527  0.69268136  1
  Cl  Cl14  1  0.48852527  0.70415610  0.69268136  1
  Cl  Cl15  1  0.79584390  0.01147473  0.30731864  1
  Cl  Cl16  1  0.00000000  -0.00000000  0.00000000  1
  Cl  Cl17  1  0.50000000  0.50000000  -0.00000000  1
