# generated using pymatgen
data_Nd2Ta3(SeO4)2
_symmetry_space_group_name_H-M   'P 1'
_cell_length_a   7.65459198
_cell_length_b   9.97325134
_cell_length_c   11.95508583
_cell_angle_alpha   90.00000000
_cell_angle_beta   90.00000000
_cell_angle_gamma   90.00000000
_symmetry_Int_Tables_number   1
_chemical_formula_structural   Nd2Ta3(SeO4)2
_chemical_formula_sum   'Nd8 Ta12 Se8 O32'
_cell_volume   912.66523639
_cell_formula_units_Z   4
loop_
 _symmetry_equiv_pos_site_id
 _symmetry_equiv_pos_as_xyz
  1  'x, y, z'
loop_
 _atom_site_type_symbol
 _atom_site_label
 _atom_site_symmetry_multiplicity
 _atom_site_fract_x
 _atom_site_fract_y
 _atom_site_fract_z
 _atom_site_occupancy
  Nd  Nd0  1  -0.00000000  0.22703143  0.35121300  1
  Nd  Nd1  1  -0.00000000  0.77296857  0.64878700  1
  Nd  Nd2  1  0.50000000  0.27296857  0.85121300  1
  Nd  Nd3  1  0.50000000  0.72703143  0.14878700  1
  Nd  Nd4  1  -0.00000000  0.70978688  0.15645702  1
  Nd  Nd5  1  -0.00000000  0.29021312  0.84354298  1
  Nd  Nd6  1  0.50000000  0.79021312  0.65645702  1
  Nd  Nd7  1  0.50000000  0.20978688  0.34354298  1
  Ta  Ta8  1  0.24983784  0.36437581  0.08431377  1
  Ta  Ta9  1  0.75016216  0.63562419  0.91568623  1
  Ta  Ta10  1  0.24983784  0.63562419  0.91568623  1
  Ta  Ta11  1  0.25016216  0.13562419  0.58431377  1
  Ta  Ta12  1  0.75016216  0.36437581  0.08431377  1
  Ta  Ta13  1  0.74983784  0.86437581  0.41568623  1
  Ta  Ta14  1  0.25016216  0.86437581  0.41568623  1
  Ta  Ta15  1  0.74983784  0.13562419  0.58431377  1
  Ta  Ta16  1  0.21435989  0.00000000  -0.00000000  1
  Ta  Ta17  1  0.78564011  0.00000000  -0.00000000  1
  Ta  Ta18  1  0.28564011  0.50000000  0.50000000  1
  Ta  Ta19  1  0.71435989  0.50000000  0.50000000  1
  Se  Se20  1  -0.00000000  0.01846487  0.16429778  1
  Se  Se21  1  -0.00000000  0.98153513  0.83570222  1
  Se  Se22  1  0.50000000  0.48153513  0.66429778  1
  Se  Se23  1  0.50000000  0.51846487  0.33570222  1
  Se  Se24  1  -0.00000000  0.52332904  0.35998237  1
  Se  Se25  1  -0.00000000  0.47667096  0.64001763  1
  Se  Se26  1  0.50000000  0.97667096  0.85998237  1
  Se  Se27  1  0.50000000  0.02332904  0.14001763  1
  O  O28  1  -0.00000000  0.36590434  0.05080289  1
  O  O29  1  -0.00000000  0.63409566  0.94919711  1
  O  O30  1  0.50000000  0.13409566  0.55080289  1
  O  O31  1  0.50000000  0.86590434  0.44919711  1
  O  O32  1  0.24704022  0.28653851  0.22500683  1
  O  O33  1  0.75295978  0.71346149  0.77499317  1
  O  O34  1  0.24704022  0.71346149  0.77499317  1
  O  O35  1  0.25295978  0.21346149  0.72500683  1
  O  O36  1  0.75295978  0.28653851  0.22500683  1
  O  O37  1  0.74704022  0.78653851  0.27499317  1
  O  O38  1  0.25295978  0.78653851  0.27499317  1
  O  O39  1  0.74704022  0.21346149  0.72500683  1
  O  O40  1  -0.00000000  0.14928946  0.54880535  1
  O  O41  1  -0.00000000  0.85071054  0.45119465  1
  O  O42  1  0.50000000  0.35071054  0.04880535  1
  O  O43  1  0.50000000  0.64928946  0.95119465  1
  O  O44  1  0.26366168  0.30252853  0.47538355  1
  O  O45  1  0.73633832  0.69747147  0.52461645  1
  O  O46  1  0.26366168  0.69747147  0.52461645  1
  O  O47  1  0.23633832  0.19747147  0.97538355  1
  O  O48  1  0.73633832  0.30252853  0.47538355  1
  O  O49  1  0.76366168  0.80252853  0.02461645  1
  O  O50  1  0.23633832  0.80252853  0.02461645  1
  O  O51  1  0.76366168  0.19747147  0.97538355  1
  O  O52  1  0.24531898  0.05711486  0.39660751  1
  O  O53  1  0.75468102  0.94288514  0.60339249  1
  O  O54  1  0.24531898  0.94288514  0.60339249  1
  O  O55  1  0.25468102  0.44288514  0.89660751  1
  O  O56  1  0.75468102  0.05711486  0.39660751  1
  O  O57  1  0.74531898  0.55711486  0.10339249  1
  O  O58  1  0.25468102  0.55711486  0.10339249  1
  O  O59  1  0.74531898  0.44288514  0.89660751  1
