# generated using pymatgen
data_InH3(IO4)2
_symmetry_space_group_name_H-M   'P 1'
_cell_length_a   6.96733405
_cell_length_b   7.91239474
_cell_length_c   7.80891924
_cell_angle_alpha   99.51443047
_cell_angle_beta   92.02717596
_cell_angle_gamma   109.21650583
_symmetry_Int_Tables_number   1
_chemical_formula_structural   InH3(IO4)2
_chemical_formula_sum   'In2 H6 I4 O16'
_cell_volume   399.04688913
_cell_formula_units_Z   2
loop_
 _symmetry_equiv_pos_site_id
 _symmetry_equiv_pos_as_xyz
  1  'x, y, z'
loop_
 _atom_site_type_symbol
 _atom_site_label
 _atom_site_symmetry_multiplicity
 _atom_site_fract_x
 _atom_site_fract_y
 _atom_site_fract_z
 _atom_site_occupancy
  In  In0  1  -0.00000000  0.00000000  0.00000000  1
  In  In1  1  -0.00000000  0.00000000  0.50000000  1
  H  H2  1  0.84982569  0.44947503  0.07185597  1
  H  H3  1  0.15017431  0.55052497  0.92814403  1
  H  H4  1  0.20453783  0.50242445  0.74118359  1
  H  H5  1  0.79546217  0.49757555  0.25881641  1
  H  H6  1  0.01505656  0.23380386  0.79156784  1
  H  H7  1  0.98494344  0.76619614  0.20843216  1
  I  I8  1  0.29006644  0.41963835  0.32837166  1
  I  I9  1  0.70993356  0.58036165  0.67162834  1
  I  I10  1  0.46813847  0.02764101  0.76102927  1
  I  I11  1  0.53186153  0.97235899  0.23897073  1
  O  O12  1  0.47086438  0.72885589  0.18476281  1
  O  O13  1  0.52913562  0.27114411  0.81523719  1
  O  O14  1  0.71675607  0.05452356  0.07914684  1
  O  O15  1  0.28324393  0.94547644  0.92085316  1
  O  O16  1  0.03728765  0.90237677  0.23334117  1
  O  O17  1  0.96271235  0.09762323  0.76665883  1
  O  O18  1  0.08989663  0.47604878  0.81369974  1
  O  O19  1  0.91010337  0.52395122  0.18630026  1
  O  O20  1  0.18809584  0.27867642  0.11263307  1
  O  O21  1  0.81190416  0.72132358  0.88736693  1
  O  O22  1  0.52476406  0.36574986  0.35422114  1
  O  O23  1  0.47523594  0.63425014  0.64577886  1
  O  O24  1  0.70519073  0.03159343  0.44171863  1
  O  O25  1  0.29480927  0.96840657  0.55828137  1
  O  O26  1  0.12996565  0.28358638  0.47275000  1
  O  O27  1  0.87003435  0.71641362  0.52725000  1
