# generated using pymatgen
data_MnZn10(B4Rh9)2
_symmetry_space_group_name_H-M   'P 1'
_cell_length_a   2.88834030
_cell_length_b   17.92267113
_cell_length_c   17.92267113
_cell_angle_alpha   90.00000000
_cell_angle_beta   90.00000000
_cell_angle_gamma   90.00000000
_symmetry_Int_Tables_number   1
_chemical_formula_structural   MnZn10(B4Rh9)2
_chemical_formula_sum   'Mn2 Zn20 B16 Rh36'
_cell_volume   927.79885347
_cell_formula_units_Z   2
loop_
 _symmetry_equiv_pos_site_id
 _symmetry_equiv_pos_as_xyz
  1  'x, y, z'
loop_
 _atom_site_type_symbol
 _atom_site_label
 _atom_site_symmetry_multiplicity
 _atom_site_fract_x
 _atom_site_fract_y
 _atom_site_fract_z
 _atom_site_occupancy
  Mn  Mn0  1  -0.00000000  0.00000000  0.00000000  1
  Mn  Mn1  1  -0.00000000  0.50000000  0.50000000  1
  Zn  Zn2  1  -0.00000000  0.05027027  0.55027027  1
  Zn  Zn3  1  0.00000000  0.94972973  0.44972973  1
  Zn  Zn4  1  0.00000000  0.44972973  0.05027027  1
  Zn  Zn5  1  -0.00000000  0.55027027  0.94972973  1
  Zn  Zn6  1  0.00000000  0.18743016  0.03188024  1
  Zn  Zn7  1  -0.00000000  0.81256984  0.96811976  1
  Zn  Zn8  1  0.00000000  0.96811976  0.18743016  1
  Zn  Zn9  1  -0.00000000  0.31256984  0.53188024  1
  Zn  Zn10  1  -0.00000000  0.03188024  0.81256984  1
  Zn  Zn11  1  0.00000000  0.68743016  0.46811976  1
  Zn  Zn12  1  -0.00000000  0.53188024  0.68743016  1
  Zn  Zn13  1  0.00000000  0.46811976  0.31256984  1
  Zn  Zn14  1  -0.00000000  0.70957326  0.20957326  1
  Zn  Zn15  1  0.00000000  0.29042674  0.79042674  1
  Zn  Zn16  1  0.00000000  0.79042674  0.70957326  1
  Zn  Zn17  1  -0.00000000  0.20957326  0.29042674  1
  Zn  Zn18  1  0.00000000  0.16871247  0.66871247  1
  Zn  Zn19  1  -0.00000000  0.83128753  0.33128753  1
  Zn  Zn20  1  -0.00000000  0.33128753  0.16871247  1
  Zn  Zn21  1  0.00000000  0.66871247  0.83128753  1
  B  B22  1  0.00000000  0.03891249  0.33429812  1
  B  B23  1  -0.00000000  0.96108751  0.66570188  1
  B  B24  1  0.00000000  0.66570188  0.03891249  1
  B  B25  1  -0.00000000  0.46108751  0.83429812  1
  B  B26  1  -0.00000000  0.33429812  0.96108751  1
  B  B27  1  0.00000000  0.53891249  0.16570188  1
  B  B28  1  -0.00000000  0.83429812  0.53891249  1
  B  B29  1  0.00000000  0.16570188  0.46108751  1
  B  B30  1  -0.00000000  0.12482173  0.16742971  1
  B  B31  1  0.00000000  0.87517827  0.83257029  1
  B  B32  1  0.00000000  0.83257029  0.12482173  1
  B  B33  1  0.00000000  0.37517827  0.66742971  1
  B  B34  1  -0.00000000  0.16742971  0.87517827  1
  B  B35  1  -0.00000000  0.62482173  0.33257029  1
  B  B36  1  -0.00000000  0.66742971  0.62482173  1
  B  B37  1  0.00000000  0.33257029  0.37517827  1
  Rh  Rh38  1  0.50000000  0.08796770  0.25591402  1
  Rh  Rh39  1  0.50000000  0.91203230  0.74408598  1
  Rh  Rh40  1  0.50000000  0.74408598  0.08796770  1
  Rh  Rh41  1  0.50000000  0.41203230  0.75591402  1
  Rh  Rh42  1  0.50000000  0.25591402  0.91203230  1
  Rh  Rh43  1  0.50000000  0.58796770  0.24408598  1
  Rh  Rh44  1  0.50000000  0.75591402  0.58796770  1
  Rh  Rh45  1  0.50000000  0.24408598  0.41203230  1
  Rh  Rh46  1  0.50000000  0.32595971  0.04761948  1
  Rh  Rh47  1  0.50000000  0.67404029  0.95238052  1
  Rh  Rh48  1  0.50000000  0.95238052  0.32595971  1
  Rh  Rh49  1  0.50000000  0.17404029  0.54761948  1
  Rh  Rh50  1  0.50000000  0.04761948  0.67404029  1
  Rh  Rh51  1  0.50000000  0.82595971  0.45238052  1
  Rh  Rh52  1  0.50000000  0.54761948  0.82595971  1
  Rh  Rh53  1  0.50000000  0.45238052  0.17404029  1
  Rh  Rh54  1  0.50000000  0.21140415  0.16009470  1
  Rh  Rh55  1  0.50000000  0.78859585  0.83990530  1
  Rh  Rh56  1  0.50000000  0.83990530  0.21140415  1
  Rh  Rh57  1  0.50000000  0.28859585  0.66009470  1
  Rh  Rh58  1  0.50000000  0.16009470  0.78859585  1
  Rh  Rh59  1  0.50000000  0.71140415  0.33990530  1
  Rh  Rh60  1  0.50000000  0.66009470  0.71140415  1
  Rh  Rh61  1  0.50000000  0.33990530  0.28859585  1
  Rh  Rh62  1  0.50000000  0.06754913  0.09993271  1
  Rh  Rh63  1  0.50000000  0.93245087  0.90006729  1
  Rh  Rh64  1  0.50000000  0.90006729  0.06754913  1
  Rh  Rh65  1  0.50000000  0.43245087  0.59993271  1
  Rh  Rh66  1  0.50000000  0.09993271  0.93245087  1
  Rh  Rh67  1  0.50000000  0.56754913  0.40006729  1
  Rh  Rh68  1  0.50000000  0.59993271  0.56754913  1
  Rh  Rh69  1  0.50000000  0.40006729  0.43245087  1
  Rh  Rh70  1  0.50000000  0.58217639  0.08217639  1
  Rh  Rh71  1  0.50000000  0.41782361  0.91782361  1
  Rh  Rh72  1  0.50000000  0.91782361  0.58217639  1
  Rh  Rh73  1  0.50000000  0.08217639  0.41782361  1
