# generated using pymatgen
data_LaSbIr
_symmetry_space_group_name_H-M   'P 1'
_cell_length_a   4.66616668
_cell_length_b   7.56493767
_cell_length_c   8.02715977
_cell_angle_alpha   90.00000000
_cell_angle_beta   90.00000000
_cell_angle_gamma   90.00000000
_symmetry_Int_Tables_number   1
_chemical_formula_structural   LaSbIr
_chemical_formula_sum   'La4 Sb4 Ir4'
_cell_volume   283.35280052
_cell_formula_units_Z   4
loop_
 _symmetry_equiv_pos_site_id
 _symmetry_equiv_pos_as_xyz
  1  'x, y, z'
loop_
 _atom_site_type_symbol
 _atom_site_label
 _atom_site_symmetry_multiplicity
 _atom_site_fract_x
 _atom_site_fract_y
 _atom_site_fract_z
 _atom_site_occupancy
  La  La0  1  0.75000000  0.97882438  0.31104206  1
  La  La1  1  0.25000000  0.02117562  0.68895794  1
  La  La2  1  0.25000000  0.52117562  0.81104206  1
  La  La3  1  0.75000000  0.47882438  0.18895794  1
  Sb  Sb4  1  0.75000000  0.82934634  0.91529531  1
  Sb  Sb5  1  0.25000000  0.17065366  0.08470469  1
  Sb  Sb6  1  0.25000000  0.67065366  0.41529531  1
  Sb  Sb7  1  0.75000000  0.32934634  0.58470469  1
  Ir  Ir8  1  0.75000000  0.70261441  0.59404080  1
  Ir  Ir9  1  0.25000000  0.29738559  0.40595920  1
  Ir  Ir10  1  0.25000000  0.79738559  0.09404080  1
  Ir  Ir11  1  0.75000000  0.20261441  0.90595920  1
