# generated using pymatgen
data_KGdTiO4
_symmetry_space_group_name_H-M   'P 1'
_cell_length_a   5.52534809
_cell_length_b   13.17142589
_cell_length_c   5.41075170
_cell_angle_alpha   90.00000000
_cell_angle_beta   90.00000000
_cell_angle_gamma   90.00000000
_symmetry_Int_Tables_number   1
_chemical_formula_structural   KGdTiO4
_chemical_formula_sum   'K4 Gd4 Ti4 O16'
_cell_volume   393.77672296
_cell_formula_units_Z   4
loop_
 _symmetry_equiv_pos_site_id
 _symmetry_equiv_pos_as_xyz
  1  'x, y, z'
loop_
 _atom_site_type_symbol
 _atom_site_label
 _atom_site_symmetry_multiplicity
 _atom_site_fract_x
 _atom_site_fract_y
 _atom_site_fract_z
 _atom_site_occupancy
  K  K0  1  0.02130106  0.40444538  0.75000000  1
  K  K1  1  0.97869894  0.59555462  0.25000000  1
  K  K2  1  0.52130106  0.59555462  0.75000000  1
  K  K3  1  0.47869894  0.40444538  0.25000000  1
  Gd  Gd4  1  0.52577838  0.89882742  0.75000000  1
  Gd  Gd5  1  0.47422162  0.10117258  0.25000000  1
  Gd  Gd6  1  0.02577838  0.10117258  0.75000000  1
  Gd  Gd7  1  0.97422162  0.89882742  0.25000000  1
  Ti  Ti8  1  0.00794004  0.75375701  0.75000000  1
  Ti  Ti9  1  0.99205996  0.24624299  0.25000000  1
  Ti  Ti10  1  0.50794004  0.24624299  0.75000000  1
  Ti  Ti11  1  0.49205996  0.75375701  0.25000000  1
  O  O12  1  0.75000000  0.20183690  0.00000000  1
  O  O13  1  0.25000000  0.79816310  0.00000000  1
  O  O14  1  0.25000000  0.79816310  0.50000000  1
  O  O15  1  0.75000000  0.20183690  0.50000000  1
  O  O16  1  0.93462505  0.93747345  0.75000000  1
  O  O17  1  0.06537495  0.06252655  0.25000000  1
  O  O18  1  0.43462505  0.06252655  0.75000000  1
  O  O19  1  0.56537495  0.93747345  0.25000000  1
  O  O20  1  0.75000000  0.77195493  0.00000000  1
  O  O21  1  0.25000000  0.22804507  0.00000000  1
  O  O22  1  0.25000000  0.22804507  0.50000000  1
  O  O23  1  0.75000000  0.77195493  0.50000000  1
  O  O24  1  0.53612477  0.37998405  0.75000000  1
  O  O25  1  0.46387523  0.62001595  0.25000000  1
  O  O26  1  0.03612477  0.62001595  0.75000000  1
  O  O27  1  0.96387523  0.37998405  0.25000000  1
