# generated using pymatgen
data_FeAg(SO4)2
_symmetry_space_group_name_H-M   'P 1'
_cell_length_a   4.83823196
_cell_length_b   4.83823196
_cell_length_c   7.50463165
_cell_angle_alpha   87.87384838
_cell_angle_beta   87.87384838
_cell_angle_gamma   65.62071135
_symmetry_Int_Tables_number   1
_chemical_formula_structural   FeAg(SO4)2
_chemical_formula_sum   'Fe1 Ag1 S2 O8'
_cell_volume   159.85195496
_cell_formula_units_Z   1
loop_
 _symmetry_equiv_pos_site_id
 _symmetry_equiv_pos_as_xyz
  1  'x, y, z'
loop_
 _atom_site_type_symbol
 _atom_site_label
 _atom_site_symmetry_multiplicity
 _atom_site_fract_x
 _atom_site_fract_y
 _atom_site_fract_z
 _atom_site_occupancy
  Fe  Fe0  1  0.00000000  -0.00000000  -0.00000000  1
  Ag  Ag1  1  0.00000000  -0.00000000  0.50000000  1
  S  S2  1  0.36352846  0.36352846  0.78526702  1
  S  S3  1  0.63647154  0.63647154  0.21473298  1
  O  O4  1  0.29428356  0.29428356  0.60999293  1
  O  O5  1  0.70571644  0.70571644  0.39000707  1
  O  O6  1  0.70394615  0.23832598  0.80494352  1
  O  O7  1  0.29605385  0.76167402  0.19505648  1
  O  O8  1  0.76167402  0.29605385  0.19505648  1
  O  O9  1  0.23832598  0.70394615  0.80494352  1
  O  O10  1  0.23929798  0.23929798  0.93752931  1
  O  O11  1  0.76070202  0.76070202  0.06247069  1
