# generated using pymatgen
data_Ho3Co2Si3
_symmetry_space_group_name_H-M   'P 1'
_cell_length_a   4.08947432
_cell_length_b   5.60071334
_cell_length_c   13.54771886
_cell_angle_alpha   90.00000000
_cell_angle_beta   90.00000000
_cell_angle_gamma   111.41282187
_symmetry_Int_Tables_number   1
_chemical_formula_structural   Ho3Co2Si3
_chemical_formula_sum   'Ho6 Co4 Si6'
_cell_volume   288.87810269
_cell_formula_units_Z   2
loop_
 _symmetry_equiv_pos_site_id
 _symmetry_equiv_pos_as_xyz
  1  'x, y, z'
loop_
 _atom_site_type_symbol
 _atom_site_label
 _atom_site_symmetry_multiplicity
 _atom_site_fract_x
 _atom_site_fract_y
 _atom_site_fract_z
 _atom_site_occupancy
  Ho  Ho0  1  0.36157506  0.72315011  0.25000000  1
  Ho  Ho1  1  0.63842494  0.27684989  0.75000000  1
  Ho  Ho2  1  0.08084512  0.16169024  0.11187281  1
  Ho  Ho3  1  0.91915488  0.83830976  0.88812719  1
  Ho  Ho4  1  0.91915488  0.83830976  0.61187281  1
  Ho  Ho5  1  0.08084512  0.16169024  0.38812719  1
  Co  Co6  1  0.21363085  0.42726169  0.58081536  1
  Co  Co7  1  0.78636915  0.57273831  0.41918464  1
  Co  Co8  1  0.78636915  0.57273831  0.08081536  1
  Co  Co9  1  0.21363085  0.42726169  0.91918464  1
  Si  Si10  1  0.66959543  0.33919086  0.25000000  1
  Si  Si11  1  0.33040457  0.66080914  0.75000000  1
  Si  Si12  1  0.37888273  0.75776546  0.03948203  1
  Si  Si13  1  0.62111727  0.24223454  0.96051797  1
  Si  Si14  1  0.62111727  0.24223454  0.53948203  1
  Si  Si15  1  0.37888273  0.75776546  0.46051797  1
