# generated using pymatgen
data_KTlS2
_symmetry_space_group_name_H-M   'P 1'
_cell_length_a   8.10072956
_cell_length_b   8.10072956
_cell_length_c   15.43483706
_cell_angle_alpha   97.57157279
_cell_angle_beta   97.57157279
_cell_angle_gamma   90.01708712
_symmetry_Int_Tables_number   1
_chemical_formula_structural   KTlS2
_chemical_formula_sum   'K8 Tl8 S16'
_cell_volume   995.11612329
_cell_formula_units_Z   8
loop_
 _symmetry_equiv_pos_site_id
 _symmetry_equiv_pos_as_xyz
  1  'x, y, z'
loop_
 _atom_site_type_symbol
 _atom_site_label
 _atom_site_symmetry_multiplicity
 _atom_site_fract_x
 _atom_site_fract_y
 _atom_site_fract_z
 _atom_site_occupancy
  K  K0  1  0.65481063  0.77779936  0.61743881  1
  K  K1  1  0.34518937  0.22220064  0.38256119  1
  K  K2  1  0.22220064  0.34518937  0.88256119  1
  K  K3  1  0.77779936  0.65481063  0.11743881  1
  K  K4  1  0.22445444  0.84550459  0.88709081  1
  K  K5  1  0.77554556  0.15449541  0.11290919  1
  K  K6  1  0.15449541  0.77554556  0.61290919  1
  K  K7  1  0.84550459  0.22445444  0.38709081  1
  Tl  Tl8  1  0.71140911  0.08575408  0.84384181  1
  Tl  Tl9  1  0.28859089  0.91424592  0.15615819  1
  Tl  Tl10  1  0.91424592  0.28859089  0.65615819  1
  Tl  Tl11  1  0.08575408  0.71140911  0.34384181  1
  Tl  Tl12  1  0.41336620  0.28840251  0.65582260  1
  Tl  Tl13  1  0.58663380  0.71159749  0.34417740  1
  Tl  Tl14  1  0.71159749  0.58663380  0.84417740  1
  Tl  Tl15  1  0.28840251  0.41336620  0.15582260  1
  S  S16  1  0.42467984  0.04774231  0.74933433  1
  S  S17  1  0.57532016  0.95225769  0.25066567  1
  S  S18  1  0.95225769  0.57532016  0.75066567  1
  S  S19  1  0.04774231  0.42467984  0.24933433  1
  S  S20  1  0.63819969  0.26370479  0.55331510  1
  S  S21  1  0.36180031  0.73629521  0.44668490  1
  S  S22  1  0.73629521  0.36180031  0.94668490  1
  S  S23  1  0.26370479  0.63819969  0.05331510  1
  S  S24  1  0.42446803  0.57553197  0.75000000  1
  S  S25  1  0.57553197  0.42446803  0.25000000  1
  S  S26  1  0.73538854  0.86215548  0.94827668  1
  S  S27  1  0.26461146  0.13784452  0.05172332  1
  S  S28  1  0.13784452  0.26461146  0.55172332  1
  S  S29  1  0.86215548  0.73538854  0.44827668  1
  S  S30  1  0.95153952  0.04846048  0.75000000  1
  S  S31  1  0.04846048  0.95153952  0.25000000  1
