# generated using pymatgen
data_Ho2Mn17C3
_symmetry_space_group_name_H-M   'P 1'
_cell_length_a   8.31740099
_cell_length_b   8.54521258
_cell_length_c   8.54521258
_cell_angle_alpha   119.99999739
_cell_angle_beta   90.00000000
_cell_angle_gamma   90.00000000
_symmetry_Int_Tables_number   1
_chemical_formula_structural   Ho2Mn17C3
_chemical_formula_sum   'Ho4 Mn34 C6'
_cell_volume   525.97369589
_cell_formula_units_Z   2
loop_
 _symmetry_equiv_pos_site_id
 _symmetry_equiv_pos_as_xyz
  1  'x, y, z'
loop_
 _atom_site_type_symbol
 _atom_site_label
 _atom_site_symmetry_multiplicity
 _atom_site_fract_x
 _atom_site_fract_y
 _atom_site_fract_z
 _atom_site_occupancy
  Ho  Ho0  1  0.75000000  0.66666700  0.33333300  1
  Ho  Ho1  1  0.25000000  0.33333300  0.66666700  1
  Ho  Ho2  1  0.75000000  -0.00000000  -0.00000000  1
  Ho  Ho3  1  0.25000000  -0.00000000  -0.00000000  1
  Mn  Mn4  1  0.75000000  0.61594226  0.67210628  1
  Mn  Mn5  1  0.25000000  0.38405774  0.32789372  1
  Mn  Mn6  1  0.75000000  0.05616402  0.38405774  1
  Mn  Mn7  1  0.25000000  0.94383598  0.32789372  1
  Mn  Mn8  1  0.25000000  0.94383598  0.61594226  1
  Mn  Mn9  1  0.75000000  0.05616402  0.67210628  1
  Mn  Mn10  1  0.75000000  0.32789372  0.94383598  1
  Mn  Mn11  1  0.25000000  0.67210628  0.61594226  1
  Mn  Mn12  1  0.25000000  0.67210628  0.05616402  1
  Mn  Mn13  1  0.75000000  0.32789372  0.38405774  1
  Mn  Mn14  1  0.25000000  0.38405774  0.05616402  1
  Mn  Mn15  1  0.75000000  0.61594226  0.94383598  1
  Mn  Mn16  1  0.38948646  0.66666700  0.33333300  1
  Mn  Mn17  1  0.61051354  0.33333300  0.66666700  1
  Mn  Mn18  1  0.88948646  0.33333300  0.66666700  1
  Mn  Mn19  1  0.11051354  0.66666700  0.33333300  1
  Mn  Mn20  1  0.97868413  0.82885421  0.17114579  1
  Mn  Mn21  1  0.02131587  0.17114579  0.82885421  1
  Mn  Mn22  1  0.97868413  0.34229158  0.17114579  1
  Mn  Mn23  1  0.47868413  0.17114579  0.82885421  1
  Mn  Mn24  1  0.02131587  0.65770842  0.82885421  1
  Mn  Mn25  1  0.52131587  0.82885421  0.17114579  1
  Mn  Mn26  1  0.97868413  0.82885421  0.65770842  1
  Mn  Mn27  1  0.47868413  0.65770842  0.82885421  1
  Mn  Mn28  1  0.02131587  0.17114579  0.34229158  1
  Mn  Mn29  1  0.52131587  0.34229158  0.17114579  1
  Mn  Mn30  1  0.47868413  0.17114579  0.34229158  1
  Mn  Mn31  1  0.52131587  0.82885421  0.65770842  1
  Mn  Mn32  1  -0.00000000  0.50000000  0.50000000  1
  Mn  Mn33  1  -0.00000000  -0.00000000  0.50000000  1
  Mn  Mn34  1  0.50000000  0.50000000  0.50000000  1
  Mn  Mn35  1  -0.00000000  0.50000000  -0.00000000  1
  Mn  Mn36  1  0.50000000  -0.00000000  0.50000000  1
  Mn  Mn37  1  0.50000000  0.50000000  -0.00000000  1
  C  C38  1  0.75000000  0.83566646  0.16433354  1
  C  C39  1  0.25000000  0.16433354  0.83566646  1
  C  C40  1  0.75000000  0.32866708  0.16433354  1
  C  C41  1  0.25000000  0.67133292  0.83566646  1
  C  C42  1  0.75000000  0.83566646  0.67133292  1
  C  C43  1  0.25000000  0.16433354  0.32866708  1
