# generated using pymatgen
data_Be(B3H8)2
_symmetry_space_group_name_H-M   'P 1'
_cell_length_a   12.01368609
_cell_length_b   7.88758662
_cell_length_c   12.91040915
_cell_angle_alpha   90.00000000
_cell_angle_beta   108.06045718
_cell_angle_gamma   90.00000000
_symmetry_Int_Tables_number   1
_chemical_formula_structural   Be(B3H8)2
_chemical_formula_sum   'Be4 B24 H64'
_cell_volume   1163.10142758
_cell_formula_units_Z   4
loop_
 _symmetry_equiv_pos_site_id
 _symmetry_equiv_pos_as_xyz
  1  'x, y, z'
loop_
 _atom_site_type_symbol
 _atom_site_label
 _atom_site_symmetry_multiplicity
 _atom_site_fract_x
 _atom_site_fract_y
 _atom_site_fract_z
 _atom_site_occupancy
  Be  Be0  1  0.50671967  0.52216070  0.22173146  1
  Be  Be1  1  0.00671967  0.97783930  0.72173146  1
  Be  Be2  1  0.49328033  0.47783930  0.77826854  1
  Be  Be3  1  0.99328033  0.02216070  0.27826854  1
  B  B4  1  0.45613383  0.72014336  0.28832063  1
  B  B5  1  0.95613383  0.77985664  0.78832063  1
  B  B6  1  0.54386617  0.27985664  0.71167937  1
  B  B7  1  0.04386617  0.22014336  0.21167937  1
  B  B8  1  0.30448062  0.72638544  0.20315474  1
  B  B9  1  0.80448062  0.77361456  0.70315474  1
  B  B10  1  0.69551938  0.27361456  0.79684526  1
  B  B11  1  0.19551938  0.22638544  0.29684526  1
  B  B12  1  0.42548012  0.72644979  0.14587490  1
  B  B13  1  0.92548012  0.77355021  0.64587490  1
  B  B14  1  0.57451988  0.27355021  0.85412510  1
  B  B15  1  0.07451988  0.22644979  0.35412510  1
  B  B16  1  0.53654533  0.29127243  0.22699680  1
  B  B17  1  0.03654533  0.20872757  0.72699680  1
  B  B18  1  0.46345467  0.70872757  0.77300320  1
  B  B19  1  0.96345467  0.79127243  0.27300320  1
  B  B20  1  0.64430177  0.27237147  0.36885809  1
  B  B21  1  0.14430177  0.22762853  0.86885809  1
  B  B22  1  0.35569823  0.72762853  0.63114191  1
  B  B23  1  0.85569823  0.77237147  0.13114191  1
  B  B24  1  0.66191962  0.41653508  0.29446002  1
  B  B25  1  0.16191962  0.08346492  0.79446002  1
  B  B26  1  0.33808038  0.58346492  0.70553998  1
  B  B27  1  0.83808038  0.91653508  0.20553998  1
  H  H28  1  0.50913420  0.83914335  0.33660481  1
  H  H29  1  0.00913420  0.66085665  0.83660481  1
  H  H30  1  0.49086580  0.16085665  0.66339519  1
  H  H31  1  0.99086580  0.33914335  0.16339519  1
  H  H32  1  0.09882152  0.93684015  0.05244619  1
  H  H33  1  0.59882152  0.56315985  0.55244619  1
  H  H34  1  0.90117848  0.06315985  0.94755381  1
  H  H35  1  0.40117848  0.43684015  0.44755381  1
  H  H36  1  0.46449350  0.84755024  0.11355414  1
  H  H37  1  0.96449350  0.65244976  0.61355414  1
  H  H38  1  0.53550650  0.15244976  0.88644586  1
  H  H39  1  0.03550650  0.34755024  0.38644586  1
  H  H40  1  0.24280770  0.60333187  0.19137040  1
  H  H41  1  0.74280770  0.89666813  0.69137040  1
  H  H42  1  0.75719230  0.39666813  0.80862960  1
  H  H43  1  0.25719230  0.10333187  0.30862960  1
  H  H44  1  0.36401374  0.70328848  0.31572958  1
  H  H45  1  0.86401374  0.79671152  0.81572958  1
  H  H46  1  0.63598626  0.29671152  0.68427042  1
  H  H47  1  0.13598626  0.20328848  0.18427042  1
  H  H48  1  0.31624404  0.72602022  0.09626722  1
  H  H49  1  0.81624404  0.77397978  0.59626722  1
  H  H50  1  0.68375596  0.27397978  0.90373278  1
  H  H51  1  0.18375596  0.22602022  0.40373278  1
  H  H52  1  0.44927850  0.59152799  0.10447736  1
  H  H53  1  0.94927850  0.90847201  0.60447736  1
  H  H54  1  0.55072150  0.40847201  0.89552264  1
  H  H55  1  0.05072150  0.09152799  0.39552264  1
  H  H56  1  0.50131729  0.58555326  0.33287003  1
  H  H57  1  0.00131729  0.91444674  0.83287003  1
  H  H58  1  0.49868271  0.41444674  0.66712997  1
  H  H59  1  0.99868271  0.08555326  0.16712997  1
  H  H60  1  0.52822516  0.19996992  0.15026013  1
  H  H61  1  0.02822516  0.30003008  0.65026013  1
  H  H62  1  0.47177484  0.80003008  0.84973987  1
  H  H63  1  0.97177484  0.69996992  0.34973987  1
  H  H64  1  0.32552820  0.81119402  0.55067722  1
  H  H65  1  0.82552820  0.68880598  0.05067722  1
  H  H66  1  0.67447180  0.18880598  0.44932278  1
  H  H67  1  0.17447180  0.31119402  0.94932278  1
  H  H68  1  0.23906507  0.36249045  0.29570351  1
  H  H69  1  0.73906507  0.13750955  0.79570351  1
  H  H70  1  0.76093493  0.63750955  0.70429649  1
  H  H71  1  0.26093493  0.86249045  0.20429649  1
  H  H72  1  0.39227193  0.38336723  0.49203545  1
  H  H73  1  0.89227193  0.11663277  0.99203545  1
  H  H74  1  0.60772807  0.61663277  0.50796455  1
  H  H75  1  0.10772807  0.88336723  0.00796455  1
  H  H76  1  0.55132419  0.17898152  0.30704481  1
  H  H77  1  0.05132419  0.32101848  0.80704481  1
  H  H78  1  0.44867581  0.82101848  0.69295519  1
  H  H79  1  0.94867581  0.67898152  0.19295519  1
  H  H80  1  0.72378455  0.27154053  0.31047489  1
  H  H81  1  0.22378455  0.22845947  0.81047489  1
  H  H82  1  0.27621545  0.72845947  0.68952511  1
  H  H83  1  0.77621545  0.77154053  0.18952511  1
  H  H84  1  0.71999585  0.53581905  0.28755598  1
  H  H85  1  0.21999585  0.96418095  0.78755598  1
  H  H86  1  0.28000415  0.46418095  0.71244402  1
  H  H87  1  0.78000415  0.03581905  0.21244402  1
  H  H88  1  0.43792946  0.35678443  0.22066581  1
  H  H89  1  0.93792946  0.14321557  0.72066581  1
  H  H90  1  0.56207054  0.64321557  0.77933419  1
  H  H91  1  0.06207054  0.85678443  0.27933419  1
