# generated using pymatgen
data_Ce3Ta(Cl3O2)2
_symmetry_space_group_name_H-M   'P 1'
_cell_length_a   3.96200571
_cell_length_b   12.97974672
_cell_length_c   12.97974673
_cell_angle_alpha   120.00000361
_cell_angle_beta   90.00000000
_cell_angle_gamma   90.00000000
_symmetry_Int_Tables_number   1
_chemical_formula_structural   Ce3Ta(Cl3O2)2
_chemical_formula_sum   'Ce6 Ta2 Cl12 O8'
_cell_volume   578.06696250
_cell_formula_units_Z   2
loop_
 _symmetry_equiv_pos_site_id
 _symmetry_equiv_pos_as_xyz
  1  'x, y, z'
loop_
 _atom_site_type_symbol
 _atom_site_label
 _atom_site_symmetry_multiplicity
 _atom_site_fract_x
 _atom_site_fract_y
 _atom_site_fract_z
 _atom_site_occupancy
  Ce  Ce0  1  0.75000000  0.71897196  0.11450396  1
  Ce  Ce1  1  0.25000000  0.28102804  0.88549604  1
  Ce  Ce2  1  0.75000000  0.39553201  0.28102804  1
  Ce  Ce3  1  0.25000000  0.60446799  0.71897196  1
  Ce  Ce4  1  0.75000000  0.88549604  0.60446799  1
  Ce  Ce5  1  0.25000000  0.11450396  0.39553201  1
  Ta  Ta6  1  0.75000000  0.33333300  0.66666700  1
  Ta  Ta7  1  0.25000000  0.66666700  0.33333300  1
  Cl  Cl8  1  0.75000000  0.93082039  0.37231090  1
  Cl  Cl9  1  0.25000000  0.06917961  0.62768910  1
  Cl  Cl10  1  0.75000000  0.44149051  0.06917961  1
  Cl  Cl11  1  0.25000000  0.55850949  0.93082039  1
  Cl  Cl12  1  0.75000000  0.62768910  0.55850949  1
  Cl  Cl13  1  0.25000000  0.37231090  0.44149051  1
  Cl  Cl14  1  0.75000000  0.75078148  0.89354006  1
  Cl  Cl15  1  0.25000000  0.24921852  0.10645994  1
  Cl  Cl16  1  0.75000000  0.14275859  0.24921852  1
  Cl  Cl17  1  0.25000000  0.85724141  0.75078148  1
  Cl  Cl18  1  0.75000000  0.10645994  0.85724141  1
  Cl  Cl19  1  0.25000000  0.89354006  0.14275859  1
  O  O20  1  0.75000000  0.49155390  0.69249019  1
  O  O21  1  0.25000000  0.50844610  0.30750981  1
  O  O22  1  0.75000000  0.20093629  0.50844610  1
  O  O23  1  0.25000000  0.79906371  0.49155390  1
  O  O24  1  0.75000000  0.30750981  0.79906371  1
  O  O25  1  0.25000000  0.69249019  0.20093629  1
  O  O26  1  0.75000000  0.66666700  0.33333300  1
  O  O27  1  0.25000000  0.33333300  0.66666700  1
