# generated using pymatgen
data_BaCdFeF7
_symmetry_space_group_name_H-M   'P 1'
_cell_length_a   5.52336299
_cell_length_b   7.55148750
_cell_length_c   15.29474366
_cell_angle_alpha   91.78682929
_cell_angle_beta   90.00000000
_cell_angle_gamma   111.45150392
_symmetry_Int_Tables_number   1
_chemical_formula_structural   BaCdFeF7
_chemical_formula_sum   'Ba4 Cd4 Fe4 F28'
_cell_volume   593.41287083
_cell_formula_units_Z   4
loop_
 _symmetry_equiv_pos_site_id
 _symmetry_equiv_pos_as_xyz
  1  'x, y, z'
loop_
 _atom_site_type_symbol
 _atom_site_label
 _atom_site_symmetry_multiplicity
 _atom_site_fract_x
 _atom_site_fract_y
 _atom_site_fract_z
 _atom_site_occupancy
  Ba  Ba0  1  0.64974157  0.38127952  0.62342256  1
  Ba  Ba1  1  0.35025843  0.61872048  0.37657744  1
  Ba  Ba2  1  0.26846206  0.61872048  0.87657744  1
  Ba  Ba3  1  0.73153794  0.38127952  0.12342256  1
  Cd  Cd4  1  0.00000000  0.00000000  -0.00000000  1
  Cd  Cd5  1  0.00000000  0.00000000  0.50000000  1
  Cd  Cd6  1  0.95182340  0.00000000  0.75000000  1
  Cd  Cd7  1  0.04817660  0.00000000  0.25000000  1
  Fe  Fe8  1  0.38198715  0.75553562  0.62524335  1
  Fe  Fe9  1  0.61801285  0.24446438  0.37475665  1
  Fe  Fe10  1  0.62645153  0.24446438  0.87475665  1
  Fe  Fe11  1  0.37354847  0.75553562  0.12524335  1
  F  F12  1  0.42797106  0.17271104  0.98266947  1
  F  F13  1  0.57202894  0.82728896  0.01733053  1
  F  F14  1  0.25526002  0.82728896  0.51733053  1
  F  F15  1  0.74473998  0.17271104  0.48266947  1
  F  F16  1  0.68708738  0.50424190  0.90817542  1
  F  F17  1  0.31291262  0.49575810  0.09182458  1
  F  F18  1  0.18284548  0.49575810  0.59182458  1
  F  F19  1  0.81715452  0.50424190  0.40817542  1
  F  F20  1  0.54698239  0.66877876  0.72173920  1
  F  F21  1  0.45301761  0.33122124  0.27826080  1
  F  F22  1  0.87820363  0.33122124  0.77826080  1
  F  F23  1  0.12179637  0.66877876  0.22173920  1
  F  F24  1  0.60428268  0.98738675  0.84394295  1
  F  F25  1  0.39571732  0.01261325  0.15605705  1
  F  F26  1  0.61689593  0.01261325  0.65605705  1
  F  F27  1  0.38310407  0.98738675  0.34394295  1
  F  F28  1  0.34532220  0.24449469  0.79865031  1
  F  F29  1  0.65467780  0.75550531  0.20134969  1
  F  F30  1  0.10082751  0.75550531  0.70134969  1
  F  F31  1  0.89917249  0.24449469  0.29865031  1
  F  F32  1  0.66397851  0.72705844  0.54893931  1
  F  F33  1  0.33602149  0.27294156  0.45106069  1
  F  F34  1  0.93692007  0.27294156  0.95106069  1
  F  F35  1  0.06307993  0.72705844  0.04893931  1
  F  F36  1  0.83737586  0.87447113  0.37112917  1
  F  F37  1  0.16262414  0.12552887  0.62887083  1
  F  F38  1  0.96290472  0.12552887  0.12887083  1
  F  F39  1  0.03709528  0.87447113  0.87112917  1
