# generated using pymatgen
data_Er16In4Ir4O
_symmetry_space_group_name_H-M   'P 1'
_cell_length_a   9.55097262
_cell_length_b   9.55097262
_cell_length_c   9.55097262
_cell_angle_alpha   60.00000000
_cell_angle_beta   60.00000000
_cell_angle_gamma   60.00000000
_symmetry_Int_Tables_number   1
_chemical_formula_structural   Er16In4Ir4O
_chemical_formula_sum   'Er16 In4 Ir4 O1'
_cell_volume   616.06679695
_cell_formula_units_Z   1
loop_
 _symmetry_equiv_pos_site_id
 _symmetry_equiv_pos_as_xyz
  1  'x, y, z'
loop_
 _atom_site_type_symbol
 _atom_site_label
 _atom_site_symmetry_multiplicity
 _atom_site_fract_x
 _atom_site_fract_y
 _atom_site_fract_z
 _atom_site_occupancy
  Er  Er0  1  0.59920410  0.59920410  0.59920410  1
  Er  Er1  1  0.20238770  0.59920410  0.59920410  1
  Er  Er2  1  0.59920410  0.20238770  0.59920410  1
  Er  Er3  1  0.59920410  0.59920410  0.20238770  1
  Er  Er4  1  0.81570711  0.81570711  0.18429289  1
  Er  Er5  1  0.18429289  0.18429289  0.81570711  1
  Er  Er6  1  0.81570711  0.18429289  0.81570711  1
  Er  Er7  1  0.18429289  0.81570711  0.18429289  1
  Er  Er8  1  0.18429289  0.81570711  0.81570711  1
  Er  Er9  1  0.81570711  0.18429289  0.18429289  1
  Er  Er10  1  0.44135806  0.44135806  0.05864194  1
  Er  Er11  1  0.05864194  0.05864194  0.44135806  1
  Er  Er12  1  0.44135806  0.05864194  0.44135806  1
  Er  Er13  1  0.05864194  0.44135806  0.05864194  1
  Er  Er14  1  0.05864194  0.44135806  0.44135806  1
  Er  Er15  1  0.44135806  0.05864194  0.05864194  1
  In  In16  1  0.83352183  0.83352183  0.83352183  1
  In  In17  1  0.49943452  0.83352183  0.83352183  1
  In  In18  1  0.83352183  0.49943452  0.83352183  1
  In  In19  1  0.83352183  0.83352183  0.49943452  1
  Ir  Ir20  1  0.39120264  0.39120264  0.39120264  1
  Ir  Ir21  1  0.82639207  0.39120264  0.39120264  1
  Ir  Ir22  1  0.39120264  0.82639207  0.39120264  1
  Ir  Ir23  1  0.39120264  0.39120264  0.82639207  1
  O  O24  1  0.00000000  0.00000000  0.00000000  1
