# generated using pymatgen
data_DyAlGe2O7
_symmetry_space_group_name_H-M   'P 1'
_cell_length_a   6.53847585
_cell_length_b   7.22443007
_cell_length_c   11.30538927
_cell_angle_alpha   96.65817265
_cell_angle_beta   90.00000000
_cell_angle_gamma   90.00000000
_symmetry_Int_Tables_number   1
_chemical_formula_structural   DyAlGe2O7
_chemical_formula_sum   'Dy4 Al4 Ge8 O28'
_cell_volume   530.42824254
_cell_formula_units_Z   4
loop_
 _symmetry_equiv_pos_site_id
 _symmetry_equiv_pos_as_xyz
  1  'x, y, z'
loop_
 _atom_site_type_symbol
 _atom_site_label
 _atom_site_symmetry_multiplicity
 _atom_site_fract_x
 _atom_site_fract_y
 _atom_site_fract_z
 _atom_site_occupancy
  Dy  Dy0  1  0.64492647  0.72790229  0.47118757  1
  Dy  Dy1  1  0.35507353  0.27209771  0.52881243  1
  Dy  Dy2  1  0.14492647  0.77209771  0.02881243  1
  Dy  Dy3  1  0.85507353  0.22790229  0.97118757  1
  Al  Al4  1  0.60110073  0.01804451  0.72799218  1
  Al  Al5  1  0.39889927  0.98195549  0.27200782  1
  Al  Al6  1  0.10110073  0.48195549  0.77200782  1
  Al  Al7  1  0.89889927  0.51804451  0.22799218  1
  Ge  Ge8  1  0.34352817  0.23968209  0.95340048  1
  Ge  Ge9  1  0.65647183  0.76031791  0.04659952  1
  Ge  Ge10  1  0.84352817  0.26031791  0.54659952  1
  Ge  Ge11  1  0.15647183  0.73968209  0.45340048  1
  Ge  Ge12  1  0.08994311  0.91916545  0.72265745  1
  Ge  Ge13  1  0.91005689  0.08083455  0.27734255  1
  Ge  Ge14  1  0.58994311  0.58083455  0.77734255  1
  Ge  Ge15  1  0.41005689  0.41916545  0.22265745  1
  O  O16  1  0.62200410  0.76838503  0.69111178  1
  O  O17  1  0.37799590  0.23161497  0.30888822  1
  O  O18  1  0.12200410  0.73161497  0.80888822  1
  O  O19  1  0.87799590  0.26838503  0.19111178  1
  O  O20  1  0.17130717  0.06648342  0.97777947  1
  O  O21  1  0.82869283  0.93351658  0.02222053  1
  O  O22  1  0.67130717  0.43351658  0.52222053  1
  O  O23  1  0.32869283  0.56648342  0.47777947  1
  O  O24  1  0.38328766  0.44117961  0.72053241  1
  O  O25  1  0.61671234  0.55882039  0.27946759  1
  O  O26  1  0.88328766  0.05882039  0.77946759  1
  O  O27  1  0.11671234  0.94117961  0.22053241  1
  O  O28  1  0.99555517  0.82466353  0.57569966  1
  O  O29  1  0.00444483  0.17533647  0.42430034  1
  O  O30  1  0.49555517  0.67533647  0.92430034  1
  O  O31  1  0.50444483  0.32466353  0.07569966  1
  O  O32  1  0.55646552  0.15935703  0.86762788  1
  O  O33  1  0.44353448  0.84064297  0.13237212  1
  O  O34  1  0.05646552  0.34064297  0.63237212  1
  O  O35  1  0.94353448  0.65935703  0.36762788  1
  O  O36  1  0.15410680  0.40578451  0.91838428  1
  O  O37  1  0.84589320  0.59421549  0.08161572  1
  O  O38  1  0.65410680  0.09421549  0.58161572  1
  O  O39  1  0.34589320  0.90578451  0.41838428  1
  O  O40  1  0.31715661  0.03169787  0.68733103  1
  O  O41  1  0.68284339  0.96830213  0.31266897  1
  O  O42  1  0.81715661  0.46830213  0.81266897  1
  O  O43  1  0.18284339  0.53169787  0.18733103  1
