# generated using pymatgen
data_V2CuH6(NO3)2
_symmetry_space_group_name_H-M   'P 1'
_cell_length_a   5.64553854
_cell_length_b   5.71378914
_cell_length_c   11.60449168
_cell_angle_alpha   90.00000000
_cell_angle_beta   91.35339877
_cell_angle_gamma   90.00000000
_symmetry_Int_Tables_number   1
_chemical_formula_structural   V2CuH6(NO3)2
_chemical_formula_sum   'V4 Cu2 H12 N4 O12'
_cell_volume   374.22649809
_cell_formula_units_Z   2
loop_
 _symmetry_equiv_pos_site_id
 _symmetry_equiv_pos_as_xyz
  1  'x, y, z'
loop_
 _atom_site_type_symbol
 _atom_site_label
 _atom_site_symmetry_multiplicity
 _atom_site_fract_x
 _atom_site_fract_y
 _atom_site_fract_z
 _atom_site_occupancy
  V  V0  1  0.00301095  0.94965042  0.50061542  1
  V  V1  1  0.00301095  0.05034958  0.00061542  1
  V  V2  1  0.46897537  0.95171688  0.32250150  1
  V  V3  1  0.46897537  0.04828312  0.82250150  1
  Cu  Cu4  1  0.23866121  0.49894119  0.16052036  1
  Cu  Cu5  1  0.23866121  0.50105881  0.66052036  1
  H  H6  1  0.84759473  0.33526616  0.23987386  1
  H  H7  1  0.84759473  0.66473384  0.73987386  1
  H  H8  1  0.05487013  0.36132735  0.34255027  1
  H  H9  1  0.05487013  0.63867265  0.84255027  1
  H  H10  1  0.90638904  0.59622042  0.29629714  1
  H  H11  1  0.90638904  0.40377958  0.79629714  1
  H  H12  1  0.44260704  0.49335299  0.46763292  1
  H  H13  1  0.44260704  0.50664701  0.96763292  1
  H  H14  1  0.53528707  0.26596989  0.54459202  1
  H  H15  1  0.53528707  0.73403011  0.04459202  1
  H  H16  1  0.65247344  0.52630126  0.56779312  1
  H  H17  1  0.65247344  0.47369874  0.06779312  1
  N  N18  1  0.98040449  0.44139433  0.27143615  1
  N  N19  1  0.98040449  0.55860567  0.77143615  1
  N  N20  1  0.49686422  0.44083655  0.54861027  1
  N  N21  1  0.49686422  0.55916345  0.04861027  1
  O  O22  1  0.23993847  0.06931172  0.41408038  1
  O  O23  1  0.23993847  0.93068828  0.91408038  1
  O  O24  1  0.05455494  0.66305968  0.53784516  1
  O  O25  1  0.05455494  0.33694032  0.03784516  1
  O  O26  1  0.97445565  0.11670495  0.61539099  1
  O  O27  1  0.97445565  0.88329505  0.11539099  1
  O  O28  1  0.41181107  0.66549069  0.28679017  1
  O  O29  1  0.41181107  0.33450931  0.78679017  1
  O  O30  1  0.74005321  0.96904865  0.40855697  1
  O  O31  1  0.74005321  0.03095135  0.90855697  1
  O  O32  1  0.48463897  0.12047338  0.20697330  1
  O  O33  1  0.48463897  0.87952662  0.70697330  1
