# generated using pymatgen
data_Ca3Ge4Au7
_symmetry_space_group_name_H-M   'P 1'
_cell_length_a   4.52444812
_cell_length_b   8.55935913
_cell_length_c   8.55935913
_cell_angle_alpha   69.21763240
_cell_angle_beta   74.67473819
_cell_angle_gamma   74.67473819
_symmetry_Int_Tables_number   1
_chemical_formula_structural   Ca3Ge4Au7
_chemical_formula_sum   'Ca3 Ge4 Au7'
_cell_volume   293.49247851
_cell_formula_units_Z   1
loop_
 _symmetry_equiv_pos_site_id
 _symmetry_equiv_pos_as_xyz
  1  'x, y, z'
loop_
 _atom_site_type_symbol
 _atom_site_label
 _atom_site_symmetry_multiplicity
 _atom_site_fract_x
 _atom_site_fract_y
 _atom_site_fract_z
 _atom_site_occupancy
  Ca  Ca0  1  -0.00000000  0.00126948  0.99873052  1
  Ca  Ca1  1  0.31007452  0.69148494  0.68836602  1
  Ca  Ca2  1  0.68992548  0.31163398  0.30851506  1
  Ge  Ge3  1  0.13202788  0.14045105  0.59549319  1
  Ge  Ge4  1  0.86797212  0.40450681  0.85954895  1
  Ge  Ge5  1  0.32132338  0.03537223  0.32198100  1
  Ge  Ge6  1  0.67867662  0.67801900  0.96462777  1
  Au  Au7  1  0.34037291  0.27776654  0.04148764  1
  Au  Au8  1  0.65962709  0.95851236  0.72223346  1
  Au  Au9  1  0.50000000  0.69745311  0.30254689  1
  Au  Au10  1  0.13437871  0.60631603  0.12492655  1
  Au  Au11  1  0.86562129  0.87507345  0.39368397  1
  Au  Au12  1  0.50000000  0.31023605  0.68976395  1
  Au  Au13  1  -0.00000000  0.50007499  0.49992501  1
