# generated using pymatgen
data_Cs3Li2Al(MoO4)4
_symmetry_space_group_name_H-M   'P 1'
_cell_length_a   10.83641074
_cell_length_b   10.83641074
_cell_length_c   10.83641074
_cell_angle_alpha   108.80990036
_cell_angle_beta   110.80211492
_cell_angle_gamma   108.80990036
_symmetry_Int_Tables_number   1
_chemical_formula_structural   Cs3Li2Al(MoO4)4
_chemical_formula_sum   'Cs6 Li4 Al2 Mo8 O32'
_cell_volume   979.17030976
_cell_formula_units_Z   2
loop_
 _symmetry_equiv_pos_site_id
 _symmetry_equiv_pos_as_xyz
  1  'x, y, z'
loop_
 _atom_site_type_symbol
 _atom_site_label
 _atom_site_symmetry_multiplicity
 _atom_site_fract_x
 _atom_site_fract_y
 _atom_site_fract_z
 _atom_site_occupancy
  Cs  Cs0  1  0.76300011  0.88800011  0.37500000  1
  Cs  Cs1  1  0.48699989  0.11199989  0.87500000  1
  Cs  Cs2  1  0.12500000  0.61199989  0.23699989  1
  Cs  Cs3  1  0.62500000  0.38800011  0.51300011  1
  Cs  Cs4  1  0.00000000  0.00000000  0.00000000  1
  Cs  Cs5  1  0.25000000  0.50000000  0.75000000  1
  Li  Li6  1  0.24942360  0.37442360  0.37500000  1
  Li  Li7  1  0.00057640  0.62557640  0.87500000  1
  Li  Li8  1  0.12500000  0.12557640  0.75057640  1
  Li  Li9  1  0.62500000  0.87442360  0.99942360  1
  Al  Al10  1  0.50000000  0.00000000  0.50000000  1
  Al  Al11  1  0.75000000  0.50000000  0.25000000  1
  Mo  Mo12  1  0.38141034  0.44389473  0.12634817  1
  Mo  Mo13  1  0.68245344  0.55610527  0.93751562  1
  Mo  Mo14  1  0.06248438  0.74493782  0.61858966  1
  Mo  Mo15  1  0.86858966  0.24493782  0.81248438  1
  Mo  Mo16  1  0.87365183  0.25506218  0.31754656  1
  Mo  Mo17  1  0.56754656  0.75506218  0.62365183  1
  Mo  Mo18  1  0.18751562  0.05610527  0.43245344  1
  Mo  Mo19  1  0.37634817  0.94389473  0.13141034  1
  O  O20  1  0.24594601  0.19364414  0.37896040  1
  O  O21  1  0.18531626  0.80635586  0.05230187  1
  O  O22  1  0.94769813  0.13301439  0.75405399  1
  O  O23  1  0.00405399  0.63301439  0.69769813  1
  O  O24  1  0.62103960  0.86698561  0.81468374  1
  O  O25  1  0.06468374  0.36698561  0.37103960  1
  O  O26  1  0.30230187  0.30635586  0.93531626  1
  O  O27  1  0.62896040  0.69364414  0.99594601  1
  O  O28  1  0.26971266  0.38032796  0.20302950  1
  O  O29  1  0.82270155  0.61967204  0.88938470  1
  O  O30  1  0.11061530  0.93331685  0.73028734  1
  O  O31  1  0.98028734  0.43331685  0.86061530  1
  O  O32  1  0.79697050  0.06668315  0.17729845  1
  O  O33  1  0.42729845  0.56668315  0.54697050  1
  O  O34  1  0.13938470  0.11967204  0.57270155  1
  O  O35  1  0.45302950  0.88032796  0.01971266  1
  O  O36  1  0.52144440  0.39508954  0.77219561  1
  O  O37  1  0.37710607  0.60491046  0.12635486  1
  O  O38  1  0.87364514  0.25075122  0.47855560  1
  O  O39  1  0.72855560  0.75075122  0.62364514  1
  O  O40  1  0.22780439  0.74924878  0.62289393  1
  O  O41  1  0.87289393  0.24924878  0.97780439  1
  O  O42  1  0.37635486  0.10491046  0.12710607  1
  O  O43  1  0.02219561  0.89508954  0.27144440  1
  O  O44  1  0.58539006  0.49808314  0.24638328  1
  O  O45  1  0.74830013  0.50191686  0.08730692  1
  O  O46  1  0.91269308  0.66099321  0.41460994  1
  O  O47  1  0.66460994  0.16099321  0.66269308  1
  O  O48  1  0.75361672  0.33900679  0.25169987  1
  O  O49  1  0.50169987  0.83900679  0.50361672  1
  O  O50  1  0.33730692  0.00191686  0.49830013  1
  O  O51  1  0.49638328  0.99808314  0.33539006  1
