# generated using pymatgen
data_Zr3TiZn8
_symmetry_space_group_name_H-M   'P 1'
_cell_length_a   5.20483928
_cell_length_b   5.20483928
_cell_length_c   8.99525903
_cell_angle_alpha   73.18334514
_cell_angle_beta   90.00000000
_cell_angle_gamma   120.00000000
_symmetry_Int_Tables_number   1
_chemical_formula_structural   Zr3TiZn8
_chemical_formula_sum   'Zr3 Ti1 Zn8'
_cell_volume   198.91298107
_cell_formula_units_Z   1
loop_
 _symmetry_equiv_pos_site_id
 _symmetry_equiv_pos_as_xyz
  1  'x, y, z'
loop_
 _atom_site_type_symbol
 _atom_site_label
 _atom_site_symmetry_multiplicity
 _atom_site_fract_x
 _atom_site_fract_y
 _atom_site_fract_z
 _atom_site_occupancy
  Zr  Zr0  1  0.37559005  0.75118009  0.87322986  1
  Zr  Zr1  1  0.99799562  0.99599124  0.00601314  1
  Zr  Zr2  1  0.50176482  0.00352965  0.49470553  1
  Ti  Ti3  1  0.87448959  0.74897918  0.37653123  1
  Zn  Zn4  1  0.43698723  0.37381776  0.18919501  1
  Zn  Zn5  1  0.93765780  0.37660920  0.68573300  1
  Zn  Zn6  1  0.43698723  0.87397447  0.18919501  1
  Zn  Zn7  1  0.93765780  0.87531560  0.68573300  1
  Zn  Zn8  1  0.18751666  0.37503333  0.43745001  1
  Zn  Zn9  1  0.68757126  0.37514252  0.93728622  1
  Zn  Zn10  1  0.93683053  0.37381776  0.18919501  1
  Zn  Zn11  1  0.43895140  0.37660920  0.68573300  1
