# generated using pymatgen
data_Yb4SmS5
_symmetry_space_group_name_H-M   'P 1'
_cell_length_a   3.99183793
_cell_length_b   14.48626591
_cell_length_c   3.99183793
_cell_angle_alpha   82.08059030
_cell_angle_beta   90.00000000
_cell_angle_gamma   82.08059030
_symmetry_Int_Tables_number   1
_chemical_formula_structural   Yb4SmS5
_chemical_formula_sum   'Yb4 Sm1 S5'
_cell_volume   226.41088657
_cell_formula_units_Z   1
loop_
 _symmetry_equiv_pos_site_id
 _symmetry_equiv_pos_as_xyz
  1  'x, y, z'
loop_
 _atom_site_type_symbol
 _atom_site_label
 _atom_site_symmetry_multiplicity
 _atom_site_fract_x
 _atom_site_fract_y
 _atom_site_fract_z
 _atom_site_occupancy
  Yb  Yb0  1  0.39948828  0.20102343  0.39948828  1
  Yb  Yb1  1  0.79965144  0.40069712  0.79965144  1
  Yb  Yb2  1  0.20034856  0.59930288  0.20034856  1
  Yb  Yb3  1  0.60051172  0.79897657  0.60051172  1
  Sm  Sm4  1  0.00000000  0.00000000  0.00000000  1
  S  S5  1  0.10026678  0.79946643  0.10026678  1
  S  S6  1  0.50000000  -0.00000000  0.50000000  1
  S  S7  1  0.89973322  0.20053357  0.89973322  1
  S  S8  1  0.30021880  0.39956241  0.30021880  1
  S  S9  1  0.69978120  0.60043759  0.69978120  1
