# generated using pymatgen
data_MnP3H10C3NO9
_symmetry_space_group_name_H-M   'P 1'
_cell_length_a   9.24845616
_cell_length_b   8.52515192
_cell_length_c   13.59738757
_cell_angle_alpha   90.00000000
_cell_angle_beta   98.00084675
_cell_angle_gamma   90.00000000
_symmetry_Int_Tables_number   1
_chemical_formula_structural   MnP3H10C3NO9
_chemical_formula_sum   'Mn4 P12 H40 C12 N4 O36'
_cell_volume   1061.64353396
_cell_formula_units_Z   4
loop_
 _symmetry_equiv_pos_site_id
 _symmetry_equiv_pos_as_xyz
  1  'x, y, z'
loop_
 _atom_site_type_symbol
 _atom_site_label
 _atom_site_symmetry_multiplicity
 _atom_site_fract_x
 _atom_site_fract_y
 _atom_site_fract_z
 _atom_site_occupancy
  Mn  Mn0  1  0.28241712  0.53482295  0.74560196  1
  Mn  Mn1  1  0.78241712  0.96517705  0.24560196  1
  Mn  Mn2  1  0.71758288  0.46517705  0.25439804  1
  Mn  Mn3  1  0.21758288  0.03482295  0.75439804  1
  P  P4  1  0.37162327  0.29969673  0.94199816  1
  P  P5  1  0.87162327  0.20030327  0.44199816  1
  P  P6  1  0.62837673  0.70030327  0.05800184  1
  P  P7  1  0.12837673  0.79969673  0.55800184  1
  P  P8  1  0.45923772  0.17433896  0.25529703  1
  P  P9  1  0.95923772  0.32566104  0.75529703  1
  P  P10  1  0.54076228  0.82566104  0.74470297  1
  P  P11  1  0.04076228  0.67433896  0.24470297  1
  P  P12  1  0.91552860  0.20368740  0.08335803  1
  P  P13  1  0.41552860  0.29631260  0.58335803  1
  P  P14  1  0.08447140  0.79631260  0.91664197  1
  P  P15  1  0.58447140  0.70368740  0.41664197  1
  H  H16  1  0.57946194  0.35570610  0.03205492  1
  H  H17  1  0.07946194  0.14429390  0.53205492  1
  H  H18  1  0.42053806  0.64429390  0.96794508  1
  H  H19  1  0.92053806  0.85570610  0.46794508  1
  H  H20  1  0.31097403  0.39130735  0.10121508  1
  H  H21  1  0.81097403  0.10869265  0.60121508  1
  H  H22  1  0.68902597  0.60869265  0.89878492  1
  H  H23  1  0.18902597  0.89130735  0.39878492  1
  H  H24  1  0.36039899  0.25155460  0.38830158  1
  H  H25  1  0.86039899  0.24844540  0.88830158  1
  H  H26  1  0.63960101  0.74844540  0.61169842  1
  H  H27  1  0.13960101  0.75155460  0.11169842  1
  H  H28  1  0.92534295  0.45653702  0.11370281  1
  H  H29  1  0.42534295  0.04346298  0.61370281  1
  H  H30  1  0.07465705  0.54346298  0.88629719  1
  H  H31  1  0.57465705  0.95653702  0.38629719  1
  H  H32  1  0.15330661  0.36698185  0.01175406  1
  H  H33  1  0.65330661  0.13301815  0.51175406  1
  H  H34  1  0.84669339  0.63301815  0.98824594  1
  H  H35  1  0.34669339  0.86698185  0.48824594  1
  H  H36  1  0.18889440  0.07469231  0.03257383  1
  H  H37  1  0.68889440  0.42530769  0.53257383  1
  H  H38  1  0.81110560  0.92530769  0.96742617  1
  H  H39  1  0.31110560  0.57469231  0.46742617  1
  H  H40  1  0.43823938  0.06447615  0.09161499  1
  H  H41  1  0.93823938  0.43552385  0.59161499  1
  H  H42  1  0.56176062  0.93552385  0.90838501  1
  H  H43  1  0.06176062  0.56447615  0.40838501  1
  H  H44  1  0.32372709  0.96651910  0.16631991  1
  H  H45  1  0.82372709  0.53348090  0.66631991  1
  H  H46  1  0.67627291  0.03348090  0.83368009  1
  H  H47  1  0.17627291  0.46651910  0.33368009  1
  H  H48  1  0.12427640  0.25801162  0.20571536  1
  H  H49  1  0.62427640  0.24198838  0.70571536  1
  H  H50  1  0.87572360  0.74198838  0.79428464  1
  H  H51  1  0.37572360  0.75801162  0.29428464  1
  H  H52  1  0.09690456  0.05355672  0.18691217  1
  H  H53  1  0.59690456  0.44644328  0.68691217  1
  H  H54  1  0.90309544  0.94644328  0.81308783  1
  H  H55  1  0.40309544  0.55355672  0.31308783  1
  C  C56  1  0.25770197  0.31365395  0.04243907  1
  C  C57  1  0.75770197  0.18634605  0.54243907  1
  C  C58  1  0.74229803  0.68634605  0.95756093  1
  C  C59  1  0.24229803  0.81365395  0.45756093  1
  C  C60  1  0.35912029  0.08244985  0.14391482  1
  C  C61  1  0.85912029  0.41755015  0.64391482  1
  C  C62  1  0.64087971  0.91755015  0.85608518  1
  C  C63  1  0.14087971  0.58244985  0.35608518  1
  C  C64  1  0.10100925  0.16671320  0.14886979  1
  C  C65  1  0.60100925  0.33328680  0.64886979  1
  C  C66  1  0.89899075  0.83328680  0.85113021  1
  C  C67  1  0.39899075  0.66671320  0.35113021  1
  N  N68  1  0.22525723  0.15893927  0.08780892  1
  N  N69  1  0.72525723  0.34106073  0.58780892  1
  N  N70  1  0.77474277  0.84106073  0.91219108  1
  N  N71  1  0.27474277  0.65893927  0.41219108  1
  O  O72  1  0.36702599  0.46249590  0.89516291  1
  O  O73  1  0.86702599  0.03750410  0.39516291  1
  O  O74  1  0.63297401  0.53750410  0.10483709  1
  O  O75  1  0.13297401  0.96249590  0.60483709  1
  O  O76  1  0.53425731  0.26422872  0.99370905  1
  O  O77  1  0.03425731  0.23577128  0.49370905  1
  O  O78  1  0.46574269  0.73577128  0.00629095  1
  O  O79  1  0.96574269  0.76422872  0.50629095  1
  O  O80  1  0.32085347  0.15951201  0.87920893  1
  O  O81  1  0.82085347  0.34048799  0.37920893  1
  O  O82  1  0.67914653  0.84048799  0.12079107  1
  O  O83  1  0.17914653  0.65951201  0.62079107  1
  O  O84  1  0.57535599  0.04993406  0.28756920  1
  O  O85  1  0.07535599  0.45006594  0.78756920  1
  O  O86  1  0.42464401  0.95006594  0.71243080  1
  O  O87  1  0.92464401  0.54993406  0.21243080  1
  O  O88  1  0.34055338  0.17826180  0.32927518  1
  O  O89  1  0.84055338  0.32173820  0.82927518  1
  O  O90  1  0.65944662  0.82173820  0.67072482  1
  O  O91  1  0.15944662  0.67826180  0.17072482  1
  O  O92  1  0.51505891  0.33787310  0.23899140  1
  O  O93  1  0.01505891  0.16212690  0.73899140  1
  O  O94  1  0.48494109  0.66212690  0.76100860  1
  O  O95  1  0.98494109  0.83787310  0.26100860  1
  O  O96  1  0.91478746  0.38339373  0.05410020  1
  O  O97  1  0.41478746  0.11660627  0.55410020  1
  O  O98  1  0.08521254  0.61660627  0.94589980  1
  O  O99  1  0.58521254  0.88339373  0.44589980  1
  O  O100  1  0.82107018  0.17204058  0.16471098  1
  O  O101  1  0.32107018  0.32795942  0.66471098  1
  O  O102  1  0.17892982  0.82795942  0.83528902  1
  O  O103  1  0.67892982  0.67204058  0.33528902  1
  O  O104  1  0.88267659  0.11750585  0.98545370  1
  O  O105  1  0.38267659  0.38249415  0.48545370  1
  O  O106  1  0.11732341  0.88249415  0.01454630  1
  O  O107  1  0.61732341  0.61750585  0.51454630  1
