# generated using pymatgen
data_Ba2Mg2MnF10
_symmetry_space_group_name_H-M   'P 1'
_cell_length_a   6.01188165
_cell_length_b   8.19336530
_cell_length_c   9.87873316
_cell_angle_alpha   109.90727460
_cell_angle_beta   107.71509519
_cell_angle_gamma   90.00000000
_symmetry_Int_Tables_number   1
_chemical_formula_structural   Ba2Mg2MnF10
_chemical_formula_sum   'Ba4 Mg4 Mn2 F20'
_cell_volume   432.90409236
_cell_formula_units_Z   2
loop_
 _symmetry_equiv_pos_site_id
 _symmetry_equiv_pos_as_xyz
  1  'x, y, z'
loop_
 _atom_site_type_symbol
 _atom_site_label
 _atom_site_symmetry_multiplicity
 _atom_site_fract_x
 _atom_site_fract_y
 _atom_site_fract_z
 _atom_site_occupancy
  Ba  Ba0  1  0.28364103  0.69381894  0.56728206  1
  Ba  Ba1  1  0.71635897  0.30618106  0.43271794  1
  Ba  Ba2  1  0.38338668  0.27534405  0.76677335  1
  Ba  Ba3  1  0.61661332  0.72465595  0.23322665  1
  Mg  Mg4  1  0.25490389  -0.00000000  -0.00000000  1
  Mg  Mg5  1  0.74509611  -0.00000000  -0.00000000  1
  Mg  Mg6  1  0.17730774  0.01383805  0.35461548  1
  Mg  Mg7  1  0.82269226  0.98616195  0.64538452  1
  Mn  Mn8  1  0.07535637  0.44552703  0.15071274  1
  Mn  Mn9  1  0.92464363  0.55447297  0.84928726  1
  F  F10  1  0.36332229  0.02387498  0.22066098  1
  F  F11  1  0.63667771  0.97612502  0.77933902  1
  F  F12  1  0.14266130  0.97612502  0.77933902  1
  F  F13  1  0.85733870  0.02387498  0.22066098  1
  F  F14  1  0.51571566  0.17306072  0.03143132  1
  F  F15  1  0.48428434  0.82693928  0.96856868  1
  F  F16  1  0.02069688  0.17161909  0.04139377  1
  F  F17  1  0.97930312  0.82838091  0.95860623  1
  F  F18  1  0.50000000  -0.00000000  0.50000000  1
  F  F19  1  0.00000000  -0.00000000  0.50000000  1
  F  F20  1  0.13740049  0.75146022  0.27480097  1
  F  F21  1  0.86259951  0.24853978  0.72519903  1
  F  F22  1  0.23846042  0.50000000  -0.00000000  1
  F  F23  1  0.76153958  0.50000000  -0.00000000  1
  F  F24  1  0.40342330  0.48340869  0.31063302  1
  F  F25  1  0.59657670  0.51659131  0.68936698  1
  F  F26  1  0.09279028  0.51659131  0.68936698  1
  F  F27  1  0.90720972  0.48340869  0.31063302  1
  F  F28  1  0.23382284  0.26512171  0.46764567  1
  F  F29  1  0.76617716  0.73487829  0.53235433  1
