# generated using pymatgen
data_Ba5MgMnV4(Cl3O7)2
_symmetry_space_group_name_H-M   'P 1'
_cell_length_a   5.81939617
_cell_length_b   13.54675202
_cell_length_c   16.02264441
_cell_angle_alpha   113.57359112
_cell_angle_beta   90.00000000
_cell_angle_gamma   90.00000000
_symmetry_Int_Tables_number   1
_chemical_formula_structural   Ba5MgMnV4(Cl3O7)2
_chemical_formula_sum   'Ba10 Mg2 Mn2 V8 Cl12 O28'
_cell_volume   1157.71621567
_cell_formula_units_Z   2
loop_
 _symmetry_equiv_pos_site_id
 _symmetry_equiv_pos_as_xyz
  1  'x, y, z'
loop_
 _atom_site_type_symbol
 _atom_site_label
 _atom_site_symmetry_multiplicity
 _atom_site_fract_x
 _atom_site_fract_y
 _atom_site_fract_z
 _atom_site_occupancy
  Ba  Ba0  1  0.74851699  0.77112386  0.47804808  1
  Ba  Ba1  1  0.25148301  0.22887614  0.52195192  1
  Ba  Ba2  1  0.74851699  0.22887614  0.02195192  1
  Ba  Ba3  1  0.25148301  0.77112386  0.97804808  1
  Ba  Ba4  1  0.74600280  0.50000000  0.75000000  1
  Ba  Ba5  1  0.25399720  0.50000000  0.25000000  1
  Ba  Ba6  1  0.25235472  0.76400258  0.70558245  1
  Ba  Ba7  1  0.74764528  0.23599742  0.29441755  1
  Ba  Ba8  1  0.25235472  0.23599742  0.79441755  1
  Ba  Ba9  1  0.74764528  0.76400258  0.20558245  1
  Mg  Mg10  1  0.75010020  0.00000000  0.75000000  1
  Mg  Mg11  1  0.24989980  0.00000000  0.25000000  1
  Mn  Mn12  1  -0.00000000  0.50000000  0.00000000  1
  Mn  Mn13  1  -0.00000000  0.50000000  0.50000000  1
  V  V14  1  0.74926887  0.79481929  0.84858294  1
  V  V15  1  0.25073113  0.20518071  0.15141706  1
  V  V16  1  0.74926887  0.20518071  0.65141706  1
  V  V17  1  0.25073113  0.79481929  0.34858294  1
  V  V18  1  0.24775011  0.95073927  0.59496188  1
  V  V19  1  0.75224989  0.04926073  0.40503812  1
  V  V20  1  0.24775011  0.04926073  0.90503812  1
  V  V21  1  0.75224989  0.95073927  0.09496188  1
  Cl  Cl22  1  0.75646991  0.64840419  0.98665437  1
  Cl  Cl23  1  0.24353009  0.35159581  0.01334563  1
  Cl  Cl24  1  0.75646991  0.35159581  0.51334563  1
  Cl  Cl25  1  0.24353009  0.64840419  0.48665437  1
  Cl  Cl26  1  0.76835236  0.50188810  0.36350910  1
  Cl  Cl27  1  0.23164764  0.49811190  0.63649090  1
  Cl  Cl28  1  0.76835236  0.49811190  0.13649090  1
  Cl  Cl29  1  0.23164764  0.50188810  0.86350910  1
  Cl  Cl30  1  0.75553405  0.64506022  0.61177357  1
  Cl  Cl31  1  0.24446595  0.35493978  0.38822643  1
  Cl  Cl32  1  0.75553405  0.35493978  0.88822643  1
  Cl  Cl33  1  0.24446595  0.64506022  0.11177357  1
  O  O34  1  0.74827844  0.87591901  0.97179392  1
  O  O35  1  0.25172156  0.12408099  0.02820608  1
  O  O36  1  0.74827844  0.12408099  0.52820608  1
  O  O37  1  0.25172156  0.87591901  0.47179392  1
  O  O38  1  0.51608880  0.70935046  0.82192482  1
  O  O39  1  0.48391120  0.29064954  0.17807518  1
  O  O40  1  0.51608880  0.29064954  0.67807518  1
  O  O41  1  0.48391120  0.70935046  0.32192482  1
  O  O42  1  0.99451396  0.91582943  0.14068131  1
  O  O43  1  0.00548604  0.08417057  0.85931869  1
  O  O44  1  0.99451396  0.08417057  0.35931869  1
  O  O45  1  0.00548604  0.91582943  0.64068131  1
  O  O46  1  0.74673532  0.86937253  0.78385419  1
  O  O47  1  0.25326468  0.13062747  0.21614581  1
  O  O48  1  0.74673532  0.13062747  0.71614581  1
  O  O49  1  0.25326468  0.86937253  0.28385419  1
  O  O50  1  0.98465402  0.71151975  0.82253864  1
  O  O51  1  0.01534598  0.28848025  0.17746136  1
  O  O52  1  0.98465402  0.28848025  0.67746136  1
  O  O53  1  0.01534598  0.71151975  0.32253864  1
  O  O54  1  0.48798585  0.91454673  0.64128257  1
  O  O55  1  0.51201415  0.08545327  0.35871743  1
  O  O56  1  0.48798585  0.08545327  0.85871743  1
  O  O57  1  0.51201415  0.91454673  0.14128257  1
  O  O58  1  0.75013088  0.91579469  0.38165773  1
  O  O59  1  0.24986912  0.08420531  0.61834227  1
  O  O60  1  0.75013088  0.08420531  0.11834227  1
  O  O61  1  0.24986912  0.91579469  0.88165773  1
