# generated using pymatgen
data_Ag6Ge(S2Cl)2
_symmetry_space_group_name_H-M   'P 1'
_cell_length_a   6.48524563
_cell_length_b   7.71024345
_cell_length_c   23.24928885
_cell_angle_alpha   90.00000000
_cell_angle_beta   90.00000000
_cell_angle_gamma   90.00000000
_symmetry_Int_Tables_number   1
_chemical_formula_structural   Ag6Ge(S2Cl)2
_chemical_formula_sum   'Ag24 Ge4 S16 Cl8'
_cell_volume   1162.53006688
_cell_formula_units_Z   4
loop_
 _symmetry_equiv_pos_site_id
 _symmetry_equiv_pos_as_xyz
  1  'x, y, z'
loop_
 _atom_site_type_symbol
 _atom_site_label
 _atom_site_symmetry_multiplicity
 _atom_site_fract_x
 _atom_site_fract_y
 _atom_site_fract_z
 _atom_site_occupancy
  Ag  Ag0  1  0.44047433  0.25000000  0.64506189  1
  Ag  Ag1  1  0.55952567  0.75000000  0.35493811  1
  Ag  Ag2  1  0.05952567  0.75000000  0.14506189  1
  Ag  Ag3  1  0.94047433  0.25000000  0.85493811  1
  Ag  Ag4  1  0.09813417  0.03859950  0.28095262  1
  Ag  Ag5  1  0.90186583  0.96140050  0.71904738  1
  Ag  Ag6  1  0.40186583  0.96140050  0.78095262  1
  Ag  Ag7  1  0.90186583  0.53859950  0.71904738  1
  Ag  Ag8  1  0.59813417  0.03859950  0.21904738  1
  Ag  Ag9  1  0.09813417  0.46140050  0.28095262  1
  Ag  Ag10  1  0.59813417  0.46140050  0.21904738  1
  Ag  Ag11  1  0.40186583  0.53859950  0.78095262  1
  Ag  Ag12  1  0.00000000  -0.00000000  -0.00000000  1
  Ag  Ag13  1  0.50000000  -0.00000000  0.50000000  1
  Ag  Ag14  1  0.00000000  0.50000000  -0.00000000  1
  Ag  Ag15  1  0.50000000  0.50000000  0.50000000  1
  Ag  Ag16  1  0.00870161  0.05840893  0.42971358  1
  Ag  Ag17  1  0.99129839  0.94159107  0.57028642  1
  Ag  Ag18  1  0.49129839  0.94159107  0.92971358  1
  Ag  Ag19  1  0.99129839  0.55840893  0.57028642  1
  Ag  Ag20  1  0.50870161  0.05840893  0.07028642  1
  Ag  Ag21  1  0.00870161  0.44159107  0.42971358  1
  Ag  Ag22  1  0.50870161  0.44159107  0.07028642  1
  Ag  Ag23  1  0.49129839  0.55840893  0.92971358  1
  Ge  Ge24  1  0.01193723  0.25000000  0.13095469  1
  Ge  Ge25  1  0.98806277  0.75000000  0.86904531  1
  Ge  Ge26  1  0.48806277  0.75000000  0.63095469  1
  Ge  Ge27  1  0.51193723  0.25000000  0.36904531  1
  S  S28  1  0.32190266  0.00634065  0.37264920  1
  S  S29  1  0.67809734  0.99365935  0.62735080  1
  S  S30  1  0.17809734  0.99365935  0.87264920  1
  S  S31  1  0.67809734  0.50634065  0.62735080  1
  S  S32  1  0.82190266  0.00634065  0.12735080  1
  S  S33  1  0.32190266  0.49365935  0.37264920  1
  S  S34  1  0.82190266  0.49365935  0.12735080  1
  S  S35  1  0.17809734  0.50634065  0.87264920  1
  S  S36  1  0.22737068  0.25000000  0.20560615  1
  S  S37  1  0.77262932  0.75000000  0.79439385  1
  S  S38  1  0.27262932  0.75000000  0.70560615  1
  S  S39  1  0.72737068  0.25000000  0.29439385  1
  S  S40  1  0.19574836  0.25000000  0.04634175  1
  S  S41  1  0.80425164  0.75000000  0.95365825  1
  S  S42  1  0.30425164  0.75000000  0.54634175  1
  S  S43  1  0.69574836  0.25000000  0.45365825  1
  Cl  Cl44  1  0.16862422  0.25000000  0.54308876  1
  Cl  Cl45  1  0.83137578  0.75000000  0.45691124  1
  Cl  Cl46  1  0.33137578  0.75000000  0.04308876  1
  Cl  Cl47  1  0.66862422  0.25000000  0.95691124  1
  Cl  Cl48  1  0.12533423  0.25000000  0.71120086  1
  Cl  Cl49  1  0.87466577  0.75000000  0.28879914  1
  Cl  Cl50  1  0.37466577  0.75000000  0.21120086  1
  Cl  Cl51  1  0.62533423  0.25000000  0.78879914  1
