# generated using pymatgen
data_BaNbI5O16
_symmetry_space_group_name_H-M   'P 1'
_cell_length_a   7.63718253
_cell_length_b   8.11997836
_cell_length_c   14.57656344
_cell_angle_alpha   79.01728453
_cell_angle_beta   74.81313934
_cell_angle_gamma   61.94810341
_symmetry_Int_Tables_number   1
_chemical_formula_structural   BaNbI5O16
_chemical_formula_sum   'Ba2 Nb2 I10 O32'
_cell_volume   767.48470834
_cell_formula_units_Z   2
loop_
 _symmetry_equiv_pos_site_id
 _symmetry_equiv_pos_as_xyz
  1  'x, y, z'
loop_
 _atom_site_type_symbol
 _atom_site_label
 _atom_site_symmetry_multiplicity
 _atom_site_fract_x
 _atom_site_fract_y
 _atom_site_fract_z
 _atom_site_occupancy
  Ba  Ba0  1  0.73447722  0.74962841  0.49528100  1
  Ba  Ba1  1  0.02061337  0.24962841  0.99528100  1
  Nb  Nb2  1  0.53481125  0.78520581  0.08878079  1
  Nb  Nb3  1  0.59120215  0.28520581  0.58878079  1
  I  I4  1  0.23639935  0.84955184  0.32937144  1
  I  I5  1  0.58467737  0.34955184  0.82937144  1
  I  I6  1  0.28725125  0.31493882  0.42370259  1
  I  I7  1  0.97410733  0.81493882  0.92370259  1
  I  I8  1  0.76956405  0.92699327  0.21776223  1
  I  I9  1  0.08568046  0.42699327  0.71776223  1
  I  I10  1  0.46737224  0.89135030  0.76903490  1
  I  I11  1  0.87224256  0.39135030  0.26903490  1
  I  I12  1  0.34619493  0.44420241  0.11046178  1
  I  I13  1  0.09914088  0.94420241  0.61046178  1
  O  O14  1  0.40561264  0.43969650  0.33412374  1
  O  O15  1  0.82056712  0.93969650  0.83412374  1
  O  O16  1  0.97365047  0.49417240  0.33035968  1
  O  O17  1  0.20181745  0.99417240  0.83035968  1
  O  O18  1  0.46824413  0.12073052  0.72201270  1
  O  O19  1  0.68901266  0.62073052  0.22201270  1
  O  O20  1  0.99130287  0.84942673  0.35031646  1
  O  O21  1  0.80895394  0.34942673  0.85031646  1
  O  O22  1  0.88839105  0.00057975  0.99955177  1
  O  O23  1  0.11147742  0.50057975  0.49955177  1
  O  O24  1  0.55407633  0.52785876  0.07232257  1
  O  O25  1  0.84574234  0.02785876  0.57232257  1
  O  O26  1  0.59143803  0.96087899  0.33185958  1
  O  O27  1  0.11582340  0.46087899  0.83185958  1
  O  O28  1  0.28268107  0.83402771  0.19676956  1
  O  O29  1  0.68652166  0.33402771  0.69676956  1
  O  O30  1  0.57638901  0.97352568  0.14314524  1
  O  O31  1  0.30694007  0.47352568  0.64314524  1
  O  O32  1  0.38971372  0.94149456  0.00501409  1
  O  O33  1  0.66377763  0.44149456  0.50501409  1
  O  O34  1  0.06394040  0.33412483  0.15832185  1
  O  O35  1  0.44361293  0.83412483  0.65832185  1
  O  O36  1  0.49128707  0.19151983  0.50239712  1
  O  O37  1  0.81479598  0.69151983  0.00239712  1
  O  O38  1  0.76622668  0.15521233  0.18498097  1
  O  O39  1  0.89358002  0.65521233  0.68498097  1
  O  O40  1  0.39716138  0.33312995  0.00289212  1
  O  O41  1  0.26681656  0.83312995  0.50289212  1
  O  O42  1  0.13894860  0.66756449  0.08870245  1
  O  O43  1  0.10478446  0.16756449  0.58870245  1
  O  O44  1  0.14886067  0.09994613  0.32929538  1
  O  O45  1  0.42189782  0.59994613  0.82929538  1
