# generated using pymatgen
data_ZnCd(GaS2)4
_symmetry_space_group_name_H-M   'P 1'
_cell_length_a   5.51050677
_cell_length_b   5.51050677
_cell_length_c   10.41209981
_cell_angle_alpha   90.00000000
_cell_angle_beta   90.00000000
_cell_angle_gamma   90.00000000
_symmetry_Int_Tables_number   1
_chemical_formula_structural   ZnCd(GaS2)4
_chemical_formula_sum   'Zn1 Cd1 Ga4 S8'
_cell_volume   316.17054158
_cell_formula_units_Z   1
loop_
 _symmetry_equiv_pos_site_id
 _symmetry_equiv_pos_as_xyz
  1  'x, y, z'
loop_
 _atom_site_type_symbol
 _atom_site_label
 _atom_site_symmetry_multiplicity
 _atom_site_fract_x
 _atom_site_fract_y
 _atom_site_fract_z
 _atom_site_occupancy
  Zn  Zn0  1  0.50000000  0.50000000  0.50000000  1
  Cd  Cd1  1  0.00000000  -0.00000000  0.00000000  1
  Ga  Ga2  1  0.50000000  0.50000000  -0.00000000  1
  Ga  Ga3  1  0.00000000  -0.00000000  0.50000000  1
  Ga  Ga4  1  0.00000000  0.50000000  0.25358446  1
  Ga  Ga5  1  0.50000000  -0.00000000  0.74641554  1
  S  S6  1  0.24373544  0.75509482  0.37254885  1
  S  S7  1  0.73293383  0.26882279  0.86241550  1
  S  S8  1  0.75626456  0.24490518  0.37254885  1
  S  S9  1  0.26706617  0.73117721  0.86241550  1
  S  S10  1  0.73117721  0.73293383  0.13758450  1
  S  S11  1  0.24490518  0.24373544  0.62745115  1
  S  S12  1  0.26882279  0.26706617  0.13758450  1
  S  S13  1  0.75509482  0.75626456  0.62745115  1
