# generated using pymatgen
data_YCuSi2Ni
_symmetry_space_group_name_H-M   'P 1'
_cell_length_a   3.98128378
_cell_length_b   3.98128378
_cell_length_c   5.65514369
_cell_angle_alpha   69.38996815
_cell_angle_beta   69.38996815
_cell_angle_gamma   90.00000000
_symmetry_Int_Tables_number   1
_chemical_formula_structural   YCuSi2Ni
_chemical_formula_sum   'Y1 Cu1 Si2 Ni1'
_cell_volume   77.74133929
_cell_formula_units_Z   1
loop_
 _symmetry_equiv_pos_site_id
 _symmetry_equiv_pos_as_xyz
  1  'x, y, z'
loop_
 _atom_site_type_symbol
 _atom_site_label
 _atom_site_symmetry_multiplicity
 _atom_site_fract_x
 _atom_site_fract_y
 _atom_site_fract_z
 _atom_site_occupancy
  Y  Y0  1  -0.00000000  -0.00000000  0.00000000  1
  Cu  Cu1  1  0.75000000  0.25000000  0.50000000  1
  Si  Si2  1  0.37792169  0.37792169  0.24415662  1
  Si  Si3  1  0.62207831  0.62207831  0.75584338  1
  Ni  Ni4  1  0.25000000  0.75000000  0.50000000  1
