# generated using pymatgen
data_ZnCdCu4(SnS4)2
_symmetry_space_group_name_H-M   'P 1'
_cell_length_a   5.55483319
_cell_length_b   5.55483319
_cell_length_c   11.01042796
_cell_angle_alpha   90.00000000
_cell_angle_beta   90.00000000
_cell_angle_gamma   90.00000000
_symmetry_Int_Tables_number   1
_chemical_formula_structural   ZnCdCu4(SnS4)2
_chemical_formula_sum   'Zn1 Cd1 Cu4 Sn2 S8'
_cell_volume   339.73965638
_cell_formula_units_Z   1
loop_
 _symmetry_equiv_pos_site_id
 _symmetry_equiv_pos_as_xyz
  1  'x, y, z'
loop_
 _atom_site_type_symbol
 _atom_site_label
 _atom_site_symmetry_multiplicity
 _atom_site_fract_x
 _atom_site_fract_y
 _atom_site_fract_z
 _atom_site_occupancy
  Zn  Zn0  1  0.50000000  0.50000000  0.50000000  1
  Cd  Cd1  1  0.00000000  -0.00000000  -0.00000000  1
  Cu  Cu2  1  0.50000000  -0.00000000  0.25281510  1
  Cu  Cu3  1  0.00000000  0.50000000  0.74718490  1
  Cu  Cu4  1  0.00000000  0.50000000  0.25281510  1
  Cu  Cu5  1  0.50000000  -0.00000000  0.74718490  1
  Sn  Sn6  1  0.50000000  0.50000000  -0.00000000  1
  Sn  Sn7  1  0.00000000  -0.00000000  0.50000000  1
  S  S8  1  0.74406134  0.74406134  0.14201330  1
  S  S9  1  0.25633215  0.25633215  0.63224948  1
  S  S10  1  0.25593866  0.25593866  0.14201330  1
  S  S11  1  0.74366785  0.74366785  0.63224948  1
  S  S12  1  0.74366785  0.25633215  0.36775052  1
  S  S13  1  0.25593866  0.74406134  0.85798670  1
  S  S14  1  0.25633215  0.74366785  0.36775052  1
  S  S15  1  0.74406134  0.25593866  0.85798670  1
