# generated using pymatgen
data_Zn2Si2As3P
_symmetry_space_group_name_H-M   'P 1'
_cell_length_a   5.60204629
_cell_length_b   5.62000011
_cell_length_c   6.73706882
_cell_angle_alpha   65.34866013
_cell_angle_beta   65.73684416
_cell_angle_gamma   90.00000000
_symmetry_Int_Tables_number   1
_chemical_formula_structural   Zn2Si2As3P
_chemical_formula_sum   'Zn2 Si2 As3 P1'
_cell_volume   171.94624569
_cell_formula_units_Z   1
loop_
 _symmetry_equiv_pos_site_id
 _symmetry_equiv_pos_as_xyz
  1  'x, y, z'
loop_
 _atom_site_type_symbol
 _atom_site_label
 _atom_site_symmetry_multiplicity
 _atom_site_fract_x
 _atom_site_fract_y
 _atom_site_fract_z
 _atom_site_occupancy
  Zn  Zn0  1  0.73973997  0.23936134  0.50578488  1
  Zn  Zn1  1  0.01026003  0.99514622  0.99421512  1
  Si  Si2  1  0.25475745  0.75432752  0.50565525  1
  Si  Si3  1  0.49524255  0.50998277  0.99434475  1
  As  As4  1  0.87500000  0.39076897  0.75000000  1
  As  As5  1  0.13782628  0.12580423  0.25011989  1
  As  As6  1  0.61217372  0.62592413  0.24988011  1
  P  P7  1  0.37500000  0.85868482  0.75000000  1
