# generated using pymatgen
data_Zn2Si2AsP3
_symmetry_space_group_name_H-M   'P 1'
_cell_length_a   5.49029493
_cell_length_b   5.47599663
_cell_length_c   6.60447849
_cell_angle_alpha   65.50795362
_cell_angle_beta   65.14957557
_cell_angle_gamma   90.00000000
_symmetry_Int_Tables_number   1
_chemical_formula_structural   Zn2Si2AsP3
_chemical_formula_sum   'Zn2 Si2 As1 P3'
_cell_volume   160.27375889
_cell_formula_units_Z   1
loop_
 _symmetry_equiv_pos_site_id
 _symmetry_equiv_pos_as_xyz
  1  'x, y, z'
loop_
 _atom_site_type_symbol
 _atom_site_label
 _atom_site_symmetry_multiplicity
 _atom_site_fract_x
 _atom_site_fract_y
 _atom_site_fract_z
 _atom_site_occupancy
  Zn  Zn0  1  0.75972481  0.26011208  0.49442066  1
  Zn  Zn1  1  0.99027519  0.00453274  0.00557934  1
  Si  Si2  1  0.24559913  0.74589825  0.49454890  1
  Si  Si3  1  0.50440087  0.49044715  0.00545110  1
  As  As4  1  0.37500000  0.86023218  0.75000000  1
  P  P5  1  0.87500000  0.39071088  0.75000000  1
  P  P6  1  0.14336997  0.12412480  0.24981712  1
  P  P7  1  0.60663003  0.62394192  0.25018288  1
