# generated using pymatgen
data_Yb2CdPd3
_symmetry_space_group_name_H-M   'P 1'
_cell_length_a   4.81174845
_cell_length_b   4.81174845
_cell_length_c   11.68290783
_cell_angle_alpha   90.00000000
_cell_angle_beta   90.00000000
_cell_angle_gamma   120.00000000
_symmetry_Int_Tables_number   1
_chemical_formula_structural   Yb2CdPd3
_chemical_formula_sum   'Yb4 Cd2 Pd6'
_cell_volume   234.25421428
_cell_formula_units_Z   2
loop_
 _symmetry_equiv_pos_site_id
 _symmetry_equiv_pos_as_xyz
  1  'x, y, z'
loop_
 _atom_site_type_symbol
 _atom_site_label
 _atom_site_symmetry_multiplicity
 _atom_site_fract_x
 _atom_site_fract_y
 _atom_site_fract_z
 _atom_site_occupancy
  Yb  Yb0  1  0.33333300  0.66666700  0.66666700  1
  Yb  Yb1  1  0.00000000  -0.00000000  0.98839950  1
  Yb  Yb2  1  0.66666700  0.33333300  0.34493350  1
  Yb  Yb3  1  0.33333300  0.66666700  0.16666700  1
  Cd  Cd4  1  0.00000000  -0.00000000  0.50111401  1
  Cd  Cd5  1  0.66666700  0.33333300  0.83221899  1
  Pd  Pd6  1  0.00000000  -0.00000000  0.74577241  1
  Pd  Pd7  1  0.66666700  0.33333300  0.08033756  1
  Pd  Pd8  1  0.33333300  0.66666700  0.41903533  1
  Pd  Pd9  1  0.33333300  0.66666700  0.91429867  1
  Pd  Pd10  1  0.00000000  0.00000000  0.25299544  1
  Pd  Pd11  1  0.66666700  0.33333300  0.58756059  1
