# generated using pymatgen
data_CoPH4ClO3
_symmetry_space_group_name_H-M   'P 1'
_cell_length_a   7.46609804
_cell_length_b   13.40354599
_cell_length_c   9.56186444
_cell_angle_alpha   90.00000000
_cell_angle_beta   90.00000000
_cell_angle_gamma   90.00000000
_symmetry_Int_Tables_number   1
_chemical_formula_structural   CoPH4ClO3
_chemical_formula_sum   'Co8 P8 H32 Cl8 O24'
_cell_volume   956.87670013
_cell_formula_units_Z   8
loop_
 _symmetry_equiv_pos_site_id
 _symmetry_equiv_pos_as_xyz
  1  'x, y, z'
loop_
 _atom_site_type_symbol
 _atom_site_label
 _atom_site_symmetry_multiplicity
 _atom_site_fract_x
 _atom_site_fract_y
 _atom_site_fract_z
 _atom_site_occupancy
  Co  Co0  1  0.61850783  0.50121174  0.35481365  1
  Co  Co1  1  0.11850783  0.99878826  0.64518635  1
  Co  Co2  1  0.38149217  0.00121174  0.14518635  1
  Co  Co3  1  0.88149217  0.49878826  0.85481365  1
  Co  Co4  1  0.38149217  0.49878826  0.64518635  1
  Co  Co5  1  0.88149217  0.00121174  0.35481365  1
  Co  Co6  1  0.61850783  0.99878826  0.85481365  1
  Co  Co7  1  0.11850783  0.50121174  0.14518635  1
  P  P8  1  0.72507389  0.15144390  0.11014132  1
  P  P9  1  0.22507389  0.34855610  0.88985868  1
  P  P10  1  0.27492611  0.65144390  0.38985868  1
  P  P11  1  0.77492611  0.84855610  0.61014132  1
  P  P12  1  0.27492611  0.84855610  0.88985868  1
  P  P13  1  0.77492611  0.65144390  0.11014132  1
  P  P14  1  0.72507389  0.34855610  0.61014132  1
  P  P15  1  0.22507389  0.15144390  0.38985868  1
  H  H16  1  0.79877723  0.21683338  0.01007211  1
  H  H17  1  0.29877723  0.28316662  0.98992789  1
  H  H18  1  0.20122277  0.71683338  0.48992789  1
  H  H19  1  0.70122277  0.78316662  0.51007211  1
  H  H20  1  0.20122277  0.78316662  0.98992789  1
  H  H21  1  0.70122277  0.71683338  0.01007211  1
  H  H22  1  0.79877723  0.28316662  0.51007211  1
  H  H23  1  0.29877723  0.21683338  0.48992789  1
  H  H24  1  0.63190679  0.21162780  0.20704443  1
  H  H25  1  0.13190679  0.28837220  0.79295557  1
  H  H26  1  0.36809321  0.71162780  0.29295557  1
  H  H27  1  0.86809321  0.78837220  0.70704443  1
  H  H28  1  0.36809321  0.78837220  0.79295557  1
  H  H29  1  0.86809321  0.71162780  0.20704443  1
  H  H30  1  0.63190679  0.28837220  0.70704443  1
  H  H31  1  0.13190679  0.21162780  0.29295557  1
  H  H32  1  0.07152215  0.08887963  0.07689439  1
  H  H33  1  0.57152215  0.41112037  0.92310561  1
  H  H34  1  0.92847785  0.58887963  0.42310561  1
  H  H35  1  0.42847785  0.91112037  0.57689439  1
  H  H36  1  0.92847785  0.91112037  0.92310561  1
  H  H37  1  0.42847785  0.58887963  0.07689439  1
  H  H38  1  0.07152215  0.41112037  0.57689439  1
  H  H39  1  0.57152215  0.08887963  0.42310561  1
  H  H40  1  0.20616007  0.09473771  0.94326798  1
  H  H41  1  0.70616007  0.40526229  0.05673202  1
  H  H42  1  0.79383993  0.59473771  0.55673202  1
  H  H43  1  0.29383993  0.90526229  0.44326798  1
  H  H44  1  0.79383993  0.90526229  0.05673202  1
  H  H45  1  0.29383993  0.59473771  0.94326798  1
  H  H46  1  0.20616007  0.40526229  0.44326798  1
  H  H47  1  0.70616007  0.09473771  0.55673202  1
  Cl  Cl48  1  0.37524134  0.40094857  0.23775031  1
  Cl  Cl49  1  0.87524134  0.09905143  0.76224969  1
  Cl  Cl50  1  0.62475866  0.90094857  0.26224969  1
  Cl  Cl51  1  0.12475866  0.59905143  0.73775031  1
  Cl  Cl52  1  0.62475866  0.59905143  0.76224969  1
  Cl  Cl53  1  0.12475866  0.90094857  0.23775031  1
  Cl  Cl54  1  0.37524134  0.09905143  0.73775031  1
  Cl  Cl55  1  0.87524134  0.40094857  0.26224969  1
  O  O56  1  0.58443775  0.08564170  0.03643370  1
  O  O57  1  0.08443775  0.41435830  0.96356630  1
  O  O58  1  0.41556225  0.58564170  0.46356630  1
  O  O59  1  0.91556225  0.91435830  0.53643370  1
  O  O60  1  0.41556225  0.91435830  0.96356630  1
  O  O61  1  0.91556225  0.58564170  0.03643370  1
  O  O62  1  0.58443775  0.41435830  0.53643370  1
  O  O63  1  0.08443775  0.08564170  0.46356630  1
  O  O64  1  0.19809666  0.09554461  0.04584090  1
  O  O65  1  0.69809666  0.40445539  0.95415910  1
  O  O66  1  0.80190334  0.59554461  0.45415910  1
  O  O67  1  0.30190334  0.90445539  0.54584090  1
  O  O68  1  0.80190334  0.90445539  0.95415910  1
  O  O69  1  0.30190334  0.59554461  0.04584090  1
  O  O70  1  0.19809666  0.40445539  0.54584090  1
  O  O71  1  0.69809666  0.09554461  0.45415910  1
  O  O72  1  0.88045139  0.09616061  0.18094839  1
  O  O73  1  0.38045139  0.40383939  0.81905161  1
  O  O74  1  0.11954861  0.59616061  0.31905161  1
  O  O75  1  0.61954861  0.90383939  0.68094839  1
  O  O76  1  0.11954861  0.90383939  0.81905161  1
  O  O77  1  0.61954861  0.59616061  0.18094839  1
  O  O78  1  0.88045139  0.40383939  0.68094839  1
  O  O79  1  0.38045139  0.09616061  0.31905161  1
