# generated using pymatgen
data_Tm5TeSe4
_symmetry_space_group_name_H-M   'P 1'
_cell_length_a   4.08277325
_cell_length_b   4.08277325
_cell_length_c   16.77644235
_cell_angle_alpha   90.00000000
_cell_angle_beta   96.98917027
_cell_angle_gamma   120.00000000
_symmetry_Int_Tables_number   1
_chemical_formula_structural   Tm5TeSe4
_chemical_formula_sum   'Tm5 Te1 Se4'
_cell_volume   239.77905008
_cell_formula_units_Z   1
loop_
 _symmetry_equiv_pos_site_id
 _symmetry_equiv_pos_as_xyz
  1  'x, y, z'
loop_
 _atom_site_type_symbol
 _atom_site_label
 _atom_site_symmetry_multiplicity
 _atom_site_fract_x
 _atom_site_fract_y
 _atom_site_fract_z
 _atom_site_occupancy
  Tm  Tm0  1  0.58732641  0.29366321  0.88098962  1
  Tm  Tm1  1  0.79812012  0.89906006  0.69718018  1
  Tm  Tm2  1  -0.00000000  0.50000000  0.50000000  1
  Tm  Tm3  1  0.41267359  0.70633679  0.11901038  1
  Tm  Tm4  1  0.20187988  0.10093994  0.30281982  1
  Te  Te5  1  -0.00000000  0.00000000  -0.00000000  1
  Se  Se6  1  0.80652379  0.40326190  0.20978569  1
  Se  Se7  1  0.60206851  0.80103426  0.40310277  1
  Se  Se8  1  0.39793149  0.19896574  0.59689723  1
  Se  Se9  1  0.19347621  0.59673810  0.79021431  1
