# generated using pymatgen
data_Tm7Mg3Ge8
_symmetry_space_group_name_H-M   'P 1'
_cell_length_a   7.08888562
_cell_length_b   7.70261065
_cell_length_c   14.32700317
_cell_angle_alpha   89.99647460
_cell_angle_beta   90.00000000
_cell_angle_gamma   90.00000000
_symmetry_Int_Tables_number   1
_chemical_formula_structural   Tm7Mg3Ge8
_chemical_formula_sum   'Tm14 Mg6 Ge16'
_cell_volume   782.29629079
_cell_formula_units_Z   2
loop_
 _symmetry_equiv_pos_site_id
 _symmetry_equiv_pos_as_xyz
  1  'x, y, z'
loop_
 _atom_site_type_symbol
 _atom_site_label
 _atom_site_symmetry_multiplicity
 _atom_site_fract_x
 _atom_site_fract_y
 _atom_site_fract_z
 _atom_site_occupancy
  Tm  Tm0  1  0.49270617  0.31637654  0.90556279  1
  Tm  Tm1  1  0.99270617  0.18362346  0.59443721  1
  Tm  Tm2  1  0.50898732  0.68253882  0.40585281  1
  Tm  Tm3  1  0.00898732  0.81746118  0.09414719  1
  Tm  Tm4  1  0.50746257  0.68332325  0.09360972  1
  Tm  Tm5  1  0.00746257  0.81667675  0.40639028  1
  Tm  Tm6  1  0.49194441  0.31648937  0.59485605  1
  Tm  Tm7  1  0.99194441  0.18351063  0.90514395  1
  Tm  Tm8  1  0.66951304  0.17653715  0.37404881  1
  Tm  Tm9  1  0.16951304  0.32346285  0.12595119  1
  Tm  Tm10  1  0.66819599  0.17564744  0.12618874  1
  Tm  Tm11  1  0.16819599  0.32435256  0.37381126  1
  Tm  Tm12  1  0.33128155  0.82133467  0.62796230  1
  Tm  Tm13  1  0.83128155  0.67866533  0.87203770  1
  Mg  Mg14  1  0.16013846  0.48609053  0.74970067  1
  Mg  Mg15  1  0.66013846  0.01390947  0.75029933  1
  Mg  Mg16  1  0.83832021  0.51503452  0.25011562  1
  Mg  Mg17  1  0.33832021  0.98496548  0.24988438  1
  Mg  Mg18  1  0.33024150  0.82349171  0.87497999  1
  Mg  Mg19  1  0.83024150  0.67650829  0.62502001  1
  Ge  Ge20  1  0.28853206  0.13955553  0.74973825  1
  Ge  Ge21  1  0.78853206  0.36044447  0.75026175  1
  Ge  Ge22  1  0.71019164  0.86047621  0.24986459  1
  Ge  Ge23  1  0.21019164  0.63952379  0.25013541  1
  Ge  Ge24  1  0.32889216  0.03271879  0.03581041  1
  Ge  Ge25  1  0.82889216  0.46728121  0.46418959  1
  Ge  Ge26  1  0.67270552  0.96411089  0.53789268  1
  Ge  Ge27  1  0.17270552  0.53588911  0.96210732  1
  Ge  Ge28  1  0.67059604  0.96492685  0.96328477  1
  Ge  Ge29  1  0.17059604  0.53507315  0.53671523  1
  Ge  Ge30  1  0.32751645  0.03431089  0.46378970  1
  Ge  Ge31  1  0.82751645  0.46568911  0.03621030  1
  Ge  Ge32  1  0.52752678  0.59446787  0.74971618  1
  Ge  Ge33  1  0.02752678  0.90553213  0.75028382  1
  Ge  Ge34  1  0.47524813  0.40727232  0.24962678  1
  Ge  Ge35  1  0.97524813  0.09272768  0.25037322  1
