# generated using pymatgen
data_TlCr5Te8
_symmetry_space_group_name_H-M   'P 1'
_cell_length_a   3.99025265
_cell_length_b   9.55590035
_cell_length_c   10.39602147
_cell_angle_alpha   104.06277166
_cell_angle_beta   78.93558419
_cell_angle_gamma   90.00000000
_symmetry_Int_Tables_number   1
_chemical_formula_structural   TlCr5Te8
_chemical_formula_sum   'Tl1 Cr5 Te8'
_cell_volume   376.92429674
_cell_formula_units_Z   1
loop_
 _symmetry_equiv_pos_site_id
 _symmetry_equiv_pos_as_xyz
  1  'x, y, z'
loop_
 _atom_site_type_symbol
 _atom_site_label
 _atom_site_symmetry_multiplicity
 _atom_site_fract_x
 _atom_site_fract_y
 _atom_site_fract_z
 _atom_site_occupancy
  Tl  Tl0  1  0.01787640  0.00073805  0.96424721  1
  Cr  Cr1  1  0.20489587  0.16907446  0.59020826  1
  Cr  Cr2  1  0.79571969  0.83194860  0.40856062  1
  Cr  Cr3  1  0.84350649  0.48244345  0.31298701  1
  Cr  Cr4  1  0.15710777  0.51694495  0.68578445  1
  Cr  Cr5  1  0.49952016  0.50034333  0.00095967  1
  Te  Te6  1  0.41421768  0.32191746  0.17156464  1
  Te  Te7  1  0.58567813  0.67701995  0.82864373  1
  Te  Te8  1  0.33031887  0.99317421  0.33936227  1
  Te  Te9  1  0.66939232  0.00734586  0.66121535  1
  Te  Te10  1  0.73964012  0.34258247  0.52071975  1
  Te  Te11  1  0.26088291  0.65638522  0.47823418  1
  Te  Te12  1  0.07175078  0.33413040  0.85649844  1
  Te  Te13  1  0.92753279  0.66645159  0.14493442  1
