# generated using pymatgen
data_UGaAu
_symmetry_space_group_name_H-M   'P 1'
_cell_length_a   4.86137568
_cell_length_b   5.66630215
_cell_length_c   5.66354029
_cell_angle_alpha   118.83947978
_cell_angle_beta   115.41563987
_cell_angle_gamma   64.59762948
_symmetry_Int_Tables_number   1
_chemical_formula_structural   UGaAu
_chemical_formula_sum   'U2 Ga2 Au2'
_cell_volume   118.47654707
_cell_formula_units_Z   2
loop_
 _symmetry_equiv_pos_site_id
 _symmetry_equiv_pos_as_xyz
  1  'x, y, z'
loop_
 _atom_site_type_symbol
 _atom_site_label
 _atom_site_symmetry_multiplicity
 _atom_site_fract_x
 _atom_site_fract_y
 _atom_site_fract_z
 _atom_site_occupancy
  U  U0  1  0.50165855  0.73630584  0.73962294  1
  U  U1  1  0.49834145  0.26369416  0.26037706  1
  Ga  Ga2  1  0.83906404  0.15770950  0.83583758  1
  Ga  Ga3  1  0.16093596  0.84229050  0.16416242  1
  Au  Au4  1  0.17426509  0.32434849  0.67287867  1
  Au  Au5  1  0.82573491  0.67565151  0.32712133  1
