# generated using pymatgen
data_V2Cu3NiO6
_symmetry_space_group_name_H-M   'P 1'
_cell_length_a   5.30460323
_cell_length_b   6.01536265
_cell_length_c   5.26354804
_cell_angle_alpha   98.33469720
_cell_angle_beta   120.25835441
_cell_angle_gamma   73.28166454
_symmetry_Int_Tables_number   1
_chemical_formula_structural   V2Cu3NiO6
_chemical_formula_sum   'V2 Cu3 Ni1 O6'
_cell_volume   138.94110143
_cell_formula_units_Z   1
loop_
 _symmetry_equiv_pos_site_id
 _symmetry_equiv_pos_as_xyz
  1  'x, y, z'
loop_
 _atom_site_type_symbol
 _atom_site_label
 _atom_site_symmetry_multiplicity
 _atom_site_fract_x
 _atom_site_fract_y
 _atom_site_fract_z
 _atom_site_occupancy
  V  V0  1  0.50019443  0.50000000  0.00038886  1
  V  V1  1  0.83313857  0.50000000  0.66627814  1
  Cu  Cu2  1  0.33462130  0.00000000  0.66924361  1
  Cu  Cu3  1  0.66666700  0.00000000  0.33333300  1
  Cu  Cu4  1  0.99871170  1.00000000  0.99742339  1
  Ni  Ni5  1  0.16666700  0.50000000  0.33333300  1
  O  O6  1  0.75989067  0.68082668  0.33333300  1
  O  O7  1  0.10608410  0.68027818  0.98697958  1
  O  O8  1  0.45243752  0.68027818  0.67968742  1
  O  O9  1  0.22724890  0.31972182  0.67968742  1
  O  O10  1  0.57344333  0.31917332  0.33333300  1
  O  O11  1  0.88089548  0.31972182  0.98697958  1
