# generated using pymatgen
data_Li4Ti2Nb3Cu3O16
_symmetry_space_group_name_H-M   'P 1'
_cell_length_a   6.14980458
_cell_length_b   6.04396071
_cell_length_c   9.87946112
_cell_angle_alpha   89.99938441
_cell_angle_beta   86.62681366
_cell_angle_gamma   119.44137573
_symmetry_Int_Tables_number   1
_chemical_formula_structural   Li4Ti2Nb3Cu3O16
_chemical_formula_sum   'Li4 Ti2 Nb3 Cu3 O16'
_cell_volume   319.05853829
_cell_formula_units_Z   1
loop_
 _symmetry_equiv_pos_site_id
 _symmetry_equiv_pos_as_xyz
  1  'x, y, z'
loop_
 _atom_site_type_symbol
 _atom_site_label
 _atom_site_symmetry_multiplicity
 _atom_site_fract_x
 _atom_site_fract_y
 _atom_site_fract_z
 _atom_site_occupancy
  Li  Li0  1  0.33407564  0.66705011  0.91216234  1
  Li  Li1  1  0.01044530  0.00525450  0.99986489  1
  Li  Li2  1  0.05120252  0.02560186  0.47861190  1
  Li  Li3  1  0.67481935  0.33744026  0.39487193  1
  Ti  Ti4  1  0.27296887  0.63653096  0.47270741  1
  Ti  Ti5  1  0.64891750  0.32441541  0.00894024  1
  Nb  Nb6  1  0.64733674  0.82369017  0.22858989  1
  Nb  Nb7  1  0.81922175  0.65905366  0.71796218  1
  Nb  Nb8  1  0.81921035  0.16017279  0.71797057  1
  Cu  Cu9  1  0.16737503  0.82942259  0.20421615  1
  Cu  Cu10  1  0.16733631  0.33794742  0.20419841  1
  Cu  Cu11  1  0.34265408  0.17136456  0.70653330  1
  O  O12  1  0.14814276  0.81149995  0.58730410  1
  O  O13  1  0.04362762  0.52188606  0.34719622  1
  O  O14  1  0.34389766  0.67200889  0.11258082  1
  O  O15  1  0.99491438  0.99738280  0.29206270  1
  O  O16  1  0.99696148  0.99855003  0.80960875  1
  O  O17  1  0.14813197  0.33669862  0.58730084  1
  O  O18  1  0.50967809  0.96761457  0.35947975  1
  O  O19  1  0.50958316  0.54203967  0.35949471  1
  O  O20  1  0.33157912  0.16569739  0.08675489  1
  O  O21  1  0.68971384  0.84482024  0.60954759  1
  O  O22  1  0.54308353  0.50147600  0.84867061  1
  O  O23  1  0.54309892  0.04158710  0.84864942  1
  O  O24  1  0.69244003  0.34617099  0.60288281  1
  O  O25  1  0.79049396  0.64349150  0.09011836  1
  O  O26  1  0.96853661  0.48433466  0.82944254  1
  O  O27  1  0.79055343  0.14709824  0.09011763  1
