# generated using pymatgen
data_Tl8SnTe6Pb
_symmetry_space_group_name_H-M   'P 1'
_cell_length_a   9.21899710
_cell_length_b   9.21899710
_cell_length_c   9.21899710
_cell_angle_alpha   58.09157449
_cell_angle_beta   58.09157449
_cell_angle_gamma   86.72511863
_symmetry_Int_Tables_number   1
_chemical_formula_structural   Tl8SnTe6Pb
_chemical_formula_sum   'Tl8 Sn1 Te6 Pb1'
_cell_volume   537.09732155
_cell_formula_units_Z   1
loop_
 _symmetry_equiv_pos_site_id
 _symmetry_equiv_pos_as_xyz
  1  'x, y, z'
loop_
 _atom_site_type_symbol
 _atom_site_label
 _atom_site_symmetry_multiplicity
 _atom_site_fract_x
 _atom_site_fract_y
 _atom_site_fract_z
 _atom_site_occupancy
  Tl  Tl0  1  0.80501050  0.30428277  0.20763440  1
  Tl  Tl1  1  0.51191717  0.01264490  0.79236560  1
  Tl  Tl2  1  0.30428277  0.51191717  0.50072773  1
  Tl  Tl3  1  0.01264490  0.80501050  0.49927227  1
  Tl  Tl4  1  0.19498950  0.69571723  0.79236560  1
  Tl  Tl5  1  0.48808283  0.98735510  0.20763440  1
  Tl  Tl6  1  0.69571723  0.48808283  0.49927227  1
  Tl  Tl7  1  0.98735510  0.19498950  0.50072773  1
  Sn  Sn8  1  0.00000000  0.00000000  -0.00000000  1
  Te  Te9  1  0.83791895  0.33214747  0.82993358  1
  Te  Te10  1  0.16208105  0.66785253  0.17006642  1
  Te  Te11  1  0.33214747  0.16208105  0.50577147  1
  Te  Te12  1  0.66785253  0.83791895  0.49422853  1
  Te  Te13  1  0.75283075  0.75283075  -0.00000000  1
  Te  Te14  1  0.24716925  0.24716925  -0.00000000  1
  Pb  Pb15  1  0.50000000  0.50000000  -0.00000000  1
