# generated using pymatgen
data_Tl(CoSb3)16
_symmetry_space_group_name_H-M   'P 1'
_cell_length_a   7.89320461
_cell_length_b   7.89320461
_cell_length_c   25.75512456
_cell_angle_alpha   89.97700726
_cell_angle_beta   90.02299274
_cell_angle_gamma   109.49635606
_symmetry_Int_Tables_number   1
_chemical_formula_structural   Tl(CoSb3)16
_chemical_formula_sum   'Tl1 Co16 Sb48'
_cell_volume   1512.60891525
_cell_formula_units_Z   1
loop_
 _symmetry_equiv_pos_site_id
 _symmetry_equiv_pos_as_xyz
  1  'x, y, z'
loop_
 _atom_site_type_symbol
 _atom_site_label
 _atom_site_symmetry_multiplicity
 _atom_site_fract_x
 _atom_site_fract_y
 _atom_site_fract_z
 _atom_site_occupancy
  Tl  Tl0  1  0.00000000  -0.00000000  -0.00000000  1
  Co  Co1  1  0.74978055  0.74981870  0.12499972  1
  Co  Co2  1  0.25008483  0.25003163  0.37489148  1
  Co  Co3  1  0.74991517  0.74996837  0.62510852  1
  Co  Co4  1  0.25021945  0.25018130  0.87500028  1
  Co  Co5  1  0.99993784  0.50005512  0.24987802  1
  Co  Co6  1  0.50000000  -0.00000000  0.50000000  1
  Co  Co7  1  0.00006216  0.49994488  0.75012198  1
  Co  Co8  1  0.50000000  -0.00000000  -0.00000000  1
  Co  Co9  1  0.49994488  0.00006216  0.24987802  1
  Co  Co10  1  0.00000000  0.50000000  0.50000000  1
  Co  Co11  1  0.50005512  0.99993784  0.75012198  1
  Co  Co12  1  0.00000000  0.50000000  -0.00000000  1
  Co  Co13  1  0.25018130  0.25021945  0.12499972  1
  Co  Co14  1  0.74996837  0.74991517  0.37489148  1
  Co  Co15  1  0.25003163  0.25008483  0.62510852  1
  Co  Co16  1  0.74981870  0.74978055  0.87500028  1
  Sb  Sb17  1  0.82496169  0.49398471  0.16738304  1
  Sb  Sb18  1  0.32613859  0.99317105  0.41670449  1
  Sb  Sb19  1  0.82640993  0.49304134  0.66652997  1
  Sb  Sb20  1  0.32996705  0.99240446  0.91539432  1
  Sb  Sb21  1  0.67003295  0.00759554  0.08460568  1
  Sb  Sb22  1  0.17359007  0.50695866  0.33347003  1
  Sb  Sb23  1  0.67386141  0.00682895  0.58329551  1
  Sb  Sb24  1  0.17503831  0.50601529  0.83261696  1
  Sb  Sb25  1  0.50601529  0.17503831  0.16738304  1
  Sb  Sb26  1  0.00682895  0.67386141  0.41670449  1
  Sb  Sb27  1  0.50695866  0.17359007  0.66652997  1
  Sb  Sb28  1  0.00759554  0.67003295  0.91539432  1
  Sb  Sb29  1  0.99240446  0.32996705  0.08460568  1
  Sb  Sb30  1  0.49304134  0.82640993  0.33347003  1
  Sb  Sb31  1  0.99317105  0.32613859  0.58329551  1
  Sb  Sb32  1  0.49398471  0.82496169  0.83261696  1
  Sb  Sb33  1  0.74475212  0.58338491  0.04037951  1
  Sb  Sb34  1  0.24681836  0.08675066  0.29003432  1
  Sb  Sb35  1  0.74659401  0.58681619  0.53989133  1
  Sb  Sb36  1  0.24633424  0.08660774  0.78962825  1
  Sb  Sb37  1  0.75366576  0.91339226  0.21037175  1
  Sb  Sb38  1  0.25340599  0.41318381  0.46010867  1
  Sb  Sb39  1  0.75318164  0.91324934  0.70996568  1
  Sb  Sb40  1  0.25524788  0.41661509  0.95962049  1
  Sb  Sb41  1  0.08660774  0.24633424  0.21037175  1
  Sb  Sb42  1  0.58681619  0.74659401  0.46010867  1
  Sb  Sb43  1  0.08675066  0.24681836  0.70996568  1
  Sb  Sb44  1  0.58338491  0.74475212  0.95962049  1
  Sb  Sb45  1  0.41661509  0.25524788  0.04037951  1
  Sb  Sb46  1  0.91324934  0.75318164  0.29003432  1
  Sb  Sb47  1  0.41318381  0.25340599  0.53989133  1
  Sb  Sb48  1  0.91339226  0.75366576  0.78962825  1
  Sb  Sb49  1  0.25491026  0.74508974  0.20740629  1
  Sb  Sb50  1  0.75380849  0.24619151  0.45662986  1
  Sb  Sb51  1  0.25361867  0.74638133  0.70641260  1
  Sb  Sb52  1  0.75065880  0.24934120  0.95562654  1
  Sb  Sb53  1  0.24934120  0.75065880  0.04437346  1
  Sb  Sb54  1  0.74638133  0.25361867  0.29358740  1
  Sb  Sb55  1  0.24619151  0.75380849  0.54337014  1
  Sb  Sb56  1  0.74508974  0.25491026  0.79259371  1
  Sb  Sb57  1  0.41398640  0.58601360  0.12755814  1
  Sb  Sb58  1  0.91316688  0.08683312  0.37680919  1
  Sb  Sb59  1  0.41326250  0.58673750  0.62670960  1
  Sb  Sb60  1  0.91198462  0.08801538  0.87497055  1
  Sb  Sb61  1  0.08801538  0.91198462  0.12502945  1
  Sb  Sb62  1  0.58673750  0.41326250  0.37329040  1
  Sb  Sb63  1  0.08683312  0.91316688  0.62319081  1
  Sb  Sb64  1  0.58601360  0.41398640  0.87244186  1
