# generated using pymatgen
data_U(AlFe)6
_symmetry_space_group_name_H-M   'P 1'
_cell_length_a   4.94042189
_cell_length_b   6.55592534
_cell_length_c   6.55592534
_cell_angle_alpha   98.93469917
_cell_angle_beta   112.13502518
_cell_angle_gamma   67.86497482
_symmetry_Int_Tables_number   1
_chemical_formula_structural   U(AlFe)6
_chemical_formula_sum   'U1 Al6 Fe6'
_cell_volume   182.17192784
_cell_formula_units_Z   1
loop_
 _symmetry_equiv_pos_site_id
 _symmetry_equiv_pos_as_xyz
  1  'x, y, z'
loop_
 _atom_site_type_symbol
 _atom_site_label
 _atom_site_symmetry_multiplicity
 _atom_site_fract_x
 _atom_site_fract_y
 _atom_site_fract_z
 _atom_site_occupancy
  U  U0  1  0.00000000  -0.00000000  -0.00000000  1
  Al  Al1  1  0.65129825  0.34870175  0.65129825  1
  Al  Al2  1  0.34870175  0.65129825  0.34870175  1
  Al  Al3  1  0.00000000  0.34198792  0.34198792  1
  Al  Al4  1  -0.00000000  0.65801208  0.65801208  1
  Al  Al5  1  0.69946105  0.80053895  0.19946105  1
  Al  Al6  1  0.30053895  0.19946105  0.80053895  1
  Fe  Fe7  1  0.50000000  -0.00000000  0.50000000  1
  Fe  Fe8  1  0.00000000  -0.00000000  0.50000000  1
  Fe  Fe9  1  0.50000000  0.50000000  -0.00000000  1
  Fe  Fe10  1  0.00000000  0.50000000  -0.00000000  1
  Fe  Fe11  1  0.50000000  0.76836295  0.76836295  1
  Fe  Fe12  1  0.50000000  0.23163705  0.23163705  1
