# generated using pymatgen
data_Y(Al3Fe)3
_symmetry_space_group_name_H-M   'P 1'
_cell_length_a   5.04853405
_cell_length_b   6.75586316
_cell_length_c   6.74922090
_cell_angle_alpha   98.26611891
_cell_angle_beta   112.63032802
_cell_angle_gamma   68.05966085
_symmetry_Int_Tables_number   1
_chemical_formula_structural   Y(Al3Fe)3
_chemical_formula_sum   'Y1 Al9 Fe3'
_cell_volume   197.08470122
_cell_formula_units_Z   1
loop_
 _symmetry_equiv_pos_site_id
 _symmetry_equiv_pos_as_xyz
  1  'x, y, z'
loop_
 _atom_site_type_symbol
 _atom_site_label
 _atom_site_symmetry_multiplicity
 _atom_site_fract_x
 _atom_site_fract_y
 _atom_site_fract_z
 _atom_site_occupancy
  Y  Y0  1  0.00000000  0.00000000  0.00000000  1
  Al  Al1  1  0.72998643  0.77522475  0.21374530  1
  Al  Al2  1  0.27001357  0.22477525  0.78625470  1
  Al  Al3  1  0.49478882  0.77522475  0.78625470  1
  Al  Al4  1  0.50521118  0.22477525  0.21374530  1
  Al  Al5  1  0.66328353  0.35349277  0.66260143  1
  Al  Al6  1  0.33671647  0.64650723  0.33739857  1
  Al  Al7  1  0.98322370  0.35349277  0.33739857  1
  Al  Al8  1  0.01677630  0.64650723  0.66260143  1
  Al  Al9  1  0.50000000  0.00000000  0.50000000  1
  Fe  Fe10  1  0.00000000  0.00000000  0.50000000  1
  Fe  Fe11  1  0.50000000  0.50000000  0.00000000  1
  Fe  Fe12  1  0.00000000  0.50000000  0.00000000  1
