# generated using pymatgen
data_Th4AlGe
_symmetry_space_group_name_H-M   'P 1'
_cell_length_a   5.83306134
_cell_length_b   6.11132400
_cell_length_c   6.11132400
_cell_angle_alpha   103.16476720
_cell_angle_beta   118.50489557
_cell_angle_gamma   61.49510443
_symmetry_Int_Tables_number   1
_chemical_formula_structural   Th4AlGe
_chemical_formula_sum   'Th4 Al1 Ge1'
_cell_volume   168.23791299
_cell_formula_units_Z   1
loop_
 _symmetry_equiv_pos_site_id
 _symmetry_equiv_pos_as_xyz
  1  'x, y, z'
loop_
 _atom_site_type_symbol
 _atom_site_label
 _atom_site_symmetry_multiplicity
 _atom_site_fract_x
 _atom_site_fract_y
 _atom_site_fract_z
 _atom_site_occupancy
  Th  Th0  1  0.15982734  0.50000000  0.81965467  1
  Th  Th1  1  0.84017266  0.50000000  0.18034533  1
  Th  Th2  1  0.34017266  0.81965467  0.50000000  1
  Th  Th3  1  0.65982734  0.18034533  0.50000000  1
  Al  Al4  1  0.75000000  0.00000000  0.00000000  1
  Ge  Ge5  1  0.25000000  0.00000000  0.00000000  1
