# generated using pymatgen
data_TbFe11W
_symmetry_space_group_name_H-M   'P 1'
_cell_length_a   4.69543521
_cell_length_b   6.46278705
_cell_length_c   6.46278705
_cell_angle_alpha   97.94801369
_cell_angle_beta   111.30097690
_cell_angle_gamma   68.69902310
_symmetry_Int_Tables_number   1
_chemical_formula_structural   TbFe11W
_chemical_formula_sum   'Tb1 Fe11 W1'
_cell_volume   170.23243165
_cell_formula_units_Z   1
loop_
 _symmetry_equiv_pos_site_id
 _symmetry_equiv_pos_as_xyz
  1  'x, y, z'
loop_
 _atom_site_type_symbol
 _atom_site_label
 _atom_site_symmetry_multiplicity
 _atom_site_fract_x
 _atom_site_fract_y
 _atom_site_fract_z
 _atom_site_occupancy
  Tb  Tb0  1  0.00617894  0.99382106  0.00617894  1
  Fe  Fe1  1  0.73059258  0.76940742  0.23059258  1
  Fe  Fe2  1  0.27299574  0.22700426  0.77299574  1
  Fe  Fe3  1  0.49846925  0.77779295  0.77473146  1
  Fe  Fe4  1  0.49846925  0.22526854  0.22220705  1
  Fe  Fe5  1  0.50108374  0.99867213  0.50083346  1
  Fe  Fe6  1  0.00107759  0.99867213  0.50083346  1
  Fe  Fe7  1  0.50108374  0.49916654  0.00132787  1
  Fe  Fe8  1  0.00107759  0.49916654  0.00132787  1
  Fe  Fe9  1  0.35596782  0.64403218  0.35596782  1
  Fe  Fe10  1  0.00019093  0.35838938  0.35877125  1
  Fe  Fe11  1  0.00019093  0.64122875  0.64161062  1
  W  W12  1  0.63262188  0.36737812  0.63262188  1
