# generated using pymatgen
data_Ti12Mn5(PO4)18
_symmetry_space_group_name_H-M   'P 1'
_cell_length_a   8.66517307
_cell_length_b   12.24589455
_cell_length_c   14.98254244
_cell_angle_alpha   114.00364092
_cell_angle_beta   73.18064131
_cell_angle_gamma   89.98986368
_symmetry_Int_Tables_number   1
_chemical_formula_structural   Ti12Mn5(PO4)18
_chemical_formula_sum   'Ti12 Mn5 P18 O72'
_cell_volume   1377.52956347
_cell_formula_units_Z   1
loop_
 _symmetry_equiv_pos_site_id
 _symmetry_equiv_pos_as_xyz
  1  'x, y, z'
loop_
 _atom_site_type_symbol
 _atom_site_label
 _atom_site_symmetry_multiplicity
 _atom_site_fract_x
 _atom_site_fract_y
 _atom_site_fract_z
 _atom_site_occupancy
  Ti  Ti0  1  0.76378717  0.38241967  0.47160544  1
  Ti  Ti1  1  0.09732245  0.04974098  0.80545337  1
  Ti  Ti2  1  0.43181339  0.71413544  0.13687254  1
  Ti  Ti3  1  0.23621283  0.61758033  0.52839456  1
  Ti  Ti4  1  0.56818661  0.28586456  0.86312746  1
  Ti  Ti5  1  0.90267755  0.95025902  0.19454663  1
  Ti  Ti6  1  0.09014011  0.54527796  0.81942166  1
  Ti  Ti7  1  0.42950910  0.21483623  0.14085696  1
  Ti  Ti8  1  0.76302614  0.88132082  0.47387772  1
  Ti  Ti9  1  0.90985989  0.45472204  0.18057834  1
  Ti  Ti10  1  0.23697386  0.11867918  0.52612228  1
  Ti  Ti11  1  0.57049090  0.78516377  0.85914304  1
  Mn  Mn12  1  0.33321855  0.66596009  0.33282189  1
  Mn  Mn13  1  0.66678145  0.33403991  0.66717811  1
  Mn  Mn14  1  -0.00000000  -0.00000000  -0.00000000  1
  Mn  Mn15  1  0.66590278  0.83294481  0.66668288  1
  Mn  Mn16  1  0.33409722  0.16705519  0.33331712  1
  P  P17  1  0.40650497  0.55443555  0.89943266  1
  P  P18  1  0.74004450  0.22295836  0.23367784  1
  P  P19  1  0.07177492  0.88745462  0.56774915  1
  P  P20  1  0.97021116  0.27778572  0.76130763  1
  P  P21  1  0.30372733  0.94454305  0.09617992  1
  P  P22  1  0.63941180  0.60991084  0.42704320  1
  P  P23  1  0.79293612  0.75300765  0.99881852  1
  P  P24  1  0.12422913  0.41894554  0.33172016  1
  P  P25  1  0.45986338  0.08545270  0.66658544  1
  P  P26  1  0.59349503  0.44556445  0.10056734  1
  P  P27  1  0.92822508  0.11254538  0.43225085  1
  P  P28  1  0.25995550  0.77704164  0.76632216  1
  P  P29  1  0.02978884  0.72221428  0.23869237  1
  P  P30  1  0.36058820  0.39008916  0.57295680  1
  P  P31  1  0.69627267  0.05545695  0.90382008  1
  P  P32  1  0.20706388  0.24699235  0.00118148  1
  P  P33  1  0.54013662  0.91454730  0.33341456  1
  P  P34  1  0.87577087  0.58105446  0.66827984  1
  O  O35  1  0.66339608  0.52052092  0.47263890  1
  O  O36  1  0.99717512  0.18842718  0.80555004  1
  O  O37  1  0.32954411  0.85426068  0.13961093  1
  O  O38  1  0.98164224  0.40238254  0.41365225  1
  O  O39  1  0.31648989  0.06919981  0.74690637  1
  O  O40  1  0.64995304  0.73541906  0.07899209  1
  O  O41  1  0.73810489  0.26907903  0.34689052  1
  O  O42  1  0.07130388  0.93489772  0.67985333  1
  O  O43  1  0.40404353  0.60171285  0.01221367  1
  O  O44  1  0.33660392  0.47947908  0.52736110  1
  O  O45  1  0.67045589  0.14573932  0.86038907  1
  O  O46  1  0.00282488  0.81157282  0.19444996  1
  O  O47  1  0.01835776  0.59761746  0.58634775  1
  O  O48  1  0.35004696  0.26458094  0.92100791  1
  O  O49  1  0.68351011  0.93080019  0.25309363  1
  O  O50  1  0.26189511  0.73092097  0.65310948  1
  O  O51  1  0.59595647  0.39828715  0.98778633  1
  O  O52  1  0.92869612  0.06510228  0.32014667  1
  O  O53  1  0.20988438  0.70484473  0.23397082  1
  O  O54  1  0.54198779  0.37098862  0.56690223  1
  O  O55  1  0.87568022  0.03726697  0.90000574  1
  O  O56  1  0.12505373  0.13594858  0.94953923  1
  O  O57  1  0.45782137  0.80352788  0.28320747  1
  O  O58  1  0.79174397  0.47058135  0.61664814  1
  O  O59  1  0.48961109  0.57144917  0.16736691  1
  O  O60  1  0.82446342  0.23849303  0.50044462  1
  O  O61  1  0.15779386  0.90398618  0.83360308  1
  O  O62  1  0.79011562  0.29515527  0.76602918  1
  O  O63  1  0.12431978  0.96273303  0.09999426  1
  O  O64  1  0.45801221  0.62901138  0.43309777  1
  O  O65  1  0.87494627  0.86405142  0.05046077  1
  O  O66  1  0.20825603  0.52941865  0.38335186  1
  O  O67  1  0.54217863  0.19647212  0.71679253  1
  O  O68  1  0.51038891  0.42855083  0.83263309  1
  O  O69  1  0.84220614  0.09601382  0.16639692  1
  O  O70  1  0.17553658  0.76150697  0.49955538  1
  O  O71  1  0.74248542  0.56215074  0.31398480  1
  O  O72  1  0.07224554  0.22751125  0.64627083  1
  O  O73  1  0.40661193  0.89785732  0.98204964  1
  O  O74  1  0.06391572  0.44156981  0.25377947  1
  O  O75  1  0.40093100  0.10779766  0.58712160  1
  O  O76  1  0.73054729  0.77892139  0.92185790  1
  O  O77  1  0.81606667  0.30795062  0.18704868  1
  O  O78  1  0.14850770  0.97150938  0.51889218  1
  O  O79  1  0.48721320  0.63919108  0.85210138  1
  O  O80  1  0.25751458  0.43784926  0.68601520  1
  O  O81  1  0.59338807  0.10214268  0.01795036  1
  O  O82  1  0.92775446  0.77248875  0.35372917  1
  O  O83  1  0.93608428  0.55843019  0.74622053  1
  O  O84  1  0.26945271  0.22107861  0.07814210  1
  O  O85  1  0.59906900  0.89220234  0.41287840  1
  O  O86  1  0.18393333  0.69204938  0.81295132  1
  O  O87  1  0.51278680  0.36080892  0.14789862  1
  O  O88  1  0.85149230  0.02849062  0.48110782  1
  O  O89  1  0.65152472  0.93405852  0.83424106  1
  O  O90  1  0.31819932  0.26787522  0.50165826  1
  O  O91  1  0.98283201  0.60119057  0.17523361  1
  O  O92  1  0.75087377  0.69774128  0.71641960  1
  O  O93  1  0.41617402  0.03128492  0.38307825  1
  O  O94  1  0.08255526  0.36093417  0.05490329  1
  O  O95  1  0.44102929  0.78944846  0.76233726  1
  O  O96  1  0.10863023  0.12318316  0.42882879  1
  O  O97  1  0.76887890  0.45476463  0.10193717  1
  O  O98  1  0.68180068  0.73212478  0.49834174  1
  O  O99  1  0.34847528  0.06594148  0.16575894  1
  O  O100  1  0.01716799  0.39880943  0.82476639  1
  O  O101  1  0.58382598  0.96871508  0.61692175  1
  O  O102  1  0.24912623  0.30225872  0.28358040  1
  O  O103  1  0.91744474  0.63906583  0.94509671  1
  O  O104  1  0.89136977  0.87681684  0.57117121  1
  O  O105  1  0.55897071  0.21055154  0.23766274  1
  O  O106  1  0.23112110  0.54523537  0.89806283  1
