# generated using pymatgen
data_Th5C
_symmetry_space_group_name_H-M   'P 1'
_cell_length_a   3.58707841
_cell_length_b   3.58707841
_cell_length_c   15.15597819
_cell_angle_alpha   90.00000000
_cell_angle_beta   96.79623875
_cell_angle_gamma   120.00000007
_symmetry_Int_Tables_number   1
_chemical_formula_structural   Th5C
_chemical_formula_sum   'Th5 C1'
_cell_volume   167.30288042
_cell_formula_units_Z   1
loop_
 _symmetry_equiv_pos_site_id
 _symmetry_equiv_pos_as_xyz
  1  'x, y, z'
loop_
 _atom_site_type_symbol
 _atom_site_label
 _atom_site_symmetry_multiplicity
 _atom_site_fract_x
 _atom_site_fract_y
 _atom_site_fract_z
 _atom_site_occupancy
  Th  Th0  1  0.19631211  0.59815605  0.79446816  1
  Th  Th1  1  0.40000000  0.20000000  0.60000000  1
  Th  Th2  1  0.60368789  0.80184395  0.40553184  1
  Th  Th3  1  -0.00055963  -0.00027982  -0.00083945  1
  Th  Th4  1  0.80055963  0.40027982  0.20083945  1
  C  C5  1  0.40000000  0.70000000  0.10000000  1
