# generated using pymatgen
data_TbTiFe11
_symmetry_space_group_name_H-M   'P 1'
_cell_length_a   4.68547925
_cell_length_b   6.45081136
_cell_length_c   6.45081136
_cell_angle_alpha   97.93470424
_cell_angle_beta   111.29498633
_cell_angle_gamma   68.70501367
_symmetry_Int_Tables_number   1
_chemical_formula_structural   TbTiFe11
_chemical_formula_sum   'Tb1 Ti1 Fe11'
_cell_volume   169.25653247
_cell_formula_units_Z   1
loop_
 _symmetry_equiv_pos_site_id
 _symmetry_equiv_pos_as_xyz
  1  'x, y, z'
loop_
 _atom_site_type_symbol
 _atom_site_label
 _atom_site_symmetry_multiplicity
 _atom_site_fract_x
 _atom_site_fract_y
 _atom_site_fract_z
 _atom_site_occupancy
  Tb  Tb0  1  0.00553491  0.99446509  0.00553491  1
  Ti  Ti1  1  0.63267125  0.36732875  0.63267125  1
  Fe  Fe2  1  0.73224684  0.76775316  0.23224684  1
  Fe  Fe3  1  0.27295006  0.22704994  0.77295006  1
  Fe  Fe4  1  0.49868537  0.78271756  0.78008830  1
  Fe  Fe5  1  0.49868537  0.21991170  0.21728244  1
  Fe  Fe6  1  0.50185863  0.99850941  0.50045489  1
  Fe  Fe7  1  0.00008685  0.99850941  0.50045489  1
  Fe  Fe8  1  0.50185863  0.49954511  0.00149059  1
  Fe  Fe9  1  0.00008685  0.49954511  0.00149059  1
  Fe  Fe10  1  0.35428381  0.64571619  0.35428381  1
  Fe  Fe11  1  0.00052571  0.35604645  0.35709788  1
  Fe  Fe12  1  0.00052571  0.64290212  0.64395355  1
