# generated using pymatgen
data_Ti2Cr4(CuSe4)3
_symmetry_space_group_name_H-M   'P 1'
_cell_length_a   7.39670101
_cell_length_b   16.53445163
_cell_length_c   7.39670101
_cell_angle_alpha   76.25926376
_cell_angle_beta   90.00324613
_cell_angle_gamma   77.88956334
_symmetry_Int_Tables_number   1
_chemical_formula_structural   Ti2Cr4(CuSe4)3
_chemical_formula_sum   'Ti4 Cr8 Cu6 Se24'
_cell_volume   857.98744721
_cell_formula_units_Z   2
loop_
 _symmetry_equiv_pos_site_id
 _symmetry_equiv_pos_as_xyz
  1  'x, y, z'
loop_
 _atom_site_type_symbol
 _atom_site_label
 _atom_site_symmetry_multiplicity
 _atom_site_fract_x
 _atom_site_fract_y
 _atom_site_fract_z
 _atom_site_occupancy
  Ti  Ti0  1  0.83444930  0.33354321  0.83248721  1
  Ti  Ti1  1  0.16555070  0.66645679  0.16751279  1
  Ti  Ti2  1  0.66603142  0.16645679  0.16799351  1
  Ti  Ti3  1  0.33396858  0.83354321  0.83200649  1
  Cr  Cr4  1  0.50000000  -0.00000000  0.50000000  1
  Cr  Cr5  1  0.33383366  0.33342351  0.83394987  1
  Cr  Cr6  1  0.66616634  0.66657649  0.16605013  1
  Cr  Cr7  1  0.00000000  -0.00000000  0.50000000  1
  Cr  Cr8  1  0.00000000  0.50000000  0.50000000  1
  Cr  Cr9  1  0.66737438  0.16657649  0.66725818  1
  Cr  Cr10  1  0.00000000  0.50000000  0.00000000  1
  Cr  Cr11  1  0.33262562  0.83342351  0.33274182  1
  Cu  Cu12  1  0.20930843  0.08238698  0.95903185  1
  Cu  Cu13  1  0.54141982  0.41761302  0.29169641  1
  Cu  Cu14  1  0.87379664  0.75000000  0.62379664  1
  Cu  Cu15  1  0.45858018  0.58238698  0.70830359  1
  Cu  Cu16  1  0.79069157  0.91761302  0.04096815  1
  Cu  Cu17  1  0.12620336  0.25000000  0.37620336  1
  Se  Se18  1  0.58310467  0.33036969  0.07413431  1
  Se  Se19  1  0.91650358  0.66154155  0.40678394  1
  Se  Se20  1  0.25150254  0.99669223  0.73713092  1
  Se  Se21  1  0.58355069  0.32849538  0.59907692  1
  Se  Se22  1  0.91697180  0.66169994  0.93141570  1
  Se  Se23  1  0.25315961  0.99418415  0.26993751  1
  Se  Se24  1  0.90450500  0.16963031  0.91347536  1
  Se  Se25  1  0.23382315  0.50330777  0.24819477  1
  Se  Se26  1  0.56832449  0.83845845  0.57804413  1
  Se  Se27  1  0.42757331  0.17150462  0.91204707  1
  Se  Se28  1  0.76412166  0.50581585  0.24734376  1
  Se  Se29  1  0.09311464  0.83830006  0.57867074  1
  Se  Se30  1  0.08349642  0.33845845  0.59321606  1
  Se  Se31  1  0.41689533  0.66963031  0.92586569  1
  Se  Se32  1  0.74849746  0.00330777  0.26286908  1
  Se  Se33  1  0.08302820  0.33830006  0.06858430  1
  Se  Se34  1  0.41644931  0.67150462  0.40092308  1
  Se  Se35  1  0.74684039  0.00581585  0.73006249  1
  Se  Se36  1  0.76617685  0.49669223  0.75180523  1
  Se  Se37  1  0.09549500  0.83036969  0.08652464  1
  Se  Se38  1  0.43167551  0.16154155  0.42195587  1
  Se  Se39  1  0.23587834  0.49418415  0.75265624  1
  Se  Se40  1  0.57242669  0.82849538  0.08795293  1
  Se  Se41  1  0.90688536  0.16169994  0.42132926  1
