# generated using pymatgen
data_Tb2Fe17C2
_symmetry_space_group_name_H-M   'P 1'
_cell_length_a   6.47153385
_cell_length_b   6.47153385
_cell_length_c   6.50067909
_cell_angle_alpha   83.66774571
_cell_angle_beta   83.66774571
_cell_angle_gamma   83.36528336
_symmetry_Int_Tables_number   1
_chemical_formula_structural   Tb2Fe17C2
_chemical_formula_sum   'Tb2 Fe17 C2'
_cell_volume   267.46477941
_cell_formula_units_Z   1
loop_
 _symmetry_equiv_pos_site_id
 _symmetry_equiv_pos_as_xyz
  1  'x, y, z'
loop_
 _atom_site_type_symbol
 _atom_site_label
 _atom_site_symmetry_multiplicity
 _atom_site_fract_x
 _atom_site_fract_y
 _atom_site_fract_z
 _atom_site_occupancy
  Tb  Tb0  1  0.65276584  0.65276584  0.66464241  1
  Tb  Tb1  1  0.34723416  0.34723416  0.33535759  1
  Fe  Fe2  1  0.90332664  0.90332664  0.90364764  1
  Fe  Fe3  1  0.09667336  0.09667336  0.09635236  1
  Fe  Fe4  1  0.34472773  0.34472773  0.85481578  1
  Fe  Fe5  1  0.34378579  0.85313230  0.34189049  1
  Fe  Fe6  1  0.85313230  0.34378579  0.34189049  1
  Fe  Fe7  1  0.65527227  0.65527227  0.14518422  1
  Fe  Fe8  1  0.65621421  0.14686770  0.65810951  1
  Fe  Fe9  1  0.14686770  0.65621421  0.65810951  1
  Fe  Fe10  1  0.28532215  0.71467785  0.00000000  1
  Fe  Fe11  1  0.71402961  0.99816096  0.28595947  1
  Fe  Fe12  1  0.00183904  0.28597039  0.71404053  1
  Fe  Fe13  1  0.28597039  0.00183904  0.71404053  1
  Fe  Fe14  1  0.99816096  0.71402961  0.28595947  1
  Fe  Fe15  1  0.71467785  0.28532215  0.00000000  1
  Fe  Fe16  1  -0.00000000  -0.00000000  0.50000000  1
  Fe  Fe17  1  -0.00000000  0.50000000  0.00000000  1
  Fe  Fe18  1  0.50000000  -0.00000000  0.00000000  1
  C  C19  1  0.50000000  -0.00000000  0.50000000  1
  C  C20  1  -0.00000000  0.50000000  0.50000000  1
