# generated using pymatgen
data_Ta4MoSe10
_symmetry_space_group_name_H-M   'P 1'
_cell_length_a   3.44368099
_cell_length_b   3.44368099
_cell_length_c   33.97964616
_cell_angle_alpha   87.09542463
_cell_angle_beta   90.00000052
_cell_angle_gamma   59.99999985
_symmetry_Int_Tables_number   1
_chemical_formula_structural   Ta4MoSe10
_chemical_formula_sum   'Ta4 Mo1 Se10'
_cell_volume   348.37790386
_cell_formula_units_Z   1
loop_
 _symmetry_equiv_pos_site_id
 _symmetry_equiv_pos_as_xyz
  1  'x, y, z'
loop_
 _atom_site_type_symbol
 _atom_site_label
 _atom_site_symmetry_multiplicity
 _atom_site_fract_x
 _atom_site_fract_y
 _atom_site_fract_z
 _atom_site_occupancy
  Ta  Ta0  1  0.39987231  0.20025537  0.19961694  1
  Ta  Ta1  1  0.79995099  0.40009801  0.39985298  1
  Ta  Ta2  1  0.19995625  0.60008750  0.59986875  1
  Ta  Ta3  1  0.60002796  0.79994408  0.80008388  1
  Mo  Mo4  1  0.99999167  0.00001666  0.99997501  1
  Se  Se5  1  0.88321843  0.23356314  0.64965530  1
  Se  Se6  1  0.28328256  0.43343488  0.84984769  1
  Se  Se7  1  0.68267231  0.63465537  0.04801694  1
  Se  Se8  1  0.08311767  0.83376466  0.24935301  1
  Se  Se9  1  0.48321683  0.03356635  0.44965048  1
  Se  Se10  1  0.04995475  0.90009050  0.14986426  1
  Se  Se11  1  0.45002297  0.09995406  0.35006891  1
  Se  Se12  1  0.85002540  0.29994920  0.55007620  1
  Se  Se13  1  0.25009019  0.49981963  0.75027056  1
  Se  Se14  1  0.65059970  0.69880060  0.95179910  1
