# generated using pymatgen
data_SrLiPrTeO6
_symmetry_space_group_name_H-M   'P 1'
_cell_length_a   5.79618691
_cell_length_b   5.65282732
_cell_length_c   7.98323073
_cell_angle_alpha   90.21639803
_cell_angle_beta   90.00000000
_cell_angle_gamma   90.00000000
_symmetry_Int_Tables_number   1
_chemical_formula_structural   SrLiPrTeO6
_chemical_formula_sum   'Sr2 Li2 Pr2 Te2 O12'
_cell_volume   261.56744173
_cell_formula_units_Z   2
loop_
 _symmetry_equiv_pos_site_id
 _symmetry_equiv_pos_as_xyz
  1  'x, y, z'
loop_
 _atom_site_type_symbol
 _atom_site_label
 _atom_site_symmetry_multiplicity
 _atom_site_fract_x
 _atom_site_fract_y
 _atom_site_fract_z
 _atom_site_occupancy
  Sr  Sr0  1  0.96179574  0.00606904  0.75221581  1
  Sr  Sr1  1  0.53820426  0.50606904  0.25221581  1
  Li  Li2  1  0.51028717  0.99823768  0.50021981  1
  Li  Li3  1  0.98971283  0.49823768  0.00021981  1
  Pr  Pr4  1  0.05630908  0.98919666  0.25398110  1
  Pr  Pr5  1  0.44369092  0.48919666  0.75398110  1
  Te  Te6  1  0.99495113  0.50015005  0.49950372  1
  Te  Te7  1  0.50504887  0.00015005  0.99950372  1
  O  O8  1  0.81105788  0.78251209  0.45608547  1
  O  O9  1  0.68894212  0.28251209  0.95608547  1
  O  O10  1  0.19703917  0.22716025  0.53336415  1
  O  O11  1  0.30296083  0.72716025  0.03336415  1
  O  O12  1  0.26610780  0.70018072  0.45864248  1
  O  O13  1  0.23389220  0.20018072  0.95864248  1
  O  O14  1  0.71443840  0.31995583  0.54471688  1
  O  O15  1  0.78556160  0.81995583  0.04471688  1
  O  O16  1  0.52031740  0.91117373  0.76245450  1
  O  O17  1  0.97968260  0.41117373  0.26245450  1
  O  O18  1  0.47345265  0.06536394  0.23881608  1
  O  O19  1  0.02654735  0.56536394  0.73881608  1
