# generated using pymatgen
data_TbNdFe14B
_symmetry_space_group_name_H-M   'P 1'
_cell_length_a   8.75199062
_cell_length_b   8.75199062
_cell_length_c   12.06694648
_cell_angle_alpha   90.00000000
_cell_angle_beta   90.00000000
_cell_angle_gamma   90.00000000
_symmetry_Int_Tables_number   1
_chemical_formula_structural   TbNdFe14B
_chemical_formula_sum   'Tb4 Nd4 Fe56 B4'
_cell_volume   924.29600003
_cell_formula_units_Z   4
loop_
 _symmetry_equiv_pos_site_id
 _symmetry_equiv_pos_as_xyz
  1  'x, y, z'
loop_
 _atom_site_type_symbol
 _atom_site_label
 _atom_site_symmetry_multiplicity
 _atom_site_fract_x
 _atom_site_fract_y
 _atom_site_fract_z
 _atom_site_occupancy
  Tb  Tb0  1  0.64394832  0.64394832  0.50000000  1
  Tb  Tb1  1  0.35605168  0.35605168  0.50000000  1
  Tb  Tb2  1  0.85605168  0.14394832  0.00000000  1
  Tb  Tb3  1  0.14394832  0.85605168  0.00000000  1
  Nd  Nd4  1  0.23359691  0.76640309  0.50000000  1
  Nd  Nd5  1  0.76640309  0.23359691  0.50000000  1
  Nd  Nd6  1  0.26640309  0.26640309  0.00000000  1
  Nd  Nd7  1  0.73359691  0.73359691  0.00000000  1
  Fe  Fe8  1  0.18246542  0.81753458  0.25319440  1
  Fe  Fe9  1  0.81753458  0.18246542  0.25319440  1
  Fe  Fe10  1  0.31753458  0.31753458  0.75319440  1
  Fe  Fe11  1  0.68246542  0.68246542  0.75319440  1
  Fe  Fe12  1  0.81753458  0.18246542  0.74680560  1
  Fe  Fe13  1  0.18246542  0.81753458  0.74680560  1
  Fe  Fe14  1  0.68246542  0.68246542  0.24680560  1
  Fe  Fe15  1  0.31753458  0.31753458  0.24680560  1
  Fe  Fe16  1  0.40299004  0.59700996  0.29711759  1
  Fe  Fe17  1  0.59700996  0.40299004  0.29711759  1
  Fe  Fe18  1  0.09700996  0.09700996  0.79711759  1
  Fe  Fe19  1  0.90299004  0.90299004  0.79711759  1
  Fe  Fe20  1  0.59700996  0.40299004  0.70288241  1
  Fe  Fe21  1  0.40299004  0.59700996  0.70288241  1
  Fe  Fe22  1  0.90299004  0.90299004  0.20288241  1
  Fe  Fe23  1  0.09700996  0.09700996  0.20288241  1
  Fe  Fe24  1  0.14041946  0.53629335  0.32398785  1
  Fe  Fe25  1  0.85958054  0.46370665  0.32398785  1
  Fe  Fe26  1  0.35958054  0.03629335  0.82398785  1
  Fe  Fe27  1  0.64041946  0.96370665  0.82398785  1
  Fe  Fe28  1  0.85958054  0.46370665  0.67601215  1
  Fe  Fe29  1  0.14041946  0.53629335  0.67601215  1
  Fe  Fe30  1  0.64041946  0.96370665  0.17601215  1
  Fe  Fe31  1  0.35958054  0.03629335  0.17601215  1
  Fe  Fe32  1  0.53629335  0.14041946  0.32398785  1
  Fe  Fe33  1  0.46370665  0.85958054  0.32398785  1
  Fe  Fe34  1  0.03629335  0.35958054  0.82398785  1
  Fe  Fe35  1  0.96370665  0.64041946  0.82398785  1
  Fe  Fe36  1  0.46370665  0.85958054  0.67601215  1
  Fe  Fe37  1  0.53629335  0.14041946  0.67601215  1
  Fe  Fe38  1  0.96370665  0.64041946  0.17601215  1
  Fe  Fe39  1  0.03629335  0.35958054  0.17601215  1
  Fe  Fe40  1  0.50000000  0.50000000  0.11431270  1
  Fe  Fe41  1  0.00000000  -0.00000000  0.61431270  1
  Fe  Fe42  1  0.50000000  0.50000000  0.88568730  1
  Fe  Fe43  1  -0.00000000  -0.00000000  0.38568730  1
  Fe  Fe44  1  0.93207846  0.72428016  0.37286113  1
  Fe  Fe45  1  0.06792154  0.27571984  0.37286113  1
  Fe  Fe46  1  0.56792154  0.22428016  0.87286113  1
  Fe  Fe47  1  0.43207846  0.77571984  0.87286113  1
  Fe  Fe48  1  0.06792154  0.27571984  0.62713887  1
  Fe  Fe49  1  0.93207846  0.72428016  0.62713887  1
  Fe  Fe50  1  0.43207846  0.77571984  0.12713887  1
  Fe  Fe51  1  0.56792154  0.22428016  0.12713887  1
  Fe  Fe52  1  0.72428016  0.93207846  0.37286113  1
  Fe  Fe53  1  0.27571984  0.06792154  0.37286113  1
  Fe  Fe54  1  0.22428016  0.56792154  0.87286113  1
  Fe  Fe55  1  0.77571984  0.43207846  0.87286113  1
  Fe  Fe56  1  0.27571984  0.06792154  0.62713887  1
  Fe  Fe57  1  0.72428016  0.93207846  0.62713887  1
  Fe  Fe58  1  0.77571984  0.43207846  0.12713887  1
  Fe  Fe59  1  0.22428016  0.56792154  0.12713887  1
  Fe  Fe60  1  -0.00000000  0.50000000  0.50000000  1
  Fe  Fe61  1  0.50000000  -0.00000000  0.00000000  1
  Fe  Fe62  1  0.50000000  -0.00000000  0.50000000  1
  Fe  Fe63  1  -0.00000000  0.50000000  0.00000000  1
  B  B64  1  0.87400629  0.87400629  0.50000000  1
  B  B65  1  0.12599371  0.12599371  0.50000000  1
  B  B66  1  0.62599371  0.37400629  0.00000000  1
  B  B67  1  0.37400629  0.62599371  0.00000000  1
