# generated using pymatgen
data_Tb3(VFe8)4
_symmetry_space_group_name_H-M   'P 1'
_cell_length_a   4.66523615
_cell_length_b   6.43219180
_cell_length_c   18.11719478
_cell_angle_alpha   92.91211550
_cell_angle_beta   82.60254249
_cell_angle_gamma   111.26287144
_symmetry_Int_Tables_number   1
_chemical_formula_structural   Tb3(VFe8)4
_chemical_formula_sum   'Tb3 V4 Fe32'
_cell_volume   502.42481859
_cell_formula_units_Z   1
loop_
 _symmetry_equiv_pos_site_id
 _symmetry_equiv_pos_as_xyz
  1  'x, y, z'
loop_
 _atom_site_type_symbol
 _atom_site_label
 _atom_site_symmetry_multiplicity
 _atom_site_fract_x
 _atom_site_fract_y
 _atom_site_fract_z
 _atom_site_occupancy
  Tb  Tb0  1  -0.00014552  -0.00004330  0.00024774  1
  Tb  Tb1  1  0.32958099  0.99423209  0.33506911  1
  Tb  Tb2  1  0.66311743  0.99464885  0.66841498  1
  V  V3  1  0.57228686  0.35790232  0.21332759  1
  V  V4  1  0.91329731  0.37005812  0.54346450  1
  V  V5  1  0.24686933  0.37022330  0.87648465  1
  V  V6  1  0.76066804  0.64140432  0.12006824  1
  Fe  Fe7  1  0.34856652  0.77272007  0.07558703  1
  Fe  Fe8  1  0.68093117  0.77172622  0.40986288  1
  Fe  Fe9  1  0.01378711  0.77044129  0.74286807  1
  Fe  Fe10  1  0.98539193  0.22811091  0.25732605  1
  Fe  Fe11  1  0.31913906  0.22866086  0.59038374  1
  Fe  Fe12  1  0.65225972  0.22836880  0.92384935  1
  Fe  Fe13  1  0.75850127  0.77484256  0.25783901  1
  Fe  Fe14  1  0.09193099  0.77552172  0.59166075  1
  Fe  Fe15  1  0.42499518  0.77514843  0.92515807  1
  Fe  Fe16  1  0.57503200  0.22532912  0.07526511  1
  Fe  Fe17  1  0.90857554  0.22529810  0.40814603  1
  Fe  Fe18  1  0.24218437  0.22571198  0.74134423  1
  Fe  Fe19  1  0.16720496  0.00015275  0.16677807  1
  Fe  Fe20  1  0.49965836  0.99940901  0.50039435  1
  Fe  Fe21  1  0.83244235  0.99900684  0.83362740  1
  Fe  Fe22  1  0.66617072  0.00015275  0.16677807  1
  Fe  Fe23  1  0.99935630  0.99940901  0.50039435  1
  Fe  Fe24  1  0.33293609  0.99900684  0.83362740  1
  Fe  Fe25  1  0.33380838  0.50006663  0.33335604  1
  Fe  Fe26  1  0.66593625  0.49892161  0.66690952  1
  Fe  Fe27  1  0.99934384  0.49923311  0.00005607  1
  Fe  Fe28  1  0.83290121  0.50006663  0.33335604  1
  Fe  Fe29  1  0.16607684  0.49892161  0.66690952  1
  Fe  Fe30  1  0.49983320  0.49923311  0.00005607  1
  Fe  Fe31  1  0.09097120  0.63655309  0.45460970  1
  Fe  Fe32  1  0.42419497  0.63629919  0.78791024  1
  Fe  Fe33  1  0.11953329  0.35865151  0.11958494  1
  Fe  Fe34  1  0.45360955  0.35991189  0.45269179  1
  Fe  Fe35  1  0.78695082  0.35994645  0.78604582  1
  Fe  Fe36  1  0.21409501  0.64162177  0.21343075  1
  Fe  Fe37  1  0.54754184  0.64193294  0.54685026  1
  Fe  Fe38  1  0.88046552  0.64119753  0.88026649  1
