# generated using pymatgen
data_Tb4Ni3Ge8
_symmetry_space_group_name_H-M   'P 1'
_cell_length_a   4.10975860
_cell_length_b   4.11742134
_cell_length_c   16.64957412
_cell_angle_alpha   90.00000000
_cell_angle_beta   90.00000000
_cell_angle_gamma   90.00000000
_symmetry_Int_Tables_number   1
_chemical_formula_structural   Tb4Ni3Ge8
_chemical_formula_sum   'Tb4 Ni3 Ge8'
_cell_volume   281.73756266
_cell_formula_units_Z   1
loop_
 _symmetry_equiv_pos_site_id
 _symmetry_equiv_pos_as_xyz
  1  'x, y, z'
loop_
 _atom_site_type_symbol
 _atom_site_label
 _atom_site_symmetry_multiplicity
 _atom_site_fract_x
 _atom_site_fract_y
 _atom_site_fract_z
 _atom_site_occupancy
  Tb  Tb0  1  0.25000000  -0.00000000  0.10476168  1
  Tb  Tb1  1  0.25000000  0.50000000  0.60690256  1
  Tb  Tb2  1  0.75000000  0.50000000  0.38924151  1
  Tb  Tb3  1  0.75000000  -0.00000000  0.89237504  1
  Ni  Ni4  1  0.25000000  0.50000000  0.82094132  1
  Ni  Ni5  1  0.75000000  0.50000000  0.18297204  1
  Ni  Ni6  1  0.75000000  0.00000000  0.67946078  1
  Ge  Ge7  1  0.25000000  -0.00000000  0.44932854  1
  Ge  Ge8  1  0.25000000  0.50000000  0.95817250  1
  Ge  Ge9  1  0.75000000  0.50000000  0.04421895  1
  Ge  Ge10  1  0.75000000  0.00000000  0.54094062  1
  Ge  Ge11  1  0.25000000  0.50000000  0.25541719  1
  Ge  Ge12  1  0.25000000  -0.00000000  0.74852276  1
  Ge  Ge13  1  0.75000000  -0.00000000  0.25546567  1
  Ge  Ge14  1  0.75000000  0.50000000  0.75087886  1
