# generated using pymatgen
data_TaAl4Ni15
_symmetry_space_group_name_H-M   'P 1'
_cell_length_a   3.57344278
_cell_length_b   3.57344278
_cell_length_c   17.77109873
_cell_angle_alpha   90.00000000
_cell_angle_beta   90.00000000
_cell_angle_gamma   90.00000000
_symmetry_Int_Tables_number   1
_chemical_formula_structural   TaAl4Ni15
_chemical_formula_sum   'Ta1 Al4 Ni15'
_cell_volume   226.92792620
_cell_formula_units_Z   1
loop_
 _symmetry_equiv_pos_site_id
 _symmetry_equiv_pos_as_xyz
  1  'x, y, z'
loop_
 _atom_site_type_symbol
 _atom_site_label
 _atom_site_symmetry_multiplicity
 _atom_site_fract_x
 _atom_site_fract_y
 _atom_site_fract_z
 _atom_site_occupancy
  Ta  Ta0  1  0.00000000  -0.00000000  -0.00000000  1
  Al  Al1  1  -0.00000000  -0.00000000  0.20454119  1
  Al  Al2  1  -0.00000000  -0.00000000  0.40063074  1
  Al  Al3  1  0.00000000  -0.00000000  0.59936926  1
  Al  Al4  1  0.00000000  -0.00000000  0.79545881  1
  Ni  Ni5  1  0.50000000  0.50000000  -0.00000000  1
  Ni  Ni6  1  0.50000000  0.50000000  0.20270832  1
  Ni  Ni7  1  0.50000000  0.50000000  0.40051401  1
  Ni  Ni8  1  0.50000000  0.50000000  0.59948599  1
  Ni  Ni9  1  0.50000000  0.50000000  0.79729168  1
  Ni  Ni10  1  0.50000000  0.00000000  0.10329060  1
  Ni  Ni11  1  0.50000000  0.00000000  0.30174603  1
  Ni  Ni12  1  0.50000000  -0.00000000  0.50000000  1
  Ni  Ni13  1  0.50000000  -0.00000000  0.69825397  1
  Ni  Ni14  1  0.50000000  -0.00000000  0.89670940  1
  Ni  Ni15  1  -0.00000000  0.50000000  0.10329060  1
  Ni  Ni16  1  -0.00000000  0.50000000  0.30174603  1
  Ni  Ni17  1  -0.00000000  0.50000000  0.50000000  1
  Ni  Ni18  1  0.00000000  0.50000000  0.69825397  1
  Ni  Ni19  1  0.00000000  0.50000000  0.89670940  1
