# generated using pymatgen
data_Ce2TiO5
_symmetry_space_group_name_H-M   'P 1'
_cell_length_a   6.70534461
_cell_length_b   6.70534461
_cell_length_c   7.69089590
_cell_angle_alpha   67.15271795
_cell_angle_beta   112.84728205
_cell_angle_gamma   133.05531722
_symmetry_Int_Tables_number   1
_chemical_formula_structural   Ce2TiO5
_chemical_formula_sum   'Ce4 Ti2 O10'
_cell_volume   228.91678216
_cell_formula_units_Z   2
loop_
 _symmetry_equiv_pos_site_id
 _symmetry_equiv_pos_as_xyz
  1  'x, y, z'
loop_
 _atom_site_type_symbol
 _atom_site_label
 _atom_site_symmetry_multiplicity
 _atom_site_fract_x
 _atom_site_fract_y
 _atom_site_fract_z
 _atom_site_occupancy
  Ce  Ce0  1  0.33524395  0.61678449  0.73194793  1
  Ce  Ce1  1  0.38321551  0.66475605  0.23194793  1
  Ce  Ce2  1  0.61678449  0.33524395  0.76805207  1
  Ce  Ce3  1  0.66475605  0.38321551  0.26805207  1
  Ti  Ti4  1  0.00000000  0.00000000  0.50000000  1
  Ti  Ti5  1  0.00000000  0.00000000  0.00000000  1
  O  O6  1  0.01215201  0.67894473  0.63880221  1
  O  O7  1  0.32105527  0.98784799  0.13880221  1
  O  O8  1  0.61061665  0.75169032  0.54085963  1
  O  O9  1  0.15292945  0.15292945  0.75000000  1
  O  O10  1  0.75169032  0.61061665  0.95914037  1
  O  O11  1  0.24830968  0.38938335  0.04085963  1
  O  O12  1  0.84707055  0.84707055  0.25000000  1
  O  O13  1  0.38938335  0.24830968  0.45914037  1
  O  O14  1  0.67894473  0.01215201  0.86119779  1
  O  O15  1  0.98784799  0.32105527  0.36119779  1
