# generated using pymatgen
data_Sr4Al6CrO16
_symmetry_space_group_name_H-M   'P 1'
_cell_length_a   8.26633088
_cell_length_b   8.26633088
_cell_length_c   8.26633088
_cell_angle_alpha   70.41065432
_cell_angle_beta   70.76477203
_cell_angle_gamma   109.58934568
_symmetry_Int_Tables_number   1
_chemical_formula_structural   Sr4Al6CrO16
_chemical_formula_sum   'Sr4 Al6 Cr1 O16'
_cell_volume   434.82143071
_cell_formula_units_Z   1
loop_
 _symmetry_equiv_pos_site_id
 _symmetry_equiv_pos_as_xyz
  1  'x, y, z'
loop_
 _atom_site_type_symbol
 _atom_site_label
 _atom_site_symmetry_multiplicity
 _atom_site_fract_x
 _atom_site_fract_y
 _atom_site_fract_z
 _atom_site_occupancy
  Sr  Sr0  1  0.49394120  0.50000000  0.49394120  1
  Sr  Sr1  1  0.49394120  0.98788241  0.00605880  1
  Sr  Sr2  1  0.00605880  0.50000000  0.00605880  1
  Sr  Sr3  1  0.00605880  0.01211759  0.49394120  1
  Al  Al4  1  0.74839929  0.25047753  0.50207823  1
  Al  Al5  1  0.25000000  0.50000000  0.25000000  1
  Al  Al6  1  0.50207823  0.74952247  0.74839929  1
  Al  Al7  1  0.75000000  0.50000000  0.75000000  1
  Al  Al8  1  0.24744424  0.74952247  0.50207823  1
  Al  Al9  1  0.50207823  0.25047753  0.24744424  1
  Cr  Cr10  1  0.00000000  -0.00000000  -0.00000000  1
  O  O11  1  0.31237337  0.65673055  0.34435717  1
  O  O12  1  0.66292753  0.66214611  0.67492636  1
  O  O13  1  0.66019784  0.32039568  0.33980216  1
  O  O14  1  0.67492636  0.33785389  0.66292753  1
  O  O15  1  0.34435717  0.65673055  0.99891228  1
  O  O16  1  0.33980216  -0.00000000  0.33980216  1
  O  O17  1  0.99891228  0.34326945  0.34435717  1
  O  O18  1  0.66292753  0.33785389  0.99921858  1
  O  O19  1  0.33980216  0.67960432  0.66019784  1
  O  O20  1  0.99921858  0.66214611  0.66292753  1
  O  O21  1  0.34435717  0.34326945  0.31237337  1
  O  O22  1  0.66019784  0.00000000  0.66019784  1
  O  O23  1  0.04088184  0.14286327  0.10198142  1
  O  O24  1  0.10198142  0.85713673  0.04088184  1
  O  O25  1  0.10198142  0.14286327  0.75515531  1
  O  O26  1  0.75515531  0.85713673  0.10198142  1
