# generated using pymatgen
data_Sr4Fe3MoO12
_symmetry_space_group_name_H-M   'P 1'
_cell_length_a   6.87562803
_cell_length_b   6.87562803
_cell_length_c   6.87562803
_cell_angle_alpha   70.58246194
_cell_angle_beta   70.50193141
_cell_angle_gamma   109.49806859
_symmetry_Int_Tables_number   1
_chemical_formula_structural   Sr4Fe3MoO12
_chemical_formula_sum   'Sr4 Fe3 Mo1 O12'
_cell_volume   250.21592347
_cell_formula_units_Z   1
loop_
 _symmetry_equiv_pos_site_id
 _symmetry_equiv_pos_as_xyz
  1  'x, y, z'
loop_
 _atom_site_type_symbol
 _atom_site_label
 _atom_site_symmetry_multiplicity
 _atom_site_fract_x
 _atom_site_fract_y
 _atom_site_fract_z
 _atom_site_occupancy
  Sr  Sr0  1  0.50000000  0.50000000  0.50000000  1
  Sr  Sr1  1  0.50000000  -0.00000000  0.00000000  1
  Sr  Sr2  1  0.00000000  0.50000000  0.00000000  1
  Sr  Sr3  1  -0.00000000  -0.00000000  0.50000000  1
  Fe  Fe4  1  -0.00000000  0.50000000  0.50000000  1
  Fe  Fe5  1  0.50000000  0.50000000  0.00000000  1
  Fe  Fe6  1  0.50000000  -0.00000000  0.50000000  1
  Mo  Mo7  1  -0.00000000  -0.00000000  0.00000000  1
  O  O8  1  -0.00000000  0.24253961  0.75746039  1
  O  O9  1  0.00000000  0.75746039  0.24253961  1
  O  O10  1  0.50000000  0.25000000  0.25000000  1
  O  O11  1  0.50000000  0.75000000  0.75000000  1
  O  O12  1  0.24939733  0.74939733  0.50000000  1
  O  O13  1  0.24290719  0.24290719  0.00000000  1
  O  O14  1  0.75709281  0.75709281  -0.00000000  1
  O  O15  1  0.75060267  0.25060267  0.50000000  1
  O  O16  1  0.24939733  0.50000000  0.25060267  1
  O  O17  1  0.24290719  -0.00000000  0.75709281  1
  O  O18  1  0.75060267  0.50000000  0.74939733  1
  O  O19  1  0.75709281  0.00000000  0.24290719  1
