# generated using pymatgen
data_Sr2V3O9
_symmetry_space_group_name_H-M   'P 1'
_cell_length_a   7.06919389
_cell_length_b   7.38052582
_cell_length_c   9.09722219
_cell_angle_alpha   103.61950244
_cell_angle_beta   102.17316419
_cell_angle_gamma   115.97561811
_symmetry_Int_Tables_number   1
_chemical_formula_structural   Sr2V3O9
_chemical_formula_sum   'Sr4 V6 O18'
_cell_volume   386.98833305
_cell_formula_units_Z   2
loop_
 _symmetry_equiv_pos_site_id
 _symmetry_equiv_pos_as_xyz
  1  'x, y, z'
loop_
 _atom_site_type_symbol
 _atom_site_label
 _atom_site_symmetry_multiplicity
 _atom_site_fract_x
 _atom_site_fract_y
 _atom_site_fract_z
 _atom_site_occupancy
  Sr  Sr0  1  0.12342113  0.87332828  0.74855378  1
  Sr  Sr1  1  0.87486736  0.12477451  0.25144622  1
  Sr  Sr2  1  0.70084807  0.45223514  0.90226124  1
  Sr  Sr3  1  0.29858683  0.54997390  0.09773876  1
  V  V4  1  0.32894443  0.07982807  0.15801780  1
  V  V5  1  0.67092663  0.92181027  0.84198220  1
  V  V6  1  0.90979326  0.65965668  0.31895618  1
  V  V7  1  0.09083707  0.34070049  0.68104382  1
  V  V8  1  0.50458089  0.03320882  0.50842198  1
  V  V9  1  0.49615891  0.52478683  0.49157802  1
  O  O10  1  0.46308113  0.18285266  0.03747876  1
  O  O11  1  0.07480709  0.85466755  0.03744834  1
  O  O12  1  0.53735875  0.81721921  0.96255166  1
  O  O13  1  0.92560238  0.14537391  0.96252124  1
  O  O14  1  0.95919194  0.48236885  0.19480825  1
  O  O15  1  0.73590553  0.71161421  0.19398772  1
  O  O16  1  0.04191781  0.51762649  0.80601228  1
  O  O17  1  0.26438369  0.28756059  0.80519175  1
  O  O18  1  0.16909862  0.89317247  0.44976108  1
  O  O19  1  0.77756016  0.55766787  0.44839112  1
  O  O20  1  0.82916904  0.10927675  0.55160888  1
  O  O21  1  0.21933754  0.44341139  0.55023892  1
  O  O22  1  0.54065137  0.28780976  0.57322505  1
  O  O23  1  0.46742632  0.71458471  0.42677495  1
  O  O24  1  0.48851185  0.99980618  0.27975535  1
  O  O25  1  0.28860141  0.28068036  0.27766713  1
  O  O26  1  0.51093428  0.00301323  0.72233287  1
  O  O27  1  0.70875650  0.72005083  0.72024465  1
