# generated using pymatgen
data_Sr3LaMn4O12
_symmetry_space_group_name_H-M   'P 1'
_cell_length_a   5.52347310
_cell_length_b   5.48420339
_cell_length_c   7.82435969
_cell_angle_alpha   90.61362992
_cell_angle_beta   90.00000442
_cell_angle_gamma   90.00000217
_symmetry_Int_Tables_number   1
_chemical_formula_structural   Sr3LaMn4O12
_chemical_formula_sum   'Sr3 La1 Mn4 O12'
_cell_volume   237.00073632
_cell_formula_units_Z   1
loop_
 _symmetry_equiv_pos_site_id
 _symmetry_equiv_pos_as_xyz
  1  'x, y, z'
loop_
 _atom_site_type_symbol
 _atom_site_label
 _atom_site_symmetry_multiplicity
 _atom_site_fract_x
 _atom_site_fract_y
 _atom_site_fract_z
 _atom_site_occupancy
  Sr  Sr0  1  0.99999693  0.50000000  0.25000000  1
  Sr  Sr1  1  0.50057277  1.00000000  0.75000000  1
  Sr  Sr2  1  0.99808427  0.50000000  0.75000000  1
  La  La3  1  0.50188049  1.00000000  0.25000000  1
  Mn  Mn4  1  -0.00002312  0.00030702  0.50199643  1
  Mn  Mn5  1  0.50034177  0.49963183  0.99803373  1
  Mn  Mn6  1  -0.00002312  0.99969298  0.99800357  1
  Mn  Mn7  1  0.50034177  0.50036817  0.50196627  1
  O  O8  1  0.72608291  0.22623818  0.51387982  1
  O  O9  1  0.23495270  0.73497468  0.02437218  1
  O  O10  1  0.23495270  0.26502532  0.47562782  1
  O  O11  1  0.72608291  0.77376182  0.98612018  1
  O  O12  1  0.03851302  0.00000000  0.75000000  1
  O  O13  1  0.53572668  0.50000000  0.25000000  1
  O  O14  1  0.76818854  0.73191438  0.51653360  1
  O  O15  1  0.27450036  0.22532724  0.02561120  1
  O  O16  1  0.95658895  1.00000000  0.25000000  1
  O  O17  1  0.46055059  0.50000000  0.75000000  1
  O  O18  1  0.27450036  0.77467276  0.47438880  1
  O  O19  1  0.76818854  0.26808562  0.98346640  1
