# generated using pymatgen
data_Sr2NdMn3O9
_symmetry_space_group_name_H-M   'P 1'
_cell_length_a   5.44284010
_cell_length_b   5.54158751
_cell_length_c   13.46096535
_cell_angle_alpha   88.46625912
_cell_angle_beta   89.99999994
_cell_angle_gamma   60.58772193
_symmetry_Int_Tables_number   1
_chemical_formula_structural   Sr2NdMn3O9
_chemical_formula_sum   'Sr4 Nd2 Mn6 O18'
_cell_volume   353.51119718
_cell_formula_units_Z   2
loop_
 _symmetry_equiv_pos_site_id
 _symmetry_equiv_pos_as_xyz
  1  'x, y, z'
loop_
 _atom_site_type_symbol
 _atom_site_label
 _atom_site_symmetry_multiplicity
 _atom_site_fract_x
 _atom_site_fract_y
 _atom_site_fract_z
 _atom_site_occupancy
  Sr  Sr0  1  0.66439251  0.66765223  0.91644722  1
  Sr  Sr1  1  0.99871075  0.99901477  0.25021978  1
  Sr  Sr2  1  0.66795625  0.66765223  0.41644722  1
  Sr  Sr3  1  0.00227449  0.99901477  0.75021978  1
  Nd  Nd4  1  0.33834881  0.33333300  0.58333300  1
  Nd  Nd5  1  0.32831719  0.33333300  0.08333300  1
  Mn  Mn6  1  0.33333300  0.33333300  0.83333300  1
  Mn  Mn7  1  0.66593367  0.66769591  0.16677703  1
  Mn  Mn8  1  0.00073333  -0.00102891  0.49988997  1
  Mn  Mn9  1  0.00029558  -0.00102891  0.99988997  1
  Mn  Mn10  1  0.33333300  0.33333300  0.33333300  1
  Mn  Mn11  1  0.66637142  0.66769591  0.66677703  1
  O  O12  1  0.90213187  0.78759416  0.09504896  1
  O  O13  1  0.22374886  0.14405951  0.43488402  1
  O  O14  1  0.55108718  0.47375594  0.76166328  1
  O  O15  1  0.11557882  0.19291006  0.90500272  1
  O  O16  1  0.44291814  0.52260749  0.23178298  1
  O  O17  1  0.76453513  0.87907284  0.57161804  1
  O  O18  1  0.63219163  0.14405951  0.93488402  1
  O  O19  1  0.97515587  0.47375594  0.26166328  1
  O  O20  1  0.31027497  0.78759416  0.59504896  1
  O  O21  1  0.35639203  0.87907284  0.07161804  1
  O  O22  1  0.69151013  0.19291006  0.40500272  1
  O  O23  1  0.03447537  0.52260749  0.73178298  1
  O  O24  1  0.17133666  0.65853032  0.92203917  1
  O  O25  1  0.49653298  0.00813668  0.24462783  1
  O  O26  1  0.84242723  0.33333300  0.58333300  1
  O  O27  1  0.82423877  0.33333300  0.08333300  1
  O  O28  1  0.17013402  0.65853032  0.42203917  1
  O  O29  1  0.49533034  0.00813668  0.74462783  1
