# generated using pymatgen
data_SrLa2BeO5
_symmetry_space_group_name_H-M   'P 1'
_cell_length_a   6.73537550
_cell_length_b   7.40085026
_cell_length_c   9.79103861
_cell_angle_alpha   90.00000000
_cell_angle_beta   90.00000000
_cell_angle_gamma   90.00000000
_symmetry_Int_Tables_number   1
_chemical_formula_structural   SrLa2BeO5
_chemical_formula_sum   'Sr4 La8 Be4 O20'
_cell_volume   488.05885116
_cell_formula_units_Z   4
loop_
 _symmetry_equiv_pos_site_id
 _symmetry_equiv_pos_as_xyz
  1  'x, y, z'
loop_
 _atom_site_type_symbol
 _atom_site_label
 _atom_site_symmetry_multiplicity
 _atom_site_fract_x
 _atom_site_fract_y
 _atom_site_fract_z
 _atom_site_occupancy
  Sr  Sr0  1  0.58300857  0.98176591  0.67534366  1
  Sr  Sr1  1  0.41699143  0.48176591  0.32465634  1
  Sr  Sr2  1  0.08300857  0.48176591  0.82465634  1
  Sr  Sr3  1  0.91699143  0.98176591  0.17534366  1
  La  La4  1  0.09591914  0.74614094  0.52381891  1
  La  La5  1  0.40408086  0.74614094  0.02381891  1
  La  La6  1  0.90408086  0.24614094  0.47618109  1
  La  La7  1  0.59591914  0.24614094  0.97618109  1
  La  La8  1  0.92507339  0.52790397  0.17227103  1
  La  La9  1  0.07492661  0.02790397  0.82772897  1
  La  La10  1  0.42507339  0.02790397  0.32772897  1
  La  La11  1  0.57492661  0.52790397  0.67227103  1
  Be  Be12  1  0.69245940  0.74929844  0.40056987  1
  Be  Be13  1  0.80754060  0.74929844  0.90056987  1
  Be  Be14  1  0.30754060  0.24929844  0.59943013  1
  Be  Be15  1  0.19245940  0.24929844  0.09943013  1
  O  O16  1  0.01602840  0.74913781  0.99029002  1
  O  O17  1  0.48397160  0.74913781  0.49029002  1
  O  O18  1  0.98397160  0.24913781  0.00970998  1
  O  O19  1  0.51602840  0.24913781  0.50970998  1
  O  O20  1  0.31108124  0.05974818  0.06750621  1
  O  O21  1  0.19620515  0.44014561  0.56687271  1
  O  O22  1  0.68891876  0.55974818  0.93249379  1
  O  O23  1  0.80379485  0.94014561  0.43312729  1
  O  O24  1  0.69620515  0.94014561  0.93312729  1
  O  O25  1  0.81108124  0.55974818  0.43249379  1
  O  O26  1  0.30379485  0.44014561  0.06687271  1
  O  O27  1  0.18891876  0.05974818  0.56750621  1
  O  O28  1  0.16279981  0.74572260  0.27797933  1
  O  O29  1  0.33720019  0.74572260  0.77797933  1
  O  O30  1  0.83720019  0.24572260  0.72202067  1
  O  O31  1  0.66279981  0.24572260  0.22202067  1
  O  O32  1  0.63540754  0.75013654  0.23058337  1
  O  O33  1  0.86459246  0.75013654  0.73058337  1
  O  O34  1  0.36459246  0.25013654  0.76941663  1
  O  O35  1  0.13540754  0.25013654  0.26941663  1
