# generated using pymatgen
data_SrCaMnGaO5
_symmetry_space_group_name_H-M   'P 1'
_cell_length_a   5.43070083
_cell_length_b   5.64675665
_cell_length_c   8.72550903
_cell_angle_alpha   71.37231538
_cell_angle_beta   71.86863380
_cell_angle_gamma   90.00000000
_symmetry_Int_Tables_number   1
_chemical_formula_structural   SrCaMnGaO5
_chemical_formula_sum   'Sr2 Ca2 Mn2 Ga2 O10'
_cell_volume   239.49530906
_cell_formula_units_Z   2
loop_
 _symmetry_equiv_pos_site_id
 _symmetry_equiv_pos_as_xyz
  1  'x, y, z'
loop_
 _atom_site_type_symbol
 _atom_site_label
 _atom_site_symmetry_multiplicity
 _atom_site_fract_x
 _atom_site_fract_y
 _atom_site_fract_z
 _atom_site_occupancy
  Sr  Sr0  1  0.11315290  0.59388784  0.77143538  1
  Sr  Sr1  1  0.88458828  0.40611216  0.22856462  1
  Ca  Ca2  1  0.38419541  0.86496523  0.21416736  1
  Ca  Ca3  1  0.59836277  0.13503477  0.78583264  1
  Mn  Mn4  1  0.50384177  0.50000000  1.00000000  1
  Mn  Mn5  1  0.00376483  0.00000000  1.00000000  1
  Ga  Ga6  1  0.71144771  0.82011679  0.49978088  1
  Ga  Ga7  1  0.21122859  0.17988321  0.50021912  1
  O  O8  1  0.73969090  0.23452980  0.01829646  1
  O  O9  1  0.75798735  0.76547020  0.98170354  1
  O  O10  1  0.26589415  0.75970013  0.98121857  1
  O  O11  1  0.24711272  0.24029987  0.01878143  1
  O  O12  1  0.85273448  0.11557963  0.51858615  1
  O  O13  1  0.37132062  0.88442037  0.48141385  1
  O  O14  1  0.66326775  0.57423849  0.70792913  1
  O  O15  1  0.37119687  0.42576151  0.29207087  1
  O  O16  1  0.90143743  0.80877353  0.28733802  1
  O  O17  1  0.18877545  0.19122647  0.71266198  1
