# generated using pymatgen
data_Ta3V3(Ni10B3)4
_symmetry_space_group_name_H-M   'P 1'
_cell_length_a   7.44800935
_cell_length_b   7.44800935
_cell_length_c   12.85237016
_cell_angle_alpha   73.15687186
_cell_angle_beta   90.00000000
_cell_angle_gamma   120.00000003
_symmetry_Int_Tables_number   1
_chemical_formula_structural   Ta3V3(Ni10B3)4
_chemical_formula_sum   'Ta3 V3 Ni40 B12'
_cell_volume   581.85527966
_cell_formula_units_Z   1
loop_
 _symmetry_equiv_pos_site_id
 _symmetry_equiv_pos_as_xyz
  1  'x, y, z'
loop_
 _atom_site_type_symbol
 _atom_site_label
 _atom_site_symmetry_multiplicity
 _atom_site_fract_x
 _atom_site_fract_y
 _atom_site_fract_z
 _atom_site_occupancy
  Ta  Ta0  1  0.00000428  0.00000855  0.99998717  1
  Ta  Ta1  1  0.50000913  0.00001826  0.49997261  1
  Ta  Ta2  1  0.62495901  0.24991802  0.12512296  1
  V  V3  1  0.12507240  0.25014481  0.62478279  1
  V  V4  1  0.87494404  0.74988808  0.37516787  1
  V  V5  1  0.37493146  0.74986293  0.87520561  1
  Ni  Ni6  1  0.65705116  0.00012749  0.99952318  1
  Ni  Ni7  1  0.15722545  0.00006419  0.50055754  1
  Ni  Ni8  1  0.82827792  0.00020558  0.17151650  1
  Ni  Ni9  1  0.32838029  0.00062890  0.67099081  1
  Ni  Ni10  1  0.00034932  0.34342566  0.99952318  1
  Ni  Ni11  1  0.49937827  0.34221701  0.50055754  1
  Ni  Ni12  1  0.82827792  0.65655583  0.17151650  1
  Ni  Ni13  1  0.32838029  0.65676058  0.67099081  1
  Ni  Ni14  1  0.65705116  0.65740048  0.99952318  1
  Ni  Ni15  1  0.15722545  0.65660372  0.50055754  1
  Ni  Ni16  1  0.49937827  0.65660372  0.50055754  1
  Ni  Ni17  1  0.00034932  0.65740048  0.99952318  1
  Ni  Ni18  1  0.67173167  0.34346333  0.32895588  1
  Ni  Ni19  1  0.17146121  0.34292243  0.82836594  1
  Ni  Ni20  1  0.67173167  0.99931245  0.32895588  1
  Ni  Ni21  1  0.17146121  0.00017285  0.82836594  1
  Ni  Ni22  1  0.32758079  0.99931245  0.32895588  1
  Ni  Ni23  1  0.82871163  0.00017285  0.82836594  1
  Ni  Ni24  1  0.34307633  0.00012749  0.99952318  1
  Ni  Ni25  1  0.84283874  0.00006419  0.50055754  1
  Ni  Ni26  1  0.34307633  0.34342566  0.99952318  1
  Ni  Ni27  1  0.84283874  0.34221701  0.50055754  1
  Ni  Ni28  1  0.17192767  0.00020558  0.17151650  1
  Ni  Ni29  1  0.67224861  0.00062890  0.67099081  1
  Ni  Ni30  1  0.42087485  0.38618593  0.19293922  1
  Ni  Ni31  1  0.92699290  0.38199636  0.69101074  1
  Ni  Ni32  1  0.42087485  0.84174970  0.19293922  1
  Ni  Ni33  1  0.92699290  0.85398580  0.69101074  1
  Ni  Ni34  1  0.19096262  0.38192525  0.42711213  1
  Ni  Ni35  1  0.69309852  0.38619704  0.92070444  1
  Ni  Ni36  1  0.96531108  0.38618593  0.19293922  1
  Ni  Ni37  1  0.45500345  0.38199636  0.69101074  1
  Ni  Ni38  1  0.07128165  0.61814772  0.31057063  1
  Ni  Ni39  1  0.57187620  0.61972163  0.80840218  1
  Ni  Ni40  1  0.07128165  0.14256330  0.31057063  1
  Ni  Ni41  1  0.57187620  0.14375239  0.80840218  1
  Ni  Ni42  1  0.30999390  0.61998780  0.07001831  1
  Ni  Ni43  1  0.80894265  0.61788529  0.57317206  1
  Ni  Ni44  1  0.54686607  0.61814772  0.31057063  1
  Ni  Ni45  1  0.04784543  0.61972163  0.80840218  1
  B  B46  1  0.13322126  0.26644252  0.13368710  1
  B  B47  1  0.63350488  0.26700976  0.63404068  1
  B  B48  1  0.36617461  0.26700299  0.36682241  1
  B  B49  1  0.86705456  0.26749094  0.86545449  1
  B  B50  1  0.59987038  0.73309164  0.13368710  1
  B  B51  1  0.09894956  0.73245444  0.63404068  1
  B  B52  1  0.36617461  0.73234921  0.36682241  1
  B  B53  1  0.86705456  0.73410913  0.86545449  1
  B  B54  1  0.13322126  0.73309164  0.13368710  1
  B  B55  1  0.63350488  0.73245444  0.63404068  1
  B  B56  1  0.90082838  0.26700299  0.36682241  1
  B  B57  1  0.40043638  0.26749094  0.86545449  1
