# generated using pymatgen
data_SrCa3(RuO3)4
_symmetry_space_group_name_H-M   'P 1'
_cell_length_a   5.47316910
_cell_length_b   5.60954996
_cell_length_c   7.79294963
_cell_angle_alpha   90.00000000
_cell_angle_beta   90.00000000
_cell_angle_gamma   90.08069081
_symmetry_Int_Tables_number   1
_chemical_formula_structural   SrCa3(RuO3)4
_chemical_formula_sum   'Sr1 Ca3 Ru4 O12'
_cell_volume   239.25902345
_cell_formula_units_Z   1
loop_
 _symmetry_equiv_pos_site_id
 _symmetry_equiv_pos_as_xyz
  1  'x, y, z'
loop_
 _atom_site_type_symbol
 _atom_site_label
 _atom_site_symmetry_multiplicity
 _atom_site_fract_x
 _atom_site_fract_y
 _atom_site_fract_z
 _atom_site_occupancy
  Sr  Sr0  1  0.50970817  0.54409524  0.25000000  1
  Ca  Ca1  1  0.98819998  0.05042397  0.25000000  1
  Ca  Ca2  1  0.48864536  0.44737675  0.75000000  1
  Ca  Ca3  1  0.01033943  0.94948791  0.75000000  1
  Ru  Ru4  1  0.99967950  0.50007077  0.99744473  1
  Ru  Ru5  1  0.50038925  -0.00014353  0.50219389  1
  Ru  Ru6  1  0.99967950  0.50007077  0.50255527  1
  Ru  Ru7  1  0.50038925  -0.00014353  0.99780611  1
  O  O8  1  0.80454468  0.80095238  0.04428222  1
  O  O9  1  0.70765297  0.28845300  0.46239860  1
  O  O10  1  0.20140804  0.20361154  0.54955306  1
  O  O11  1  0.30033500  0.70364740  0.94964309  1
  O  O12  1  0.20140804  0.20361154  0.95044694  1
  O  O13  1  0.30033500  0.70364740  0.55035691  1
  O  O14  1  0.80454468  0.80095238  0.45571778  1
  O  O15  1  0.70765297  0.28845300  0.03760140  1
  O  O16  1  0.40816789  0.98950770  0.25000000  1
  O  O17  1  0.06771153  0.47181856  0.25000000  1
  O  O18  1  0.59124500  0.02554420  0.75000000  1
  O  O19  1  0.90796376  0.52856254  0.75000000  1
