# generated using pymatgen
data_Sm3Mg21Sb16
_symmetry_space_group_name_H-M   'P 1'
_cell_length_a   4.65717654
_cell_length_b   4.65717900
_cell_length_c   58.30380117
_cell_angle_alpha   89.99928335
_cell_angle_beta   89.99930107
_cell_angle_gamma   60.00231204
_symmetry_Int_Tables_number   1
_chemical_formula_structural   Sm3Mg21Sb16
_chemical_formula_sum   'Sm3 Mg21 Sb16'
_cell_volume   1095.17431688
_cell_formula_units_Z   1
loop_
 _symmetry_equiv_pos_site_id
 _symmetry_equiv_pos_as_xyz
  1  'x, y, z'
loop_
 _atom_site_type_symbol
 _atom_site_label
 _atom_site_symmetry_multiplicity
 _atom_site_fract_x
 _atom_site_fract_y
 _atom_site_fract_z
 _atom_site_occupancy
  Sm  Sm0  1  -0.00000023  -0.00000036  0.99996310  1
  Sm  Sm1  1  0.00000000  0.00000000  0.25000000  1
  Sm  Sm2  1  0.00000023  0.00000036  0.50003690  1
  Mg  Mg3  1  0.99999996  0.99999994  0.12500991  1
  Mg  Mg4  1  0.00000004  0.00000006  0.37499009  1
  Mg  Mg5  1  0.00000059  0.00000060  0.62550914  1
  Mg  Mg6  1  0.99999941  0.99999940  0.87449086  1
  Mg  Mg7  1  0.33332105  0.33332113  0.04777531  1
  Mg  Mg8  1  0.33332214  0.33332221  0.29775258  1
  Mg  Mg9  1  0.33332108  0.33332113  0.54781635  1
  Mg  Mg10  1  0.33332824  0.33332833  0.79731892  1
  Mg  Mg11  1  0.66667786  0.66667779  0.20224742  1
  Mg  Mg12  1  0.66667895  0.66667887  0.45222469  1
  Mg  Mg13  1  0.66667176  0.66667167  0.70268108  1
  Mg  Mg14  1  0.66667892  0.66667887  0.95218365  1
  Mg  Mg15  1  0.00000000  0.00000000  0.75000000  1
  Mg  Mg16  1  0.66667528  0.66667542  0.08195036  1
  Mg  Mg17  1  0.66667608  0.66667613  0.33194655  1
  Mg  Mg18  1  0.66667026  0.66667044  0.58193944  1
  Mg  Mg19  1  0.66667983  0.66667988  0.83093964  1
  Mg  Mg20  1  0.33332392  0.33332387  0.16805345  1
  Mg  Mg21  1  0.33332472  0.33332458  0.41804964  1
  Mg  Mg22  1  0.33332017  0.33332012  0.66906036  1
  Mg  Mg23  1  0.33332974  0.33332956  0.91806056  1
  Sb  Sb24  1  0.66665019  0.66665040  0.03097955  1
  Sb  Sb25  1  0.66665678  0.66665663  0.28097195  1
  Sb  Sb26  1  0.66665844  0.66665838  0.53077705  1
  Sb  Sb27  1  0.66667142  0.66667109  0.77997730  1
  Sb  Sb28  1  0.33334322  0.33334337  0.21902805  1
  Sb  Sb29  1  0.33334981  0.33334960  0.46902045  1
  Sb  Sb30  1  0.33332858  0.33332891  0.72002270  1
  Sb  Sb31  1  0.33334156  0.33334162  0.96922295  1
  Sb  Sb32  1  0.33333147  0.33333132  0.09757488  1
  Sb  Sb33  1  0.33333158  0.33333155  0.34756673  1
  Sb  Sb34  1  0.33332016  0.33332016  0.59709106  1
  Sb  Sb35  1  0.33333422  0.33333431  0.84826902  1
  Sb  Sb36  1  0.66666842  0.66666845  0.15243327  1
  Sb  Sb37  1  0.66666853  0.66666868  0.40242512  1
  Sb  Sb38  1  0.66666578  0.66666569  0.65173098  1
  Sb  Sb39  1  0.66667984  0.66667984  0.90290894  1
