# generated using pymatgen
data_RbFeCuF6
_symmetry_space_group_name_H-M   'P 1'
_cell_length_a   7.42160308
_cell_length_b   7.10448998
_cell_length_c   7.59546035
_cell_angle_alpha   90.00000000
_cell_angle_beta   59.22200607
_cell_angle_gamma   118.59634236
_symmetry_Int_Tables_number   1
_chemical_formula_structural   RbFeCuF6
_chemical_formula_sum   'Rb2 Fe2 Cu2 F12'
_cell_volume   285.73814125
_cell_formula_units_Z   2
loop_
 _symmetry_equiv_pos_site_id
 _symmetry_equiv_pos_as_xyz
  1  'x, y, z'
loop_
 _atom_site_type_symbol
 _atom_site_label
 _atom_site_symmetry_multiplicity
 _atom_site_fract_x
 _atom_site_fract_y
 _atom_site_fract_z
 _atom_site_occupancy
  Rb  Rb0  1  0.76362792  0.38181396  0.36818604  1
  Rb  Rb1  1  0.23637208  0.61818604  0.63181396  1
  Fe  Fe2  1  0.00000000  0.00000000  0.50000000  1
  Fe  Fe3  1  0.00000000  0.00000000  -0.00000000  1
  Cu  Cu4  1  0.50000000  0.50000000  -0.00000000  1
  Cu  Cu5  1  0.50000000  0.00000000  -0.00000000  1
  F  F6  1  0.87435400  0.93717700  0.31282300  1
  F  F7  1  0.63775564  0.31887782  0.93112218  1
  F  F8  1  0.24325404  0.92382611  0.92518643  1
  F  F9  1  0.24325404  0.31942793  0.33155953  1
  F  F10  1  0.24325404  0.31942793  0.92518643  1
  F  F11  1  0.24325404  0.92382611  0.33155953  1
  F  F12  1  0.12564600  0.06282300  0.68717700  1
  F  F13  1  0.36224436  0.68112218  0.06887782  1
  F  F14  1  0.75674596  0.07617389  0.07481357  1
  F  F15  1  0.75674596  0.68057207  0.66844047  1
  F  F16  1  0.75674596  0.68057207  0.07481357  1
  F  F17  1  0.75674596  0.07617389  0.66844047  1
