# generated using pymatgen
data_Sr2Ti5(Bi2O9)2
_symmetry_space_group_name_H-M   'P 1'
_cell_length_a   5.50753479
_cell_length_b   5.53767644
_cell_length_c   24.87036655
_cell_angle_alpha   83.51627487
_cell_angle_beta   89.84774751
_cell_angle_gamma   89.68205411
_symmetry_Int_Tables_number   1
_chemical_formula_structural   Sr2Ti5(Bi2O9)2
_chemical_formula_sum   'Sr4 Ti10 Bi8 O36'
_cell_volume   753.65526288
_cell_formula_units_Z   2
loop_
 _symmetry_equiv_pos_site_id
 _symmetry_equiv_pos_as_xyz
  1  'x, y, z'
loop_
 _atom_site_type_symbol
 _atom_site_label
 _atom_site_symmetry_multiplicity
 _atom_site_fract_x
 _atom_site_fract_y
 _atom_site_fract_z
 _atom_site_occupancy
  Sr  Sr0  1  0.50212099  0.36410269  0.25127742  1
  Sr  Sr1  1  0.50450086  0.52869536  0.91902348  1
  Sr  Sr2  1  0.00810340  0.95123475  0.08127263  1
  Sr  Sr3  1  0.99507886  0.02684434  0.91819860  1
  Ti  Ti4  1  0.49858101  0.07143505  0.83817538  1
  Ti  Ti5  1  0.50675794  0.90788122  0.16667707  1
  Ti  Ti6  1  0.00346153  0.57074470  0.83866984  1
  Ti  Ti7  1  0.00950277  0.39538285  0.16512648  1
  Ti  Ti8  1  0.50041770  0.98975095  0.99807968  1
  Ti  Ti9  1  0.00172501  0.48464329  0.99922837  1
  Ti  Ti10  1  0.49733307  0.16094951  0.66299540  1
  Ti  Ti11  1  0.50791587  0.81156132  0.33763999  1
  Ti  Ti12  1  0.00449584  0.66122729  0.66322180  1
  Ti  Ti13  1  0.99722596  0.32830483  0.33768007  1
  Bi  Bi14  1  0.53010846  0.27171446  0.44860555  1
  Bi  Bi15  1  0.46982782  0.71888343  0.55120689  1
  Bi  Bi16  1  0.97175763  0.77396145  0.44848523  1
  Bi  Bi17  1  0.02845582  0.22111505  0.55113503  1
  Bi  Bi18  1  0.51078927  0.67124215  0.74647368  1
  Bi  Bi19  1  0.01706773  0.89025924  0.26391517  1
  Bi  Bi20  1  0.98998725  0.17172446  0.74638137  1
  Bi  Bi21  1  0.52047103  0.48830924  0.08690617  1
  O  O22  1  0.20764006  0.25262132  0.82961986  1
  O  O23  1  0.78845837  0.08651941  0.16735776  1
  O  O24  1  0.29069901  0.75237955  0.82970516  1
  O  O25  1  0.70248625  0.58400693  0.16472296  1
  O  O26  1  0.45603130  0.00017123  0.91827353  1
  O  O27  1  0.54171572  0.89827360  0.07908386  1
  O  O28  1  0.04054268  0.50146445  0.91808853  1
  O  O29  1  0.93534928  0.42546924  0.07949906  1
  O  O30  1  0.25495275  0.38739009  0.68604824  1
  O  O31  1  0.74651966  0.07312609  0.31724078  1
  O  O32  1  0.24443937  0.88761526  0.68581157  1
  O  O33  1  0.75742657  0.58112122  0.31670471  1
  O  O34  1  0.24282957  0.20746463  0.00537813  1
  O  O35  1  0.74744397  0.21679214  0.99199544  1
  O  O36  1  0.24911421  0.70727189  0.00621470  1
  O  O37  1  0.74839788  0.71787693  0.99162313  1
  O  O38  1  0.55805647  0.06617237  0.75865231  1
  O  O39  1  0.44676371  0.86236852  0.24009541  1
  O  O40  1  0.94004200  0.56604816  0.75882651  1
  O  O41  1  0.03412564  0.32587686  0.23991696  1
  O  O42  1  0.28490963  0.17289821  0.14999671  1
  O  O43  1  0.71622395  0.31366412  0.84607831  1
  O  O44  1  0.22171239  0.65739217  0.15300186  1
  O  O45  1  0.78101186  0.81445706  0.84576942  1
  O  O46  1  0.44248773  0.19205411  0.59220648  1
  O  O47  1  0.55367398  0.77946121  0.40882266  1
  O  O48  1  0.05853988  0.69116002  0.59232651  1
  O  O49  1  0.94517483  0.27826750  0.40878803  1
  O  O50  1  0.23482890  0.05180648  0.32771583  1
  O  O51  1  0.77122394  0.36445527  0.67123717  1
  O  O52  1  0.25390049  0.56124617  0.32831174  1
  O  O53  1  0.72827985  0.86463797  0.67127576  1
  O  O54  1  0.24878718  0.99197772  0.49795813  1
  O  O55  1  0.75109781  0.49024032  0.50135186  1
  O  O56  1  0.25060952  0.49216347  0.49806327  1
  O  O57  1  0.74881782  0.99012069  0.50186236  1
