# generated using pymatgen
data_SmUTe6
_symmetry_space_group_name_H-M   'P 1'
_cell_length_a   4.37053311
_cell_length_b   4.39323366
_cell_length_c   12.97490382
_cell_angle_alpha   90.00000000
_cell_angle_beta   80.30388379
_cell_angle_gamma   90.00000000
_symmetry_Int_Tables_number   1
_chemical_formula_structural   SmUTe6
_chemical_formula_sum   'Sm1 U1 Te6'
_cell_volume   245.56936103
_cell_formula_units_Z   1
loop_
 _symmetry_equiv_pos_site_id
 _symmetry_equiv_pos_as_xyz
  1  'x, y, z'
loop_
 _atom_site_type_symbol
 _atom_site_label
 _atom_site_symmetry_multiplicity
 _atom_site_fract_x
 _atom_site_fract_y
 _atom_site_fract_z
 _atom_site_occupancy
  Sm  Sm0  1  0.83204700  0.75000000  0.33590600  1
  U  U1  1  0.16543388  0.25000000  0.66913224  1
  Te  Te2  1  0.42929010  0.75000000  0.14141981  1
  Te  Te3  1  0.57500768  0.25000000  0.84998463  1
  Te  Te4  1  0.70192068  0.75000000  0.59615864  1
  Te  Te5  1  0.29176754  0.25000000  0.41646493  1
  Te  Te6  1  0.07498276  0.75000000  0.85003449  1
  Te  Te7  1  0.92955037  0.25000000  0.14089926  1
