# generated using pymatgen
data_Si4Ni9B2
_symmetry_space_group_name_H-M   'P 1'
_cell_length_a   4.16288047
_cell_length_b   6.46870458
_cell_length_c   6.46870458
_cell_angle_alpha   95.94285401
_cell_angle_beta   108.77005315
_cell_angle_gamma   71.22994685
_symmetry_Int_Tables_number   1
_chemical_formula_structural   Si4Ni9B2
_chemical_formula_sum   'Si4 Ni9 B2'
_cell_volume   156.15690534
_cell_formula_units_Z   1
loop_
 _symmetry_equiv_pos_site_id
 _symmetry_equiv_pos_as_xyz
  1  'x, y, z'
loop_
 _atom_site_type_symbol
 _atom_site_label
 _atom_site_symmetry_multiplicity
 _atom_site_fract_x
 _atom_site_fract_y
 _atom_site_fract_z
 _atom_site_occupancy
  Si  Si0  1  0.37106543  0.50000000  0.18454179  1
  Si  Si1  1  0.68652364  0.50000000  0.81545821  1
  Si  Si2  1  0.81347636  0.81545821  0.50000000  1
  Si  Si3  1  0.12893457  0.18454179  0.50000000  1
  Ni  Ni4  1  0.42122489  0.87334107  0.71568223  1
  Ni  Ni5  1  0.57888374  0.12665893  0.28431777  1
  Ni  Ni6  1  0.92111626  0.28431777  0.12665893  1
  Ni  Ni7  1  0.07877511  0.71568223  0.87334107  1
  Ni  Ni8  1  0.70543404  0.71568223  0.12665893  1
  Ni  Ni9  1  0.29445734  0.28431777  0.87334107  1
  Ni  Ni10  1  0.79456596  0.12665893  0.71568223  1
  Ni  Ni11  1  0.20554266  0.87334107  0.28431777  1
  Ni  Ni12  1  0.25000000  0.50000000  0.50000000  1
  B  B13  1  0.25000000  -0.00000000  -0.00000000  1
  B  B14  1  0.75000000  -0.00000000  -0.00000000  1
