# generated using pymatgen
data_SmGd3Al4O12
_symmetry_space_group_name_H-M   'P 1'
_cell_length_a   5.28561300
_cell_length_b   5.36894467
_cell_length_c   7.51766592
_cell_angle_alpha   90.00000000
_cell_angle_beta   90.00000000
_cell_angle_gamma   90.10352008
_symmetry_Int_Tables_number   1
_chemical_formula_structural   SmGd3Al4O12
_chemical_formula_sum   'Sm1 Gd3 Al4 O12'
_cell_volume   213.33720654
_cell_formula_units_Z   1
loop_
 _symmetry_equiv_pos_site_id
 _symmetry_equiv_pos_as_xyz
  1  'x, y, z'
loop_
 _atom_site_type_symbol
 _atom_site_label
 _atom_site_symmetry_multiplicity
 _atom_site_fract_x
 _atom_site_fract_y
 _atom_site_fract_z
 _atom_site_occupancy
  Sm  Sm0  1  0.50928866  0.54106983  0.25000000  1
  Gd  Gd1  1  0.99096761  0.04341144  0.25000000  1
  Gd  Gd2  1  0.49112629  0.45626504  0.75000000  1
  Gd  Gd3  1  0.00869576  0.95713800  0.75000000  1
  Al  Al4  1  0.50025579  0.99993498  0.99948931  1
  Al  Al5  1  0.99982921  0.50001593  0.50054561  1
  Al  Al6  1  0.50025579  0.99993498  0.50051069  1
  Al  Al7  1  0.99982921  0.50001593  0.99945439  1
  O  O8  1  0.42597281  0.98613487  0.25000000  1
  O  O9  1  0.07001295  0.48265816  0.25000000  1
  O  O10  1  0.57381170  0.01639720  0.75000000  1
  O  O11  1  0.92579756  0.51845509  0.75000000  1
  O  O12  1  0.78848589  0.78911060  0.03927309  1
  O  O13  1  0.71287959  0.28753817  0.46312998  1
  O  O14  1  0.21214144  0.21155269  0.53946704  1
  O  O15  1  0.28857141  0.71108282  0.96067622  1
  O  O16  1  0.21214144  0.21155269  0.96053296  1
  O  O17  1  0.28857141  0.71108282  0.53932378  1
  O  O18  1  0.78848589  0.78911060  0.46072691  1
  O  O19  1  0.71287959  0.28753817  0.03687002  1
