# generated using pymatgen
data_Sm2Mn17C2
_symmetry_space_group_name_H-M   'P 1'
_cell_length_a   6.45702340
_cell_length_b   6.45702340
_cell_length_c   6.46727784
_cell_angle_alpha   83.73568556
_cell_angle_beta   83.73568556
_cell_angle_gamma   83.99749083
_symmetry_Int_Tables_number   1
_chemical_formula_structural   Sm2Mn17C2
_chemical_formula_sum   'Sm2 Mn17 C2'
_cell_volume   265.25657198
_cell_formula_units_Z   1
loop_
 _symmetry_equiv_pos_site_id
 _symmetry_equiv_pos_as_xyz
  1  'x, y, z'
loop_
 _atom_site_type_symbol
 _atom_site_label
 _atom_site_symmetry_multiplicity
 _atom_site_fract_x
 _atom_site_fract_y
 _atom_site_fract_z
 _atom_site_occupancy
  Sm  Sm0  1  0.64417608  0.64417608  0.65536051  1
  Sm  Sm1  1  0.35582392  0.35582392  0.34463949  1
  Mn  Mn2  1  0.90522988  0.90522988  0.90538184  1
  Mn  Mn3  1  0.09477012  0.09477012  0.09461816  1
  Mn  Mn4  1  0.27068576  0.72931424  -0.00000000  1
  Mn  Mn5  1  0.71860226  0.99341393  0.28027982  1
  Mn  Mn6  1  0.00658607  0.28139774  0.71972018  1
  Mn  Mn7  1  0.28139774  0.00658607  0.71972018  1
  Mn  Mn8  1  0.99341393  0.71860226  0.28027982  1
  Mn  Mn9  1  0.72931424  0.27068576  -0.00000000  1
  Mn  Mn10  1  0.86652019  0.33548036  0.33794992  1
  Mn  Mn11  1  0.34559911  0.34559911  0.87141498  1
  Mn  Mn12  1  0.33548036  0.86652019  0.33794992  1
  Mn  Mn13  1  0.13347981  0.66451964  0.66205008  1
  Mn  Mn14  1  0.65440089  0.65440089  0.12858502  1
  Mn  Mn15  1  0.66451964  0.13347981  0.66205008  1
  Mn  Mn16  1  0.00000000  0.00000000  0.50000000  1
  Mn  Mn17  1  0.00000000  0.50000000  -0.00000000  1
  Mn  Mn18  1  0.50000000  0.00000000  -0.00000000  1
  C  C19  1  0.50000000  0.00000000  0.50000000  1
  C  C20  1  0.00000000  0.50000000  0.50000000  1
