# generated using pymatgen
data_Sr10Mn(RuO5)4
_symmetry_space_group_name_H-M   'P 1'
_cell_length_a   3.91919083
_cell_length_b   3.91919083
_cell_length_c   32.11243605
_cell_angle_alpha   86.50146921
_cell_angle_beta   86.50146921
_cell_angle_gamma   90.00000000
_symmetry_Int_Tables_number   1
_chemical_formula_structural   Sr10Mn(RuO5)4
_chemical_formula_sum   'Sr10 Mn1 Ru4 O20'
_cell_volume   491.40864794
_cell_formula_units_Z   1
loop_
 _symmetry_equiv_pos_site_id
 _symmetry_equiv_pos_as_xyz
  1  'x, y, z'
loop_
 _atom_site_type_symbol
 _atom_site_label
 _atom_site_symmetry_multiplicity
 _atom_site_fract_x
 _atom_site_fract_y
 _atom_site_fract_z
 _atom_site_occupancy
  Sr  Sr0  1  0.47256824  0.47256824  0.05486352  1
  Sr  Sr1  1  0.87077901  0.87077901  0.25844198  1
  Sr  Sr2  1  0.27057756  0.27057756  0.45884487  1
  Sr  Sr3  1  0.67051802  0.67051802  0.65896396  1
  Sr  Sr4  1  0.06932990  0.06932990  0.86134021  1
  Sr  Sr5  1  0.93067010  0.93067010  0.13865979  1
  Sr  Sr6  1  0.32948198  0.32948198  0.34103604  1
  Sr  Sr7  1  0.72942244  0.72942244  0.54115513  1
  Sr  Sr8  1  0.12922099  0.12922099  0.74155802  1
  Sr  Sr9  1  0.52743176  0.52743176  0.94513648  1
  Mn  Mn10  1  -0.00000000  -0.00000000  0.00000000  1
  Ru  Ru11  1  0.40020198  0.40020198  0.19959605  1
  Ru  Ru12  1  0.80001113  0.80001113  0.39997775  1
  Ru  Ru13  1  0.19998887  0.19998887  0.60002225  1
  Ru  Ru14  1  0.59979802  0.59979802  0.80040395  1
  O  O15  1  0.43220495  0.43220495  0.13559010  1
  O  O16  1  0.83257695  0.83257695  0.33484611  1
  O  O17  1  0.23259914  0.23259914  0.53480172  1
  O  O18  1  0.63255035  0.63255035  0.73489930  1
  O  O19  1  0.03152329  0.03152329  0.93695341  1
  O  O20  1  0.96847671  0.96847671  0.06304659  1
  O  O21  1  0.36744965  0.36744965  0.26510070  1
  O  O22  1  0.76740086  0.76740086  0.46519828  1
  O  O23  1  0.16742305  0.16742305  0.66515389  1
  O  O24  1  0.56779505  0.56779505  0.86440990  1
  O  O25  1  0.50000000  -0.00000000  0.00000000  1
  O  O26  1  0.89986531  0.39986531  0.20026937  1
  O  O27  1  0.29998302  0.79998302  0.40003397  1
  O  O28  1  0.70001698  0.20001698  0.59996603  1
  O  O29  1  0.10013469  0.60013469  0.79973063  1
  O  O30  1  -0.00000000  0.50000000  0.00000000  1
  O  O31  1  0.39986531  0.89986531  0.20026937  1
  O  O32  1  0.79998302  0.29998302  0.40003397  1
  O  O33  1  0.20001698  0.70001698  0.59996603  1
  O  O34  1  0.60013469  0.10013469  0.79973063  1
