# generated using pymatgen
data_HfNiO3
_symmetry_space_group_name_H-M   'P 1'
_cell_length_a   4.97777729
_cell_length_b   5.33835257
_cell_length_c   8.13926029
_cell_angle_alpha   90.00000000
_cell_angle_beta   89.00809517
_cell_angle_gamma   90.00000000
_symmetry_Int_Tables_number   1
_chemical_formula_structural   HfNiO3
_chemical_formula_sum   'Hf4 Ni4 O12'
_cell_volume   216.25321327
_cell_formula_units_Z   4
loop_
 _symmetry_equiv_pos_site_id
 _symmetry_equiv_pos_as_xyz
  1  'x, y, z'
loop_
 _atom_site_type_symbol
 _atom_site_label
 _atom_site_symmetry_multiplicity
 _atom_site_fract_x
 _atom_site_fract_y
 _atom_site_fract_z
 _atom_site_occupancy
  Hf  Hf0  1  0.04157086  0.92426545  0.75156830  1
  Hf  Hf1  1  0.45842914  0.42426545  0.74843170  1
  Hf  Hf2  1  0.54157086  0.57573455  0.25156830  1
  Hf  Hf3  1  0.95842914  0.07573455  0.24843170  1
  Ni  Ni4  1  0.00000000  0.50000000  0.50000000  1
  Ni  Ni5  1  0.00000000  0.50000000  -0.00000000  1
  Ni  Ni6  1  0.50000000  -0.00000000  0.50000000  1
  Ni  Ni7  1  0.50000000  0.00000000  -0.00000000  1
  O  O8  1  0.16869900  0.41981602  0.25560890  1
  O  O9  1  0.18851856  0.19326575  0.91237918  1
  O  O10  1  0.19270904  0.19027256  0.58915303  1
  O  O11  1  0.30729096  0.69027256  0.91084697  1
  O  O12  1  0.31148144  0.69326575  0.58762082  1
  O  O13  1  0.33130100  0.91981602  0.24439110  1
  O  O14  1  0.66869900  0.08018398  0.75560890  1
  O  O15  1  0.68851856  0.30673425  0.41237918  1
  O  O16  1  0.69270904  0.30972744  0.08915303  1
  O  O17  1  0.80729096  0.80972744  0.41084697  1
  O  O18  1  0.81148144  0.80673425  0.08762082  1
  O  O19  1  0.83130100  0.58018398  0.74439110  1
