# generated using pymatgen
data_Nd2Ga3Cu
_symmetry_space_group_name_H-M   'P 1'
_cell_length_a   4.45531496
_cell_length_b   4.45530843
_cell_length_c   7.60763928
_cell_angle_alpha   90.00043256
_cell_angle_beta   89.99988028
_cell_angle_gamma   119.98761421
_symmetry_Int_Tables_number   1
_chemical_formula_structural   Nd2Ga3Cu
_chemical_formula_sum   'Nd2 Ga3 Cu1'
_cell_volume   130.79493263
_cell_formula_units_Z   1
loop_
 _symmetry_equiv_pos_site_id
 _symmetry_equiv_pos_as_xyz
  1  'x, y, z'
loop_
 _atom_site_type_symbol
 _atom_site_label
 _atom_site_symmetry_multiplicity
 _atom_site_fract_x
 _atom_site_fract_y
 _atom_site_fract_z
 _atom_site_occupancy
  Nd  Nd0  1  0.00000886  0.99998996  0.73211813  1
  Nd  Nd1  1  0.99997061  0.00002865  0.26162320  1
  Ga  Ga2  1  0.33332548  0.66667479  0.48213950  1
  Ga  Ga3  1  0.33332414  0.66667904  0.04227621  1
  Ga  Ga4  1  0.66666155  0.33333488  0.95455313  1
  Cu  Cu5  1  0.66670935  0.33329268  0.52728984  1
