# generated using pymatgen
data_NdYFe14B
_symmetry_space_group_name_H-M   'P 1'
_cell_length_a   8.77146119
_cell_length_b   8.77146119
_cell_length_c   12.08179471
_cell_angle_alpha   90.00000000
_cell_angle_beta   90.00000000
_cell_angle_gamma   90.00000000
_symmetry_Int_Tables_number   1
_chemical_formula_structural   NdYFe14B
_chemical_formula_sum   'Nd4 Y4 Fe56 B4'
_cell_volume   929.55554176
_cell_formula_units_Z   4
loop_
 _symmetry_equiv_pos_site_id
 _symmetry_equiv_pos_as_xyz
  1  'x, y, z'
loop_
 _atom_site_type_symbol
 _atom_site_label
 _atom_site_symmetry_multiplicity
 _atom_site_fract_x
 _atom_site_fract_y
 _atom_site_fract_z
 _atom_site_occupancy
  Nd  Nd0  1  0.23489655  0.76510345  0.50000000  1
  Nd  Nd1  1  0.76510345  0.23489655  0.50000000  1
  Nd  Nd2  1  0.26510345  0.26510345  0.00000000  1
  Nd  Nd3  1  0.73489655  0.73489655  0.00000000  1
  Y  Y4  1  0.64459433  0.64459433  0.50000000  1
  Y  Y5  1  0.35540567  0.35540567  0.50000000  1
  Y  Y6  1  0.85540567  0.14459433  0.00000000  1
  Y  Y7  1  0.14459433  0.85540567  0.00000000  1
  Fe  Fe8  1  0.18222501  0.81777499  0.25294576  1
  Fe  Fe9  1  0.81777499  0.18222501  0.25294576  1
  Fe  Fe10  1  0.31777499  0.31777499  0.75294576  1
  Fe  Fe11  1  0.68222501  0.68222501  0.75294576  1
  Fe  Fe12  1  0.81777499  0.18222501  0.74705424  1
  Fe  Fe13  1  0.18222501  0.81777499  0.74705424  1
  Fe  Fe14  1  0.68222501  0.68222501  0.24705424  1
  Fe  Fe15  1  0.31777499  0.31777499  0.24705424  1
  Fe  Fe16  1  0.40295538  0.59704462  0.29811562  1
  Fe  Fe17  1  0.59704462  0.40295538  0.29811562  1
  Fe  Fe18  1  0.09704462  0.09704462  0.79811562  1
  Fe  Fe19  1  0.90295538  0.90295538  0.79811562  1
  Fe  Fe20  1  0.59704462  0.40295538  0.70188438  1
  Fe  Fe21  1  0.40295538  0.59704462  0.70188438  1
  Fe  Fe22  1  0.90295538  0.90295538  0.20188438  1
  Fe  Fe23  1  0.09704462  0.09704462  0.20188438  1
  Fe  Fe24  1  0.14084443  0.53604663  0.32419665  1
  Fe  Fe25  1  0.85915557  0.46395337  0.32419665  1
  Fe  Fe26  1  0.35915557  0.03604663  0.82419665  1
  Fe  Fe27  1  0.64084443  0.96395337  0.82419665  1
  Fe  Fe28  1  0.85915557  0.46395337  0.67580335  1
  Fe  Fe29  1  0.14084443  0.53604663  0.67580335  1
  Fe  Fe30  1  0.64084443  0.96395337  0.17580335  1
  Fe  Fe31  1  0.35915557  0.03604663  0.17580335  1
  Fe  Fe32  1  0.53604663  0.14084443  0.32419665  1
  Fe  Fe33  1  0.46395337  0.85915557  0.32419665  1
  Fe  Fe34  1  0.03604663  0.35915557  0.82419665  1
  Fe  Fe35  1  0.96395337  0.64084443  0.82419665  1
  Fe  Fe36  1  0.46395337  0.85915557  0.67580335  1
  Fe  Fe37  1  0.53604663  0.14084443  0.67580335  1
  Fe  Fe38  1  0.96395337  0.64084443  0.17580335  1
  Fe  Fe39  1  0.03604663  0.35915557  0.17580335  1
  Fe  Fe40  1  0.50000000  0.50000000  0.11476641  1
  Fe  Fe41  1  0.00000000  0.00000000  0.61476641  1
  Fe  Fe42  1  0.50000000  0.50000000  0.88523359  1
  Fe  Fe43  1  0.00000000  0.00000000  0.38523359  1
  Fe  Fe44  1  0.93250503  0.72453489  0.37271200  1
  Fe  Fe45  1  0.06749497  0.27546511  0.37271200  1
  Fe  Fe46  1  0.56749497  0.22453489  0.87271200  1
  Fe  Fe47  1  0.43250503  0.77546511  0.87271200  1
  Fe  Fe48  1  0.06749497  0.27546511  0.62728800  1
  Fe  Fe49  1  0.93250503  0.72453489  0.62728800  1
  Fe  Fe50  1  0.43250503  0.77546511  0.12728800  1
  Fe  Fe51  1  0.56749497  0.22453489  0.12728800  1
  Fe  Fe52  1  0.72453489  0.93250503  0.37271200  1
  Fe  Fe53  1  0.27546511  0.06749497  0.37271200  1
  Fe  Fe54  1  0.22453489  0.56749497  0.87271200  1
  Fe  Fe55  1  0.77546511  0.43250503  0.87271200  1
  Fe  Fe56  1  0.27546511  0.06749497  0.62728800  1
  Fe  Fe57  1  0.72453489  0.93250503  0.62728800  1
  Fe  Fe58  1  0.77546511  0.43250503  0.12728800  1
  Fe  Fe59  1  0.22453489  0.56749497  0.12728800  1
  Fe  Fe60  1  0.00000000  0.50000000  0.50000000  1
  Fe  Fe61  1  0.50000000  0.00000000  0.00000000  1
  Fe  Fe62  1  0.50000000  0.00000000  0.50000000  1
  Fe  Fe63  1  0.00000000  0.50000000  0.00000000  1
  B  B64  1  0.87504642  0.87504642  0.50000000  1
  B  B65  1  0.12495358  0.12495358  0.50000000  1
  B  B66  1  0.62495358  0.37504642  0.00000000  1
  B  B67  1  0.37504642  0.62495358  0.00000000  1
