# generated using pymatgen
data_Nb3WSe8
_symmetry_space_group_name_H-M   'P 1'
_cell_length_a   3.44459737
_cell_length_b   6.94442562
_cell_length_c   11.96121170
_cell_angle_alpha   98.28593945
_cell_angle_beta   90.00000000
_cell_angle_gamma   104.35988042
_symmetry_Int_Tables_number   1
_chemical_formula_structural   Nb3WSe8
_chemical_formula_sum   'Nb3 W1 Se8'
_cell_volume   274.09773424
_cell_formula_units_Z   1
loop_
 _symmetry_equiv_pos_site_id
 _symmetry_equiv_pos_as_xyz
  1  'x, y, z'
loop_
 _atom_site_type_symbol
 _atom_site_label
 _atom_site_symmetry_multiplicity
 _atom_site_fract_x
 _atom_site_fract_y
 _atom_site_fract_z
 _atom_site_occupancy
  Nb  Nb0  1  0.00012474  0.00024948  0.99816307  1
  Nb  Nb1  1  0.49999184  0.99998368  0.24978782  1
  Nb  Nb2  1  0.00005560  0.00011121  0.50337447  1
  W  W3  1  0.50014342  0.00028684  0.74914893  1
  Se  Se4  1  0.37366466  0.74732932  0.56517732  1
  Se  Se5  1  0.87529231  0.75058463  0.80938761  1
  Se  Se6  1  0.37259414  0.74518829  0.06158032  1
  Se  Se7  1  0.87279083  0.74558166  0.31263152  1
  Se  Se8  1  0.12761690  0.25523380  0.35513873  1
  Se  Se9  1  0.62678267  0.25356535  0.60734445  1
  Se  Se10  1  0.12511435  0.25022870  0.85103439  1
  Se  Se11  1  0.62782852  0.25565704  0.10423137  1
