# generated using pymatgen
data_Rb6CuAgO4
_symmetry_space_group_name_H-M   'P 1'
_cell_length_a   9.14497756
_cell_length_b   9.14497756
_cell_length_c   14.38569217
_cell_angle_alpha   90.00000000
_cell_angle_beta   90.00000000
_cell_angle_gamma   90.00000000
_symmetry_Int_Tables_number   1
_chemical_formula_structural   Rb6CuAgO4
_chemical_formula_sum   'Rb24 Cu4 Ag4 O16'
_cell_volume   1203.08427723
_cell_formula_units_Z   4
loop_
 _symmetry_equiv_pos_site_id
 _symmetry_equiv_pos_as_xyz
  1  'x, y, z'
loop_
 _atom_site_type_symbol
 _atom_site_label
 _atom_site_symmetry_multiplicity
 _atom_site_fract_x
 _atom_site_fract_y
 _atom_site_fract_z
 _atom_site_occupancy
  Rb  Rb0  1  0.03399886  0.56167714  0.74804656  1
  Rb  Rb1  1  0.96600114  0.43832286  0.24804656  1
  Rb  Rb2  1  0.06167714  0.46600114  0.49804656  1
  Rb  Rb3  1  0.93832286  0.53399886  0.99804656  1
  Rb  Rb4  1  0.43996866  0.96392548  0.75147993  1
  Rb  Rb5  1  0.56003134  0.03607452  0.25147993  1
  Rb  Rb6  1  0.46392548  0.06003134  0.50147993  1
  Rb  Rb7  1  0.53607452  0.93996866  0.00147993  1
  Rb  Rb8  1  0.44738873  0.55507968  0.74987862  1
  Rb  Rb9  1  0.55261127  0.44492032  0.24987862  1
  Rb  Rb10  1  0.05507968  0.05261127  0.49987862  1
  Rb  Rb11  1  0.94492032  0.94738873  0.99987862  1
  Rb  Rb12  1  0.02639844  0.97231897  0.74989163  1
  Rb  Rb13  1  0.97360156  0.02768103  0.24989163  1
  Rb  Rb14  1  0.47231897  0.47360156  0.49989163  1
  Rb  Rb15  1  0.52768103  0.52639844  0.99989163  1
  Rb  Rb16  1  0.34188676  0.76360394  0.35873356  1
  Rb  Rb17  1  0.65811324  0.23639606  0.85873356  1
  Rb  Rb18  1  0.26360394  0.15811324  0.10873356  1
  Rb  Rb19  1  0.73639606  0.84188676  0.60873356  1
  Rb  Rb20  1  0.23643979  0.65360265  0.14127212  1
  Rb  Rb21  1  0.76356021  0.34639735  0.64127212  1
  Rb  Rb22  1  0.15360265  0.26356021  0.89127212  1
  Rb  Rb23  1  0.84639735  0.73643979  0.39127212  1
  Cu  Cu24  1  0.76266702  0.23853229  0.08435001  1
  Cu  Cu25  1  0.23733298  0.76146771  0.58435001  1
  Cu  Cu26  1  0.73853229  0.73733298  0.83435001  1
  Cu  Cu27  1  0.26146771  0.26266702  0.33435001  1
  Ag  Ag28  1  0.76067600  0.23719519  0.41545989  1
  Ag  Ag29  1  0.23932400  0.76280481  0.91545989  1
  Ag  Ag30  1  0.73719519  0.73932400  0.16545989  1
  Ag  Ag31  1  0.26280481  0.26067600  0.66545989  1
  O  O32  1  0.73551942  0.93634648  0.83097837  1
  O  O33  1  0.26448058  0.06365352  0.33097837  1
  O  O34  1  0.43634648  0.76448058  0.58097837  1
  O  O35  1  0.56365352  0.23551942  0.08097837  1
  O  O36  1  0.03997042  0.26310011  0.66927762  1
  O  O37  1  0.96002958  0.73689989  0.16927762  1
  O  O38  1  0.76310011  0.46002958  0.41927762  1
  O  O39  1  0.23689989  0.53997042  0.91927762  1
  O  O40  1  0.48634352  0.25974111  0.66653125  1
  O  O41  1  0.51365648  0.74025889  0.16653125  1
  O  O42  1  0.75974111  0.01365648  0.41653125  1
  O  O43  1  0.24025889  0.98634352  0.91653125  1
  O  O44  1  0.73833062  0.53730934  0.83410045  1
  O  O45  1  0.26166938  0.46269066  0.33410045  1
  O  O46  1  0.03730934  0.76166938  0.58410045  1
  O  O47  1  0.96269066  0.23833062  0.08410045  1
