# generated using pymatgen
data_Rb2TiFe2(MoO4)6
_symmetry_space_group_name_H-M   'P 1'
_cell_length_a   8.60172529
_cell_length_b   8.63146158
_cell_length_c   8.61257976
_cell_angle_alpha   99.26842188
_cell_angle_beta   99.27804126
_cell_angle_gamma   99.20195534
_symmetry_Int_Tables_number   1
_chemical_formula_structural   Rb2TiFe2(MoO4)6
_chemical_formula_sum   'Rb2 Ti1 Fe2 Mo6 O24'
_cell_volume   611.39373111
_cell_formula_units_Z   1
loop_
 _symmetry_equiv_pos_site_id
 _symmetry_equiv_pos_as_xyz
  1  'x, y, z'
loop_
 _atom_site_type_symbol
 _atom_site_label
 _atom_site_symmetry_multiplicity
 _atom_site_fract_x
 _atom_site_fract_y
 _atom_site_fract_z
 _atom_site_occupancy
  Rb  Rb0  1  0.18510994  0.18730440  0.18454198  1
  Rb  Rb1  1  0.81486165  0.81268555  0.81544893  1
  Ti  Ti2  1  0.49999839  -0.00000077  0.50001351  1
  Fe  Fe3  1  0.00001981  0.49999734  0.49995650  1
  Fe  Fe4  1  0.50000588  0.49997281  0.00002051  1
  Mo  Mo5  1  0.21296945  0.22907641  0.67990408  1
  Mo  Mo6  1  0.22948740  0.67923397  0.21292140  1
  Mo  Mo7  1  0.67960296  0.21233598  0.22954985  1
  Mo  Mo8  1  0.78704907  0.77094126  0.32011359  1
  Mo  Mo9  1  0.77052586  0.32079215  0.78706516  1
  Mo  Mo10  1  0.32038987  0.78764923  0.77047156  1
  O  O11  1  0.17411754  0.37400804  0.55551645  1
  O  O12  1  0.37440305  0.55419086  0.17356403  1
  O  O13  1  0.55237849  0.16833257  0.37615661  1
  O  O14  1  0.82592631  0.62598579  0.44446828  1
  O  O15  1  0.62560377  0.44582491  0.82647203  1
  O  O16  1  0.44761144  0.83167406  0.62385151  1
  O  O17  1  0.30747454  0.33353692  0.88010423  1
  O  O18  1  0.33831093  0.88135533  0.31333993  1
  O  O19  1  0.87974355  0.30798839  0.33475181  1
  O  O20  1  0.69253213  0.66648004  0.11992238  1
  O  O21  1  0.66167139  0.11867100  0.68665277  1
  O  O22  1  0.12026957  0.69197881  0.66522769  1
  O  O23  1  0.03320754  0.11090366  0.69220815  1
  O  O24  1  0.11017408  0.69198167  0.03399692  1
  O  O25  1  0.69338992  0.03469161  0.10883301  1
  O  O26  1  0.96679832  0.88911736  0.30779582  1
  O  O27  1  0.88981624  0.30802518  0.96599069  1
  O  O28  1  0.30658843  0.96530574  0.89116737  1
  O  O29  1  0.33834975  0.10855362  0.57776180  1
  O  O30  1  0.11058468  0.57872311  0.33392611  1
  O  O31  1  0.57904882  0.33422923  0.11154595  1
  O  O32  1  0.66164012  0.89144758  0.42224312  1
  O  O33  1  0.88942565  0.42127346  0.66603732  1
  O  O34  1  0.42094644  0.66576573  0.88849194  1
