# generated using pymatgen
data_Pr12Si5Se28
_symmetry_space_group_name_H-M   'P 1'
_cell_length_a   10.69982002
_cell_length_b   12.15141739
_cell_length_c   12.29628352
_cell_angle_alpha   60.35766462
_cell_angle_beta   115.78020974
_cell_angle_gamma   89.99406117
_symmetry_Int_Tables_number   1
_chemical_formula_structural   Pr12Si5Se28
_chemical_formula_sum   'Pr12 Si5 Se28'
_cell_volume   1202.97607098
_cell_formula_units_Z   1
loop_
 _symmetry_equiv_pos_site_id
 _symmetry_equiv_pos_as_xyz
  1  'x, y, z'
loop_
 _atom_site_type_symbol
 _atom_site_label
 _atom_site_symmetry_multiplicity
 _atom_site_fract_x
 _atom_site_fract_y
 _atom_site_fract_z
 _atom_site_occupancy
  Pr  Pr0  1  0.12507689  0.95831819  0.34734622  1
  Pr  Pr1  1  0.13031358  0.43066957  0.36560196  1
  Pr  Pr2  1  0.63570375  0.73250747  0.76231476  1
  Pr  Pr3  1  0.65258009  0.24159585  0.77959463  1
  Pr  Pr4  1  0.23229709  0.67993190  0.86923664  1
  Pr  Pr5  1  0.22418478  0.19392015  0.87544436  1
  Pr  Pr6  1  0.86379096  0.06283864  0.63293206  1
  Pr  Pr7  1  0.87897943  0.53729560  0.65444038  1
  Pr  Pr8  1  0.34689975  0.25378370  0.22438836  1
  Pr  Pr9  1  0.36516572  0.76303397  0.23049733  1
  Pr  Pr10  1  0.77692891  0.30390158  0.12247393  1
  Pr  Pr11  1  0.76694066  0.81214500  0.13311502  1
  Si  Si12  1  0.33699531  0.07862830  0.66929051  1
  Si  Si13  1  0.32986799  0.58082795  0.66469910  1
  Si  Si14  1  0.66719770  0.99964320  0.33351415  1
  Si  Si15  1  0.66632429  0.49809463  0.33334034  1
  Si  Si16  1  0.99967622  0.73572262  0.00052706  1
  Se  Se17  1  0.33346553  0.89413835  0.66630722  1
  Se  Se18  1  0.33400394  0.39361386  0.66743256  1
  Se  Se19  1  0.65975157  0.31865334  0.32079110  1
  Se  Se20  1  0.67389542  0.80699612  0.34597434  1
  Se  Se21  1  0.47803211  0.04131087  0.89502674  1
  Se  Se22  1  0.48024073  0.54057797  0.89185778  1
  Se  Se23  1  0.11297519  0.18774922  0.59906352  1
  Se  Se24  1  0.10175628  0.70025393  0.57453911  1
  Se  Se25  1  0.42657219  0.22214430  0.53048573  1
  Se  Se26  1  0.40041250  0.73185254  0.51116847  1
  Se  Se27  1  0.52336519  0.18602134  0.10822238  1
  Se  Se28  1  0.52071946  0.68606327  0.10512183  1
  Se  Se29  1  0.89425168  0.03036774  0.41822890  1
  Se  Se30  1  0.89261769  0.53262226  0.41233252  1
  Se  Se31  1  0.58605396  0.00029716  0.47983447  1
  Se  Se32  1  0.58286455  0.50021468  0.47571742  1
  Se  Se33  1  0.23453248  0.54840494  0.15284306  1
  Se  Se34  1  0.25950035  0.03122264  0.16595732  1
  Se  Se35  1  0.84766961  0.58443905  0.08144314  1
  Se  Se36  1  0.83460883  0.06689088  0.09363992  1
  Se  Se37  1  0.90712400  0.24362893  0.74073655  1
  Se  Se38  1  0.91762739  0.74262240  0.76559986  1
  Se  Se39  1  0.74021968  0.45143154  0.83052829  1
  Se  Se40  1  0.77120204  0.91888449  0.85599028  1
  Se  Se41  1  0.16879710  0.41337027  0.90807640  1
  Se  Se42  1  0.14193965  0.88901194  0.91495586  1
  Se  Se43  1  0.08384779  0.73223469  0.22703293  1
  Se  Se44  1  0.09302994  0.23712297  0.26233547  1
