# generated using pymatgen
data_Pr4In5Cu19
_symmetry_space_group_name_H-M   'P 1'
_cell_length_a   5.13551474
_cell_length_b   8.48976682
_cell_length_c   10.74809933
_cell_angle_alpha   90.43495599
_cell_angle_beta   90.00000000
_cell_angle_gamma   90.00000000
_symmetry_Int_Tables_number   1
_chemical_formula_structural   Pr4In5Cu19
_chemical_formula_sum   'Pr4 In5 Cu19'
_cell_volume   468.59634800
_cell_formula_units_Z   1
loop_
 _symmetry_equiv_pos_site_id
 _symmetry_equiv_pos_as_xyz
  1  'x, y, z'
loop_
 _atom_site_type_symbol
 _atom_site_label
 _atom_site_symmetry_multiplicity
 _atom_site_fract_x
 _atom_site_fract_y
 _atom_site_fract_z
 _atom_site_occupancy
  Pr  Pr0  1  0.75000000  0.24355411  0.93696360  1
  Pr  Pr1  1  0.75000000  0.74535787  0.56685412  1
  Pr  Pr2  1  0.25000000  0.75894011  0.04824603  1
  Pr  Pr3  1  0.25000000  0.25374905  0.44365525  1
  In  In4  1  0.75000000  0.35970219  0.63898191  1
  In  In5  1  0.75000000  0.85982861  0.86141358  1
  In  In6  1  0.25000000  0.63674527  0.36988514  1
  In  In7  1  0.25000000  0.13650867  0.13768071  1
  In  In8  1  0.75000000  0.68791634  0.24218581  1
  Cu  Cu9  1  0.75000000  0.95422256  0.10224716  1
  Cu  Cu10  1  0.75000000  0.43250688  0.39676378  1
  Cu  Cu11  1  0.25000000  0.05935215  0.89206624  1
  Cu  Cu12  1  0.25000000  0.55625309  0.60922240  1
  Cu  Cu13  1  0.00109266  0.06622038  0.68936978  1
  Cu  Cu14  1  0.49753770  0.56606711  0.81094629  1
  Cu  Cu15  1  0.49391005  0.94415010  0.31359419  1
  Cu  Cu16  1  0.00451536  0.42327046  0.18653604  1
  Cu  Cu17  1  0.00608995  0.94415010  0.31359419  1
  Cu  Cu18  1  0.49548464  0.42327046  0.18653604  1
  Cu  Cu19  1  0.49890734  0.06622038  0.68936978  1
  Cu  Cu20  1  0.00246230  0.56606711  0.81094629  1
  Cu  Cu21  1  0.75000000  0.57752545  0.00909157  1
  Cu  Cu22  1  0.75000000  0.08290026  0.48634576  1
  Cu  Cu23  1  0.25000000  0.41900435  0.98451992  1
  Cu  Cu24  1  0.25000000  0.91892665  0.51646919  1
  Cu  Cu25  1  0.75000000  0.18532625  0.25794735  1
  Cu  Cu26  1  0.25000000  0.31569928  0.75660239  1
  Cu  Cu27  1  0.25000000  0.81656476  0.74196547  1
