# generated using pymatgen
data_Rb3I2Br
_symmetry_space_group_name_H-M   'P 1'
_cell_length_a   5.17357540
_cell_length_b   7.36631879
_cell_length_c   8.99674232
_cell_angle_alpha   114.16640307
_cell_angle_beta   106.70983499
_cell_angle_gamma   90.00000000
_symmetry_Int_Tables_number   1
_chemical_formula_structural   Rb3I2Br
_chemical_formula_sum   'Rb3 I2 Br1'
_cell_volume   296.87884164
_cell_formula_units_Z   1
loop_
 _symmetry_equiv_pos_site_id
 _symmetry_equiv_pos_as_xyz
  1  'x, y, z'
loop_
 _atom_site_type_symbol
 _atom_site_label
 _atom_site_symmetry_multiplicity
 _atom_site_fract_x
 _atom_site_fract_y
 _atom_site_fract_z
 _atom_site_occupancy
  Rb  Rb0  1  0.34571673  0.34571673  0.69143446  1
  Rb  Rb1  1  0.00000000  0.00000000  0.00000000  1
  Rb  Rb2  1  0.65428327  0.65428327  0.30856554  1
  I  I3  1  0.66884928  0.16884928  0.33769756  1
  I  I4  1  0.33115072  0.83115072  0.66230244  1
  Br  Br5  1  0.00000000  0.50000000  0.00000000  1
