# generated using pymatgen
data_Nd(SmSb)3
_symmetry_space_group_name_H-M   'P 1'
_cell_length_a   8.15253560
_cell_length_b   8.16468419
_cell_length_c   8.15299395
_cell_angle_alpha   70.53180435
_cell_angle_beta   70.57966831
_cell_angle_gamma   109.46592266
_symmetry_Int_Tables_number   1
_chemical_formula_structural   Nd(SmSb)3
_chemical_formula_sum   'Nd2 Sm6 Sb6'
_cell_volume   418.06538369
_cell_formula_units_Z   2
loop_
 _symmetry_equiv_pos_site_id
 _symmetry_equiv_pos_as_xyz
  1  'x, y, z'
loop_
 _atom_site_type_symbol
 _atom_site_label
 _atom_site_symmetry_multiplicity
 _atom_site_fract_x
 _atom_site_fract_y
 _atom_site_fract_z
 _atom_site_occupancy
  Nd  Nd0  1  0.85811930  0.35800237  0.14196601  1
  Nd  Nd1  1  0.50011693  0.64199763  0.99996838  1
  Sm  Sm2  1  0.50064065  0.14319152  0.99956116  1
  Sm  Sm3  1  0.64267565  0.50032028  0.49923807  1
  Sm  Sm4  1  0.00020414  0.00059047  0.35743724  1
  Sm  Sm5  1  0.35744913  0.85680848  0.64275267  1
  Sm  Sm6  1  0.14235536  0.49967972  0.49955835  1
  Sm  Sm7  1  0.99961367  0.99940953  0.85802770  1
  Sb  Sb8  1  0.37226590  0.24740192  0.37856848  1
  Sb  Sb9  1  0.12486398  0.75259808  0.12597040  1
  Sb  Sb10  1  0.87712242  0.62651174  0.74672063  1
  Sb  Sb11  1  0.62416968  0.87437720  0.25131067  1
  Sb  Sb12  1  0.74979249  0.12562280  0.62568787  1
  Sb  Sb13  1  0.25061068  0.37348826  0.87323237  1
