# generated using pymatgen
data_LiCuO2
_symmetry_space_group_name_H-M   'P 1'
_cell_length_a   2.96837857
_cell_length_b   2.96846564
_cell_length_c   5.09045012
_cell_angle_alpha   89.99889201
_cell_angle_beta   90.00152225
_cell_angle_gamma   119.99923259
_symmetry_Int_Tables_number   1
_chemical_formula_structural   LiCuO2
_chemical_formula_sum   'Li1 Cu1 O2'
_cell_volume   38.84556927
_cell_formula_units_Z   1
loop_
 _symmetry_equiv_pos_site_id
 _symmetry_equiv_pos_as_xyz
  1  'x, y, z'
loop_
 _atom_site_type_symbol
 _atom_site_label
 _atom_site_symmetry_multiplicity
 _atom_site_fract_x
 _atom_site_fract_y
 _atom_site_fract_z
 _atom_site_occupancy
  Li  Li0  1  0.66661430  0.33333183  0.59647541  1
  Cu  Cu1  1  0.99997288  0.99999259  0.02745692  1
  O  O2  1  0.33327941  0.66666040  0.79976301  1
  O  O3  1  0.66663342  0.33331518  0.22530466  1
