# generated using pymatgen
data_Nb3SnH2
_symmetry_space_group_name_H-M   'P 1'
_cell_length_a   5.45698142
_cell_length_b   5.45698142
_cell_length_c   5.46481360
_cell_angle_alpha   90.00000000
_cell_angle_beta   90.00000000
_cell_angle_gamma   90.20138522
_symmetry_Int_Tables_number   1
_chemical_formula_structural   Nb3SnH2
_chemical_formula_sum   'Nb6 Sn2 H4'
_cell_volume   162.73374545
_cell_formula_units_Z   2
loop_
 _symmetry_equiv_pos_site_id
 _symmetry_equiv_pos_as_xyz
  1  'x, y, z'
loop_
 _atom_site_type_symbol
 _atom_site_label
 _atom_site_symmetry_multiplicity
 _atom_site_fract_x
 _atom_site_fract_y
 _atom_site_fract_z
 _atom_site_occupancy
  Nb  Nb0  1  0.49316938  0.74604103  0.00000000  1
  Nb  Nb1  1  0.24604103  0.99316938  0.50000000  1
  Nb  Nb2  1  0.00627324  0.50627324  0.75000000  1
  Nb  Nb3  1  0.49430773  0.25257499  0.00000000  1
  Nb  Nb4  1  0.75257499  0.99430773  0.50000000  1
  Nb  Nb5  1  0.00627324  0.50627324  0.25000000  1
  Sn  Sn6  1  0.49913351  0.50124568  0.50000000  1
  Sn  Sn7  1  0.00124568  0.99913351  0.00000000  1
  H  H8  1  0.49969527  0.99969527  0.75000000  1
  H  H9  1  0.00028136  0.25130932  0.50000000  1
  H  H10  1  0.75130932  0.50028136  -0.00000000  1
  H  H11  1  0.49969527  0.99969527  0.25000000  1
