# generated using pymatgen
data_NaLi4(H2N)5
_symmetry_space_group_name_H-M   'P 1'
_cell_length_a   6.85727889
_cell_length_b   11.66524784
_cell_length_c   10.07549069
_cell_angle_alpha   83.30311287
_cell_angle_beta   95.19125665
_cell_angle_gamma   99.83090955
_symmetry_Int_Tables_number   1
_chemical_formula_structural   NaLi4(H2N)5
_chemical_formula_sum   'Na4 Li16 H40 N20'
_cell_volume   786.65075999
_cell_formula_units_Z   4
loop_
 _symmetry_equiv_pos_site_id
 _symmetry_equiv_pos_as_xyz
  1  'x, y, z'
loop_
 _atom_site_type_symbol
 _atom_site_label
 _atom_site_symmetry_multiplicity
 _atom_site_fract_x
 _atom_site_fract_y
 _atom_site_fract_z
 _atom_site_occupancy
  Na  Na0  1  0.15033801  0.94953235  0.65005553  1
  Na  Na1  1  0.95028992  0.35018005  0.45012630  1
  Na  Na2  1  0.74987590  0.74982234  0.24966714  1
  Na  Na3  1  0.55010487  0.15031652  0.04993095  1
  Li  Li4  1  0.08913012  0.79828431  0.10474553  1
  Li  Li5  1  0.67943751  0.59872173  0.70649025  1
  Li  Li6  1  0.28989093  0.39772404  0.30534264  1
  Li  Li7  1  0.88918623  0.19874923  0.90491667  1
  Li  Li8  1  0.48890430  0.99826471  0.50448496  1
  Li  Li9  1  0.41083592  0.70164728  0.39497427  1
  Li  Li10  1  0.01804012  0.50264346  0.99233155  1
  Li  Li11  1  0.61014607  0.30058017  0.59444102  1
  Li  Li12  1  0.21072759  0.10135157  0.19497629  1
  Li  Li13  1  0.81211936  0.90251295  0.79653020  1
  Li  Li14  1  0.59733023  0.79845376  0.60175905  1
  Li  Li15  1  0.20161691  0.60002781  0.19722022  1
  Li  Li16  1  0.80140024  0.40184543  0.80114210  1
  Li  Li17  1  0.39972737  0.19963651  0.39970408  1
  Li  Li18  1  0.00040363  0.99995601  0.00029377  1
  Li  Li19  1  0.34852645  0.55002284  0.85039853  1
  H  H20  1  0.22387364  0.83127412  0.43792546  1
  H  H21  1  0.82467209  0.63070254  0.03815165  1
  H  H22  1  0.42399304  0.43306316  0.64267635  1
  H  H23  1  0.02400520  0.23117288  0.23779941  1
  H  H24  1  0.62320161  0.03155491  0.83804557  1
  H  H25  1  0.07609588  0.92554455  0.29053113  1
  H  H26  1  0.66915933  0.72335866  0.89038514  1
  H  H27  1  0.27613015  0.52533252  0.48917383  1
  H  H28  1  0.87696185  0.32664640  0.09004277  1
  H  H29  1  0.47578530  0.12529604  0.69082308  1
  H  H30  1  0.60332334  0.44803100  0.38852328  1
  H  H31  1  0.20339742  0.24756441  0.98848398  1
  H  H32  1  0.80174858  0.04651228  0.58973551  1
  H  H33  1  0.40289687  0.84782783  0.18850197  1
  H  H34  1  0.00749272  0.64521930  0.78810737  1
  H  H35  1  0.69700226  0.59521533  0.48350576  1
  H  H36  1  0.30002861  0.39830743  0.07911721  1
  H  H37  1  0.89526335  0.19576797  0.68313867  1
  H  H38  1  0.49674845  0.99529569  0.28288772  1
  H  H39  1  0.09763736  0.79520963  0.88282775  1
  H  H40  1  0.65050141  0.96891754  0.98795392  1
  H  H41  1  0.44751915  0.36983006  0.79263735  1
  H  H42  1  0.25157797  0.76863614  0.58794123  1
  H  H43  1  0.05121547  0.16913660  0.38790444  1
  H  H44  1  0.85151493  0.56873413  0.18805786  1
  H  H45  1  0.46875189  0.76126265  0.81586647  1
  H  H46  1  0.27696887  0.16348460  0.61440909  1
  H  H47  1  0.07813915  0.56347661  0.41207606  1
  H  H48  1  0.87717480  0.96360003  0.21423727  1
  H  H49  1  0.67787497  0.36437858  0.01349549  1
  H  H50  1  0.43746874  0.74666694  0.10148340  1
  H  H51  1  0.23833338  0.14675314  0.90154854  1
  H  H52  1  0.04606106  0.54654092  0.69918503  1
  H  H53  1  0.83719538  0.94576859  0.50275689  1
  H  H54  1  0.63859177  0.34692704  0.30192031  1
  H  H55  1  0.23268635  0.92076793  0.89626856  1
  H  H56  1  0.03092558  0.32137310  0.69704760  1
  H  H57  1  0.83348918  0.72053021  0.49624101  1
  H  H58  1  0.63352345  0.12056734  0.29591520  1
  H  H59  1  0.43980436  0.52282082  0.09206282  1
  N  N60  1  0.32370828  0.83064789  0.52029969  1
  N  N61  1  0.92459302  0.63039983  0.12052683  1
  N  N62  1  0.51666439  0.43617261  0.72887328  1
  N  N63  1  0.12409111  0.23056761  0.32005579  1
  N  N64  1  0.72425838  0.02953070  0.91968996  1
  N  N65  1  0.00163087  0.93079647  0.19742528  1
  N  N66  1  0.58613539  0.72188930  0.80013777  1
  N  N67  1  0.20216663  0.52999789  0.39580456  1
  N  N68  1  0.80093745  0.32988383  0.99739935  1
  N  N69  1  0.40220907  0.13153139  0.59746294  1
  N  N70  1  0.58574918  0.35859294  0.39082684  1
  N  N71  1  0.18683884  0.15813962  0.99099195  1
  N  N72  1  0.78658667  0.95708963  0.59251568  1
  N  N73  1  0.38781084  0.75845090  0.19138492  1
  N  N74  1  0.00917473  0.55677632  0.79291492  1
  N  N75  1  0.68752432  0.68089244  0.49250072  1
  N  N76  1  0.29362430  0.48581997  0.07876169  1
  N  N77  1  0.88507941  0.28164273  0.69053654  1
  N  N78  1  0.48751803  0.08103821  0.29165595  1
  N  N79  1  0.08693249  0.88079701  0.89131210  1
