# generated using pymatgen
data_NaHf2TiF11
_symmetry_space_group_name_H-M   'P 1'
_cell_length_a   5.81517018
_cell_length_b   5.81517018
_cell_length_c   7.83393080
_cell_angle_alpha   67.94418692
_cell_angle_beta   67.94418692
_cell_angle_gamma   72.70118861
_symmetry_Int_Tables_number   1
_chemical_formula_structural   NaHf2TiF11
_chemical_formula_sum   'Na1 Hf2 Ti1 F11'
_cell_volume   223.75787315
_cell_formula_units_Z   1
loop_
 _symmetry_equiv_pos_site_id
 _symmetry_equiv_pos_as_xyz
  1  'x, y, z'
loop_
 _atom_site_type_symbol
 _atom_site_label
 _atom_site_symmetry_multiplicity
 _atom_site_fract_x
 _atom_site_fract_y
 _atom_site_fract_z
 _atom_site_occupancy
  Na  Na0  1  0.00596560  0.00596560  0.00021226  1
  Hf  Hf1  1  0.50804258  0.50804258  0.22895536  1
  Hf  Hf2  1  0.51124200  0.51124200  0.76250815  1
  Ti  Ti3  1  0.00982462  0.00982462  0.49779347  1
  F  F4  1  0.20786572  0.78260062  0.30551827  1
  F  F5  1  0.78260062  0.20786572  0.30551827  1
  F  F6  1  0.80591684  0.23074021  0.69125981  1
  F  F7  1  0.23074021  0.80591684  0.69125981  1
  F  F8  1  0.74342220  0.74342220  0.07489375  1
  F  F9  1  0.27537177  0.27537177  0.87687141  1
  F  F10  1  0.75639342  0.75639342  0.64351255  1
  F  F11  1  0.26242437  0.26242437  0.36105659  1
  F  F12  1  0.33469353  0.66886816  -0.00001569  1
  F  F13  1  0.66886816  0.33469353  -0.00001569  1
  F  F14  1  0.53652836  0.53652836  0.47957166  1
