# generated using pymatgen
data_NaTiFeO4
_symmetry_space_group_name_H-M   'P 1'
_cell_length_a   2.99259807
_cell_length_b   9.29817433
_cell_length_c   10.84654333
_cell_angle_alpha   90.00000000
_cell_angle_beta   90.00000000
_cell_angle_gamma   90.00000000
_symmetry_Int_Tables_number   1
_chemical_formula_structural   NaTiFeO4
_chemical_formula_sum   'Na4 Ti4 Fe4 O16'
_cell_volume   301.81264506
_cell_formula_units_Z   4
loop_
 _symmetry_equiv_pos_site_id
 _symmetry_equiv_pos_as_xyz
  1  'x, y, z'
loop_
 _atom_site_type_symbol
 _atom_site_label
 _atom_site_symmetry_multiplicity
 _atom_site_fract_x
 _atom_site_fract_y
 _atom_site_fract_z
 _atom_site_occupancy
  Na  Na0  1  0.75000000  0.25737815  0.84832887  1
  Na  Na1  1  0.75000000  0.75737815  0.65167113  1
  Na  Na2  1  0.25000000  0.74168351  0.15343049  1
  Na  Na3  1  0.25000000  0.24168351  0.34656951  1
  Ti  Ti4  1  0.25000000  0.58369005  0.89734347  1
  Ti  Ti5  1  0.25000000  0.08369005  0.60265653  1
  Ti  Ti6  1  0.25000000  0.56114680  0.38742417  1
  Ti  Ti7  1  0.25000000  0.06114680  0.11257583  1
  Fe  Fe8  1  0.75000000  0.41744176  0.10473838  1
  Fe  Fe9  1  0.75000000  0.91744176  0.39526162  1
  Fe  Fe10  1  0.75000000  0.43457897  0.61245470  1
  Fe  Fe11  1  0.75000000  0.93457897  0.88754530  1
  O  O12  1  0.75000000  0.52623152  0.78682387  1
  O  O13  1  0.75000000  0.02623152  0.71317613  1
  O  O14  1  0.25000000  0.47691408  0.22011044  1
  O  O15  1  0.25000000  0.97691408  0.27988956  1
  O  O16  1  0.75000000  0.19953514  0.14964744  1
  O  O17  1  0.75000000  0.69953514  0.35035256  1
  O  O18  1  0.25000000  0.79018377  0.85018501  1
  O  O19  1  0.25000000  0.29018377  0.64981499  1
  O  O20  1  0.75000000  0.61903962  0.01553837  1
  O  O21  1  0.75000000  0.11903962  0.48446163  1
  O  O22  1  0.25000000  0.39128247  0.97935425  1
  O  O23  1  0.25000000  0.89128247  0.52064575  1
  O  O24  1  0.75000000  0.42482139  0.42327583  1
  O  O25  1  0.75000000  0.92482139  0.07672417  1
  O  O26  1  0.25000000  0.57607275  0.56783196  1
  O  O27  1  0.25000000  0.07607275  0.93216804  1
