# generated using pymatgen
data_Nd(ScSi)4
_symmetry_space_group_name_H-M   'P 1'
_cell_length_a   7.11913295
_cell_length_b   7.34392703
_cell_length_c   13.93991233
_cell_angle_alpha   90.00000000
_cell_angle_beta   90.00000000
_cell_angle_gamma   90.00000000
_symmetry_Int_Tables_number   1
_chemical_formula_structural   Nd(ScSi)4
_chemical_formula_sum   'Nd4 Sc16 Si16'
_cell_volume   728.81197345
_cell_formula_units_Z   4
loop_
 _symmetry_equiv_pos_site_id
 _symmetry_equiv_pos_as_xyz
  1  'x, y, z'
loop_
 _atom_site_type_symbol
 _atom_site_label
 _atom_site_symmetry_multiplicity
 _atom_site_fract_x
 _atom_site_fract_y
 _atom_site_fract_z
 _atom_site_occupancy
  Nd  Nd0  1  0.48755403  0.67446414  0.40713325  1
  Nd  Nd1  1  0.98755403  0.82553586  0.09286675  1
  Nd  Nd2  1  0.51244597  0.32553586  0.90713325  1
  Nd  Nd3  1  0.01244597  0.17446414  0.59286675  1
  Sc  Sc4  1  0.17337230  0.67376399  0.87299348  1
  Sc  Sc5  1  0.67337230  0.82623601  0.62700652  1
  Sc  Sc6  1  0.82662770  0.32623601  0.37299348  1
  Sc  Sc7  1  0.32662770  0.17376399  0.12700652  1
  Sc  Sc8  1  0.83025480  0.32107068  0.12385350  1
  Sc  Sc9  1  0.33025480  0.17892932  0.37614650  1
  Sc  Sc10  1  0.16974520  0.67892932  0.62385350  1
  Sc  Sc11  1  0.66974520  0.82107068  0.87614650  1
  Sc  Sc12  1  0.34084831  0.00362283  0.75103440  1
  Sc  Sc13  1  0.84084831  0.49637717  0.74896560  1
  Sc  Sc14  1  0.65915169  0.99637717  0.25103440  1
  Sc  Sc15  1  0.15915169  0.50362283  0.24896560  1
  Sc  Sc16  1  0.52032765  0.31930781  0.60404699  1
  Sc  Sc17  1  0.02032765  0.18069219  0.89595301  1
  Sc  Sc18  1  0.47967235  0.68069219  0.10404699  1
  Sc  Sc19  1  0.97967235  0.81930781  0.39595301  1
  Si  Si20  1  0.33791930  0.96004821  0.96202602  1
  Si  Si21  1  0.83791930  0.53995179  0.53797398  1
  Si  Si22  1  0.66208070  0.03995179  0.46202602  1
  Si  Si23  1  0.16208070  0.46004821  0.03797398  1
  Si  Si24  1  0.64298705  0.02374879  0.04358631  1
  Si  Si25  1  0.14298705  0.47625121  0.45641369  1
  Si  Si26  1  0.35701295  0.97625121  0.54358631  1
  Si  Si27  1  0.85701295  0.52374879  0.95641369  1
  Si  Si28  1  0.21763224  0.37322504  0.74841314  1
  Si  Si29  1  0.71763224  0.12677496  0.75158686  1
  Si  Si30  1  0.78236776  0.62677496  0.24841314  1
  Si  Si31  1  0.28236776  0.87322504  0.25158686  1
  Si  Si32  1  0.46883240  0.61463007  0.74774517  1
  Si  Si33  1  0.96883240  0.88536993  0.75225483  1
  Si  Si34  1  0.53116760  0.38536993  0.24774517  1
  Si  Si35  1  0.03116760  0.11463007  0.25225483  1
