# generated using pymatgen
data_NaIn10CuS16
_symmetry_space_group_name_H-M   'P 1'
_cell_length_a   7.76450690
_cell_length_b   10.98842610
_cell_length_c   7.76114627
_cell_angle_alpha   90.00005766
_cell_angle_beta   89.98914337
_cell_angle_gamma   90.00001346
_symmetry_Int_Tables_number   1
_chemical_formula_structural   NaIn10CuS16
_chemical_formula_sum   'Na1 In10 Cu1 S16'
_cell_volume   662.17873871
_cell_formula_units_Z   1
loop_
 _symmetry_equiv_pos_site_id
 _symmetry_equiv_pos_as_xyz
  1  'x, y, z'
loop_
 _atom_site_type_symbol
 _atom_site_label
 _atom_site_symmetry_multiplicity
 _atom_site_fract_x
 _atom_site_fract_y
 _atom_site_fract_z
 _atom_site_occupancy
  Na  Na0  1  0.50000067  0.50000218  0.49999983  1
  In  In1  1  0.25707165  0.36242611  0.00000123  1
  In  In2  1  0.76830430  0.87490676  0.50002023  1
  In  In3  1  -0.00000095  0.63758810  0.74294658  1
  In  In4  1  0.49997959  0.12506838  0.23172071  1
  In  In5  1  0.00000144  0.63758834  0.25705352  1
  In  In6  1  0.50002063  0.12506872  0.76827953  1
  In  In7  1  0.74292823  0.36242607  -0.00000105  1
  In  In8  1  0.23169408  0.87490634  0.49998046  1
  In  In9  1  0.49999983  0.75245292  -0.00000012  1
  In  In10  1  0.00000041  0.24755039  0.49999994  1
  Cu  Cu11  1  0.99999939  -0.00004348  0.99999867  1
  S  S12  1  0.76674707  0.61437050  0.99999368  1
  S  S13  1  0.27024485  0.11652289  0.50000063  1
  S  S14  1  0.00000571  0.38564113  0.23325718  1
  S  S15  1  0.49999972  0.88347398  0.72976331  1
  S  S16  1  0.99999405  0.38564086  0.76674311  1
  S  S17  1  0.50000057  0.88347437  0.27023638  1
  S  S18  1  0.23325317  0.61437044  0.00000622  1
  S  S19  1  0.72975479  0.11652316  0.49999906  1
  S  S20  1  0.74940138  0.12309583  0.99991075  1
  S  S21  1  0.22745606  0.64088104  0.49999744  1
  S  S22  1  0.50000365  0.35914039  0.77252899  1
  S  S23  1  0.00009267  0.87690411  0.25067006  1
  S  S24  1  0.49999677  0.35913980  0.22747124  1
  S  S25  1  0.99990761  0.87690382  0.74932960  1
  S  S26  1  0.25059881  0.12309592  0.00009005  1
  S  S27  1  0.77254385  0.64088096  0.50000277  1
