# generated using pymatgen
data_Nb12Tl(Te3As)4
_symmetry_space_group_name_H-M   'P 1'
_cell_length_a   7.21713490
_cell_length_b   11.14372041
_cell_length_c   10.55022417
_cell_angle_alpha   118.26380816
_cell_angle_beta   90.00000000
_cell_angle_gamma   71.10585399
_symmetry_Int_Tables_number   1
_chemical_formula_structural   Nb12Tl(Te3As)4
_chemical_formula_sum   'Nb12 Tl1 Te12 As4'
_cell_volume   695.00523919
_cell_formula_units_Z   1
loop_
 _symmetry_equiv_pos_site_id
 _symmetry_equiv_pos_as_xyz
  1  'x, y, z'
loop_
 _atom_site_type_symbol
 _atom_site_label
 _atom_site_symmetry_multiplicity
 _atom_site_fract_x
 _atom_site_fract_y
 _atom_site_fract_z
 _atom_site_occupancy
  Nb  Nb0  1  0.37604600  0.49790799  0.62548883  1
  Nb  Nb1  1  0.87742307  0.49515386  0.62184162  1
  Nb  Nb2  1  0.56120042  0.12759915  0.50326262  1
  Nb  Nb3  1  0.06165657  0.12668687  0.50386364  1
  Nb  Nb4  1  0.43601202  0.37797595  0.87294512  1
  Nb  Nb5  1  0.93756604  0.37486791  0.87242567  1
  Nb  Nb6  1  0.62324722  0.50499585  0.37806371  1
  Nb  Nb7  1  0.12175693  0.50499585  0.37806371  1
  Nb  Nb8  1  0.43861909  0.87302816  0.49490453  1
  Nb  Nb9  1  0.93835275  0.87302816  0.49490453  1
  Nb  Nb10  1  0.56358854  0.62190616  0.12707780  1
  Nb  Nb11  1  0.06450529  0.62190616  0.12707780  1
  Tl  Tl12  1  0.62499059  0.00001883  0.99997760  1
  Te  Te13  1  0.98582883  0.27834234  0.33006674  1
  Te  Te14  1  0.48401517  0.28196967  0.33511125  1
  Te  Te15  1  0.09894947  0.05210106  0.72108489  1
  Te  Te16  1  0.59859745  0.05280510  0.71869344  1
  Te  Te17  1  0.79227953  0.66544095  0.94723780  1
  Te  Te18  1  0.29009057  0.66981887  0.94842994  1
  Te  Te19  1  0.01359021  0.72207261  0.67011084  1
  Te  Te20  1  0.51433718  0.72207261  0.67011084  1
  Te  Te21  1  0.90133185  0.94793370  0.27787086  1
  Te  Te22  1  0.40073444  0.94793370  0.27787086  1
  Te  Te23  1  0.21060889  0.32973954  0.05177150  1
  Te  Te24  1  0.70965157  0.32973954  0.05177150  1
  As  As25  1  0.79175136  0.66649728  0.33312601  1
  As  As26  1  0.29181132  0.66637737  0.33350967  1
  As  As27  1  0.20803997  0.33354239  0.66666834  1
  As  As28  1  0.70841764  0.33354239  0.66666834  1
