# generated using pymatgen
data_Ni31Bi32
_symmetry_space_group_name_H-M   'P 1'
_cell_length_a   8.22941028
_cell_length_b   8.22941028
_cell_length_c   21.46022242
_cell_angle_alpha   90.05677269
_cell_angle_beta   89.94322731
_cell_angle_gamma   119.81369613
_symmetry_Int_Tables_number   1
_chemical_formula_structural   Ni31Bi32
_chemical_formula_sum   'Ni31 Bi32'
_cell_volume   1260.99756412
_cell_formula_units_Z   1
loop_
 _symmetry_equiv_pos_site_id
 _symmetry_equiv_pos_as_xyz
  1  'x, y, z'
loop_
 _atom_site_type_symbol
 _atom_site_label
 _atom_site_symmetry_multiplicity
 _atom_site_fract_x
 _atom_site_fract_y
 _atom_site_fract_z
 _atom_site_occupancy
  Ni  Ni0  1  0.50257024  0.49742976  0.37625452  1
  Ni  Ni1  1  0.00458909  0.99541091  0.87672686  1
  Ni  Ni2  1  0.99555743  0.00444257  0.12231809  1
  Ni  Ni3  1  0.49563083  0.50436917  0.62333887  1
  Ni  Ni4  1  0.49520481  0.50479519  0.25300001  1
  Ni  Ni5  1  0.99716804  0.00283196  0.75235819  1
  Ni  Ni6  1  0.00218729  0.99781271  0.24149129  1
  Ni  Ni7  1  0.50298283  0.49701717  0.74776379  1
  Ni  Ni8  1  0.49994250  0.99961974  0.00003464  1
  Ni  Ni9  1  0.99917748  0.49950971  0.49999235  1
  Ni  Ni10  1  0.00038026  0.50005750  0.00003464  1
  Ni  Ni11  1  0.50049029  0.00082252  0.49999235  1
  Ni  Ni12  1  0.00005681  0.99994319  0.00020431  1
  Ni  Ni13  1  0.50080334  0.49919666  0.50018483  1
  Ni  Ni14  1  0.66700885  0.33299115  0.43872173  1
  Ni  Ni15  1  0.16682407  0.83317593  0.94022209  1
  Ni  Ni16  1  0.83286770  0.16713230  0.05930536  1
  Ni  Ni17  1  0.33314040  0.66685960  0.56168075  1
  Ni  Ni18  1  0.99436717  0.49581536  0.37533799  1
  Ni  Ni19  1  0.49014998  0.99389270  0.87630706  1
  Ni  Ni20  1  0.99387915  0.48990625  0.12364760  1
  Ni  Ni21  1  0.49369687  0.99025052  0.62364542  1
  Ni  Ni22  1  0.50418464  0.00563283  0.37533799  1
  Ni  Ni23  1  0.00610730  0.50985002  0.87630706  1
  Ni  Ni24  1  0.51009375  0.00612085  0.12364760  1
  Ni  Ni25  1  0.00974948  0.50630313  0.62364542  1
  Ni  Ni26  1  0.01218553  0.51092090  0.25089725  1
  Ni  Ni27  1  0.50863281  0.00929094  0.74980392  1
  Ni  Ni28  1  0.48907910  0.98781447  0.25089725  1
  Ni  Ni29  1  0.99070906  0.49136719  0.74980392  1
  Ni  Ni30  1  0.33261774  0.66738226  0.31212409  1
  Bi  Bi31  1  0.84861748  0.15138252  0.43846180  1
  Bi  Bi32  1  0.34862106  0.65137894  0.93682220  1
  Bi  Bi33  1  0.65121210  0.34878790  0.06234192  1
  Bi  Bi34  1  0.15086273  0.84913727  0.56427963  1
  Bi  Bi35  1  0.15210178  0.84789822  0.31342913  1
  Bi  Bi36  1  0.66447375  0.33552625  0.81103860  1
  Bi  Bi37  1  0.33668689  0.66331311  0.18533604  1
  Bi  Bi38  1  0.83580860  0.16419140  0.68918923  1
  Bi  Bi39  1  0.33347680  0.66652320  0.43820681  1
  Bi  Bi40  1  0.83307861  0.16692139  0.93432785  1
  Bi  Bi41  1  0.16687755  0.83312245  0.06482865  1
  Bi  Bi42  1  0.66691455  0.33308545  0.56557021  1
  Bi  Bi43  1  0.84613518  0.69498594  0.43870000  1
  Bi  Bi44  1  0.34568894  0.19492646  0.93704466  1
  Bi  Bi45  1  0.19483509  0.34488142  0.06162797  1
  Bi  Bi46  1  0.69618405  0.84664160  0.56386118  1
  Bi  Bi47  1  0.30501406  0.15386482  0.43870000  1
  Bi  Bi48  1  0.80507354  0.65431106  0.93704466  1
  Bi  Bi49  1  0.65511858  0.80516491  0.06162797  1
  Bi  Bi50  1  0.15335840  0.30381595  0.56386118  1
  Bi  Bi51  1  0.66684965  0.33315035  0.31088444  1
  Bi  Bi52  1  0.16679481  0.83320519  0.81088439  1
  Bi  Bi53  1  0.83137599  0.16862401  0.18882071  1
  Bi  Bi54  1  0.33305691  0.66694309  0.68983374  1
  Bi  Bi55  1  0.15378831  0.30511586  0.31526448  1
  Bi  Bi56  1  0.66469679  0.82678074  0.81289905  1
  Bi  Bi57  1  0.82465477  0.66009500  0.18665598  1
  Bi  Bi58  1  0.32610492  0.16470511  0.68735538  1
  Bi  Bi59  1  0.69488414  0.84621169  0.31526448  1
  Bi  Bi60  1  0.17321926  0.33530321  0.81289905  1
  Bi  Bi61  1  0.33990500  0.17534523  0.18665598  1
  Bi  Bi62  1  0.83529489  0.67389508  0.68735538  1
