# generated using pymatgen
data_Na4Co(MoO4)3
_symmetry_space_group_name_H-M   'P 1'
_cell_length_a   7.28009151
_cell_length_b   9.40094334
_cell_length_c   9.40094334
_cell_angle_alpha   94.15565945
_cell_angle_beta   105.07202951
_cell_angle_gamma   105.07202951
_symmetry_Int_Tables_number   1
_chemical_formula_structural   Na4Co(MoO4)3
_chemical_formula_sum   'Na8 Co2 Mo6 O24'
_cell_volume   593.08391244
_cell_formula_units_Z   2
loop_
 _symmetry_equiv_pos_site_id
 _symmetry_equiv_pos_as_xyz
  1  'x, y, z'
loop_
 _atom_site_type_symbol
 _atom_site_label
 _atom_site_symmetry_multiplicity
 _atom_site_fract_x
 _atom_site_fract_y
 _atom_site_fract_z
 _atom_site_occupancy
  Na  Na0  1  0.75000000  0.50985507  0.49014493  1
  Na  Na1  1  0.25000000  0.48943165  0.51056835  1
  Na  Na2  1  0.50028493  0.00105121  0.99780315  1
  Na  Na3  1  0.99971507  0.00219685  0.99894879  1
  Na  Na4  1  0.75000000  0.23439783  0.76560217  1
  Na  Na5  1  0.25000000  0.76456521  0.23543479  1
  Na  Na6  1  0.12408958  0.87048122  0.55602814  1
  Na  Na7  1  0.37591042  0.44397186  0.12951878  1
  Co  Co8  1  0.87494953  0.12033265  0.44830579  1
  Co  Co9  1  0.62505047  0.55169421  0.87966735  1
  Mo  Mo10  1  0.25000000  0.21966716  0.78033284  1
  Mo  Mo11  1  0.75000000  0.78571219  0.21428781  1
  Mo  Mo12  1  0.12088141  0.62126738  0.84072320  1
  Mo  Mo13  1  0.37911859  0.15927680  0.37873262  1
  Mo  Mo14  1  0.87501105  0.37399335  0.15910019  1
  Mo  Mo15  1  0.62498895  0.84089981  0.62600665  1
  O  O16  1  0.02314098  0.24244243  0.65410701  1
  O  O17  1  0.47685902  0.34589299  0.75755757  1
  O  O18  1  0.96295156  0.74065689  0.32016269  1
  O  O19  1  0.53704844  0.67983731  0.25934311  1
  O  O20  1  0.88536446  0.50337320  0.85084825  1
  O  O21  1  0.61463554  0.14915175  0.49662680  1
  O  O22  1  0.10746826  0.50158814  0.16758708  1
  O  O23  1  0.39253174  0.83241292  0.49841186  1
  O  O24  1  0.08452068  0.64335870  0.64777439  1
  O  O25  1  0.41547932  0.35222561  0.35664130  1
  O  O26  1  0.89171411  0.33227465  0.34895483  1
  O  O27  1  0.60828589  0.65104517  0.66772535  1
  O  O28  1  0.32464363  0.54086194  0.89143244  1
  O  O29  1  0.17535637  0.10856756  0.45913806  1
  O  O30  1  0.67836496  0.45837011  0.08898893  1
  O  O31  1  0.82163504  0.91101107  0.54162989  1
  O  O32  1  0.18881596  0.79584089  0.95834576  1
  O  O33  1  0.31118404  0.04165424  0.20415911  1
  O  O34  1  0.82401271  0.20694795  0.03533907  1
  O  O35  1  0.67598729  0.96466093  0.79305205  1
  O  O36  1  0.28038820  0.03906627  0.76540281  1
  O  O37  1  0.21961180  0.23459719  0.96093373  1
  O  O38  1  0.76699759  0.98275150  0.24738385  1
  O  O39  1  0.73300241  0.75261615  0.01724850  1
