# generated using pymatgen
data_Nd2CoNiO6
_symmetry_space_group_name_H-M   'P 1'
_cell_length_a   5.61993401
_cell_length_b   7.68468324
_cell_length_c   5.42834654
_cell_angle_alpha   90.15984501
_cell_angle_beta   90.00000000
_cell_angle_gamma   90.00000000
_symmetry_Int_Tables_number   1
_chemical_formula_structural   Nd2CoNiO6
_chemical_formula_sum   'Nd4 Co2 Ni2 O12'
_cell_volume   234.43532971
_cell_formula_units_Z   2
loop_
 _symmetry_equiv_pos_site_id
 _symmetry_equiv_pos_as_xyz
  1  'x, y, z'
loop_
 _atom_site_type_symbol
 _atom_site_label
 _atom_site_symmetry_multiplicity
 _atom_site_fract_x
 _atom_site_fract_y
 _atom_site_fract_z
 _atom_site_occupancy
  Nd  Nd0  1  0.55541850  0.24959878  0.51363770  1
  Nd  Nd1  1  0.05541850  0.25040122  0.98636230  1
  Nd  Nd2  1  0.44458150  0.75040122  0.48636230  1
  Nd  Nd3  1  0.94458150  0.74959878  0.01363770  1
  Co  Co4  1  0.50000000  0.00000000  0.00000000  1
  Co  Co5  1  0.00000000  0.50000000  0.50000000  1
  Ni  Ni6  1  0.50000000  0.50000000  0.00000000  1
  Ni  Ni7  1  0.00000000  0.00000000  0.50000000  1
  O  O8  1  0.79207159  0.04583668  0.79179341  1
  O  O9  1  0.29207159  0.45416332  0.70820659  1
  O  O10  1  0.20004990  0.54246797  0.21846266  1
  O  O11  1  0.70004990  0.95753203  0.28153734  1
  O  O12  1  0.20792841  0.95416332  0.20820659  1
  O  O13  1  0.70792841  0.54583668  0.29179341  1
  O  O14  1  0.79995010  0.45753203  0.78153734  1
  O  O15  1  0.29995010  0.04246797  0.71846266  1
  O  O16  1  0.97961614  0.25675016  0.41789280  1
  O  O17  1  0.47961614  0.24324984  0.08210720  1
  O  O18  1  0.02038386  0.74324984  0.58210720  1
  O  O19  1  0.52038386  0.75675016  0.91789280  1
