# generated using pymatgen
data_Na3YSi2O7
_symmetry_space_group_name_H-M   'P 1'
_cell_length_a   9.51144612
_cell_length_b   9.51144592
_cell_length_c   13.93651265
_cell_angle_alpha   90.00000000
_cell_angle_beta   90.00000000
_cell_angle_gamma   119.99954147
_symmetry_Int_Tables_number   1
_chemical_formula_structural   Na3YSi2O7
_chemical_formula_sum   'Na18 Y6 Si12 O42'
_cell_volume   1091.89240877
_cell_formula_units_Z   6
loop_
 _symmetry_equiv_pos_site_id
 _symmetry_equiv_pos_as_xyz
  1  'x, y, z'
loop_
 _atom_site_type_symbol
 _atom_site_label
 _atom_site_symmetry_multiplicity
 _atom_site_fract_x
 _atom_site_fract_y
 _atom_site_fract_z
 _atom_site_occupancy
  Na  Na0  1  0.33338881  0.66669350  0.25006477  1
  Na  Na1  1  0.66661119  0.33330650  0.75006477  1
  Na  Na2  1  0.99999936  0.99999958  0.00004859  1
  Na  Na3  1  0.00000064  0.00000042  0.50004859  1
  Na  Na4  1  0.33338182  0.66669203  0.77037983  1
  Na  Na5  1  0.66661818  0.33330797  0.27037983  1
  Na  Na6  1  0.01519192  0.68520961  0.08757439  1
  Na  Na7  1  0.31478484  0.32997947  0.08757573  1
  Na  Na8  1  0.67002896  0.98481507  0.08757645  1
  Na  Na9  1  0.98480808  0.31479039  0.58757439  1
  Na  Na10  1  0.68521516  0.67002053  0.58757573  1
  Na  Na11  1  0.32997104  0.01518493  0.58757645  1
  Na  Na12  1  0.98430625  0.31443272  0.91262684  1
  Na  Na13  1  0.68557634  0.66987744  0.91262492  1
  Na  Na14  1  0.33011387  0.01568748  0.91262382  1
  Na  Na15  1  0.01569375  0.68556728  0.41262684  1
  Na  Na16  1  0.31442366  0.33012256  0.41262492  1
  Na  Na17  1  0.66988613  0.98431252  0.41262382  1
  Y  Y18  1  0.66664912  0.33332397  0.51981240  1
  Y  Y19  1  0.33335088  0.66667603  0.01981240  1
  Y  Y20  1  0.33335073  0.66667587  0.48215469  1
  Y  Y21  1  0.66664927  0.33332413  0.98215469  1
  Y  Y22  1  0.99999989  0.99999723  0.74983304  1
  Y  Y23  1  0.00000011  0.00000277  0.24983304  1
  Si  Si24  1  0.01895452  0.67224402  0.64079468  1
  Si  Si25  1  0.32774817  0.34670635  0.64079595  1
  Si  Si26  1  0.65329743  0.98104870  0.64079666  1
  Si  Si27  1  0.98104548  0.32775598  0.14079468  1
  Si  Si28  1  0.67225183  0.65329365  0.14079595  1
  Si  Si29  1  0.34670257  0.01895130  0.14079666  1
  Si  Si30  1  0.98198781  0.32797201  0.35911792  1
  Si  Si31  1  0.67203578  0.65402076  0.35911667  1
  Si  Si32  1  0.34597543  0.01800775  0.35911580  1
  Si  Si33  1  0.01801219  0.67202799  0.85911792  1
  Si  Si34  1  0.32796422  0.34597924  0.85911667  1
  Si  Si35  1  0.65402457  0.98199225  0.85911580  1
  O  O36  1  0.51498795  0.39148024  0.62080979  1
  O  O37  1  0.60851417  0.12350802  0.62080867  1
  O  O38  1  0.87648293  0.48500696  0.62080560  1
  O  O39  1  0.48501205  0.60851976  0.12080979  1
  O  O40  1  0.39148583  0.87649198  0.12080867  1
  O  O41  1  0.12351707  0.51499304  0.12080560  1
  O  O42  1  0.48491892  0.60840682  0.37922112  1
  O  O43  1  0.39159934  0.87651181  0.37922227  1
  O  O44  1  0.12349738  0.51508656  0.37922506  1
  O  O45  1  0.51508108  0.39159318  0.87922112  1
  O  O46  1  0.60840066  0.12348819  0.87922227  1
  O  O47  1  0.87650262  0.48491344  0.87922506  1
  O  O48  1  0.17184585  0.73079244  0.93337739  1
  O  O49  1  0.26921137  0.44105364  0.93337810  1
  O  O50  1  0.55895600  0.82816057  0.93337439  1
  O  O51  1  0.82815415  0.26920756  0.43337739  1
  O  O52  1  0.73078863  0.55894636  0.43337810  1
  O  O53  1  0.44104400  0.17183943  0.43337439  1
  O  O54  1  0.82903216  0.26884987  0.06578817  1
  O  O55  1  0.73114663  0.56018112  0.06578725  1
  O  O56  1  0.43980852  0.17096200  0.06579039  1
  O  O57  1  0.17096784  0.73115013  0.56578817  1
  O  O58  1  0.26885337  0.43981888  0.56578725  1
  O  O59  1  0.56019148  0.82903800  0.56579039  1
  O  O60  1  0.95179333  0.80091246  0.86116370  1
  O  O61  1  0.19908802  0.15087962  0.86116383  1
  O  O62  1  0.84912204  0.04820875  0.86116380  1
  O  O63  1  0.04820667  0.19908754  0.36116370  1
  O  O64  1  0.80091198  0.84912038  0.36116383  1
  O  O65  1  0.15087796  0.95179125  0.36116380  1
  O  O66  1  0.04821380  0.19936668  0.13900561  1
  O  O67  1  0.80063233  0.84884815  0.13900537  1
  O  O68  1  0.15115001  0.95178460  0.13900583  1
  O  O69  1  0.95178620  0.80063332  0.63900561  1
  O  O70  1  0.19936767  0.15115185  0.63900537  1
  O  O71  1  0.84884999  0.04821540  0.63900583  1
  O  O72  1  0.09923733  0.68093279  0.75009023  1
  O  O73  1  0.31906871  0.41830309  0.75009030  1
  O  O74  1  0.58170185  0.90076921  0.75008996  1
  O  O75  1  0.90076267  0.31906721  0.25009023  1
  O  O76  1  0.68093129  0.58169691  0.25009030  1
  O  O77  1  0.41829815  0.09923079  0.25008996  1
