# generated using pymatgen
data_MnZn4Se5
_symmetry_space_group_name_H-M   'P 1'
_cell_length_a   4.08723351
_cell_length_b   4.08723351
_cell_length_c   16.82528557
_cell_angle_alpha   90.00000000
_cell_angle_beta   96.97642864
_cell_angle_gamma   120.00000000
_symmetry_Int_Tables_number   1
_chemical_formula_structural   MnZn4Se5
_chemical_formula_sum   'Mn1 Zn4 Se5'
_cell_volume   241.01165303
_cell_formula_units_Z   1
loop_
 _symmetry_equiv_pos_site_id
 _symmetry_equiv_pos_as_xyz
  1  'x, y, z'
loop_
 _atom_site_type_symbol
 _atom_site_label
 _atom_site_symmetry_multiplicity
 _atom_site_fract_x
 _atom_site_fract_y
 _atom_site_fract_z
 _atom_site_occupancy
  Mn  Mn0  1  0.29969687  0.64984843  0.94954530  1
  Zn  Zn1  1  0.10047578  0.05023789  0.15071367  1
  Zn  Zn2  1  0.89999804  0.44999902  0.34999705  1
  Zn  Zn3  1  0.70000196  0.85000098  0.55000294  1
  Zn  Zn4  1  0.49948892  0.24974446  0.74923338  1
  Se  Se5  1  0.00163963  0.00081982  0.00245945  1
  Se  Se6  1  0.80009906  0.40004953  0.20014858  1
  Se  Se7  1  0.60004845  0.80002422  0.40007267  1
  Se  Se8  1  0.39982618  0.19991309  0.59973927  1
  Se  Se9  1  0.19872512  0.59936256  0.79808768  1
