# generated using pymatgen
data_Na3Th6ZnF29
_symmetry_space_group_name_H-M   'P 1'
_cell_length_a   10.07524770
_cell_length_b   10.14787340
_cell_length_c   13.32374117
_cell_angle_alpha   90.49791077
_cell_angle_beta   90.00015196
_cell_angle_gamma   60.23639126
_symmetry_Int_Tables_number   1
_chemical_formula_structural   Na3Th6ZnF29
_chemical_formula_sum   'Na6 Th12 Zn2 F58'
_cell_volume   1182.48440120
_cell_formula_units_Z   2
loop_
 _symmetry_equiv_pos_site_id
 _symmetry_equiv_pos_as_xyz
  1  'x, y, z'
loop_
 _atom_site_type_symbol
 _atom_site_label
 _atom_site_symmetry_multiplicity
 _atom_site_fract_x
 _atom_site_fract_y
 _atom_site_fract_z
 _atom_site_occupancy
  Na  Na0  1  0.99467994  0.01198182  0.26736522  1
  Na  Na1  1  0.00665798  0.98801590  0.73263687  1
  Na  Na2  1  0.66587262  0.67044045  0.59014023  1
  Na  Na3  1  0.33630891  0.32956175  0.40986177  1
  Na  Na4  1  0.66585901  0.66517828  0.08972057  1
  Na  Na5  1  0.33103378  0.33481948  0.91027954  1
  Th  Th6  1  0.07452009  0.58634902  0.15087720  1
  Th  Th7  1  0.32817852  0.07062226  0.14913997  1
  Th  Th8  1  0.60073327  0.32335568  0.14678197  1
  Th  Th9  1  0.39878687  0.92937002  0.85087180  1
  Th  Th10  1  0.66086522  0.41365866  0.84913566  1
  Th  Th11  1  0.92405459  0.67664319  0.85320063  1
  Th  Th12  1  0.31945726  0.60265942  0.64348486  1
  Th  Th13  1  0.07497643  0.32263207  0.64998920  1
  Th  Th14  1  0.60210582  0.07608271  0.64828246  1
  Th  Th15  1  0.39758079  0.67738288  0.34998835  1
  Th  Th16  1  0.92211353  0.39734055  0.35650842  1
  Th  Th17  1  0.67819599  0.92389135  0.35171010  1
  Zn  Zn18  1  0.00424019  0.00000167  0.00000014  1
  Zn  Zn19  1  0.99990681  0.99999891  0.50000018  1
  F  F20  1  0.43806873  0.86844822  0.03191152  1
  F  F21  1  0.70496167  0.42746307  0.02818797  1
  F  F22  1  0.86939118  0.69025875  0.03509647  1
  F  F23  1  0.13242366  0.57253951  0.97181052  1
  F  F24  1  0.30651665  0.13155062  0.96809121  1
  F  F25  1  0.55963893  0.30975228  0.96490505  1
  F  F26  1  0.30309515  0.56246015  0.46272207  1
  F  F27  1  0.12968283  0.30875300  0.46785115  1
  F  F28  1  0.56222370  0.13035224  0.46658647  1
  F  F29  1  0.43844226  0.69124574  0.53215046  1
  F  F30  1  0.86555836  0.43753654  0.53728050  1
  F  F31  1  0.69257464  0.86964711  0.53341570  1
  F  F32  1  0.58798498  0.87889413  0.19680719  1
  F  F33  1  0.53656030  0.58190131  0.19488661  1
  F  F34  1  0.88217337  0.52978513  0.19845412  1
  F  F35  1  0.11846088  0.41809586  0.80511694  1
  F  F36  1  0.46687658  0.12110211  0.80319441  1
  F  F37  1  0.41196155  0.47021350  0.80154462  1
  F  F38  1  0.31288107  0.87820420  0.23043981  1
  F  F39  1  0.80899256  0.30925306  0.23204364  1
  F  F40  1  0.88821299  0.81165268  0.22155653  1
  F  F41  1  0.11824695  0.69074752  0.76795546  1
  F  F42  1  0.19108498  0.12179567  0.76956219  1
  F  F43  1  0.69986245  0.18835053  0.77844522  1
  F  F44  1  0.89344652  0.92319170  0.40542567  1
  F  F45  1  0.18291563  0.88999959  0.40588591  1
  F  F46  1  0.92264574  0.18322714  0.40828888  1
  F  F47  1  0.07291688  0.10999625  0.59411653  1
  F  F48  1  0.81664343  0.07680342  0.59457554  1
  F  F49  1  0.10587477  0.81677060  0.59171142  1
  F  F50  1  0.51295588  0.82599299  0.38396761  1
  F  F51  1  0.65774961  0.51356865  0.38635393  1
  F  F52  1  0.82906432  0.66031458  0.38241736  1
  F  F53  1  0.17132656  0.48642893  0.61364809  1
  F  F54  1  0.33895264  0.17400461  0.61603313  1
  F  F55  1  0.48938427  0.33968419  0.61758253  1
  F  F56  1  0.33926926  0.48545902  0.11243799  1
  F  F57  1  0.16891281  0.33555335  0.11192395  1
  F  F58  1  0.48706355  0.17250378  0.11380093  1
  F  F59  1  0.50446498  0.66444352  0.88807865  1
  F  F60  1  0.82473161  0.51454810  0.88756076  1
  F  F61  1  0.65956674  0.82749808  0.88619921  1
  F  F62  1  0.12248486  0.46482438  0.30262867  1
  F  F63  1  0.41642058  0.11629782  0.30225222  1
  F  F64  1  0.46283175  0.41655090  0.29927758  1
  F  F65  1  0.53271416  0.88370779  0.69775078  1
  F  F66  1  0.58731150  0.53518059  0.69737389  1
  F  F67  1  0.87938969  0.58344993  0.70072052  1
  F  F68  1  0.18595288  0.70196877  0.24743243  1
  F  F69  1  0.11891484  0.19258305  0.26660271  1
  F  F70  1  0.69237097  0.11776144  0.26291129  1
  F  F71  1  0.31149802  0.80741681  0.73339844  1
  F  F72  1  0.88792617  0.29802897  0.75256738  1
  F  F73  1  0.81012661  0.88224699  0.73708547  1
  F  F74  1  0.10833279  0.06080487  0.09535694  1
  F  F75  1  0.82054416  0.10801787  0.07947777  1
  F  F76  1  0.16913687  0.93919165  0.90464814  1
  F  F77  1  0.92855489  0.89199067  0.92051673  1
