# generated using pymatgen
data_Mo2SeS3
_symmetry_space_group_name_H-M   'P 1'
_cell_length_a   3.22174408
_cell_length_b   3.22174495
_cell_length_c   14.16312724
_cell_angle_alpha   90.00000000
_cell_angle_beta   89.99782721
_cell_angle_gamma   60.00000064
_symmetry_Int_Tables_number   1
_chemical_formula_structural   Mo2SeS3
_chemical_formula_sum   'Mo2 Se1 S3'
_cell_volume   127.31277564
_cell_formula_units_Z   1
loop_
 _symmetry_equiv_pos_site_id
 _symmetry_equiv_pos_as_xyz
  1  'x, y, z'
loop_
 _atom_site_type_symbol
 _atom_site_label
 _atom_site_symmetry_multiplicity
 _atom_site_fract_x
 _atom_site_fract_y
 _atom_site_fract_z
 _atom_site_occupancy
  Mo  Mo0  1  0.33328402  0.33335799  0.74840477  1
  Mo  Mo1  1  0.66670628  0.66664686  0.25584664  1
  Se  Se2  1  0.33341979  0.33329011  0.13437056  1
  S  S3  1  0.66659665  0.66670168  0.85823583  1
  S  S4  1  0.66665921  0.66667040  0.63856644  1
  S  S5  1  0.33333406  0.33333297  0.36457575  1
