# generated using pymatgen
data_Na2Zr4As3(PO8)3
_symmetry_space_group_name_H-M   'P 1'
_cell_length_a   9.13538591
_cell_length_b   9.13538619
_cell_length_c   9.41243334
_cell_angle_alpha   90.00000000
_cell_angle_beta   60.96899172
_cell_angle_gamma   120.00000104
_symmetry_Int_Tables_number   1
_chemical_formula_structural   Na2Zr4As3(PO8)3
_chemical_formula_sum   'Na2 Zr4 As3 P3 O24'
_cell_volume   563.44123096
_cell_formula_units_Z   1
loop_
 _symmetry_equiv_pos_site_id
 _symmetry_equiv_pos_as_xyz
  1  'x, y, z'
loop_
 _atom_site_type_symbol
 _atom_site_label
 _atom_site_symmetry_multiplicity
 _atom_site_fract_x
 _atom_site_fract_y
 _atom_site_fract_z
 _atom_site_occupancy
  Na  Na0  1  0.99701844  0.49850922  0.50447234  1
  Na  Na1  1  0.00298156  0.00149078  0.99552766  1
  Zr  Zr2  1  0.28132512  0.64066256  0.07801232  1
  Zr  Zr3  1  0.29613956  0.14806978  0.55579066  1
  Zr  Zr4  1  0.70386044  0.35193022  0.94420934  1
  Zr  Zr5  1  0.71867488  0.85933744  0.42198768  1
  As  As6  1  0.50000000  0.03937590  0.75000000  1
  As  As7  1  0.78937590  0.75000000  0.75000000  1
  As  As8  1  0.21062410  0.46062410  0.75000000  1
  P  P9  1  0.20991954  0.25000000  0.25000000  1
  P  P10  1  0.79008046  0.54008046  0.25000000  1
  P  P11  1  0.50000000  0.95991954  0.25000000  1
  O  O12  1  0.34437946  0.78431838  0.24342065  1
  O  O13  1  0.19651827  0.41219989  0.24342065  1
  O  O14  1  0.97226097  0.56006108  0.24342065  1
  O  O15  1  0.99063544  0.92860917  0.74113177  1
  O  O16  1  0.19684196  0.26823279  0.74113177  1
  O  O17  1  0.33025906  0.06202627  0.74113177  1
  O  O18  1  0.66974094  0.23176721  0.75886823  1
  O  O19  1  0.80315804  0.57139083  0.75886823  1
  O  O20  1  0.00936456  0.43797373  0.75886823  1
  O  O21  1  0.02773903  0.08780011  0.25657935  1
  O  O22  1  0.80348173  0.71568162  0.25657935  1
  O  O23  1  0.65562054  0.93993892  0.25657935  1
  O  O24  1  0.35968564  0.86664193  0.93119259  1
  O  O25  1  0.57576370  0.70912177  0.93119259  1
  O  O26  1  0.20216548  0.49304372  0.93119259  1
  O  O27  1  0.20867399  0.20991808  0.41088802  1
  O  O28  1  0.59035607  0.38043799  0.41088802  1
  O  O29  1  0.37919390  0.99875591  0.41088802  1
  O  O30  1  0.62080610  0.11956201  0.08911198  1
  O  O31  1  0.40964393  0.29008192  0.08911198  1
  O  O32  1  0.79132601  0.50124409  0.08911198  1
  O  O33  1  0.79783452  0.79087823  0.56880741  1
  O  O34  1  0.42423630  0.63335807  0.56880741  1
  O  O35  1  0.64031436  0.00695628  0.56880741  1
