# generated using pymatgen
data_Na2Ca2(SiO3)3
_symmetry_space_group_name_H-M   'P 1'
_cell_length_a   10.56631655
_cell_length_b   10.59885237
_cell_length_c   13.30743666
_cell_angle_alpha   89.71985635
_cell_angle_beta   90.00002813
_cell_angle_gamma   60.10143062
_symmetry_Int_Tables_number   1
_chemical_formula_structural   Na2Ca2(SiO3)3
_chemical_formula_sum   'Na12 Ca12 Si18 O54'
_cell_volume   1291.94364312
_cell_formula_units_Z   6
loop_
 _symmetry_equiv_pos_site_id
 _symmetry_equiv_pos_as_xyz
  1  'x, y, z'
loop_
 _atom_site_type_symbol
 _atom_site_label
 _atom_site_symmetry_multiplicity
 _atom_site_fract_x
 _atom_site_fract_y
 _atom_site_fract_z
 _atom_site_occupancy
  Na  Na0  1  0.33856696  0.49783131  0.99771805  1
  Na  Na1  1  0.16703819  0.33080859  0.33296118  1
  Na  Na2  1  0.49039980  0.16445109  0.66293501  1
  Na  Na3  1  0.49784045  0.66920268  0.66703476  1
  Na  Na4  1  0.83639983  0.50216295  0.00227573  1
  Na  Na5  1  0.65481489  0.83555752  0.33707138  1
  Na  Na6  1  0.97522541  0.71097537  0.94054198  1
  Na  Na7  1  0.31265655  0.97385447  0.27730379  1
  Na  Na8  1  0.28654860  0.02613587  0.72272675  1
  Na  Na9  1  0.68619808  0.28901955  0.05944614  1
  Na  Na10  1  0.37263099  0.47270176  0.48936593  1
  Na  Na11  1  0.84533948  0.52728022  0.51062010  1
  Ca  Ca12  1  0.00020452  0.69645935  0.66744956  1
  Ca  Ca13  1  0.29923139  0.00000022  0.99999866  1
  Ca  Ca14  1  0.69666359  0.30354548  0.33254275  1
  Ca  Ca15  1  0.00002162  0.17647193  0.16727989  1
  Ca  Ca16  1  0.81613955  0.99999605  0.49999228  1
  Ca  Ca17  1  0.17649751  0.82352990  0.83270845  1
  Ca  Ca18  1  0.69805480  0.32682006  0.59036673  1
  Ca  Ca19  1  0.02487267  0.67317311  0.40963185  1
  Ca  Ca20  1  0.15126453  0.38010066  0.81965359  1
  Ca  Ca21  1  0.46898307  0.15001559  0.15371620  1
  Ca  Ca22  1  0.53135905  0.61990327  0.18033468  1
  Ca  Ca23  1  0.61901275  0.84998438  0.84627470  1
  Si  Si24  1  0.15261956  0.80299841  0.11056862  1
  Si  Si25  1  0.04312087  0.15479971  0.44732192  1
  Si  Si26  1  0.80231279  0.04782918  0.77739050  1
  Si  Si27  1  0.19791932  0.84520304  0.55266553  1
  Si  Si28  1  0.95561640  0.19700144  0.88941639  1
  Si  Si29  1  0.85014296  0.95217094  0.22259602  1
  Si  Si30  1  0.32178483  0.50170462  0.22971561  1
  Si  Si31  1  0.17376600  0.32959994  0.56061446  1
  Si  Si32  1  0.50077385  0.17447494  0.89676025  1
  Si  Si33  1  0.50336718  0.67039281  0.43938360  1
  Si  Si34  1  0.82349036  0.49829908  0.77028024  1
  Si  Si35  1  0.67524631  0.82552815  0.10323424  1
  Si  Si36  1  0.14896739  0.37630931  0.09451643  1
  Si  Si37  1  0.47628487  0.15038724  0.43023463  1
  Si  Si38  1  0.38174403  0.47258610  0.76192830  1
  Si  Si39  1  0.62667366  0.84961223  0.56975539  1
  Si  Si40  1  0.52527464  0.62369617  0.90547233  1
  Si  Si41  1  0.85432787  0.52741329  0.23806009  1
  O  O42  1  0.28606329  0.65706214  0.17197738  1
  O  O43  1  0.05904706  0.28514851  0.50693706  1
  O  O44  1  0.65728576  0.05902083  0.83927958  1
  O  O45  1  0.34419605  0.71484034  0.49305882  1
  O  O46  1  0.94313177  0.34294017  0.82801816  1
  O  O47  1  0.71629586  0.94098865  0.16071539  1
  O  O48  1  0.22467716  0.20085529  0.10708064  1
  O  O49  1  0.58724621  0.21380694  0.44388500  1
  O  O50  1  0.20509185  0.57170521  0.77000223  1
  O  O51  1  0.80105779  0.78618718  0.55610232  1
  O  O52  1  0.42553587  0.79915021  0.89290649  1
  O  O53  1  0.77678935  0.42829952  0.22998540  1
  O  O54  1  0.24074978  0.52298626  0.33495981  1
  O  O55  1  0.22764570  0.25884252  0.67076186  1
  O  O56  1  0.51807269  0.22960579  0.00515191  1
  O  O57  1  0.48648539  0.74115730  0.32923585  1
  O  O58  1  0.76373646  0.47701444  0.66503747  1
  O  O59  1  0.74768142  0.77039337  0.99484696  1
  O  O60  1  0.26768445  0.41332512  0.15148450  1
  O  O61  1  0.32076100  0.26439482  0.48599204  1
  O  O62  1  0.41382176  0.31929309  0.82078983  1
  O  O63  1  0.58515511  0.73559829  0.51400752  1
  O  O64  1  0.68101526  0.58667847  0.84851558  1
  O  O65  1  0.73310466  0.68071478  0.17921237  1
  O  O66  1  0.00155017  0.83027094  0.16689159  1
  O  O67  1  0.16644012  0.99999306  0.49998316  1
  O  O68  1  0.83182477  0.16973633  0.83307642  1
  O  O69  1  0.18151839  0.93808915  0.12797673  1
  O  O70  1  0.87770191  0.18453080  0.46761292  1
  O  O71  1  0.93540731  0.88204392  0.79248662  1
  O  O72  1  0.06222992  0.81547283  0.53237819  1
  O  O73  1  0.11960776  0.06191063  0.87201397  1
  O  O74  1  0.81745402  0.11795637  0.20750234  1
  O  O75  1  0.99991399  0.44363778  0.16436837  1
  O  O76  1  0.55291045  0.99999402  0.49998782  1
  O  O77  1  0.44355910  0.55636934  0.83560957  1
  O  O78  1  0.11107246  0.44905224  0.98459128  1
  O  O79  1  0.44206719  0.11370847  0.31928799  1
  O  O80  1  0.46378895  0.43443171  0.65596681  1
  O  O81  1  0.55578183  0.88630499  0.68070190  1
  O  O82  1  0.56010502  0.55094873  0.01539794  1
  O  O83  1  0.89823928  0.56554768  0.34402247  1
  O  O84  1  0.15917261  0.75272349  0.99507147  1
  O  O85  1  0.08243580  0.16076277  0.33019936  1
  O  O86  1  0.75050330  0.09919045  0.66183993  1
  O  O87  1  0.24319173  0.83925680  0.66978719  1
  O  O88  1  0.91188275  0.24726992  0.00491339  1
  O  O89  1  0.84971259  0.90079884  0.33814499  1
  O  O90  1  0.49899735  0.40942627  0.22395192  1
  O  O91  1  0.09503674  0.50545368  0.54929853  1
  O  O92  1  0.40872178  0.08980699  0.88886202  1
  O  O93  1  0.60049901  0.49454100  0.45069528  1
  O  O94  1  0.90841895  0.59058294  0.77604159  1
  O  O95  1  0.49852588  0.91019068  0.11112935  1
