# generated using pymatgen
data_Na(NbSe2)2
_symmetry_space_group_name_H-M   'P 1'
_cell_length_a   3.54744086
_cell_length_b   3.54744450
_cell_length_c   15.24266898
_cell_angle_alpha   89.99992708
_cell_angle_beta   90.00080462
_cell_angle_gamma   59.99959233
_symmetry_Int_Tables_number   1
_chemical_formula_structural   Na(NbSe2)2
_chemical_formula_sum   'Na1 Nb2 Se4'
_cell_volume   166.11950939
_cell_formula_units_Z   1
loop_
 _symmetry_equiv_pos_site_id
 _symmetry_equiv_pos_as_xyz
  1  'x, y, z'
loop_
 _atom_site_type_symbol
 _atom_site_label
 _atom_site_symmetry_multiplicity
 _atom_site_fract_x
 _atom_site_fract_y
 _atom_site_fract_z
 _atom_site_occupancy
  Na  Na0  1  0.66661719  0.66669235  0.00049234  1
  Nb  Nb1  1  0.33336224  0.33331540  0.74893497  1
  Nb  Nb2  1  0.66663653  0.66668497  0.25120045  1
  Se  Se3  1  0.00001886  -0.00000736  0.85931351  1
  Se  Se4  1  0.99997564  0.00001238  0.14087492  1
  Se  Se5  1  0.99997874  0.00001031  0.35877520  1
  Se  Se6  1  0.00001079  0.99999195  0.64130861  1
