# generated using pymatgen
data_BaCuO2
_symmetry_space_group_name_H-M   'P 1'
_cell_length_a   5.75462252
_cell_length_b   11.75018863
_cell_length_c   3.76948976
_cell_angle_alpha   90.00000000
_cell_angle_beta   90.02351740
_cell_angle_gamma   90.00000000
_symmetry_Int_Tables_number   1
_chemical_formula_structural   BaCuO2
_chemical_formula_sum   'Ba4 Cu4 O8'
_cell_volume   254.88496063
_cell_formula_units_Z   4
loop_
 _symmetry_equiv_pos_site_id
 _symmetry_equiv_pos_as_xyz
  1  'x, y, z'
loop_
 _atom_site_type_symbol
 _atom_site_label
 _atom_site_symmetry_multiplicity
 _atom_site_fract_x
 _atom_site_fract_y
 _atom_site_fract_z
 _atom_site_occupancy
  Ba  Ba0  1  0.22370863  0.11254978  0.50587815  1
  Ba  Ba1  1  0.27604676  0.38810258  0.50501364  1
  Ba  Ba2  1  0.72395324  0.88810258  0.49498636  1
  Ba  Ba3  1  0.77629137  0.61254978  0.49412185  1
  Cu  Cu4  1  0.23595917  0.87383140  0.98592792  1
  Cu  Cu5  1  0.26421210  0.62642553  0.98546541  1
  Cu  Cu6  1  0.73578790  0.12642553  0.01453459  1
  Cu  Cu7  1  0.76404083  0.37383140  0.01407208  1
  O  O8  1  0.02117737  0.74788719  0.97217652  1
  O  O9  1  0.97882263  0.24788719  0.02782348  1
  O  O10  1  0.02316273  0.49875075  0.00028346  1
  O  O11  1  0.47605187  0.00138336  0.00090759  1
  O  O12  1  0.47877593  0.75306942  0.97016994  1
  O  O13  1  0.52122407  0.25306942  0.02983006  1
  O  O14  1  0.52394813  0.50138336  0.99909241  1
  O  O15  1  0.97683727  0.99875075  0.99971654  1
