# generated using pymatgen
data_LaYMg6
_symmetry_space_group_name_H-M   'P 1'
_cell_length_a   5.23152840
_cell_length_b   5.23152840
_cell_length_c   9.10581830
_cell_angle_alpha   73.30583658
_cell_angle_beta   90.00000000
_cell_angle_gamma   120.00000000
_symmetry_Int_Tables_number   1
_chemical_formula_structural   LaYMg6
_chemical_formula_sum   'La1 Y1 Mg6'
_cell_volume   203.60820885
_cell_formula_units_Z   1
loop_
 _symmetry_equiv_pos_site_id
 _symmetry_equiv_pos_as_xyz
  1  'x, y, z'
loop_
 _atom_site_type_symbol
 _atom_site_label
 _atom_site_symmetry_multiplicity
 _atom_site_fract_x
 _atom_site_fract_y
 _atom_site_fract_z
 _atom_site_occupancy
  La  La0  1  0.00000000  0.00000000  -0.00000000  1
  Y  Y1  1  0.50000000  0.00000000  0.50000000  1
  Mg  Mg2  1  0.62340858  0.24681716  0.12977425  1
  Mg  Mg3  1  0.12610469  0.25220938  0.62168593  1
  Mg  Mg4  1  0.87389531  0.74779062  0.37831407  1
  Mg  Mg5  1  0.37659142  0.75318284  0.87022575  1
  Mg  Mg6  1  0.24923267  0.49846533  0.25230200  1
  Mg  Mg7  1  0.75076733  0.50153467  0.74769800  1
