# generated using pymatgen
data_LuTaTiO6
_symmetry_space_group_name_H-M   'P 1'
_cell_length_a   5.17694781
_cell_length_b   5.58139736
_cell_length_c   14.61879081
_cell_angle_alpha   90.00000000
_cell_angle_beta   90.00000000
_cell_angle_gamma   89.78061929
_symmetry_Int_Tables_number   1
_chemical_formula_structural   LuTaTiO6
_chemical_formula_sum   'Lu4 Ta4 Ti4 O24'
_cell_volume   422.40105786
_cell_formula_units_Z   4
loop_
 _symmetry_equiv_pos_site_id
 _symmetry_equiv_pos_as_xyz
  1  'x, y, z'
loop_
 _atom_site_type_symbol
 _atom_site_label
 _atom_site_symmetry_multiplicity
 _atom_site_fract_x
 _atom_site_fract_y
 _atom_site_fract_z
 _atom_site_occupancy
  Lu  Lu0  1  0.25383163  0.22614988  0.99963842  1
  Lu  Lu1  1  0.74616837  0.27385012  0.49963842  1
  Lu  Lu2  1  0.74616837  0.77385012  0.00036158  1
  Lu  Lu3  1  0.25383163  0.72614988  0.50036158  1
  Ta  Ta4  1  0.18020814  0.17820431  0.66732935  1
  Ta  Ta5  1  0.81979186  0.32179569  0.16732935  1
  Ta  Ta6  1  0.81979186  0.82179569  0.33267065  1
  Ta  Ta7  1  0.18020814  0.67820431  0.83267065  1
  Ti  Ti8  1  0.68500168  0.31277182  0.83616917  1
  Ti  Ti9  1  0.31499832  0.18722818  0.33616917  1
  Ti  Ti10  1  0.31499832  0.68722818  0.16383083  1
  Ti  Ti11  1  0.68500168  0.81277182  0.66383083  1
  O  O12  1  0.57832767  0.09132181  0.91574056  1
  O  O13  1  0.07788955  0.41091542  0.58286579  1
  O  O14  1  0.42167233  0.40867819  0.41574056  1
  O  O15  1  0.92211045  0.08908458  0.08286579  1
  O  O16  1  0.42167233  0.90867819  0.08425944  1
  O  O17  1  0.92211045  0.58908458  0.41713421  1
  O  O18  1  0.57832767  0.59132181  0.58425944  1
  O  O19  1  0.07788955  0.91091542  0.91713421  1
  O  O20  1  0.85523300  0.13705927  0.74122118  1
  O  O21  1  0.35155130  0.36779494  0.76082961  1
  O  O22  1  0.14476700  0.36294073  0.24122118  1
  O  O23  1  0.64844870  0.13220506  0.26082961  1
  O  O24  1  0.14476700  0.86294073  0.25877882  1
  O  O25  1  0.64844870  0.63220506  0.23917039  1
  O  O26  1  0.85523300  0.63705927  0.75877882  1
  O  O27  1  0.35155130  0.86779494  0.73917039  1
  O  O28  1  0.02574572  0.57206896  0.09159192  1
  O  O29  1  0.52484707  0.93216430  0.40881055  1
  O  O30  1  0.97425428  0.92793104  0.59159192  1
  O  O31  1  0.47515293  0.56783570  0.90881055  1
  O  O32  1  0.97425428  0.42793104  0.90840808  1
  O  O33  1  0.47515293  0.06783570  0.59118945  1
  O  O34  1  0.02574572  0.07206896  0.40840808  1
  O  O35  1  0.52484707  0.43216430  0.09118945  1
