# generated using pymatgen
data_Lu2Mn12GaGe11
_symmetry_space_group_name_H-M   'P 1'
_cell_length_a   5.15183776
_cell_length_b   5.15146535
_cell_length_c   16.14860917
_cell_angle_alpha   90.00007995
_cell_angle_beta   90.00015998
_cell_angle_gamma   59.99760983
_symmetry_Int_Tables_number   1
_chemical_formula_structural   Lu2Mn12GaGe11
_chemical_formula_sum   'Lu2 Mn12 Ga1 Ge11'
_cell_volume   371.14896750
_cell_formula_units_Z   1
loop_
 _symmetry_equiv_pos_site_id
 _symmetry_equiv_pos_as_xyz
  1  'x, y, z'
loop_
 _atom_site_type_symbol
 _atom_site_label
 _atom_site_symmetry_multiplicity
 _atom_site_fract_x
 _atom_site_fract_y
 _atom_site_fract_z
 _atom_site_occupancy
  Lu  Lu0  1  0.99998545  0.00000000  0.00056048  1
  Lu  Lu1  1  0.99998045  1.00000000  0.49988046  1
  Mn  Mn2  1  0.49999163  0.49999512  0.12420390  1
  Mn  Mn3  1  0.49999111  0.49999616  0.62497434  1
  Mn  Mn4  1  0.49999400  -0.00000000  0.12420282  1
  Mn  Mn5  1  0.49999372  -0.00000000  0.62496715  1
  Mn  Mn6  1  0.99998675  0.50000488  0.12420390  1
  Mn  Mn7  1  0.99998727  0.50000384  0.62497434  1
  Mn  Mn8  1  0.49999413  0.49999450  0.37550603  1
  Mn  Mn9  1  0.49999271  0.49999723  0.87503414  1
  Mn  Mn10  1  0.49999834  -0.00000000  0.37551269  1
  Mn  Mn11  1  0.49999504  -0.00000000  0.87502911  1
  Mn  Mn12  1  0.99998863  0.50000550  0.37550603  1
  Mn  Mn13  1  0.99998994  0.50000277  0.87503414  1
  Ga  Ga14  1  0.99999558  1.00000000  0.17211002  1
  Ge  Ge15  1  0.66662622  0.66668457  0.24903774  1
  Ge  Ge16  1  0.66662984  0.66667601  0.75001802  1
  Ge  Ge17  1  0.33331079  0.33331543  0.24903774  1
  Ge  Ge18  1  0.33330586  0.33332399  0.75001802  1
  Ge  Ge19  1  0.66664161  0.66665778  0.50001305  1
  Ge  Ge20  1  0.66663810  0.66666977  0.00040987  1
  Ge  Ge21  1  0.33330787  0.33333023  0.00040987  1
  Ge  Ge22  1  0.33329939  0.33334222  0.50001305  1
  Ge  Ge23  1  0.99999179  1.00000000  0.67130360  1
  Ge  Ge24  1  0.99999114  1.00000000  0.32908959  1
  Ge  Ge25  1  0.99999264  1.00000000  0.82894989  1
