# generated using pymatgen
data_Li2Cr2FeSbO8
_symmetry_space_group_name_H-M   'P 1'
_cell_length_a   5.99244879
_cell_length_b   5.99244879
_cell_length_c   9.65077238
_cell_angle_alpha   89.84632576
_cell_angle_beta   90.15367424
_cell_angle_gamma   120.14967395
_symmetry_Int_Tables_number   1
_chemical_formula_structural   Li2Cr2FeSbO8
_chemical_formula_sum   'Li4 Cr4 Fe2 Sb2 O16'
_cell_volume   299.66933252
_cell_formula_units_Z   2
loop_
 _symmetry_equiv_pos_site_id
 _symmetry_equiv_pos_as_xyz
  1  'x, y, z'
loop_
 _atom_site_type_symbol
 _atom_site_label
 _atom_site_symmetry_multiplicity
 _atom_site_fract_x
 _atom_site_fract_y
 _atom_site_fract_z
 _atom_site_occupancy
  Li  Li0  1  0.33388451  0.66611549  0.59087601  1
  Li  Li1  1  0.66674457  0.33325543  0.09388928  1
  Li  Li2  1  0.99985992  0.00014008  0.00123253  1
  Li  Li3  1  0.99972739  0.00027261  0.50209674  1
  Cr  Cr4  1  0.17007478  0.82992522  0.27897833  1
  Cr  Cr5  1  0.66003748  0.82996704  0.27916205  1
  Cr  Cr6  1  0.17003296  0.33996252  0.27916205  1
  Cr  Cr7  1  0.82817625  0.17182375  0.77961467  1
  Fe  Fe8  1  0.33966514  0.17083307  0.77931420  1
  Fe  Fe9  1  0.82916693  0.66033486  0.77931420  1
  Sb  Sb10  1  0.33312573  0.66687427  0.00666072  1
  Sb  Sb11  1  0.66728625  0.33271375  0.50391978  1
  O  O12  1  0.99992492  0.00007508  0.18718249  1
  O  O13  1  0.99974973  0.00025027  0.68981449  1
  O  O14  1  0.16789110  0.83210890  0.89785571  1
  O  O15  1  0.66549790  0.83435037  0.89749075  1
  O  O16  1  0.16564963  0.33450210  0.89749075  1
  O  O17  1  0.83462634  0.16537366  0.39662766  1
  O  O18  1  0.33128267  0.16448767  0.39696472  1
  O  O19  1  0.83551233  0.66871733  0.39696472  1
  O  O20  1  0.48108186  0.51891814  0.14972938  1
  O  O21  1  0.03773682  0.51854296  0.15010451  1
  O  O22  1  0.48145704  0.96226318  0.15010451  1
  O  O23  1  0.51931667  0.48068333  0.64374385  1
  O  O24  1  0.96217612  0.47787287  0.64753997  1
  O  O25  1  0.52212713  0.03782388  0.64753997  1
  O  O26  1  0.33336798  0.66663202  0.38404608  1
  O  O27  1  0.66481986  0.33518014  0.88697986  1
