# generated using pymatgen
data_LiTiSn(PO4)3
_symmetry_space_group_name_H-M   'P 1'
_cell_length_a   8.69073557
_cell_length_b   8.69073557
_cell_length_c   8.74566900
_cell_angle_alpha   60.20756619
_cell_angle_beta   60.20756619
_cell_angle_gamma   60.00000585
_symmetry_Int_Tables_number   1
_chemical_formula_structural   LiTiSn(PO4)3
_chemical_formula_sum   'Li2 Ti2 Sn2 P6 O24'
_cell_volume   468.53988636
_cell_formula_units_Z   2
loop_
 _symmetry_equiv_pos_site_id
 _symmetry_equiv_pos_as_xyz
  1  'x, y, z'
loop_
 _atom_site_type_symbol
 _atom_site_label
 _atom_site_symmetry_multiplicity
 _atom_site_fract_x
 _atom_site_fract_y
 _atom_site_fract_z
 _atom_site_occupancy
  Li  Li0  1  0.50145846  0.50145846  0.49562463  1
  Li  Li1  1  0.00145846  0.00145846  0.99562463  1
  Ti  Ti2  1  0.64189650  0.64189650  0.07431051  1
  Ti  Ti3  1  0.14189650  0.14189650  0.57431051  1
  Sn  Sn4  1  0.35681172  0.35681172  0.92956485  1
  Sn  Sn5  1  0.85681172  0.85681172  0.42956485  1
  P  P6  1  0.45502280  0.04087775  0.75257368  1
  P  P7  1  0.04087775  0.75152577  0.75257368  1
  P  P8  1  0.75152577  0.45502280  0.75257368  1
  P  P9  1  0.95502280  0.25152577  0.25257368  1
  P  P10  1  0.25152577  0.54087775  0.25257368  1
  P  P11  1  0.54087775  0.95502280  0.25257368  1
  O  O12  1  0.50066879  0.87539057  0.92695176  1
  O  O13  1  0.87539057  0.69698888  0.92695176  1
  O  O14  1  0.69698888  0.50066879  0.92695176  1
  O  O15  1  0.00066879  0.19698888  0.42695176  1
  O  O16  1  0.19698888  0.37539057  0.42695176  1
  O  O17  1  0.37539057  0.00066879  0.42695176  1
  O  O18  1  0.51001815  0.11313016  0.07251984  1
  O  O19  1  0.11313016  0.30433185  0.07251984  1
  O  O20  1  0.30433185  0.51001815  0.07251984  1
  O  O21  1  0.01001815  0.80433185  0.57251984  1
  O  O22  1  0.80433185  0.61313016  0.57251984  1
  O  O23  1  0.61313016  0.01001815  0.57251984  1
  O  O24  1  0.55929433  0.76648750  0.25676191  1
  O  O25  1  0.76648750  0.41745625  0.25676191  1
  O  O26  1  0.41745625  0.55929433  0.25676191  1
  O  O27  1  0.05929433  0.91745625  0.75676191  1
  O  O28  1  0.91745625  0.26648750  0.75676191  1
  O  O29  1  0.26648750  0.05929433  0.75676191  1
  O  O30  1  0.44030181  0.23115450  0.74135947  1
  O  O31  1  0.23115450  0.58718421  0.74135947  1
  O  O32  1  0.58718422  0.44030181  0.74135947  1
  O  O33  1  0.94030181  0.08718422  0.24135947  1
  O  O34  1  0.08718421  0.73115450  0.24135947  1
  O  O35  1  0.73115450  0.94030181  0.24135947  1
