# generated using pymatgen
data_K2TiPCO7
_symmetry_space_group_name_H-M   'P 1'
_cell_length_a   9.68983887
_cell_length_b   6.83681563
_cell_length_c   5.73155014
_cell_angle_alpha   90.00000000
_cell_angle_beta   90.90996817
_cell_angle_gamma   90.00000000
_symmetry_Int_Tables_number   1
_chemical_formula_structural   K2TiPCO7
_chemical_formula_sum   'K4 Ti2 P2 C2 O14'
_cell_volume   379.65379504
_cell_formula_units_Z   2
loop_
 _symmetry_equiv_pos_site_id
 _symmetry_equiv_pos_as_xyz
  1  'x, y, z'
loop_
 _atom_site_type_symbol
 _atom_site_label
 _atom_site_symmetry_multiplicity
 _atom_site_fract_x
 _atom_site_fract_y
 _atom_site_fract_z
 _atom_site_occupancy
  K  K0  1  0.23608996  0.01713490  0.24743675  1
  K  K1  1  0.23608996  0.48286510  0.24743675  1
  K  K2  1  0.76391004  0.51713490  0.75256325  1
  K  K3  1  0.76391004  0.98286510  0.75256325  1
  Ti  Ti4  1  0.36365358  0.75000000  0.77334265  1
  Ti  Ti5  1  0.63634642  0.25000000  0.22665735  1
  P  P6  1  0.43562571  0.25000000  0.72338626  1
  P  P7  1  0.56437429  0.75000000  0.27661374  1
  C  C8  1  0.10176622  0.75000000  0.72836808  1
  C  C9  1  0.89823378  0.25000000  0.27163192  1
  O  O10  1  0.02744604  0.25000000  0.29056631  1
  O  O11  1  0.16967321  0.75000000  0.93009743  1
  O  O12  1  0.18653043  0.75000000  0.55042120  1
  O  O13  1  0.34854417  0.06336076  0.75853282  1
  O  O14  1  0.34854417  0.43663924  0.75853282  1
  O  O15  1  0.43698585  0.75000000  0.10539180  1
  O  O16  1  0.49197193  0.25000000  0.46705113  1
  O  O17  1  0.50802807  0.75000000  0.53294887  1
  O  O18  1  0.56301415  0.25000000  0.89460820  1
  O  O19  1  0.65145583  0.56336076  0.24146718  1
  O  O20  1  0.65145583  0.93663924  0.24146718  1
  O  O21  1  0.81346957  0.25000000  0.44957880  1
  O  O22  1  0.83032679  0.25000000  0.06990257  1
  O  O23  1  0.97255396  0.75000000  0.70943369  1
