# generated using pymatgen
data_LaCeSn6
_symmetry_space_group_name_H-M   'P 1'
_cell_length_a   4.77219497
_cell_length_b   4.77078891
_cell_length_c   9.55488350
_cell_angle_alpha   89.99586047
_cell_angle_beta   89.99227151
_cell_angle_gamma   90.02870796
_symmetry_Int_Tables_number   1
_chemical_formula_structural   LaCeSn6
_chemical_formula_sum   'La1 Ce1 Sn6'
_cell_volume   217.53729127
_cell_formula_units_Z   1
loop_
 _symmetry_equiv_pos_site_id
 _symmetry_equiv_pos_as_xyz
  1  'x, y, z'
loop_
 _atom_site_type_symbol
 _atom_site_label
 _atom_site_symmetry_multiplicity
 _atom_site_fract_x
 _atom_site_fract_y
 _atom_site_fract_z
 _atom_site_occupancy
  La  La0  1  0.99999994  -0.00000018  0.50000005  1
  Ce  Ce1  1  0.00000003  0.00000015  0.00000037  1
  Sn  Sn2  1  0.50000002  0.49999998  0.99999977  1
  Sn  Sn3  1  0.50000017  0.50000001  0.49999988  1
  Sn  Sn4  1  0.49997227  0.99998476  0.24648414  1
  Sn  Sn5  1  0.50002760  0.00001530  0.75351620  1
  Sn  Sn6  1  0.99997002  0.49998233  0.24646067  1
  Sn  Sn7  1  0.00002995  0.50001766  0.75353893  1
