# generated using pymatgen
data_La6NbGa11O28
_symmetry_space_group_name_H-M   'P 1'
_cell_length_a   8.30927416
_cell_length_b   9.78941481
_cell_length_c   9.78790797
_cell_angle_alpha   63.84096559
_cell_angle_beta   64.88139064
_cell_angle_gamma   64.88566189
_symmetry_Int_Tables_number   1
_chemical_formula_structural   La6NbGa11O28
_chemical_formula_sum   'La6 Nb1 Ga11 O28'
_cell_volume   618.85251441
_cell_formula_units_Z   1
loop_
 _symmetry_equiv_pos_site_id
 _symmetry_equiv_pos_as_xyz
  1  'x, y, z'
loop_
 _atom_site_type_symbol
 _atom_site_label
 _atom_site_symmetry_multiplicity
 _atom_site_fract_x
 _atom_site_fract_y
 _atom_site_fract_z
 _atom_site_occupancy
  La  La0  1  0.99898839  0.79063190  0.79077521  1
  La  La1  1  0.00100776  0.28496694  0.28477719  1
  La  La2  1  0.42957225  0.50000633  0.50000479  1
  La  La3  1  0.41936661  0.00000698  0.00001141  1
  La  La4  1  0.58037649  0.20937559  0.20922983  1
  La  La5  1  0.57074216  0.71503100  0.71523061  1
  Nb  Nb6  1  -0.00011505  0.49999939  0.50000604  1
  Ga  Ga7  1  0.00014240  0.87491495  0.36537829  1
  Ga  Ga8  1  -0.00014681  0.36554105  0.87508229  1
  Ga  Ga9  1  0.76001314  0.24399933  0.75498120  1
  Ga  Ga10  1  0.75900002  0.75600493  0.24501945  1
  Ga  Ga11  1  0.24044143  0.12508518  0.63461852  1
  Ga  Ga12  1  0.24049315  0.63445785  0.12490437  1
  Ga  Ga13  1  0.66885116  0.06704197  0.59735442  1
  Ga  Ga14  1  0.66451955  0.56872227  0.10016301  1
  Ga  Ga15  1  0.33323607  0.93295827  0.40262239  1
  Ga  Ga16  1  0.33340314  0.43125619  0.89982941  1
  Ga  Ga17  1  0.00014191  0.00000326  0.99999368  1
  O  O18  1  0.30913677  0.12177909  0.42433480  1
  O  O19  1  0.31220123  0.61944553  0.92108334  1
  O  O20  1  0.14655897  0.00530223  0.30701809  1
  O  O21  1  0.14546871  0.50329326  0.80566720  1
  O  O22  1  0.54080255  0.92295437  0.22473909  1
  O  O23  1  0.54576104  0.42104214  0.72326353  1
  O  O24  1  0.45889459  0.99470765  0.69296505  1
  O  O25  1  0.45443945  0.49670778  0.19432011  1
  O  O26  1  0.85527298  0.87820450  0.57566431  1
  O  O27  1  0.85273071  0.38054197  0.07893376  1
  O  O28  1  0.68849241  0.07703873  0.77527468  1
  O  O29  1  0.69006390  0.57896222  0.27673766  1
  O  O30  1  0.66716832  0.24449284  0.42379385  1
  O  O31  1  0.66616821  0.74258515  0.92249436  1
  O  O32  1  0.33540440  0.75550429  0.57620824  1
  O  O33  1  0.33120104  0.25741142  0.07750335  1
  O  O34  1  0.07415401  0.01043137  0.76992843  1
  O  O35  1  0.07817011  0.50729023  0.27185045  1
  O  O36  1  0.14257670  0.65690380  0.42132723  1
  O  O37  1  0.14566320  0.15725526  0.91681104  1
  O  O38  1  0.77891440  0.68884256  0.45370701  1
  O  O39  1  0.78055122  0.19342633  0.95237432  1
  O  O40  1  0.22081760  0.34310380  0.57864980  1
  O  O41  1  0.21973333  0.84273760  0.08319243  1
  O  O42  1  0.85450011  0.98958766  0.23006702  1
  O  O43  1  0.85729847  0.49271174  0.72815791  1
  O  O44  1  0.92146937  0.31116091  0.54630592  1
  O  O45  1  0.92635243  0.80657217  0.04764493  1
