# generated using pymatgen
data_LuUTe6
_symmetry_space_group_name_H-M   'P 1'
_cell_length_a   4.34281602
_cell_length_b   4.35239772
_cell_length_c   12.91550716
_cell_angle_alpha   90.00000000
_cell_angle_beta   80.32123189
_cell_angle_gamma   90.00000000
_symmetry_Int_Tables_number   1
_chemical_formula_structural   LuUTe6
_chemical_formula_sum   'Lu1 U1 Te6'
_cell_volume   240.64964944
_cell_formula_units_Z   1
loop_
 _symmetry_equiv_pos_site_id
 _symmetry_equiv_pos_as_xyz
  1  'x, y, z'
loop_
 _atom_site_type_symbol
 _atom_site_label
 _atom_site_symmetry_multiplicity
 _atom_site_fract_x
 _atom_site_fract_y
 _atom_site_fract_z
 _atom_site_occupancy
  Lu  Lu0  1  0.83195970  0.75000000  0.33608061  1
  U  U1  1  0.16768975  0.25000000  0.66462050  1
  Te  Te2  1  0.42571276  0.75000000  0.14857447  1
  Te  Te3  1  0.57433277  0.25000000  0.85133445  1
  Te  Te4  1  0.70569405  0.75000000  0.58861190  1
  Te  Te5  1  0.29404988  0.25000000  0.41190025  1
  Te  Te6  1  0.07441627  0.75000000  0.85116745  1
  Te  Te7  1  0.92614482  0.25000000  0.14771036  1
