# generated using pymatgen
data_La6Al3Fe10As
_symmetry_space_group_name_H-M   'P 1'
_cell_length_a   8.12480881
_cell_length_b   8.12480881
_cell_length_c   13.01101085
_cell_angle_alpha   71.65583918
_cell_angle_beta   71.65583918
_cell_angle_gamma   89.54197464
_symmetry_Int_Tables_number   1
_chemical_formula_structural   La6Al3Fe10As
_chemical_formula_sum   'La12 Al6 Fe20 As2'
_cell_volume   769.85315022
_cell_formula_units_Z   2
loop_
 _symmetry_equiv_pos_site_id
 _symmetry_equiv_pos_as_xyz
  1  'x, y, z'
loop_
 _atom_site_type_symbol
 _atom_site_label
 _atom_site_symmetry_multiplicity
 _atom_site_fract_x
 _atom_site_fract_y
 _atom_site_fract_z
 _atom_site_occupancy
  La  La0  1  0.89281456  0.89281456  0.21437088  1
  La  La1  1  0.39281456  0.39281456  0.21437088  1
  La  La2  1  0.10687149  0.10687149  0.78625702  1
  La  La3  1  0.60687149  0.60687149  0.78625702  1
  La  La4  1  0.99117472  0.13109808  0.37772721  1
  La  La5  1  0.63109808  0.49117472  0.37772721  1
  La  La6  1  0.15536634  0.65536634  0.36897012  1
  La  La7  1  0.47566355  0.97566355  0.36897012  1
  La  La8  1  0.02052407  0.85954348  0.61993245  1
  La  La9  1  0.35954348  0.52052407  0.61993245  1
  La  La10  1  0.86463263  0.36463263  0.61298967  1
  La  La11  1  0.52237771  0.02237771  0.61298967  1
  Al  Al12  1  0.02439708  0.52439708  0.18702708  1
  Al  Al13  1  0.78857584  0.28857584  0.18702708  1
  Al  Al14  1  0.71453514  0.97272450  0.81274036  1
  Al  Al15  1  0.47272450  0.21453514  0.81274036  1
  Al  Al16  1  0.97406520  0.47406520  0.81483896  1
  Al  Al17  1  0.21109584  0.71109584  0.81483896  1
  Fe  Fe18  1  0.06964554  0.78860944  0.00287122  1
  Fe  Fe19  1  0.92748324  0.20851934  0.00287122  1
  Fe  Fe20  1  0.43057735  0.28954076  0.00075089  1
  Fe  Fe21  1  0.56867176  0.70970835  0.00075089  1
  Fe  Fe22  1  0.78954076  0.93057735  0.00075089  1
  Fe  Fe23  1  0.20970835  0.06867176  0.00075089  1
  Fe  Fe24  1  0.28860944  0.56964554  0.00287122  1
  Fe  Fe25  1  0.70851934  0.42748324  0.00287122  1
  Fe  Fe26  1  0.12195026  0.25834505  0.11970468  1
  Fe  Fe27  1  0.75834505  0.62195026  0.11970468  1
  Fe  Fe28  1  0.26992915  0.76992915  0.11499765  1
  Fe  Fe29  1  0.61507320  0.11507320  0.11499765  1
  Fe  Fe30  1  0.87991892  0.72809239  0.89198869  1
  Fe  Fe31  1  0.22809239  0.37991892  0.89198869  1
  Fe  Fe32  1  0.73290395  0.23290395  0.88461342  1
  Fe  Fe33  1  0.38248263  0.88248263  0.88461342  1
  Fe  Fe34  1  0.99796742  0.49796742  0.00406517  1
  Fe  Fe35  1  0.50128925  0.00128925  0.99742150  1
  Fe  Fe36  1  0.29256812  0.02182794  0.18560394  1
  Fe  Fe37  1  0.52182794  0.79256812  0.18560394  1
  As  As38  1  0.74987484  0.74987484  0.50025033  1
  As  As39  1  0.24987484  0.24987484  0.50025033  1
