# generated using pymatgen
data_La3Cd(FeO3)4
_symmetry_space_group_name_H-M   'P 1'
_cell_length_a   5.55583491
_cell_length_b   5.56084629
_cell_length_c   7.91702130
_cell_angle_alpha   90.00000000
_cell_angle_beta   90.00000000
_cell_angle_gamma   89.50716277
_symmetry_Int_Tables_number   1
_chemical_formula_structural   La3Cd(FeO3)4
_chemical_formula_sum   'La3 Cd1 Fe4 O12'
_cell_volume   244.58846427
_cell_formula_units_Z   1
loop_
 _symmetry_equiv_pos_site_id
 _symmetry_equiv_pos_as_xyz
  1  'x, y, z'
loop_
 _atom_site_type_symbol
 _atom_site_label
 _atom_site_symmetry_multiplicity
 _atom_site_fract_x
 _atom_site_fract_y
 _atom_site_fract_z
 _atom_site_occupancy
  La  La0  1  0.99080157  0.02914213  0.25000000  1
  La  La1  1  0.49260388  0.47107145  0.75000000  1
  La  La2  1  0.00701407  0.96872808  0.75000000  1
  Cd  Cd3  1  0.50811108  0.52716545  0.25000000  1
  Fe  Fe4  1  0.49736992  -0.00303469  0.00535794  1
  Fe  Fe5  1  0.00241452  0.50118667  0.49532174  1
  Fe  Fe6  1  0.49736992  -0.00303469  0.49464206  1
  Fe  Fe7  1  0.00241452  0.50118667  0.00467826  1
  O  O8  1  0.42026777  0.96043572  0.25000000  1
  O  O9  1  0.09824667  0.48600957  0.25000000  1
  O  O10  1  0.57547278  0.02107783  0.75000000  1
  O  O11  1  0.92040420  0.50337487  0.75000000  1
  O  O12  1  0.78943239  0.78970313  0.03345409  1
  O  O13  1  0.71441976  0.28702965  0.45001111  1
  O  O14  1  0.21590884  0.21694671  0.54098971  1
  O  O15  1  0.27399356  0.72466598  0.94679005  1
  O  O16  1  0.21590884  0.21694671  0.95901029  1
  O  O17  1  0.27399356  0.72466598  0.55320995  1
  O  O18  1  0.78943239  0.78970313  0.46654591  1
  O  O19  1  0.71441976  0.28702965  0.04998889  1
