# generated using pymatgen
data_La5Fe4NiO15
_symmetry_space_group_name_H-M   'P 1'
_cell_length_a   5.56443548
_cell_length_b   20.19396644
_cell_length_c   5.62476212
_cell_angle_alpha   97.99958815
_cell_angle_beta   90.00000000
_cell_angle_gamma   97.91909832
_symmetry_Int_Tables_number   1
_chemical_formula_structural   La5Fe4NiO15
_chemical_formula_sum   'La10 Fe8 Ni2 O30'
_cell_volume   619.80580030
_cell_formula_units_Z   2
loop_
 _symmetry_equiv_pos_site_id
 _symmetry_equiv_pos_as_xyz
  1  'x, y, z'
loop_
 _atom_site_type_symbol
 _atom_site_label
 _atom_site_symmetry_multiplicity
 _atom_site_fract_x
 _atom_site_fract_y
 _atom_site_fract_z
 _atom_site_occupancy
  La  La0  1  0.45162808  0.90325615  0.44325037  1
  La  La1  1  0.24959367  0.49918733  0.23982020  1
  La  La2  1  0.85044831  0.70089662  0.84046978  1
  La  La3  1  0.04986376  0.09972752  0.03995860  1
  La  La4  1  0.64834893  0.29669786  0.63782944  1
  La  La5  1  0.55013624  0.10027248  0.56004140  1
  La  La6  1  0.35040633  0.70081267  0.36017980  1
  La  La7  1  0.95165107  0.90330214  0.96217056  1
  La  La8  1  0.14837192  0.29674385  0.15674963  1
  La  La9  1  0.74955169  0.49910338  0.75953022  1
  Fe  Fe10  1  0.69962617  0.39925234  0.19998588  1
  Fe  Fe11  1  0.30000000  0.60000000  0.80000000  1
  Fe  Fe12  1  0.90037383  0.80074766  0.40001412  1
  Fe  Fe13  1  0.59927447  0.19854893  0.09967836  1
  Fe  Fe14  1  0.19927605  0.39855209  0.69924240  1
  Fe  Fe15  1  0.80000000  0.60000000  0.30000000  1
  Fe  Fe16  1  0.40072395  0.80144791  0.90075760  1
  Fe  Fe17  1  0.00072553  0.00145107  0.50032164  1
  Ni  Ni18  1  0.50005902  0.00011804  -0.00002951  1
  Ni  Ni19  1  0.09994098  0.19988196  0.60002951  1
  O  O20  1  0.74349516  0.98163571  0.24442562  1
  O  O21  1  0.53992178  0.58011926  0.04002267  1
  O  O22  1  0.13988555  0.77993489  0.63968793  1
  O  O23  1  0.34282239  0.18168081  0.84476066  1
  O  O24  1  0.93976861  0.38028169  0.43986837  1
  O  O25  1  0.76114158  0.01831919  0.75523934  1
  O  O26  1  0.55980252  0.61988074  0.55997733  1
  O  O27  1  0.15948692  0.81971831  0.16013163  1
  O  O28  1  0.36185945  0.21836429  0.35557438  1
  O  O29  1  0.95995067  0.42006511  0.96031207  1
  O  O30  1  0.25717761  0.01831919  0.75523934  1
  O  O31  1  0.06007822  0.61988074  0.55997733  1
  O  O32  1  0.66023139  0.81971831  0.16013163  1
  O  O33  1  0.85650484  0.21836429  0.35557438  1
  O  O34  1  0.46011445  0.42006511  0.96031207  1
  O  O35  1  0.23814055  0.98163571  0.24442562  1
  O  O36  1  0.04019748  0.58011926  0.04002267  1
  O  O37  1  0.64004933  0.77993489  0.63968793  1
  O  O38  1  0.83885842  0.18168081  0.84476066  1
  O  O39  1  0.44051308  0.38028169  0.43986837  1
  O  O40  1  0.55039163  0.10078327  0.13560011  1
  O  O41  1  0.15051646  0.30103292  0.73636970  1
  O  O42  1  0.74998237  0.49996474  0.33771353  1
  O  O43  1  0.35011849  0.70023698  0.93722578  1
  O  O44  1  0.95001385  0.90002769  0.53669275  1
  O  O45  1  0.64998615  0.29997231  0.06330725  1
  O  O46  1  0.24988151  0.49976302  0.66277422  1
  O  O47  1  0.85001763  0.70003526  0.26228647  1
  O  O48  1  0.44948354  0.89896708  0.86363030  1
  O  O49  1  0.04960837  0.09921673  0.46439989  1
