# generated using pymatgen
data_KNa7V8O24
_symmetry_space_group_name_H-M   'P 1'
_cell_length_a   5.95518545
_cell_length_b   10.69251947
_cell_length_c   9.83239019
_cell_angle_alpha   90.00000000
_cell_angle_beta   90.00000000
_cell_angle_gamma   104.53945620
_symmetry_Int_Tables_number   1
_chemical_formula_structural   KNa7V8O24
_chemical_formula_sum   'K1 Na7 V8 O24'
_cell_volume   606.03622004
_cell_formula_units_Z   1
loop_
 _symmetry_equiv_pos_site_id
 _symmetry_equiv_pos_as_xyz
  1  'x, y, z'
loop_
 _atom_site_type_symbol
 _atom_site_label
 _atom_site_symmetry_multiplicity
 _atom_site_fract_x
 _atom_site_fract_y
 _atom_site_fract_z
 _atom_site_occupancy
  K  K0  1  0.25000000  0.50000000  0.80048311  1
  Na  Na1  1  0.25000000  0.50000000  0.40897667  1
  Na  Na2  1  0.75000000  0.00000000  0.90957782  1
  Na  Na3  1  0.75000000  0.50000000  0.58929557  1
  Na  Na4  1  0.25000000  0.00000000  0.09032619  1
  Na  Na5  1  0.75000000  0.00000000  0.29161530  1
  Na  Na6  1  0.75000000  0.50000000  0.20845381  1
  Na  Na7  1  0.25000000  0.00000000  0.70835047  1
  V  V8  1  0.46267781  0.71034687  0.08946317  1
  V  V9  1  0.96170130  0.20774794  0.58717505  1
  V  V10  1  0.03732219  0.28965313  0.08946317  1
  V  V11  1  0.53829870  0.79225206  0.58717505  1
  V  V12  1  0.53900052  0.28832527  0.91238783  1
  V  V13  1  0.03667024  0.79044706  0.41111378  1
  V  V14  1  0.96099948  0.71167473  0.91238783  1
  V  V15  1  0.46332976  0.20955294  0.41111378  1
  O  O16  1  0.53774320  0.87311813  0.09966998  1
  O  O17  1  0.03079030  0.37006385  0.59197819  1
  O  O18  1  0.96225680  0.12688187  0.09966998  1
  O  O19  1  0.46920970  0.62993615  0.59197819  1
  O  O20  1  0.46291138  0.12572574  0.90132088  1
  O  O21  1  0.96316096  0.62754315  0.40081687  1
  O  O22  1  0.03708862  0.87427426  0.90132088  1
  O  O23  1  0.53683904  0.37245685  0.40081687  1
  O  O24  1  0.17496262  0.65341867  0.01158872  1
  O  O25  1  0.67558021  0.14927460  0.50903281  1
  O  O26  1  0.32503738  0.34658133  0.01158872  1
  O  O27  1  0.82441979  0.85072540  0.50903281  1
  O  O28  1  0.82458838  0.34920864  0.99116193  1
  O  O29  1  0.32231318  0.84998768  0.49017827  1
  O  O30  1  0.67541162  0.65079136  0.99116193  1
  O  O31  1  0.17768682  0.15001232  0.49017827  1
  O  O32  1  0.46340397  0.64375306  0.24282490  1
  O  O33  1  0.96408279  0.14469029  0.74286719  1
  O  O34  1  0.03659603  0.35624694  0.24282490  1
  O  O35  1  0.53591721  0.85530971  0.74286719  1
  O  O36  1  0.54384009  0.35264784  0.75765028  1
  O  O37  1  0.03654317  0.85629121  0.25723066  1
  O  O38  1  0.95615991  0.64735216  0.75765028  1
  O  O39  1  0.46345683  0.14370879  0.25723066  1
