# generated using pymatgen
data_KV3(PO4)4
_symmetry_space_group_name_H-M   'P 1'
_cell_length_a   5.28472207
_cell_length_b   9.60792002
_cell_length_c   12.87912577
_cell_angle_alpha   90.00000000
_cell_angle_beta   90.00000000
_cell_angle_gamma   93.82386899
_symmetry_Int_Tables_number   1
_chemical_formula_structural   KV3(PO4)4
_chemical_formula_sum   'K2 V6 P8 O32'
_cell_volume   652.48420007
_cell_formula_units_Z   2
loop_
 _symmetry_equiv_pos_site_id
 _symmetry_equiv_pos_as_xyz
  1  'x, y, z'
loop_
 _atom_site_type_symbol
 _atom_site_label
 _atom_site_symmetry_multiplicity
 _atom_site_fract_x
 _atom_site_fract_y
 _atom_site_fract_z
 _atom_site_occupancy
  K  K0  1  0.50009041  0.50036125  0.99971215  1
  K  K1  1  0.49990959  0.49963875  0.49971215  1
  V  V2  1  0.61054962  0.90978060  0.88914253  1
  V  V3  1  0.38945038  0.09021940  0.38914253  1
  V  V4  1  0.39357271  0.08685069  0.09789669  1
  V  V5  1  0.60642729  0.91314931  0.59789669  1
  V  V6  1  0.01207637  0.40509815  0.75030979  1
  V  V7  1  0.98792363  0.59490185  0.25030979  1
  P  P8  1  0.85144682  0.87775579  0.13675017  1
  P  P9  1  0.14855318  0.12224421  0.63675017  1
  P  P10  1  0.14912908  0.12204796  0.86468929  1
  P  P11  1  0.85087092  0.87795204  0.36468929  1
  P  P12  1  0.07935693  0.71050859  0.86634947  1
  P  P13  1  0.92064307  0.28949141  0.36634947  1
  P  P14  1  0.92194687  0.28969034  0.13592705  1
  P  P15  1  0.07805313  0.71030966  0.63592705  1
  O  O16  1  0.78657039  0.93308095  0.25062455  1
  O  O17  1  0.21342961  0.06691905  0.75062455  1
  O  O18  1  0.85213195  0.71920315  0.14080152  1
  O  O19  1  0.14786805  0.28079685  0.64080152  1
  O  O20  1  0.14980411  0.28081241  0.85938082  1
  O  O21  1  0.85019589  0.71918759  0.35938082  1
  O  O22  1  0.70493660  0.37981371  0.75000563  1
  O  O23  1  0.29506340  0.62018629  0.25000563  1
  O  O24  1  0.09059397  0.77359950  0.75117809  1
  O  O25  1  0.90940603  0.22640050  0.25117809  1
  O  O26  1  0.82582430  0.74995782  0.91205593  1
  O  O27  1  0.17417570  0.25004218  0.41205593  1
  O  O28  1  0.17294076  0.24856359  0.09040669  1
  O  O29  1  0.82705924  0.75143641  0.59040669  1
  O  O30  1  0.89788823  0.05262215  0.89845030  1
  O  O31  1  0.10211177  0.94737785  0.39845030  1
  O  O32  1  0.10337768  0.94891342  0.10519518  1
  O  O33  1  0.89662232  0.05108658  0.60519518  1
  O  O34  1  0.62987586  0.92778556  0.06984945  1
  O  O35  1  0.37012414  0.07221444  0.56984945  1
  O  O36  1  0.37515123  0.07262910  0.92998762  1
  O  O37  1  0.62484877  0.92737090  0.42998762  1
  O  O38  1  0.08752322  0.55138510  0.86013452  1
  O  O39  1  0.91247678  0.44861490  0.36013452  1
  O  O40  1  0.91126833  0.44867899  0.14041555  1
  O  O41  1  0.08873167  0.55132101  0.64041555  1
  O  O42  1  0.31329830  0.77357626  0.92252666  1
  O  O43  1  0.68670170  0.22642374  0.42252666  1
  O  O44  1  0.68842422  0.22560031  0.07977990  1
  O  O45  1  0.31157578  0.77439969  0.57977990  1
  O  O46  1  0.59373309  0.90501574  0.75923045  1
  O  O47  1  0.40626691  0.09498426  0.25923045  1
