# generated using pymatgen
data_LaCeCu12
_symmetry_space_group_name_H-M   'P 1'
_cell_length_a   5.09430431
_cell_length_b   8.07857375
_cell_length_c   10.08636092
_cell_angle_alpha   90.00000000
_cell_angle_beta   90.00000000
_cell_angle_gamma   90.00000000
_symmetry_Int_Tables_number   1
_chemical_formula_structural   LaCeCu12
_chemical_formula_sum   'La2 Ce2 Cu24'
_cell_volume   415.10128962
_cell_formula_units_Z   2
loop_
 _symmetry_equiv_pos_site_id
 _symmetry_equiv_pos_as_xyz
  1  'x, y, z'
loop_
 _atom_site_type_symbol
 _atom_site_label
 _atom_site_symmetry_multiplicity
 _atom_site_fract_x
 _atom_site_fract_y
 _atom_site_fract_z
 _atom_site_occupancy
  La  La0  1  0.25000000  0.75997378  0.06473952  1
  La  La1  1  0.25000000  0.25997378  0.43526048  1
  Ce  Ce2  1  0.75000000  0.23997326  0.93506054  1
  Ce  Ce3  1  0.75000000  0.73997326  0.56493946  1
  Cu  Cu4  1  0.75000000  0.35323745  0.64268600  1
  Cu  Cu5  1  0.75000000  0.85323745  0.85731400  1
  Cu  Cu6  1  0.25000000  0.64742849  0.35833851  1
  Cu  Cu7  1  0.25000000  0.14742849  0.14166149  1
  Cu  Cu8  1  0.75000000  0.68204902  0.25554658  1
  Cu  Cu9  1  0.75000000  0.18204902  0.24445342  1
  Cu  Cu10  1  0.25000000  0.31786133  0.74549456  1
  Cu  Cu11  1  0.25000000  0.81786133  0.75450544  1
  Cu  Cu12  1  0.75000000  0.93849631  0.09752174  1
  Cu  Cu13  1  0.75000000  0.43849631  0.40247826  1
  Cu  Cu14  1  0.25000000  0.06365008  0.90202627  1
  Cu  Cu15  1  0.25000000  0.56365008  0.59797373  1
  Cu  Cu16  1  0.75000000  0.59843687  0.01524979  1
  Cu  Cu17  1  0.75000000  0.09843687  0.48475021  1
  Cu  Cu18  1  0.25000000  0.39982017  0.98435070  1
  Cu  Cu19  1  0.25000000  0.89982017  0.51564930  1
  Cu  Cu20  1  0.99467938  0.06458705  0.69142765  1
  Cu  Cu21  1  0.50532062  0.56458705  0.80857235  1
  Cu  Cu22  1  0.49617727  0.93494957  0.30934945  1
  Cu  Cu23  1  0.00382273  0.43494957  0.19065055  1
  Cu  Cu24  1  0.00382273  0.93494957  0.30934945  1
  Cu  Cu25  1  0.49617727  0.43494957  0.19065055  1
  Cu  Cu26  1  0.50532062  0.06458705  0.69142765  1
  Cu  Cu27  1  0.99467938  0.56458705  0.80857235  1
