# generated using pymatgen
data_La2GaFeO6
_symmetry_space_group_name_H-M   'P 1'
_cell_length_a   5.59451722
_cell_length_b   5.59303840
_cell_length_c   7.90954775
_cell_angle_alpha   90.08556376
_cell_angle_beta   90.00000000
_cell_angle_gamma   90.00000000
_symmetry_Int_Tables_number   1
_chemical_formula_structural   La2GaFeO6
_chemical_formula_sum   'La4 Ga2 Fe2 O12'
_cell_volume   247.49223862
_cell_formula_units_Z   2
loop_
 _symmetry_equiv_pos_site_id
 _symmetry_equiv_pos_as_xyz
  1  'x, y, z'
loop_
 _atom_site_type_symbol
 _atom_site_label
 _atom_site_symmetry_multiplicity
 _atom_site_fract_x
 _atom_site_fract_y
 _atom_site_fract_z
 _atom_site_occupancy
  La  La0  1  0.47155106  0.49237149  0.75032095  1
  La  La1  1  0.97155106  0.00762851  0.74967905  1
  La  La2  1  0.52844894  0.50762851  0.24967905  1
  La  La3  1  0.02844894  0.99237149  0.25032095  1
  Ga  Ga4  1  -0.00000000  0.50000000  0.00000000  1
  Ga  Ga5  1  0.50000000  0.00000000  0.50000000  1
  Fe  Fe6  1  -0.00000000  0.50000000  0.50000000  1
  Fe  Fe7  1  0.50000000  0.00000000  0.00000000  1
  O  O8  1  0.51613430  0.91978509  0.74834655  1
  O  O9  1  0.01613430  0.58021491  0.75165345  1
  O  O10  1  0.48386570  0.08021491  0.25165345  1
  O  O11  1  0.98386570  0.41978509  0.24834655  1
  O  O12  1  0.71611760  0.27929759  0.54321876  1
  O  O13  1  0.21611760  0.22070241  0.95678124  1
  O  O14  1  0.28200361  0.71759698  0.04293949  1
  O  O15  1  0.78200361  0.78240302  0.45706051  1
  O  O16  1  0.28388240  0.72070241  0.45678124  1
  O  O17  1  0.78388240  0.77929759  0.04321876  1
  O  O18  1  0.71799639  0.28240302  0.95706051  1
  O  O19  1  0.21799639  0.21759698  0.54293949  1
