# generated using pymatgen
data_La7Nb3(W2O15)2
_symmetry_space_group_name_H-M   'P 1'
_cell_length_a   6.96775355
_cell_length_b   10.23892534
_cell_length_c   10.25716628
_cell_angle_alpha   115.04677641
_cell_angle_beta   103.41510318
_cell_angle_gamma   102.61382797
_symmetry_Int_Tables_number   1
_chemical_formula_structural   La7Nb3(W2O15)2
_chemical_formula_sum   'La7 Nb3 W4 O30'
_cell_volume   601.81301458
_cell_formula_units_Z   1
loop_
 _symmetry_equiv_pos_site_id
 _symmetry_equiv_pos_as_xyz
  1  'x, y, z'
loop_
 _atom_site_type_symbol
 _atom_site_label
 _atom_site_symmetry_multiplicity
 _atom_site_fract_x
 _atom_site_fract_y
 _atom_site_fract_z
 _atom_site_occupancy
  La  La0  1  0.55416505  0.43057173  0.19156187  1
  La  La1  1  0.35877091  0.80322336  0.23585620  1
  La  La2  1  0.11999122  0.75670675  0.56935726  1
  La  La3  1  0.44583495  0.56942827  0.80843813  1
  La  La4  1  0.64122909  0.19677664  0.76414380  1
  La  La5  1  0.88000878  0.24329325  0.43064274  1
  La  La6  1  0.00000000  0.00000000  -0.00000000  1
  Nb  Nb7  1  0.50000000  0.00000000  -0.00000000  1
  Nb  Nb8  1  0.97498266  0.61131135  0.82739669  1
  Nb  Nb9  1  0.02501734  0.38868865  0.17260331  1
  W  W10  1  0.14670169  0.16771991  0.78802357  1
  W  W11  1  0.35871570  0.21191655  0.37756798  1
  W  W12  1  0.85329831  0.83228009  0.21197643  1
  W  W13  1  0.64128430  0.78808345  0.62243202  1
  O  O14  1  0.22126341  0.61315438  0.95770830  1
  O  O15  1  0.25874300  0.04421537  0.65614378  1
  O  O16  1  0.60383914  0.34597453  0.39213680  1
  O  O17  1  0.77873659  0.38684562  0.04229170  1
  O  O18  1  0.74125700  0.95578463  0.34385622  1
  O  O19  1  0.39616086  0.65402547  0.60786320  1
  O  O20  1  0.99055021  0.77856700  0.05988660  1
  O  O21  1  0.93437839  0.94476175  0.71740418  1
  O  O22  1  0.21788397  0.27575473  0.22422787  1
  O  O23  1  0.00944979  0.22143300  0.94011340  1
  O  O24  1  0.06562161  0.05523825  0.28259582  1
  O  O25  1  0.78211603  0.72424527  0.77577213  1
  O  O26  1  0.73276473  0.45460011  0.79198203  1
  O  O27  1  0.95022876  0.20315622  0.66300695  1
  O  O28  1  0.28612030  0.33478464  0.53728251  1
  O  O29  1  0.26723527  0.54539989  0.20801797  1
  O  O30  1  0.04977124  0.79684378  0.33699305  1
  O  O31  1  0.71387970  0.66521536  0.46271749  1
  O  O32  1  0.03458630  0.51382532  0.64810111  1
  O  O33  1  0.37229228  0.34765933  0.86485467  1
  O  O34  1  0.50935476  0.13392863  0.48106788  1
  O  O35  1  0.96541370  0.48617468  0.35189889  1
  O  O36  1  0.62770772  0.65234067  0.13514533  1
  O  O37  1  0.49064524  0.86607137  0.51893212  1
  O  O38  1  0.38922167  0.03663039  0.17639891  1
  O  O39  1  0.22143176  0.82750269  0.85756860  1
  O  O40  1  0.35502484  0.14168861  0.96307651  1
  O  O41  1  0.61077833  0.96336961  0.82360109  1
  O  O42  1  0.77856824  0.17249731  0.14243140  1
  O  O43  1  0.64497516  0.85831139  0.03692349  1
