# generated using pymatgen
data_Na11(Ru4O9)4
_symmetry_space_group_name_H-M   'P 1'
_cell_length_a   5.73123303
_cell_length_b   11.97488070
_cell_length_c   11.55329607
_cell_angle_alpha   102.71805710
_cell_angle_beta   104.38632364
_cell_angle_gamma   96.77650854
_symmetry_Int_Tables_number   1
_chemical_formula_structural   Na11(Ru4O9)4
_chemical_formula_sum   'Na11 Ru16 O36'
_cell_volume   736.58471870
_cell_formula_units_Z   1
loop_
 _symmetry_equiv_pos_site_id
 _symmetry_equiv_pos_as_xyz
  1  'x, y, z'
loop_
 _atom_site_type_symbol
 _atom_site_label
 _atom_site_symmetry_multiplicity
 _atom_site_fract_x
 _atom_site_fract_y
 _atom_site_fract_z
 _atom_site_occupancy
  Na  Na0  1  0.89361993  0.72933887  0.91761964  1
  Na  Na1  1  0.37716027  0.72910460  0.89093080  1
  Na  Na2  1  0.61983719  0.26787507  0.10984151  1
  Na  Na3  1  0.11903496  0.27177108  0.10245118  1
  Na  Na4  1  0.87993080  0.70899835  0.39891074  1
  Na  Na5  1  0.37748422  0.71239189  0.40243288  1
  Na  Na6  1  0.62182499  0.29502970  0.59631784  1
  Na  Na7  1  0.11944369  0.29549329  0.59546708  1
  Na  Na8  1  0.55597838  0.86062675  0.19255314  1
  Na  Na9  1  0.44183649  0.14839146  0.81022407  1
  Na  Na10  1  0.93802591  0.14099968  0.80950161  1
  Ru  Ru11  1  0.05444664  0.88196839  0.69214164  1
  Ru  Ru12  1  0.57407287  0.88026379  0.68570555  1
  Ru  Ru13  1  0.41142137  0.11710215  0.31135910  1
  Ru  Ru14  1  0.95883462  0.11984667  0.31071778  1
  Ru  Ru15  1  0.95591561  0.57443332  0.62396645  1
  Ru  Ru16  1  0.45479128  0.57221942  0.62567766  1
  Ru  Ru17  1  0.54439669  0.42517430  0.37603275  1
  Ru  Ru18  1  0.04440844  0.42852841  0.37439881  1
  Ru  Ru19  1  0.82085361  0.45420660  0.86956906  1
  Ru  Ru20  1  0.27395911  0.45132712  0.86539991  1
  Ru  Ru21  1  0.67828974  0.54107166  0.12864164  1
  Ru  Ru22  1  0.22520859  0.54458664  0.13322343  1
  Ru  Ru23  1  0.52394066  0.00163059  0.99899165  1
  Ru  Ru24  1  0.97816823  0.99905778  0.00002845  1
  Ru  Ru25  1  0.77657589  0.00258663  0.50072843  1
  Ru  Ru26  1  0.23024201  0.00129824  0.50475492  1
  O  O27  1  0.88570516  0.93893133  0.82022848  1
  O  O28  1  0.39928016  0.94118214  0.81208842  1
  O  O29  1  0.61644995  0.06453714  0.18912154  1
  O  O30  1  0.09775971  0.06219515  0.17634405  1
  O  O31  1  0.77161965  0.12655878  0.97819858  1
  O  O32  1  0.26720646  0.10714348  0.98072193  1
  O  O33  1  0.72003057  0.87621883  0.01571537  1
  O  O34  1  0.23429566  0.89545057  0.01160541  1
  O  O35  1  0.74598311  0.52078803  0.72270164  1
  O  O36  1  0.23770725  0.52324860  0.72458531  1
  O  O37  1  0.75024595  0.47438321  0.27380637  1
  O  O38  1  0.26191896  0.47562932  0.27575290  1
  O  O39  1  0.13306987  0.57837406  0.96052882  1
  O  O40  1  0.61055301  0.56112893  0.94903509  1
  O  O41  1  0.36591934  0.41704969  0.03760117  1
  O  O42  1  0.88776031  0.43309727  0.04812691  1
  O  O43  1  0.74046779  0.84441106  0.54546089  1
  O  O44  1  0.23459203  0.84637843  0.55764880  1
  O  O45  1  0.75571061  0.15028623  0.43470273  1
  O  O46  1  0.26623570  0.15757284  0.46003359  1
  O  O47  1  0.97080363  0.32726401  0.78320244  1
  O  O48  1  0.48769610  0.34499906  0.79941251  1
  O  O49  1  0.52708819  0.66826774  0.21410151  1
  O  O50  1  0.00736882  0.64408396  0.19688455  1
  O  O51  1  0.64452012  0.59022247  0.49928727  1
  O  O52  1  0.14917298  0.59237772  0.49876096  1
  O  O53  1  0.85571113  0.40904347  0.50113194  1
  O  O54  1  0.35083419  0.40966590  0.50186989  1
  O  O55  1  0.03892728  0.73141043  0.72603956  1
  O  O56  1  0.54883554  0.73023153  0.72260052  1
  O  O57  1  0.44883547  0.26755626  0.27403389  1
  O  O58  1  0.96222609  0.27082850  0.27454829  1
  O  O59  1  0.57602958  0.03756975  0.62902454  1
  O  O60  1  0.08415733  0.04805122  0.64808060  1
  O  O61  1  0.92410966  0.95849630  0.35860087  1
  O  O62  1  0.43332042  0.96604414  0.38152496  1
