# generated using pymatgen
data_Zr2N2O
_symmetry_space_group_name_H-M   'P 1'
_cell_length_a   8.60600422
_cell_length_b   3.15712768
_cell_length_c   8.52896795
_cell_angle_alpha   90.00000000
_cell_angle_beta   89.70320038
_cell_angle_gamma   90.00000000
_symmetry_Int_Tables_number   1
_chemical_formula_structural   Zr2N2O
_chemical_formula_sum   'Zr8 N8 O4'
_cell_volume   231.73111746
_cell_formula_units_Z   4
loop_
 _symmetry_equiv_pos_site_id
 _symmetry_equiv_pos_as_xyz
  1  'x, y, z'
loop_
 _atom_site_type_symbol
 _atom_site_label
 _atom_site_symmetry_multiplicity
 _atom_site_fract_x
 _atom_site_fract_y
 _atom_site_fract_z
 _atom_site_occupancy
  Zr  Zr0  1  0.00052193  0.25000000  0.17371745  1
  Zr  Zr1  1  0.19046083  0.25000000  0.50198816  1
  Zr  Zr2  1  0.31721092  0.75000000  0.00378367  1
  Zr  Zr3  1  0.49669262  0.75000000  0.68159797  1
  Zr  Zr4  1  0.51267646  0.25000000  0.32195095  1
  Zr  Zr5  1  0.68132020  0.25000000  0.00304337  1
  Zr  Zr6  1  0.81283031  0.75000000  0.49497975  1
  Zr  Zr7  1  0.99451927  0.75000000  0.81667154  1
  N  N8  1  0.12423910  0.25000000  0.94270966  1
  N  N9  1  0.37634738  0.75000000  0.44699870  1
  N  N10  1  0.44995147  0.25000000  0.86921644  1
  N  N11  1  0.54203175  0.75000000  0.13145656  1
  N  N12  1  0.62565991  0.25000000  0.55972017  1
  N  N13  1  0.77111066  0.25000000  0.30593740  1
  N  N14  1  0.87715517  0.75000000  0.05555026  1
  N  N15  1  0.95895499  0.25000000  0.62768097  1
  O  O16  1  0.05012853  0.75000000  0.36648580  1
  O  O17  1  0.22555076  0.75000000  0.68638134  1
  O  O18  1  0.26406979  0.25000000  0.19976330  1
  O  O19  1  0.72856597  0.75000000  0.81036554  1
