# generated using pymatgen
data_KCrO3F
_symmetry_space_group_name_H-M   'P 1'
_cell_length_a   5.63302599
_cell_length_b   5.63519755
_cell_length_c   7.70742424
_cell_angle_alpha   69.61760034
_cell_angle_beta   69.06142813
_cell_angle_gamma   90.02036411
_symmetry_Int_Tables_number   1
_chemical_formula_structural   KCrO3F
_chemical_formula_sum   'K2 Cr2 O6 F2'
_cell_volume   212.00728746
_cell_formula_units_Z   2
loop_
 _symmetry_equiv_pos_site_id
 _symmetry_equiv_pos_as_xyz
  1  'x, y, z'
loop_
 _atom_site_type_symbol
 _atom_site_label
 _atom_site_symmetry_multiplicity
 _atom_site_fract_x
 _atom_site_fract_y
 _atom_site_fract_z
 _atom_site_occupancy
  K  K0  1  0.24808686  0.74697858  0.50143438  1
  K  K1  1  0.49527959  0.49878156  0.00161719  1
  Cr  Cr2  1  0.74904225  0.25832461  0.49727598  1
  Cr  Cr3  1  0.00831644  0.00332103  0.99729797  1
  O  O4  1  0.59528398  0.41216356  0.63693120  1
  O  O5  1  0.15992409  0.84939077  0.85686120  1
  O  O6  1  0.98828583  0.29022472  0.86008545  1
  O  O7  1  0.59931189  0.23963846  0.35588429  1
  O  O8  1  0.03955806  0.40762986  0.36071390  1
  O  O9  1  0.16079639  0.01947000  0.13762889  1
  F  F10  1  0.76872185  0.93850308  0.64733993  1
  F  F11  1  0.68739278  0.83557378  0.14692963  1
