# generated using pymatgen
data_KAlSi3O8
_symmetry_space_group_name_H-M   'P 1'
_cell_length_a   7.22998285
_cell_length_b   7.96330945
_cell_length_c   7.96330945
_cell_angle_alpha   113.54285923
_cell_angle_beta   103.85851733
_cell_angle_gamma   103.85851733
_symmetry_Int_Tables_number   1
_chemical_formula_structural   KAlSi3O8
_chemical_formula_sum   'K2 Al2 Si6 O16'
_cell_volume   378.04082263
_cell_formula_units_Z   2
loop_
 _symmetry_equiv_pos_site_id
 _symmetry_equiv_pos_as_xyz
  1  'x, y, z'
loop_
 _atom_site_type_symbol
 _atom_site_label
 _atom_site_symmetry_multiplicity
 _atom_site_fract_x
 _atom_site_fract_y
 _atom_site_fract_z
 _atom_site_occupancy
  K  K0  1  0.13871301  0.28241411  0.29466570  1
  K  K1  1  0.86128699  0.70533430  0.71758589  1
  Al  Al2  1  0.34325685  0.59269415  0.82819474  1
  Al  Al3  1  0.65674315  0.17180526  0.40730585  1
  Si  Si4  1  0.34530226  0.83419798  0.59585601  1
  Si  Si5  1  0.65469774  0.40414399  0.16580202  1
  Si  Si6  1  0.22584949  0.82985592  0.19953989  1
  Si  Si7  1  0.22156887  0.19659637  0.82045860  1
  Si  Si8  1  0.77843113  0.17954140  0.80340363  1
  Si  Si9  1  0.77415051  0.80046011  0.17014408  1
  O  O10  1  -0.00000000  0.84682319  0.15317681  1
  O  O11  1  -0.00000000  0.14724334  0.85275666  1
  O  O12  1  0.28421537  0.64697354  0.63260461  1
  O  O13  1  0.71578463  0.36739539  0.35302646  1
  O  O14  1  0.26273378  0.74115006  0.35516974  1
  O  O15  1  0.24854615  0.33250929  0.71718194  1
  O  O16  1  0.75145385  0.28281806  0.66749071  1
  O  O17  1  0.73726622  0.64483026  0.25884994  1
  O  O18  1  0.38932565  0.05391745  0.30353044  1
  O  O19  1  0.40278455  0.30363797  0.04379351  1
  O  O20  1  0.59721545  0.95620649  0.69636203  1
  O  O21  1  0.61067435  0.69646956  0.94608255  1
  O  O22  1  0.22133446  0.68129227  0.98890782  1
  O  O23  1  0.22772632  0.97972018  0.68912282  1
  O  O24  1  0.77227368  0.31087718  0.02027982  1
  O  O25  1  0.77866554  0.01109218  0.31870773  1
