# generated using pymatgen
data_K7Ti8(PO4)12
_symmetry_space_group_name_H-M   'P 1'
_cell_length_a   9.98848004
_cell_length_b   9.98848004
_cell_length_c   9.98848004
_cell_angle_alpha   89.88063867
_cell_angle_beta   90.11936133
_cell_angle_gamma   89.88063867
_symmetry_Int_Tables_number   1
_chemical_formula_structural   K7Ti8(PO4)12
_chemical_formula_sum   'K7 Ti8 P12 O48'
_cell_volume   996.54149491
_cell_formula_units_Z   1
loop_
 _symmetry_equiv_pos_site_id
 _symmetry_equiv_pos_as_xyz
  1  'x, y, z'
loop_
 _atom_site_type_symbol
 _atom_site_label
 _atom_site_symmetry_multiplicity
 _atom_site_fract_x
 _atom_site_fract_y
 _atom_site_fract_z
 _atom_site_occupancy
  K  K0  1  0.70949210  0.79050790  0.20949210  1
  K  K1  1  0.79252204  0.20841152  0.70714794  1
  K  K2  1  0.20714794  0.70747796  0.79158848  1
  K  K3  1  0.29158848  0.29285206  0.29252204  1
  K  K4  1  0.56682072  0.43362446  0.93345010  1
  K  K5  1  0.43345010  0.93317928  0.56637554  1
  K  K6  1  0.06637554  0.06654990  0.06682072  1
  Ti  Ti7  1  0.13939977  0.36060023  0.63939977  1
  Ti  Ti8  1  0.35718074  0.64236648  0.14309649  1
  Ti  Ti9  1  0.64309649  0.14281926  0.35763352  1
  Ti  Ti10  1  0.85763352  0.85690351  0.85718074  1
  Ti  Ti11  1  0.41223703  0.08776297  0.91223703  1
  Ti  Ti12  1  0.08520311  0.90976943  0.41246013  1
  Ti  Ti13  1  0.91246013  0.41479689  0.09023057  1
  Ti  Ti14  1  0.59023057  0.58753987  0.58520311  1
  P  P15  1  0.72505796  0.12791017  0.04110346  1
  P  P16  1  0.54110346  0.77494204  0.87208983  1
  P  P17  1  0.37208983  0.95889654  0.22505796  1
  P  P18  1  0.77534127  0.87170293  0.54096106  1
  P  P19  1  0.95882012  0.22587529  0.37249498  1
  P  P20  1  0.12758617  0.04152901  0.72435392  1
  P  P21  1  0.22435392  0.37241383  0.95847099  1
  P  P22  1  0.04096106  0.72465873  0.12829707  1
  P  P23  1  0.87249498  0.54117988  0.77412471  1
  P  P24  1  0.27412471  0.62750502  0.45882012  1
  P  P25  1  0.45847099  0.27564608  0.62758617  1
  P  P26  1  0.62829707  0.45903894  0.27534127  1
  O  O27  1  0.00051822  0.57696936  0.14577392  1
  O  O28  1  0.64577392  0.49948178  0.42303064  1
  O  O29  1  0.92303064  0.85422608  0.50051822  1
  O  O30  1  0.50018173  0.42312831  0.64809031  1
  O  O31  1  0.85257286  0.49979843  0.92252671  1
  O  O32  1  0.57719358  0.14774060  0.00002178  1
  O  O33  1  0.50002178  0.92280642  0.85225940  1
  O  O34  1  0.14809031  -0.00018173  0.57687169  1
  O  O35  1  0.42252671  0.64742714  0.50020157  1
  O  O36  1  0.00020157  0.07747329  0.35257286  1
  O  O37  1  0.35225940  -0.00002178  0.07719358  1
  O  O38  1  0.07687169  0.35190969  0.00018173  1
  O  O39  1  0.73310096  0.07791745  0.18776162  1
  O  O40  1  0.68776162  0.76689904  0.92208255  1
  O  O41  1  0.42208255  0.81223838  0.23310096  1
  O  O42  1  0.76725869  0.92126950  0.68798952  1
  O  O43  1  0.81172946  0.23201788  0.42135859  1
  O  O44  1  0.07854342  0.18835043  0.73297124  1
  O  O45  1  0.23297124  0.42145658  0.81164957  1
  O  O46  1  0.18798952  0.73274131  0.07873050  1
  O  O47  1  0.92135859  0.68827054  0.76798212  1
  O  O48  1  0.26798212  0.57864141  0.31172946  1
  O  O49  1  0.31164957  0.26702876  0.57854342  1
  O  O50  1  0.57873050  0.31201048  0.26725869  1
  O  O51  1  0.79629621  0.26428765  0.02142866  1
  O  O52  1  0.52142866  0.70370379  0.73571235  1
  O  O53  1  0.23571235  0.97857134  0.29629621  1
  O  O54  1  0.70168304  0.73678416  0.52273433  1
  O  O55  1  0.97829924  0.29526954  0.23488868  1
  O  O56  1  0.26418028  0.02154575  0.79621218  1
  O  O57  1  0.29621218  0.23581972  0.97845425  1
  O  O58  1  0.02273433  0.79831696  0.26321584  1
  O  O59  1  0.73488868  0.52170076  0.70473046  1
  O  O60  1  0.20473046  0.76511132  0.47829924  1
  O  O61  1  0.47845425  0.20378782  0.76418028  1
  O  O62  1  0.76321584  0.47726567  0.20168304  1
  O  O63  1  0.52808154  0.55238192  0.20212006  1
  O  O64  1  0.70212006  0.97191846  0.44761808  1
  O  O65  1  0.94761808  0.79787994  0.02808154  1
  O  O66  1  0.97299254  0.44657142  0.70389445  1
  O  O67  1  0.79791466  0.02743892  0.94762327  1
  O  O68  1  0.55211813  0.20201945  0.52807104  1
  O  O69  1  0.02807104  0.94788187  0.79798055  1
  O  O70  1  0.20389445  0.52700746  0.55342858  1
  O  O71  1  0.44762327  0.70208534  0.97256108  1
  O  O72  1  0.47256108  0.05237673  0.29791466  1
  O  O73  1  0.29798055  0.47192896  0.05211813  1
  O  O74  1  0.05342858  0.29610555  0.47299254  1
