# generated using pymatgen
data_InAgSeS
_symmetry_space_group_name_H-M   'P 1'
_cell_length_a   6.06215212
_cell_length_b   6.09071014
_cell_length_c   7.30380084
_cell_angle_alpha   65.35751783
_cell_angle_beta   65.48069463
_cell_angle_gamma   90.00000000
_symmetry_Int_Tables_number   1
_chemical_formula_structural   InAgSeS
_chemical_formula_sum   'In2 Ag2 Se2 S2'
_cell_volume   218.07569260
_cell_formula_units_Z   2
loop_
 _symmetry_equiv_pos_site_id
 _symmetry_equiv_pos_as_xyz
  1  'x, y, z'
loop_
 _atom_site_type_symbol
 _atom_site_label
 _atom_site_symmetry_multiplicity
 _atom_site_fract_x
 _atom_site_fract_y
 _atom_site_fract_z
 _atom_site_occupancy
  In  In0  1  0.24469897  0.74469897  0.51060205  1
  In  In1  1  0.50530103  0.50530103  0.98939795  1
  Ag  Ag2  1  0.74178480  0.24178480  0.51643040  1
  Ag  Ag3  1  0.00821520  0.00821520  0.98356960  1
  Se  Se4  1  0.12846400  0.12500000  0.25000000  1
  Se  Se5  1  0.62153600  0.62500000  0.25000000  1
  S  S6  1  0.37500000  0.86223677  0.75000000  1
  S  S7  1  0.87500000  0.38776323  0.75000000  1
