# generated using pymatgen
data_KCd4Ga5S12
_symmetry_space_group_name_H-M   'P 1'
_cell_length_a   8.59524973
_cell_length_b   8.94603347
_cell_length_c   8.66438974
_cell_angle_alpha   108.70262226
_cell_angle_beta   108.29471445
_cell_angle_gamma   106.21311956
_symmetry_Int_Tables_number   1
_chemical_formula_structural   KCd4Ga5S12
_chemical_formula_sum   'K1 Cd4 Ga5 S12'
_cell_volume   543.08362083
_cell_formula_units_Z   1
loop_
 _symmetry_equiv_pos_site_id
 _symmetry_equiv_pos_as_xyz
  1  'x, y, z'
loop_
 _atom_site_type_symbol
 _atom_site_label
 _atom_site_symmetry_multiplicity
 _atom_site_fract_x
 _atom_site_fract_y
 _atom_site_fract_z
 _atom_site_occupancy
  K  K0  1  0.00209953  0.99511927  0.99818943  1
  Cd  Cd1  1  0.51161639  0.06422736  0.66177196  1
  Cd  Cd2  1  0.37370017  0.59741269  0.29177109  1
  Cd  Cd3  1  0.59261229  0.28258704  0.35781030  1
  Cd  Cd4  1  0.28484392  0.36386479  0.59832496  1
  Ga  Ga5  1  0.81216991  0.97285150  0.44495703  1
  Ga  Ga6  1  0.97778450  0.44682650  0.81530501  1
  Ga  Ga7  1  0.43719166  0.80760545  0.97647253  1
  Ga  Ga8  1  0.06302402  0.66661887  0.52974744  1
  Ga  Ga9  1  0.68000795  0.53121242  0.07061852  1
  S  S10  1  0.12593604  0.45756828  0.36888720  1
  S  S11  1  0.45670847  0.36989961  0.11276166  1
  S  S12  1  0.34045494  0.12454059  0.41304988  1
  S  S13  1  0.64920095  0.85297631  0.56857347  1
  S  S14  1  0.85547791  0.56056933  0.63022153  1
  S  S15  1  0.56741202  0.63352326  0.86406107  1
  S  S16  1  0.93025117  0.77419181  0.32702019  1
  S  S17  1  0.78818661  0.34194687  0.93303911  1
  S  S18  1  0.30069081  0.91169999  0.78241014  1
  S  S19  1  0.21853041  0.69718067  0.05970261  1
  S  S20  1  0.69725700  0.04636026  0.21490192  1
  S  S21  1  0.05364333  0.22001714  0.69920297  1
