# generated using pymatgen
data_InGaCuAgSe4
_symmetry_space_group_name_H-M   'P 1'
_cell_length_a   5.95334821
_cell_length_b   5.95334821
_cell_length_c   7.14995645
_cell_angle_alpha   65.39749560
_cell_angle_beta   65.39749552
_cell_angle_gamma   90.00000000
_symmetry_Int_Tables_number   1
_chemical_formula_structural   InGaCuAgSe4
_chemical_formula_sum   'In1 Ga1 Cu1 Ag1 Se4'
_cell_volume   204.83321634
_cell_formula_units_Z   1
loop_
 _symmetry_equiv_pos_site_id
 _symmetry_equiv_pos_as_xyz
  1  'x, y, z'
loop_
 _atom_site_type_symbol
 _atom_site_label
 _atom_site_symmetry_multiplicity
 _atom_site_fract_x
 _atom_site_fract_y
 _atom_site_fract_z
 _atom_site_occupancy
  In  In0  1  0.50000000  0.50000000  -0.00000000  1
  Ga  Ga1  1  0.25000000  0.75000000  0.50000000  1
  Cu  Cu2  1  0.00000000  0.00000000  -0.00000000  1
  Ag  Ag3  1  0.75000000  0.25000000  0.50000000  1
  Se  Se4  1  0.34558616  0.87527706  0.75090291  1
  Se  Se5  1  0.90351092  0.37382003  0.75090291  1
  Se  Se6  1  0.12472294  0.09648908  0.24909709  1
  Se  Se7  1  0.62617997  0.65441384  0.24909709  1
