# generated using pymatgen
data_InI2Br
_symmetry_space_group_name_H-M   'P 1'
_cell_length_a   7.36745412
_cell_length_b   7.36206520
_cell_length_c   8.41345078
_cell_angle_alpha   90.43234649
_cell_angle_beta   115.29805790
_cell_angle_gamma   58.87433990
_symmetry_Int_Tables_number   1
_chemical_formula_structural   InI2Br
_chemical_formula_sum   'In2 I4 Br2'
_cell_volume   339.49737121
_cell_formula_units_Z   2
loop_
 _symmetry_equiv_pos_site_id
 _symmetry_equiv_pos_as_xyz
  1  'x, y, z'
loop_
 _atom_site_type_symbol
 _atom_site_label
 _atom_site_symmetry_multiplicity
 _atom_site_fract_x
 _atom_site_fract_y
 _atom_site_fract_z
 _atom_site_occupancy
  In  In0  1  0.58458365  0.70782787  0.87292492  1
  In  In1  1  0.24828681  0.37455034  0.87090339  1
  I  I2  1  0.44358588  0.59282702  0.11634884  1
  I  I3  1  0.10440523  0.12084470  0.63792395  1
  I  I4  1  0.75756532  0.77778708  0.63782381  1
  I  I5  1  0.42209074  0.45948515  0.64097225  1
  Br  Br6  1  0.67938241  0.96927687  0.08603726  1
  Br  Br7  1  0.05909995  0.34790096  0.08556557  1
