# generated using pymatgen
data_KBa2Zn3B9O19
_symmetry_space_group_name_H-M   'P 1'
_cell_length_a   7.13315618
_cell_length_b   7.23181737
_cell_length_c   19.04357696
_cell_angle_alpha   93.60340392
_cell_angle_beta   90.65306906
_cell_angle_gamma   119.66349376
_symmetry_Int_Tables_number   1
_chemical_formula_structural   KBa2Zn3B9O19
_chemical_formula_sum   'K2 Ba4 Zn6 B18 O38'
_cell_volume   850.92121420
_cell_formula_units_Z   2
loop_
 _symmetry_equiv_pos_site_id
 _symmetry_equiv_pos_as_xyz
  1  'x, y, z'
loop_
 _atom_site_type_symbol
 _atom_site_label
 _atom_site_symmetry_multiplicity
 _atom_site_fract_x
 _atom_site_fract_y
 _atom_site_fract_z
 _atom_site_occupancy
  K  K0  1  0.83572762  0.99053696  0.91925699  1
  K  K1  1  0.16427238  0.00946304  0.08074301  1
  Ba  Ba2  1  0.45621861  0.09577334  0.77658800  1
  Ba  Ba3  1  0.54378139  0.90422666  0.22341200  1
  Ba  Ba4  1  0.66532303  0.38152264  0.57230104  1
  Ba  Ba5  1  0.33467697  0.61847736  0.42769896  1
  Zn  Zn6  1  0.33746810  0.70328378  0.62317799  1
  Zn  Zn7  1  0.66253190  0.29671622  0.37682201  1
  Zn  Zn8  1  0.10154733  0.40049648  0.75807199  1
  Zn  Zn9  1  0.89845267  0.59950352  0.24192801  1
  Zn  Zn10  1  0.52639906  0.35521877  0.95015221  1
  Zn  Zn11  1  0.47360094  0.64478123  0.04984779  1
  B  B12  1  0.95748557  0.49342821  0.89666871  1
  B  B13  1  0.04251443  0.50657179  0.10333129  1
  B  B14  1  0.92847273  0.93672261  0.75306348  1
  B  B15  1  0.07152727  0.06327739  0.24693652  1
  B  B16  1  0.81004522  0.56034961  0.73078839  1
  B  B17  1  0.18995478  0.43965039  0.26921161  1
  B  B18  1  0.16569393  0.00279528  0.59956731  1
  B  B19  1  0.83430607  0.99720472  0.40043269  1
  B  B20  1  0.36215723  0.61308439  0.88223819  1
  B  B21  1  0.63784277  0.38691561  0.11776181  1
  B  B22  1  0.05291112  0.26482837  0.57272051  1
  B  B23  1  0.94708888  0.73517163  0.42727949  1
  B  B24  1  0.53320258  0.66450088  0.75664928  1
  B  B25  1  0.46679742  0.33549912  0.24335072  1
  B  B26  1  0.23202778  0.87177528  0.91677403  1
  B  B27  1  0.76797222  0.12822472  0.08322597  1
  B  B28  1  0.77994027  0.88360773  0.57280975  1
  B  B29  1  0.22005973  0.11639227  0.42719025  1
  O  O30  1  0.33115738  0.97462559  0.61695403  1
  O  O31  1  0.66884262  0.02537441  0.38304597  1
  O  O32  1  0.26142608  0.06946664  0.92974981  1
  O  O33  1  0.73857392  0.93053336  0.07025019  1
  O  O34  1  0.83659322  0.09644609  0.56559206  1
  O  O35  1  0.16340678  0.90355391  0.43440794  1
  O  O36  1  0.34793857  0.65899293  0.72093486  1
  O  O37  1  0.65206143  0.34100707  0.27906514  1
  O  O38  1  0.02861827  0.69686785  0.93073558  1
  O  O39  1  0.97138173  0.30313215  0.06926442  1
  O  O40  1  0.43027863  0.57071039  0.94693763  1
  O  O41  1  0.56972137  0.42928961  0.05306237  1
  O  O42  1  0.09933078  0.13017304  0.74523107  1
  O  O43  1  0.90066922  0.86982696  0.25476893  1
  O  O44  1  0.09475721  0.46430696  0.56564334  1
  O  O45  1  0.90524279  0.53569304  0.43435666  1
  O  O46  1  0.11364815  0.45720087  0.86414518  1
  O  O47  1  0.88635185  0.54279913  0.13585482  1
  O  O48  1  0.57662916  0.72236383  0.56268326  1
  O  O49  1  0.42337084  0.27763617  0.43731674  1
  O  O50  1  0.94747515  0.84009138  0.58972664  1
  O  O51  1  0.05252485  0.15990862  0.41027336  1
  O  O52  1  0.47850709  0.58068975  0.82485628  1
  O  O53  1  0.52149291  0.41931025  0.17514372  1
  O  O54  1  0.21235137  0.20995870  0.58464171  1
  O  O55  1  0.78764863  0.79004130  0.41535829  1
  O  O56  1  0.84291602  0.39270767  0.71595444  1
  O  O57  1  0.15708398  0.60729233  0.28404556  1
  O  O58  1  0.74845372  0.33804911  0.89294621  1
  O  O59  1  0.25154628  0.66195089  0.10705379  1
  O  O60  1  0.38663576  0.83353251  0.88580670  1
  O  O61  1  0.61336424  0.16646749  0.11419330  1
  O  O62  1  0.60453973  0.52597249  0.71488399  1
  O  O63  1  0.39546027  0.47402751  0.28511601  1
  O  O64  1  0.71880380  0.89420525  0.76016125  1
  O  O65  1  0.28119620  0.10579475  0.23983875  1
  O  O66  1  0.97322003  0.76543914  0.75503661  1
  O  O67  1  0.02677997  0.23456086  0.24496339  1
