# generated using pymatgen
data_KNbW2O9
_symmetry_space_group_name_H-M   'P 1'
_cell_length_a   3.95309385
_cell_length_b   13.08083514
_cell_length_c   13.03267714
_cell_angle_alpha   59.95754202
_cell_angle_beta   90.02086568
_cell_angle_gamma   89.97480445
_symmetry_Int_Tables_number   1
_chemical_formula_structural   KNbW2O9
_chemical_formula_sum   'K3 Nb3 W6 O27'
_cell_volume   583.37895689
_cell_formula_units_Z   3
loop_
 _symmetry_equiv_pos_site_id
 _symmetry_equiv_pos_as_xyz
  1  'x, y, z'
loop_
 _atom_site_type_symbol
 _atom_site_label
 _atom_site_symmetry_multiplicity
 _atom_site_fract_x
 _atom_site_fract_y
 _atom_site_fract_z
 _atom_site_occupancy
  K  K0  1  0.98085686  0.16891463  0.67075021  1
  K  K1  1  0.98171357  0.83377329  0.33191133  1
  K  K2  1  0.86606621  0.49962568  0.99874167  1
  Nb  Nb3  1  0.41090018  0.33222176  0.33307798  1
  Nb  Nb4  1  0.41102384  0.66092044  0.67247149  1
  Nb  Nb5  1  0.40973163  0.33406397  0.83164246  1
  W  W6  1  0.49993364  0.49963162  0.50095023  1
  W  W7  1  0.49924038  0.99813798  0.50092612  1
  W  W8  1  0.50202853  -0.00000821  0.00134234  1
  W  W9  1  0.41533075  0.66615618  0.16830854  1
  W  W10  1  0.41603788  0.16484437  0.16765821  1
  W  W11  1  0.41636593  0.83579346  0.83263393  1
  O  O12  1  0.94807167  0.33025168  0.82383445  1
  O  O13  1  0.94909300  0.67112977  0.16640536  1
  O  O14  1  0.95038072  0.15634759  0.17200068  1
  O  O15  1  0.95076360  0.84098830  0.83172972  1
  O  O16  1  0.45849860  0.37487816  0.65895980  1
  O  O17  1  0.45531523  0.62595213  0.33136896  1
  O  O18  1  0.45815411  0.04080528  0.33580719  1
  O  O19  1  0.45728047  0.95953566  0.66715604  1
  O  O20  1  0.96695571  0.99598826  0.00384513  1
  O  O21  1  0.45560094  0.38382626  0.45103981  1
  O  O22  1  0.45508655  0.61983901  0.54379511  1
  O  O23  1  0.45674469  0.83775321  0.54531619  1
  O  O24  1  0.45296033  0.16432854  0.45631919  1
  O  O25  1  0.45398793  0.50941653  0.20058443  1
  O  O26  1  0.45590422  0.49651996  0.80152201  1
  O  O27  1  0.45640935  0.71416797  0.79626265  1
  O  O28  1  0.45613962  0.28705699  0.20339281  1
  O  O29  1  0.45371497  0.27825191  0.00475117  1
  O  O30  1  0.45449922  0.71855008  0.99879802  1
  O  O31  1  0.94837625  0.33909944  0.32073493  1
  O  O32  1  0.94847921  0.66801205  0.67074006  1
  O  O33  1  0.45828204  0.15887203  0.88035615  1
  O  O34  1  0.45658716  0.83353013  0.12373740  1
  O  O35  1  0.45923894  0.03763724  0.12695528  1
  O  O36  1  0.45957358  0.95787390  0.87769737  1
  O  O37  1  0.96455609  0.50396651  0.49519815  1
  O  O38  1  0.96411639  0.00134627  0.50127743  1
