# generated using pymatgen
data_K15Si92
_symmetry_space_group_name_H-M   'P 1'
_cell_length_a   10.34488600
_cell_length_b   10.34836394
_cell_length_c   20.68218597
_cell_angle_alpha   90.00000000
_cell_angle_beta   90.00000000
_cell_angle_gamma   90.00000000
_symmetry_Int_Tables_number   1
_chemical_formula_structural   K15Si92
_chemical_formula_sum   'K15 Si92'
_cell_volume   2214.08271755
_cell_formula_units_Z   1
loop_
 _symmetry_equiv_pos_site_id
 _symmetry_equiv_pos_as_xyz
  1  'x, y, z'
loop_
 _atom_site_type_symbol
 _atom_site_label
 _atom_site_symmetry_multiplicity
 _atom_site_fract_x
 _atom_site_fract_y
 _atom_site_fract_z
 _atom_site_occupancy
  K  K0  1  0.50000000  0.50000000  0.25004472  1
  K  K1  1  0.50000000  0.50000000  0.74995528  1
  K  K2  1  -0.00000000  0.00000000  -0.00000000  1
  K  K3  1  0.75002203  0.00000000  0.25003733  1
  K  K4  1  0.75002203  0.00000000  0.74996267  1
  K  K5  1  -0.00000000  0.50000000  0.37506779  1
  K  K6  1  -0.00000000  0.50000000  0.87498438  1
  K  K7  1  0.50000000  0.24988491  -0.00000000  1
  K  K8  1  0.50000000  0.24979078  0.50000000  1
  K  K9  1  0.24997797  0.00000000  0.25003733  1
  K  K10  1  0.24997797  0.00000000  0.74996267  1
  K  K11  1  -0.00000000  0.50000000  0.12501562  1
  K  K12  1  -0.00000000  0.50000000  0.62493221  1
  K  K13  1  0.50000000  0.75011509  -0.00000000  1
  K  K14  1  0.50000000  0.75020922  0.50000000  1
  Si  Si15  1  0.50000000  0.00000000  0.37544041  1
  Si  Si16  1  0.50000000  0.00000000  0.87510721  1
  Si  Si17  1  -0.00000000  0.24962392  0.25003802  1
  Si  Si18  1  -0.00000000  0.24962392  0.74996198  1
  Si  Si19  1  0.74987282  0.50000000  -0.00000000  1
  Si  Si20  1  0.75067202  0.50000000  0.50000000  1
  Si  Si21  1  0.50000000  0.00000000  0.12489279  1
  Si  Si22  1  0.50000000  0.00000000  0.62455959  1
  Si  Si23  1  -0.00000000  0.75037608  0.25003802  1
  Si  Si24  1  -0.00000000  0.75037608  0.74996198  1
  Si  Si25  1  0.25012718  0.50000000  -0.00000000  1
  Si  Si26  1  0.24932798  0.50000000  0.50000000  1
  Si  Si27  1  0.50000000  0.19315290  0.30963526  1
  Si  Si28  1  0.50000000  0.19298185  0.80965778  1
  Si  Si29  1  0.80716796  0.38068006  0.25000644  1
  Si  Si30  1  0.80716796  0.38068006  0.74999356  1
  Si  Si31  1  0.61861653  0.50000000  0.40351536  1
  Si  Si32  1  0.61848736  0.50000000  0.90350294  1
  Si  Si33  1  0.50000000  0.80701815  0.19034222  1
  Si  Si34  1  0.50000000  0.80684710  0.69036474  1
  Si  Si35  1  0.19283204  0.61931994  0.25000644  1
  Si  Si36  1  0.19283204  0.61931994  0.74999356  1
  Si  Si37  1  0.38151264  0.50000000  0.09649706  1
  Si  Si38  1  0.38138347  0.50000000  0.59648464  1
  Si  Si39  1  0.80716796  0.61931994  0.25000644  1
  Si  Si40  1  0.80716796  0.61931994  0.74999356  1
  Si  Si41  1  0.61848736  0.50000000  0.09649706  1
  Si  Si42  1  0.61861653  0.50000000  0.59648464  1
  Si  Si43  1  0.19283204  0.38068006  0.25000644  1
  Si  Si44  1  0.19283204  0.38068006  0.74999356  1
  Si  Si45  1  0.38138347  0.50000000  0.40351536  1
  Si  Si46  1  0.38151264  0.50000000  0.90350294  1
  Si  Si47  1  0.50000000  0.80684710  0.30963526  1
  Si  Si48  1  0.50000000  0.80701815  0.80965778  1
  Si  Si49  1  0.50000000  0.19298185  0.19034222  1
  Si  Si50  1  0.50000000  0.19315290  0.69036474  1
  Si  Si51  1  -0.00000000  0.11844220  0.34710884  1
  Si  Si52  1  -0.00000000  0.11891673  0.84655491  1
  Si  Si53  1  0.30592915  0.00000000  0.44053445  1
  Si  Si54  1  0.30689919  0.00000000  0.94057207  1
  Si  Si55  1  0.11917356  0.30691757  -0.00000000  1
  Si  Si56  1  0.11892790  0.30580037  0.50000000  1
  Si  Si57  1  -0.00000000  0.88108327  0.15344509  1
  Si  Si58  1  -0.00000000  0.88155780  0.65289116  1
  Si  Si59  1  0.69310081  0.00000000  0.05942793  1
  Si  Si60  1  0.69407085  0.00000000  0.55946555  1
  Si  Si61  1  0.88082644  0.69308243  -0.00000000  1
  Si  Si62  1  0.88107210  0.69419963  0.50000000  1
  Si  Si63  1  0.30689919  0.00000000  0.05942793  1
  Si  Si64  1  0.30592915  0.00000000  0.55946555  1
  Si  Si65  1  0.11917356  0.69308243  -0.00000000  1
  Si  Si66  1  0.11892790  0.69419963  0.50000000  1
  Si  Si67  1  0.69407085  0.00000000  0.44053445  1
  Si  Si68  1  0.69310081  0.00000000  0.94057207  1
  Si  Si69  1  0.88082644  0.30691757  -0.00000000  1
  Si  Si70  1  0.88107210  0.30580037  0.50000000  1
  Si  Si71  1  -0.00000000  0.11891673  0.15344509  1
  Si  Si72  1  -0.00000000  0.11844220  0.65289116  1
  Si  Si73  1  -0.00000000  0.88155780  0.34710884  1
  Si  Si74  1  -0.00000000  0.88108327  0.84655491  1
  Si  Si75  1  0.68530936  0.31442855  0.34264407  1
  Si  Si76  1  0.68487106  0.31459525  0.84243955  1
  Si  Si77  1  0.31512894  0.68540475  0.15756045  1
  Si  Si78  1  0.31469064  0.68557145  0.65735593  1
  Si  Si79  1  0.68487106  0.68540475  0.15756045  1
  Si  Si80  1  0.68530936  0.68557145  0.65735593  1
  Si  Si81  1  0.31469064  0.31442855  0.34264407  1
  Si  Si82  1  0.31512894  0.31459525  0.84243955  1
  Si  Si83  1  0.31469064  0.68557145  0.34264407  1
  Si  Si84  1  0.31512894  0.68540475  0.84243955  1
  Si  Si85  1  0.68487106  0.31459525  0.15756045  1
  Si  Si86  1  0.68530936  0.31442855  0.65735593  1
  Si  Si87  1  0.31512894  0.31459525  0.15756045  1
  Si  Si88  1  0.31469064  0.31442855  0.65735593  1
  Si  Si89  1  0.68530936  0.68557145  0.34264407  1
  Si  Si90  1  0.68487106  0.68540475  0.84243955  1
  Si  Si91  1  0.18390759  0.18393653  0.40808729  1
  Si  Si92  1  0.18501846  0.18498410  0.90752173  1
  Si  Si93  1  0.81498154  0.81501590  0.09247827  1
  Si  Si94  1  0.81609241  0.81606347  0.59191271  1
  Si  Si95  1  0.18501846  0.81501590  0.09247827  1
  Si  Si96  1  0.18390759  0.81606347  0.59191271  1
  Si  Si97  1  0.81609241  0.18393653  0.40808729  1
  Si  Si98  1  0.81498154  0.18498410  0.90752173  1
  Si  Si99  1  0.81498154  0.18498410  0.09247827  1
  Si  Si100  1  0.81609241  0.18393653  0.59191271  1
  Si  Si101  1  0.18390759  0.81606347  0.40808729  1
  Si  Si102  1  0.18501846  0.81501590  0.90752173  1
  Si  Si103  1  0.81609241  0.81606347  0.40808729  1
  Si  Si104  1  0.81498154  0.81501590  0.90752173  1
  Si  Si105  1  0.18501846  0.18498410  0.09247827  1
  Si  Si106  1  0.18390759  0.18393653  0.59191271  1
