# generated using pymatgen
data_InCuSnSe4
_symmetry_space_group_name_H-M   'P 1'
_cell_length_a   5.90024389
_cell_length_b   5.90024389
_cell_length_c   7.09676961
_cell_angle_alpha   65.43664318
_cell_angle_beta   65.43664318
_cell_angle_gamma   90.00000000
_symmetry_Int_Tables_number   1
_chemical_formula_structural   InCuSnSe4
_chemical_formula_sum   'In1 Cu1 Sn1 Se4'
_cell_volume   199.85656005
_cell_formula_units_Z   1
loop_
 _symmetry_equiv_pos_site_id
 _symmetry_equiv_pos_as_xyz
  1  'x, y, z'
loop_
 _atom_site_type_symbol
 _atom_site_label
 _atom_site_symmetry_multiplicity
 _atom_site_fract_x
 _atom_site_fract_y
 _atom_site_fract_z
 _atom_site_occupancy
  In  In0  1  0.25000000  0.75000000  0.50000000  1
  Cu  Cu1  1  0.75000000  0.25000000  0.50000000  1
  Sn  Sn2  1  0.50000000  0.50000000  -0.00000000  1
  Se  Se3  1  0.37867068  0.89960167  0.75318456  1
  Se  Se4  1  0.86814476  0.34721377  0.75318456  1
  Se  Se5  1  0.10039833  0.13185524  0.24681544  1
  Se  Se6  1  0.65278623  0.62132932  0.24681544  1
