# generated using pymatgen
data_In9Ga3(BiS6)4
_symmetry_space_group_name_H-M   'P 1'
_cell_length_a   3.88425716
_cell_length_b   20.47284062
_cell_length_c   12.59901745
_cell_angle_alpha   83.63688465
_cell_angle_beta   90.00000000
_cell_angle_gamma   90.00000000
_symmetry_Int_Tables_number   1
_chemical_formula_structural   In9Ga3(BiS6)4
_chemical_formula_sum   'In9 Ga3 Bi4 S24'
_cell_volume   995.72405606
_cell_formula_units_Z   1
loop_
 _symmetry_equiv_pos_site_id
 _symmetry_equiv_pos_as_xyz
  1  'x, y, z'
loop_
 _atom_site_type_symbol
 _atom_site_label
 _atom_site_symmetry_multiplicity
 _atom_site_fract_x
 _atom_site_fract_y
 _atom_site_fract_z
 _atom_site_occupancy
  In  In0  1  0.75000000  0.12788654  0.09600764  1
  In  In1  1  0.75000000  0.62847913  0.59618015  1
  In  In2  1  0.25000000  0.37074070  0.39786368  1
  In  In3  1  0.25000000  0.87171803  0.90412302  1
  In  In4  1  0.75000000  0.02498648  0.61762169  1
  In  In5  1  0.75000000  0.52566775  0.11739519  1
  In  In6  1  0.25000000  0.47584520  0.88545001  1
  In  In7  1  0.25000000  0.97484018  0.38235426  1
  In  In8  1  0.75000000  0.41352569  0.67637744  1
  Ga  Ga9  1  0.75000000  0.91673191  0.17762462  1
  Ga  Ga10  1  0.25000000  0.08318314  0.82246939  1
  Ga  Ga11  1  0.25000000  0.58294355  0.32246716  1
  Bi  Bi12  1  0.75000000  0.20448622  0.40567415  1
  Bi  Bi13  1  0.75000000  0.70542489  0.90581405  1
  Bi  Bi14  1  0.25000000  0.29451387  0.09304068  1
  Bi  Bi15  1  0.25000000  0.79474231  0.59424134  1
  S  S16  1  0.75000000  0.42311021  0.01101246  1
  S  S17  1  0.75000000  0.92295298  0.50927682  1
  S  S18  1  0.25000000  0.07763799  0.49021939  1
  S  S19  1  0.25000000  0.57887280  0.99184031  1
  S  S20  1  0.75000000  0.02010851  0.24484466  1
  S  S21  1  0.75000000  0.52444465  0.75067509  1
  S  S22  1  0.25000000  0.48051828  0.25200503  1
  S  S23  1  0.25000000  0.98008107  0.75505855  1
  S  S24  1  0.75000000  0.31931332  0.27864428  1
  S  S25  1  0.75000000  0.82151051  0.78257972  1
  S  S26  1  0.25000000  0.17866518  0.21780462  1
  S  S27  1  0.25000000  0.67973783  0.71730848  1
  S  S28  1  0.75000000  0.24241521  0.98128758  1
  S  S29  1  0.75000000  0.74304415  0.48069767  1
  S  S30  1  0.25000000  0.25757117  0.51822488  1
  S  S31  1  0.25000000  0.75694877  0.01890716  1
  S  S32  1  0.75000000  0.12914383  0.73790089  1
  S  S33  1  0.75000000  0.62930605  0.23906974  1
  S  S34  1  0.25000000  0.36529725  0.77984295  1
  S  S35  1  0.25000000  0.87094337  0.26201220  1
  S  S36  1  0.75000000  0.43058224  0.48092112  1
  S  S37  1  0.75000000  0.92755631  0.99541079  1
  S  S38  1  0.25000000  0.07237351  0.00441442  1
  S  S39  1  0.25000000  0.57214922  0.50533674  1
