# generated using pymatgen
data_Gd4Cu5P7
_symmetry_space_group_name_H-M   'P 1'
_cell_length_a   5.27575805
_cell_length_b   5.27575805
_cell_length_c   10.52173260
_cell_angle_alpha   75.48060784
_cell_angle_beta   75.48060784
_cell_angle_gamma   90.00000000
_symmetry_Int_Tables_number   1
_chemical_formula_structural   Gd4Cu5P7
_chemical_formula_sum   'Gd4 Cu5 P7'
_cell_volume   273.83256010
_cell_formula_units_Z   1
loop_
 _symmetry_equiv_pos_site_id
 _symmetry_equiv_pos_as_xyz
  1  'x, y, z'
loop_
 _atom_site_type_symbol
 _atom_site_label
 _atom_site_symmetry_multiplicity
 _atom_site_fract_x
 _atom_site_fract_y
 _atom_site_fract_z
 _atom_site_occupancy
  Gd  Gd0  1  0.11141345  0.36141345  0.76486362  1
  Gd  Gd1  1  0.62372293  0.87372293  0.76486362  1
  Gd  Gd2  1  0.38858655  0.12627707  0.23513638  1
  Gd  Gd3  1  0.87627707  0.63858655  0.23513638  1
  Cu  Cu4  1  0.50028194  0.75028194  0.49943613  1
  Cu  Cu5  1  0.99971806  0.24971806  0.50056387  1
  Cu  Cu6  1  0.00000000  0.75000000  0.50000000  1
  Cu  Cu7  1  0.50000000  0.25000000  0.50000000  1
  Cu  Cu8  1  0.25000000  0.50000000  -0.00000000  1
  P  P9  1  0.32400782  0.57400782  0.34579756  1
  P  P10  1  0.83019462  0.08019462  0.34579756  1
  P  P11  1  0.17599218  0.91980538  0.65420244  1
  P  P12  1  0.66980538  0.42599218  0.65420244  1
  P  P13  1  0.75000000  0.00000000  -0.00000000  1
  P  P14  1  0.75000000  0.50000000  -0.00000000  1
  P  P15  1  0.25000000  0.00000000  -0.00000000  1
