# generated using pymatgen
data_GdMg3Ni8
_symmetry_space_group_name_H-M   'P 1'
_cell_length_a   4.88689860
_cell_length_b   4.88689860
_cell_length_c   8.43955616
_cell_angle_alpha   73.17057299
_cell_angle_beta   90.00000000
_cell_angle_gamma   120.00000000
_symmetry_Int_Tables_number   1
_chemical_formula_structural   GdMg3Ni8
_chemical_formula_sum   'Gd1 Mg3 Ni8'
_cell_volume   164.50564792
_cell_formula_units_Z   1
loop_
 _symmetry_equiv_pos_site_id
 _symmetry_equiv_pos_as_xyz
  1  'x, y, z'
loop_
 _atom_site_type_symbol
 _atom_site_label
 _atom_site_symmetry_multiplicity
 _atom_site_fract_x
 _atom_site_fract_y
 _atom_site_fract_z
 _atom_site_occupancy
  Gd  Gd0  1  0.99957175  0.99914350  0.00128476  1
  Mg  Mg1  1  0.50034862  0.00069724  0.49895414  1
  Mg  Mg2  1  0.87149342  0.74298683  0.38551975  1
  Mg  Mg3  1  0.37934655  0.75869310  0.86196035  1
  Ni  Ni4  1  0.43624730  0.37104401  0.19270869  1
  Ni  Ni5  1  0.93717157  0.37938770  0.68344072  1
  Ni  Ni6  1  0.43624730  0.87249460  0.19270869  1
  Ni  Ni7  1  0.93717157  0.87434315  0.68344072  1
  Ni  Ni8  1  0.18737353  0.37474707  0.43787940  1
  Ni  Ni9  1  0.68801555  0.37603110  0.93595335  1
  Ni  Ni10  1  0.93479671  0.37104401  0.19270869  1
  Ni  Ni11  1  0.44221613  0.37938770  0.68344072  1
