# generated using pymatgen
data_GdHoAl6
_symmetry_space_group_name_H-M   'P 1'
_cell_length_a   4.59460093
_cell_length_b   6.27673234
_cell_length_c   6.27673234
_cell_angle_alpha   119.96368915
_cell_angle_beta   90.00000000
_cell_angle_gamma   90.00000000
_symmetry_Int_Tables_number   1
_chemical_formula_structural   GdHoAl6
_chemical_formula_sum   'Gd1 Ho1 Al6'
_cell_volume   156.82107833
_cell_formula_units_Z   1
loop_
 _symmetry_equiv_pos_site_id
 _symmetry_equiv_pos_as_xyz
  1  'x, y, z'
loop_
 _atom_site_type_symbol
 _atom_site_label
 _atom_site_symmetry_multiplicity
 _atom_site_fract_x
 _atom_site_fract_y
 _atom_site_fract_z
 _atom_site_occupancy
  Gd  Gd0  1  0.75000000  0.66646838  0.33353162  1
  Ho  Ho1  1  0.25000000  0.33344778  0.66655222  1
  Al  Al2  1  0.75000000  0.14727639  0.29465817  1
  Al  Al3  1  0.75000000  0.14745443  0.85254557  1
  Al  Al4  1  0.75000000  0.70534183  0.85272361  1
  Al  Al5  1  0.25000000  0.85333457  0.70646557  1
  Al  Al6  1  0.25000000  0.85314218  0.14685782  1
  Al  Al7  1  0.25000000  0.29353443  0.14666543  1
