# generated using pymatgen
data_In(CoSb3)20
_symmetry_space_group_name_H-M   'P 1'
_cell_length_a   7.89687194
_cell_length_b   7.89687194
_cell_length_c   32.51154729
_cell_angle_alpha   85.34420164
_cell_angle_beta   85.37170047
_cell_angle_gamma   109.48841632
_symmetry_Int_Tables_number   1
_chemical_formula_structural   In(CoSb3)20
_chemical_formula_sum   'In1 Co20 Sb60'
_cell_volume   1892.40614436
_cell_formula_units_Z   1
loop_
 _symmetry_equiv_pos_site_id
 _symmetry_equiv_pos_as_xyz
  1  'x, y, z'
loop_
 _atom_site_type_symbol
 _atom_site_label
 _atom_site_symmetry_multiplicity
 _atom_site_fract_x
 _atom_site_fract_y
 _atom_site_fract_z
 _atom_site_occupancy
  In  In0  1  0.00000000  0.00000000  -0.00000000  1
  Co  Co1  1  0.69996789  0.69996712  0.09976348  1
  Co  Co2  1  0.10011268  0.10003645  0.29986360  1
  Co  Co3  1  0.50000000  0.50000000  0.50000000  1
  Co  Co4  1  0.89988732  0.89996355  0.70013640  1
  Co  Co5  1  0.30003211  0.30003288  0.90023652  1
  Co  Co6  1  0.90015722  0.40033601  0.19970357  1
  Co  Co7  1  0.30001479  0.80006112  0.39993435  1
  Co  Co8  1  0.69998521  0.19993888  0.60006565  1
  Co  Co9  1  0.09984278  0.59966399  0.80029643  1
  Co  Co10  1  0.50000000  0.00000000  -0.00000000  1
  Co  Co11  1  0.00000000  0.50000000  -0.00000000  1
  Co  Co12  1  0.39996043  0.90013921  0.19970357  1
  Co  Co13  1  0.80000453  0.30005086  0.39993435  1
  Co  Co14  1  0.19999547  0.69994914  0.60006565  1
  Co  Co15  1  0.60003957  0.09986079  0.80029643  1
  Co  Co16  1  0.20026940  0.20026863  0.09976348  1
  Co  Co17  1  0.60009995  0.60002371  0.29986360  1
  Co  Co18  1  0.00000000  0.00000000  0.50000000  1
  Co  Co19  1  0.39990005  0.39997629  0.70013640  1
  Co  Co20  1  0.79973060  0.79973137  0.90023652  1
  Sb  Sb21  1  0.75928446  0.42656732  0.13358171  1
  Sb  Sb22  1  0.15997797  0.82653163  0.33332188  1
  Sb  Sb23  1  0.56001967  0.22650571  0.53328735  1
  Sb  Sb24  1  0.96013230  0.62654570  0.73323037  1
  Sb  Sb25  1  0.36268956  0.02720873  0.93281608  1
  Sb  Sb26  1  0.63731044  0.97279127  0.06718392  1
  Sb  Sb27  1  0.03986770  0.37345430  0.26676963  1
  Sb  Sb28  1  0.43998033  0.77349429  0.46671265  1
  Sb  Sb29  1  0.84002203  0.17346837  0.66667812  1
  Sb  Sb30  1  0.24071554  0.57343268  0.86641829  1
  Sb  Sb31  1  0.43985097  0.10713383  0.13358171  1
  Sb  Sb32  1  0.84014649  0.50670015  0.33332188  1
  Sb  Sb33  1  0.24020694  0.90669298  0.53328735  1
  Sb  Sb34  1  0.64022394  0.30663733  0.73323037  1
  Sb  Sb35  1  0.03997519  0.70449435  0.93281608  1
  Sb  Sb36  1  0.96002481  0.29550565  0.06718392  1
  Sb  Sb37  1  0.35977606  0.69336267  0.26676963  1
  Sb  Sb38  1  0.75979306  0.09330702  0.46671265  1
  Sb  Sb39  1  0.15985351  0.49329985  0.66667812  1
  Sb  Sb40  1  0.56014903  0.89286617  0.86641829  1
  Sb  Sb41  1  0.72945207  0.56841286  0.03228356  1
  Sb  Sb42  1  0.13052198  0.97052746  0.23207042  1
  Sb  Sb43  1  0.53056920  0.37053996  0.43200386  1
  Sb  Sb44  1  0.93051859  0.77056890  0.63195838  1
  Sb  Sb45  1  0.33050569  0.17052874  0.83184806  1
  Sb  Sb46  1  0.66949431  0.82947126  0.16815194  1
  Sb  Sb47  1  0.06948141  0.22943110  0.36804162  1
  Sb  Sb48  1  0.46943080  0.62946004  0.56799614  1
  Sb  Sb49  1  0.86947802  0.02947254  0.76792958  1
  Sb  Sb50  1  0.27054793  0.43158714  0.96771644  1
  Sb  Sb51  1  0.00237679  0.16235374  0.16815194  1
  Sb  Sb52  1  0.40252728  0.56247697  0.36804162  1
  Sb  Sb53  1  0.80254382  0.96257306  0.56799614  1
  Sb  Sb54  1  0.20259788  0.36259240  0.76792958  1
  Sb  Sb55  1  0.60069642  0.76173563  0.96771644  1
  Sb  Sb56  1  0.39930358  0.23826437  0.03228356  1
  Sb  Sb57  1  0.79740212  0.63740760  0.23207042  1
  Sb  Sb58  1  0.19745618  0.03742694  0.43200386  1
  Sb  Sb59  1  0.59747272  0.43752303  0.63195838  1
  Sb  Sb60  1  0.99762321  0.83764626  0.83184806  1
  Sb  Sb61  1  0.17117712  0.66324576  0.16557712  1
  Sb  Sb62  1  0.57071742  0.06395989  0.36532269  1
  Sb  Sb63  1  0.97073680  0.46400016  0.56526305  1
  Sb  Sb64  1  0.37066423  0.86416164  0.76517413  1
  Sb  Sb65  1  0.76905299  0.26589745  0.96504957  1
  Sb  Sb66  1  0.23094701  0.73410255  0.03495043  1
  Sb  Sb67  1  0.62933577  0.13583836  0.23482587  1
  Sb  Sb68  1  0.02926320  0.53599984  0.43473695  1
  Sb  Sb69  1  0.42928258  0.93604011  0.63467731  1
  Sb  Sb70  1  0.82882288  0.33675424  0.83442288  1
  Sb  Sb71  1  0.36260641  0.53583582  0.10155777  1
  Sb  Sb72  1  0.76243715  0.93619984  0.30136301  1
  Sb  Sb73  1  0.16249486  0.33618575  0.50131939  1
  Sb  Sb74  1  0.56257158  0.73615355  0.70127488  1
  Sb  Sb75  1  0.96273580  0.13670361  0.90056060  1
  Sb  Sb76  1  0.03726420  0.86329639  0.09943940  1
  Sb  Sb77  1  0.43742842  0.26384645  0.29872512  1
  Sb  Sb78  1  0.83750514  0.66381425  0.49868061  1
  Sb  Sb79  1  0.23756285  0.06380016  0.69863699  1
  Sb  Sb80  1  0.63739359  0.46416418  0.89844223  1
