# generated using pymatgen
data_Gd3Si2BrO8
_symmetry_space_group_name_H-M   'P 1'
_cell_length_a   6.34045673
_cell_length_b   6.99455356
_cell_length_c   10.33129916
_cell_angle_alpha   70.21371253
_cell_angle_beta   72.13010054
_cell_angle_gamma   90.00000000
_symmetry_Int_Tables_number   1
_chemical_formula_structural   Gd3Si2BrO8
_chemical_formula_sum   'Gd6 Si4 Br2 O16'
_cell_volume   407.56025739
_cell_formula_units_Z   2
loop_
 _symmetry_equiv_pos_site_id
 _symmetry_equiv_pos_as_xyz
  1  'x, y, z'
loop_
 _atom_site_type_symbol
 _atom_site_label
 _atom_site_symmetry_multiplicity
 _atom_site_fract_x
 _atom_site_fract_y
 _atom_site_fract_z
 _atom_site_occupancy
  Gd  Gd0  1  0.28218152  0.90840339  0.17492728  1
  Gd  Gd1  1  0.71781848  0.08333067  0.82507272  1
  Gd  Gd2  1  0.04289120  0.40840339  0.17492728  1
  Gd  Gd3  1  0.95710880  0.58333067  0.82507272  1
  Gd  Gd4  1  0.38019047  0.01620778  0.50000000  1
  Gd  Gd5  1  0.61980953  0.51620778  0.50000000  1
  Si  Si6  1  0.77948916  0.90461708  0.19919069  1
  Si  Si7  1  0.22051084  0.10380777  0.80080931  1
  Si  Si8  1  0.52132016  0.40461708  0.19919069  1
  Si  Si9  1  0.47867984  0.60380777  0.80080931  1
  Br  Br10  1  0.01471372  0.75361933  0.50000000  1
  Br  Br11  1  0.98528628  0.25361933  0.50000000  1
  O  O12  1  0.55697011  0.83709285  0.35075030  1
  O  O13  1  0.44302989  0.18784315  0.64924970  1
  O  O14  1  0.59227959  0.33709285  0.35075030  1
  O  O15  1  0.40772041  0.68784315  0.64924970  1
  O  O16  1  0.35806068  0.19959994  0.22635786  1
  O  O17  1  0.64193932  0.42595780  0.77364214  1
  O  O18  1  0.91558146  0.69959994  0.22635786  1
  O  O19  1  0.08441854  0.92595780  0.77364214  1
  O  O20  1  0.64669456  0.77287399  0.80937318  1
  O  O21  1  0.35330544  0.58224716  0.19062682  1
  O  O22  1  0.04393226  0.27287399  0.80937318  1
  O  O23  1  0.95606774  0.08224716  0.19062682  1
  O  O24  1  0.67762799  0.96485864  0.06508182  1
  O  O25  1  0.32237201  0.02994046  0.93491818  1
  O  O26  1  0.75729019  0.46485864  0.06508182  1
  O  O27  1  0.24270981  0.52994046  0.93491818  1
