# generated using pymatgen
data_FeMo3PtN
_symmetry_space_group_name_H-M   'P 1'
_cell_length_a   6.78104945
_cell_length_b   6.78104945
_cell_length_c   6.78104945
_cell_angle_alpha   90.00000000
_cell_angle_beta   90.00000000
_cell_angle_gamma   90.00000000
_symmetry_Int_Tables_number   1
_chemical_formula_structural   FeMo3PtN
_chemical_formula_sum   'Fe4 Mo12 Pt4 N4'
_cell_volume   311.81049901
_cell_formula_units_Z   4
loop_
 _symmetry_equiv_pos_site_id
 _symmetry_equiv_pos_as_xyz
  1  'x, y, z'
loop_
 _atom_site_type_symbol
 _atom_site_label
 _atom_site_symmetry_multiplicity
 _atom_site_fract_x
 _atom_site_fract_y
 _atom_site_fract_z
 _atom_site_occupancy
  Fe  Fe0  1  0.81569414  0.31569414  0.18430586  1
  Fe  Fe1  1  0.18430586  0.81569414  0.31569414  1
  Fe  Fe2  1  0.31569414  0.18430586  0.81569414  1
  Fe  Fe3  1  0.68430586  0.68430586  0.68430586  1
  Mo  Mo4  1  0.95820337  0.37105932  0.80377611  1
  Mo  Mo5  1  0.04179663  0.87105932  0.69622389  1
  Mo  Mo6  1  0.45820337  0.12894068  0.19622389  1
  Mo  Mo7  1  0.54179663  0.62894068  0.30377611  1
  Mo  Mo8  1  0.37105932  0.80377611  0.95820337  1
  Mo  Mo9  1  0.87105932  0.69622389  0.04179663  1
  Mo  Mo10  1  0.12894068  0.19622389  0.45820337  1
  Mo  Mo11  1  0.62894068  0.30377611  0.54179663  1
  Mo  Mo12  1  0.80377611  0.95820337  0.37105932  1
  Mo  Mo13  1  0.69622389  0.04179663  0.87105932  1
  Mo  Mo14  1  0.19622389  0.45820337  0.12894068  1
  Mo  Mo15  1  0.30377611  0.54179663  0.62894068  1
  Pt  Pt16  1  0.43747743  0.93747743  0.56252257  1
  Pt  Pt17  1  0.93747743  0.56252257  0.43747743  1
  Pt  Pt18  1  0.56252257  0.43747743  0.93747743  1
  Pt  Pt19  1  0.06252257  0.06252257  0.06252257  1
  N  N20  1  0.12549586  0.62549586  0.87450414  1
  N  N21  1  0.87450414  0.12549586  0.62549586  1
  N  N22  1  0.62549586  0.87450414  0.12549586  1
  N  N23  1  0.37450414  0.37450414  0.37450414  1
