# generated using pymatgen
data_EuTiNbBi2O9
_symmetry_space_group_name_H-M   'P 1'
_cell_length_a   5.46588646
_cell_length_b   5.48763929
_cell_length_c   12.95198243
_cell_angle_alpha   90.00000000
_cell_angle_beta   78.26126076
_cell_angle_gamma   90.00000000
_symmetry_Int_Tables_number   1
_chemical_formula_structural   EuTiNbBi2O9
_chemical_formula_sum   'Eu2 Ti2 Nb2 Bi4 O18'
_cell_volume   380.36716372
_cell_formula_units_Z   2
loop_
 _symmetry_equiv_pos_site_id
 _symmetry_equiv_pos_as_xyz
  1  'x, y, z'
loop_
 _atom_site_type_symbol
 _atom_site_label
 _atom_site_symmetry_multiplicity
 _atom_site_fract_x
 _atom_site_fract_y
 _atom_site_fract_z
 _atom_site_occupancy
  Eu  Eu0  1  0.75261445  0.47447625  0.99981206  1
  Eu  Eu1  1  0.24738555  0.97447625  0.00018794  1
  Ti  Ti2  1  0.33337736  0.50292451  0.82614792  1
  Ti  Ti3  1  0.66662264  0.00292451  0.17385208  1
  Nb  Nb4  1  0.17009428  0.50624916  0.17287843  1
  Nb  Nb5  1  0.82990572  0.00624916  0.82712157  1
  Bi  Bi6  1  0.97900938  0.48748480  0.60218731  1
  Bi  Bi7  1  0.57241406  0.48477658  0.39866622  1
  Bi  Bi8  1  0.02099062  0.98748480  0.39781269  1
  Bi  Bi9  1  0.42758594  0.98477658  0.60133378  1
  O  O10  1  0.74221495  0.74582650  0.50194559  1
  O  O11  1  0.24592271  0.74489197  0.49783808  1
  O  O12  1  0.25778505  0.24582650  0.49805441  1
  O  O13  1  0.75407729  0.24489197  0.50216192  1
  O  O14  1  0.31388738  0.53498537  0.00132175  1
  O  O15  1  0.68611262  0.03498537  0.99867825  1
  O  O16  1  0.52857015  0.82073190  0.83006166  1
  O  O17  1  0.36557380  0.82659089  0.16940587  1
  O  O18  1  0.47142985  0.32073190  0.16993834  1
  O  O19  1  0.63442620  0.32659089  0.83059413  1
  O  O20  1  0.02801520  0.73497068  0.87101726  1
  O  O21  1  0.89689106  0.73769117  0.12923649  1
  O  O22  1  0.97198480  0.23497068  0.12898274  1
  O  O23  1  0.10310894  0.23769117  0.87076351  1
  O  O24  1  0.33497949  0.51519795  0.68659530  1
  O  O25  1  0.02506005  0.51400226  0.31848365  1
  O  O26  1  0.66502051  0.01519795  0.31340470  1
  O  O27  1  0.97493995  0.01400226  0.68151635  1
