# generated using pymatgen
data_Eu2ScNbO7
_symmetry_space_group_name_H-M   'P 1'
_cell_length_a   7.50184560
_cell_length_b   7.43471484
_cell_length_c   7.55518324
_cell_angle_alpha   90.00000000
_cell_angle_beta   59.76452519
_cell_angle_gamma   119.70442270
_symmetry_Int_Tables_number   1
_chemical_formula_structural   Eu2ScNbO7
_chemical_formula_sum   'Eu4 Sc2 Nb2 O14'
_cell_volume   298.22714475
_cell_formula_units_Z   2
loop_
 _symmetry_equiv_pos_site_id
 _symmetry_equiv_pos_as_xyz
  1  'x, y, z'
loop_
 _atom_site_type_symbol
 _atom_site_label
 _atom_site_symmetry_multiplicity
 _atom_site_fract_x
 _atom_site_fract_y
 _atom_site_fract_z
 _atom_site_occupancy
  Eu  Eu0  1  0.50000000  0.00000000  0.50000000  1
  Eu  Eu1  1  0.50000000  0.50000000  0.50000000  1
  Eu  Eu2  1  -0.00000000  0.50000000  0.00000000  1
  Eu  Eu3  1  0.00000000  0.50000000  0.50000000  1
  Sc  Sc4  1  0.50000000  0.50000000  0.00000000  1
  Sc  Sc5  1  0.50000000  0.00000000  0.00000000  1
  Nb  Nb6  1  -0.00000000  0.00000000  0.50000000  1
  Nb  Nb7  1  -0.00000000  0.00000000  0.00000000  1
  O  O8  1  0.74357979  0.37178989  0.37821011  1
  O  O9  1  0.25642021  0.62821011  0.62178989  1
  O  O10  1  0.86382092  0.93191046  0.31808954  1
  O  O11  1  0.69518739  0.34759369  0.90240631  1
  O  O12  1  0.24963823  0.92715383  0.91380760  1
  O  O13  1  0.24963823  0.32248441  0.33655417  1
  O  O14  1  0.24963823  0.32248441  0.91380760  1
  O  O15  1  0.24963823  0.92715383  0.33655417  1
  O  O16  1  0.13617908  0.06808954  0.68191046  1
  O  O17  1  0.30481261  0.65240631  0.09759369  1
  O  O18  1  0.75036177  0.07284617  0.08619240  1
  O  O19  1  0.75036177  0.67751559  0.66344583  1
  O  O20  1  0.75036177  0.67751559  0.08619240  1
  O  O21  1  0.75036177  0.07284617  0.66344583  1
