# generated using pymatgen
data_Fe7Ni5P4
_symmetry_space_group_name_H-M   'P 1'
_cell_length_a   4.39215522
_cell_length_b   6.71816793
_cell_length_c   6.70297160
_cell_angle_alpha   95.81837639
_cell_angle_beta   108.38685817
_cell_angle_gamma   71.40874757
_symmetry_Int_Tables_number   1
_chemical_formula_structural   Fe7Ni5P4
_chemical_formula_sum   'Fe7 Ni5 P4'
_cell_volume   177.89464215
_cell_formula_units_Z   1
loop_
 _symmetry_equiv_pos_site_id
 _symmetry_equiv_pos_as_xyz
  1  'x, y, z'
loop_
 _atom_site_type_symbol
 _atom_site_label
 _atom_site_symmetry_multiplicity
 _atom_site_fract_x
 _atom_site_fract_y
 _atom_site_fract_z
 _atom_site_occupancy
  Fe  Fe0  1  0.69718829  0.18417197  0.03214408  1
  Fe  Fe1  1  0.84525268  0.81513360  0.97005535  1
  Fe  Fe2  1  0.34072295  0.96852035  0.18533943  1
  Fe  Fe3  1  0.12455434  0.02637991  0.81691036  1
  Fe  Fe4  1  0.37776321  0.60674815  0.33166771  1
  Fe  Fe5  1  0.01087501  0.33118763  0.39453340  1
  Fe  Fe6  1  0.94868485  0.66979981  0.60494407  1
  Ni  Ni7  1  0.08187616  0.39019642  0.04602349  1
  Ni  Ni8  1  0.42125304  0.60925846  0.95117892  1
  Ni  Ni9  1  0.96450442  0.95455029  0.39064090  1
  Ni  Ni10  1  0.52820827  0.05060295  0.61021342  1
  Ni  Ni11  1  0.65976216  0.39436075  0.66884663  1
  P  P12  1  0.22760856  0.33711942  0.75566561  1
  P  P13  1  0.80715892  0.65891655  0.24620237  1
  P  P14  1  0.52654607  0.24667822  0.33542010  1
  P  P15  1  0.43804106  0.75637550  0.66021413  1
