# generated using pymatgen
data_La2SbO6
_symmetry_space_group_name_H-M   'P 1'
_cell_length_a   5.80835641
_cell_length_b   6.25605660
_cell_length_c   8.07645954
_cell_angle_alpha   90.00000000
_cell_angle_beta   84.24718307
_cell_angle_gamma   90.00000000
_symmetry_Int_Tables_number   1
_chemical_formula_structural   La2SbO6
_chemical_formula_sum   'La4 Sb2 O12'
_cell_volume   291.99951971
_cell_formula_units_Z   2
loop_
 _symmetry_equiv_pos_site_id
 _symmetry_equiv_pos_as_xyz
  1  'x, y, z'
loop_
 _atom_site_type_symbol
 _atom_site_label
 _atom_site_symmetry_multiplicity
 _atom_site_fract_x
 _atom_site_fract_y
 _atom_site_fract_z
 _atom_site_occupancy
  La  La0  1  0.03624820  0.91837907  0.75633188  1
  La  La1  1  0.46375180  0.41837907  0.74366812  1
  La  La2  1  0.53624820  0.58162093  0.25633188  1
  La  La3  1  0.96375180  0.08162093  0.24366812  1
  Sb  Sb4  1  0.00000000  0.50000000  0.50000000  1
  Sb  Sb5  1  0.50000000  0.00000000  0.00000000  1
  O  O6  1  0.14963547  0.43539877  0.27343064  1
  O  O7  1  0.14167466  0.22628028  0.57762683  1
  O  O8  1  0.21699023  0.15484756  0.94222280  1
  O  O9  1  0.28300977  0.65484756  0.55777720  1
  O  O10  1  0.35832534  0.72628028  0.92237317  1
  O  O11  1  0.35036453  0.93539877  0.22656936  1
  O  O12  1  0.64963547  0.06460123  0.77343064  1
  O  O13  1  0.64167466  0.27371972  0.07762683  1
  O  O14  1  0.71699023  0.34515244  0.44222280  1
  O  O15  1  0.78300977  0.84515244  0.05777720  1
  O  O16  1  0.85832534  0.77371972  0.42237317  1
  O  O17  1  0.85036453  0.56460123  0.72656936  1
