# generated using pymatgen
data_EuV2BiO8
_symmetry_space_group_name_H-M   'P 1'
_cell_length_a   6.13856482
_cell_length_b   6.13856482
_cell_length_c   6.13856482
_cell_angle_alpha   63.93485837
_cell_angle_beta   73.72167271
_cell_angle_gamma   106.27832729
_symmetry_Int_Tables_number   1
_chemical_formula_structural   EuV2BiO8
_chemical_formula_sum   'Eu1 V2 Bi1 O8'
_cell_volume   176.27641459
_cell_formula_units_Z   1
loop_
 _symmetry_equiv_pos_site_id
 _symmetry_equiv_pos_as_xyz
  1  'x, y, z'
loop_
 _atom_site_type_symbol
 _atom_site_label
 _atom_site_symmetry_multiplicity
 _atom_site_fract_x
 _atom_site_fract_y
 _atom_site_fract_z
 _atom_site_occupancy
  Eu  Eu0  1  0.75000000  0.62500000  0.12500000  1
  V  V1  1  0.75000000  0.12500000  0.62500000  1
  V  V2  1  0.25000000  0.87500000  0.37500000  1
  Bi  Bi3  1  0.25000000  0.37500000  0.87500000  1
  O  O4  1  0.93238768  0.29581297  0.27179935  1
  O  O5  1  0.06739060  0.86373456  0.20365603  1
  O  O6  1  0.43260940  0.22895337  0.20365603  1
  O  O7  1  0.56761232  0.29581297  0.63657472  1
  O  O8  1  0.06739060  0.70365603  0.72895337  1
  O  O9  1  0.93238768  0.13657472  0.79581297  1
  O  O10  1  0.56761232  0.77179935  0.79581297  1
  O  O11  1  0.43260940  0.70365603  0.36373456  1
