# generated using pymatgen
data_CsTi3P5O19
_symmetry_space_group_name_H-M   'P 1'
_cell_length_a   8.91855038
_cell_length_b   10.12597810
_cell_length_c   10.12597810
_cell_angle_alpha   112.76861048
_cell_angle_beta   95.74932124
_cell_angle_gamma   95.74932124
_symmetry_Int_Tables_number   1
_chemical_formula_structural   CsTi3P5O19
_chemical_formula_sum   'Cs2 Ti6 P10 O38'
_cell_volume   829.28874750
_cell_formula_units_Z   2
loop_
 _symmetry_equiv_pos_site_id
 _symmetry_equiv_pos_as_xyz
  1  'x, y, z'
loop_
 _atom_site_type_symbol
 _atom_site_label
 _atom_site_symmetry_multiplicity
 _atom_site_fract_x
 _atom_site_fract_y
 _atom_site_fract_z
 _atom_site_occupancy
  Cs  Cs0  1  0.16047603  0.93751938  0.07448264  1
  Cs  Cs1  1  0.66047603  0.07448264  0.93751938  1
  Ti  Ti2  1  0.50906151  0.47024284  0.24988797  1
  Ti  Ti3  1  0.99031143  0.75114496  0.53134045  1
  Ti  Ti4  1  0.49031143  0.53134045  0.75114496  1
  Ti  Ti5  1  0.00906151  0.24988797  0.47024284  1
  Ti  Ti6  1  0.49864695  0.99937907  0.49736037  1
  Ti  Ti7  1  0.99864695  0.49736037  0.99937907  1
  P  P8  1  0.24936305  0.70282315  0.29694365  1
  P  P9  1  0.74936305  0.29694365  0.70282315  1
  P  P10  1  0.31523593  0.33485060  0.91863799  1
  P  P11  1  0.18480516  0.08116670  0.66506287  1
  P  P12  1  0.68480516  0.66506287  0.08116670  1
  P  P13  1  0.81523593  0.91863799  0.33485060  1
  P  P14  1  0.37190465  0.26973134  0.41543597  1
  P  P15  1  0.12844628  0.58470331  0.73100389  1
  P  P16  1  0.62844628  0.73100389  0.58470331  1
  P  P17  1  0.87190465  0.41543597  0.26973134  1
  O  O18  1  0.39074469  0.38346090  0.81485879  1
  O  O19  1  0.10945219  0.18491423  0.61610297  1
  O  O20  1  0.60945219  0.61610297  0.18491423  1
  O  O21  1  0.89074469  0.81485879  0.38346090  1
  O  O22  1  0.36425647  0.84222902  0.32810994  1
  O  O23  1  0.13494171  0.67293936  0.15825028  1
  O  O24  1  0.63494171  0.15825028  0.67293936  1
  O  O25  1  0.86425647  0.32810994  0.84222902  1
  O  O26  1  0.42291508  0.31100234  0.29302269  1
  O  O27  1  0.07759882  0.70697822  0.68949116  1
  O  O28  1  0.57759882  0.68949116  0.70697822  1
  O  O29  1  0.92291508  0.29302269  0.31100234  1
  O  O30  1  0.45643491  0.14437586  0.41952784  1
  O  O31  1  0.04383989  0.58143602  0.85640723  1
  O  O32  1  0.54383989  0.85640723  0.58143602  1
  O  O33  1  0.95643491  0.41952784  0.14437586  1
  O  O34  1  0.25028911  0.16314671  0.83662963  1
  O  O35  1  0.75028911  0.83662963  0.16314671  1
  O  O36  1  0.17511796  0.40445552  0.96623022  1
  O  O37  1  0.32584975  0.03444336  0.59618963  1
  O  O38  1  0.82584975  0.59618963  0.03444336  1
  O  O39  1  0.67511796  0.96623022  0.40445552  1
  O  O40  1  0.33352827  0.57010002  0.27075842  1
  O  O41  1  0.16640899  0.72851443  0.42993555  1
  O  O42  1  0.66640899  0.42993555  0.72851443  1
  O  O43  1  0.83352827  0.27075842  0.57010002  1
  O  O44  1  0.42812030  0.34106303  0.04489757  1
  O  O45  1  0.07303633  0.95397821  0.65720116  1
  O  O46  1  0.57303633  0.65720116  0.95397821  1
  O  O47  1  0.92812030  0.04489757  0.34106303  1
  O  O48  1  0.40885548  0.40596416  0.55814165  1
  O  O49  1  0.09070562  0.44178631  0.59413952  1
  O  O50  1  0.59070562  0.59413952  0.44178631  1
  O  O51  1  0.90885548  0.55814165  0.40596416  1
  O  O52  1  0.69846394  0.37894690  0.21713632  1
  O  O53  1  0.80188951  0.78162011  0.61969759  1
  O  O54  1  0.30188951  0.61969759  0.78162011  1
  O  O55  1  0.19846394  0.21713632  0.37894690  1
