# generated using pymatgen
data_Ce2Al3Ru
_symmetry_space_group_name_H-M   'P 1'
_cell_length_a   5.57124383
_cell_length_b   5.57098688
_cell_length_c   8.77483239
_cell_angle_alpha   90.00000000
_cell_angle_beta   90.00000000
_cell_angle_gamma   60.00151971
_symmetry_Int_Tables_number   1
_chemical_formula_structural   Ce2Al3Ru
_chemical_formula_sum   'Ce4 Al6 Ru2'
_cell_volume   235.86332330
_cell_formula_units_Z   2
loop_
 _symmetry_equiv_pos_site_id
 _symmetry_equiv_pos_as_xyz
  1  'x, y, z'
loop_
 _atom_site_type_symbol
 _atom_site_label
 _atom_site_symmetry_multiplicity
 _atom_site_fract_x
 _atom_site_fract_y
 _atom_site_fract_z
 _atom_site_occupancy
  Ce  Ce0  1  0.33335285  0.33332358  0.56188752  1
  Ce  Ce1  1  0.66664715  0.66667642  0.43811248  1
  Ce  Ce2  1  0.66664715  0.66667642  0.06188752  1
  Ce  Ce3  1  0.33335285  0.33332358  0.93811248  1
  Al  Al4  1  0.83742359  0.32519223  0.75000000  1
  Al  Al5  1  0.32520417  0.83739792  0.75000000  1
  Al  Al6  1  0.83742359  0.83738418  0.75000000  1
  Al  Al7  1  0.16257641  0.67480777  0.25000000  1
  Al  Al8  1  0.67479583  0.16260208  0.25000000  1
  Al  Al9  1  0.16257641  0.16261582  0.25000000  1
  Ru  Ru10  1  -0.00000000  -0.00000000  0.50000000  1
  Ru  Ru11  1  -0.00000000  -0.00000000  -0.00000000  1
