# generated using pymatgen
data_Ca4ZrTi3(GeO5)4
_symmetry_space_group_name_H-M   'P 1'
_cell_length_a   6.83270946
_cell_length_b   8.07183811
_cell_length_c   8.08078215
_cell_angle_alpha   68.05942781
_cell_angle_beta   93.23280105
_cell_angle_gamma   92.94703390
_symmetry_Int_Tables_number   1
_chemical_formula_structural   Ca4ZrTi3(GeO5)4
_chemical_formula_sum   'Ca4 Zr1 Ti3 Ge4 O20'
_cell_volume   412.51666338
_cell_formula_units_Z   1
loop_
 _symmetry_equiv_pos_site_id
 _symmetry_equiv_pos_as_xyz
  1  'x, y, z'
loop_
 _atom_site_type_symbol
 _atom_site_label
 _atom_site_symmetry_multiplicity
 _atom_site_fract_x
 _atom_site_fract_y
 _atom_site_fract_z
 _atom_site_occupancy
  Ca  Ca0  1  0.62707570  0.80040584  0.45572643  1
  Ca  Ca1  1  0.11918344  0.30445079  0.94725746  1
  Ca  Ca2  1  0.88081656  0.69554921  0.05274254  1
  Ca  Ca3  1  0.37292430  0.19959416  0.54427357  1
  Zr  Zr4  1  0.50000000  -0.00000000  0.00000000  1
  Ti  Ti5  1  0.00000000  0.50000000  0.50000000  1
  Ti  Ti6  1  0.75183355  0.25064415  0.25398429  1
  Ti  Ti7  1  0.24816645  0.74935585  0.74601571  1
  Ge  Ge8  1  0.88298046  0.05624660  0.69161601  1
  Ge  Ge9  1  0.37416119  0.55095275  0.19601956  1
  Ge  Ge10  1  0.62583881  0.44904725  0.80398044  1
  Ge  Ge11  1  0.11701954  0.94375340  0.30838399  1
  O  O12  1  0.44708303  0.27394492  0.83626940  1
  O  O13  1  0.94676586  0.76112929  0.34493875  1
  O  O14  1  0.70317609  0.09586465  0.51539100  1
  O  O15  1  0.20192317  0.59249716  0.01205622  1
  O  O16  1  0.05323414  0.23887071  0.65506125  1
  O  O17  1  0.55291697  0.72605508  0.16373060  1
  O  O18  1  0.79807683  0.40750284  0.98794378  1
  O  O19  1  0.29682391  0.90413535  0.48460900  1
  O  O20  1  0.48294473  0.34408297  0.23757331  1
  O  O21  1  0.98227651  0.84479477  0.73171111  1
  O  O22  1  0.21850457  0.98744736  0.09894633  1
  O  O23  1  0.73552708  0.48730765  0.59874485  1
  O  O24  1  0.01772349  0.15520523  0.26828889  1
  O  O25  1  0.51705527  0.65591703  0.76242669  1
  O  O26  1  0.26447292  0.51269235  0.40125515  1
  O  O27  1  0.78149543  0.01255264  0.90105367  1
  O  O28  1  0.87598217  0.44099192  0.31105050  1
  O  O29  1  0.36615388  0.94274236  0.79360922  1
  O  O30  1  0.63384612  0.05725764  0.20639078  1
  O  O31  1  0.12401783  0.55900808  0.68894950  1
