# generated using pymatgen
data_Cd4HgSe5
_symmetry_space_group_name_H-M   'P 1'
_cell_length_a   4.41062820
_cell_length_b   4.41082200
_cell_length_c   35.93631176
_cell_angle_alpha   90.00000000
_cell_angle_beta   89.99950986
_cell_angle_gamma   59.99854648
_symmetry_Int_Tables_number   1
_chemical_formula_structural   Cd4HgSe5
_chemical_formula_sum   'Cd8 Hg2 Se10'
_cell_volume   605.44926268
_cell_formula_units_Z   2
loop_
 _symmetry_equiv_pos_site_id
 _symmetry_equiv_pos_as_xyz
  1  'x, y, z'
loop_
 _atom_site_type_symbol
 _atom_site_label
 _atom_site_symmetry_multiplicity
 _atom_site_fract_x
 _atom_site_fract_y
 _atom_site_fract_z
 _atom_site_occupancy
  Cd  Cd0  1  0.66664081  0.66667959  0.10023850  1
  Cd  Cd1  1  0.66664017  0.66667991  0.30008074  1
  Cd  Cd2  1  0.66663998  0.66668001  0.50009194  1
  Cd  Cd3  1  0.66664041  0.66667980  0.70005693  1
  Cd  Cd4  1  0.66663998  0.66668001  0.90021438  1
  Cd  Cd5  1  0.33336043  0.33331979  0.20006413  1
  Cd  Cd6  1  0.33336101  0.33331949  0.40008866  1
  Cd  Cd7  1  0.33336160  0.33331920  0.60007915  1
  Hg  Hg8  1  0.33337775  0.33331112  0.79996428  1
  Hg  Hg9  1  0.33336547  0.33331726  -0.00005609  1
  Se  Se10  1  0.66665410  0.66667295  0.02541860  1
  Se  Se11  1  0.66665225  0.66667387  0.22492039  1
  Se  Se12  1  0.66665008  0.66667496  0.42490971  1
  Se  Se13  1  0.66665062  0.66667469  0.62488630  1
  Se  Se14  1  0.66662618  0.66668691  0.82538498  1
  Se  Se15  1  0.33334698  0.33332651  0.12494053  1
  Se  Se16  1  0.33334762  0.33332619  0.32491231  1
  Se  Se17  1  0.33334904  0.33332548  0.52490640  1
  Se  Se18  1  0.33334870  0.33332565  0.72443126  1
  Se  Se19  1  0.33334681  0.33332660  0.92446689  1
