# generated using pymatgen
data_CeNd3(Fe14B)2
_symmetry_space_group_name_H-M   'P 1'
_cell_length_a   8.75140911
_cell_length_b   8.75140911
_cell_length_c   12.09601157
_cell_angle_alpha   90.00000000
_cell_angle_beta   90.00000000
_cell_angle_gamma   90.04821394
_symmetry_Int_Tables_number   1
_chemical_formula_structural   CeNd3(Fe14B)2
_chemical_formula_sum   'Ce2 Nd6 Fe56 B4'
_cell_volume   926.39886352
_cell_formula_units_Z   2
loop_
 _symmetry_equiv_pos_site_id
 _symmetry_equiv_pos_as_xyz
  1  'x, y, z'
loop_
 _atom_site_type_symbol
 _atom_site_label
 _atom_site_symmetry_multiplicity
 _atom_site_fract_x
 _atom_site_fract_y
 _atom_site_fract_z
 _atom_site_occupancy
  Ce  Ce0  1  0.23173679  0.76826321  0.50000000  1
  Ce  Ce1  1  0.76826321  0.23173679  0.50000000  1
  Nd  Nd2  1  0.26808280  0.26808280  -0.00000000  1
  Nd  Nd3  1  0.73191720  0.73191720  -0.00000000  1
  Nd  Nd4  1  0.64191092  0.64191092  0.50000000  1
  Nd  Nd5  1  0.35808908  0.35808908  0.50000000  1
  Nd  Nd6  1  0.85850051  0.14149949  -0.00000000  1
  Nd  Nd7  1  0.14149949  0.85850051  -0.00000000  1
  Fe  Fe8  1  0.18264381  0.81735619  0.25448083  1
  Fe  Fe9  1  0.81735619  0.18264381  0.25448083  1
  Fe  Fe10  1  0.31722216  0.31722216  0.75406748  1
  Fe  Fe11  1  0.68277784  0.68277784  0.75406748  1
  Fe  Fe12  1  0.81735619  0.18264381  0.74551917  1
  Fe  Fe13  1  0.18264381  0.81735619  0.74551917  1
  Fe  Fe14  1  0.68277784  0.68277784  0.24593252  1
  Fe  Fe15  1  0.31722216  0.31722216  0.24593252  1
  Fe  Fe16  1  0.40186789  0.59813211  0.29531381  1
  Fe  Fe17  1  0.59813211  0.40186789  0.29531381  1
  Fe  Fe18  1  0.09787712  0.09787712  0.79484036  1
  Fe  Fe19  1  0.90212288  0.90212288  0.79484036  1
  Fe  Fe20  1  0.59813211  0.40186789  0.70468619  1
  Fe  Fe21  1  0.40186789  0.59813211  0.70468619  1
  Fe  Fe22  1  0.90212288  0.90212288  0.20515964  1
  Fe  Fe23  1  0.09787712  0.09787712  0.20515964  1
  Fe  Fe24  1  0.14002927  0.53758601  0.32393230  1
  Fe  Fe25  1  0.85997073  0.46241399  0.32393230  1
  Fe  Fe26  1  0.36035144  0.03695396  0.82370252  1
  Fe  Fe27  1  0.63964856  0.96304604  0.82370252  1
  Fe  Fe28  1  0.85997073  0.46241399  0.67606770  1
  Fe  Fe29  1  0.14002927  0.53758601  0.67606770  1
  Fe  Fe30  1  0.63964856  0.96304604  0.17629748  1
  Fe  Fe31  1  0.36035144  0.03695396  0.17629748  1
  Fe  Fe32  1  0.53758601  0.14002927  0.32393230  1
  Fe  Fe33  1  0.46241399  0.85997073  0.32393230  1
  Fe  Fe34  1  0.03695396  0.36035144  0.82370252  1
  Fe  Fe35  1  0.96304604  0.63964856  0.82370252  1
  Fe  Fe36  1  0.46241399  0.85997073  0.67606770  1
  Fe  Fe37  1  0.53758601  0.14002927  0.67606770  1
  Fe  Fe38  1  0.96304604  0.63964856  0.17629748  1
  Fe  Fe39  1  0.03695396  0.36035144  0.17629748  1
  Fe  Fe40  1  0.50000000  0.50000000  0.11399096  1
  Fe  Fe41  1  -0.00000000  0.00000000  0.61367671  1
  Fe  Fe42  1  0.50000000  0.50000000  0.88600904  1
  Fe  Fe43  1  -0.00000000  0.00000000  0.38632329  1
  Fe  Fe44  1  0.93273541  0.72442024  0.37284114  1
  Fe  Fe45  1  0.06726459  0.27557976  0.37284114  1
  Fe  Fe46  1  0.56752965  0.22430551  0.87261284  1
  Fe  Fe47  1  0.43247035  0.77569449  0.87261284  1
  Fe  Fe48  1  0.06726459  0.27557976  0.62715886  1
  Fe  Fe49  1  0.93273541  0.72442024  0.62715886  1
  Fe  Fe50  1  0.43247035  0.77569449  0.12738716  1
  Fe  Fe51  1  0.56752965  0.22430551  0.12738716  1
  Fe  Fe52  1  0.72442024  0.93273541  0.37284114  1
  Fe  Fe53  1  0.27557976  0.06726459  0.37284114  1
  Fe  Fe54  1  0.22430551  0.56752965  0.87261284  1
  Fe  Fe55  1  0.77569449  0.43247035  0.87261284  1
  Fe  Fe56  1  0.27557976  0.06726459  0.62715886  1
  Fe  Fe57  1  0.72442024  0.93273541  0.62715886  1
  Fe  Fe58  1  0.77569449  0.43247035  0.12738716  1
  Fe  Fe59  1  0.22430551  0.56752965  0.12738716  1
  Fe  Fe60  1  -0.00000000  0.50000000  0.50000000  1
  Fe  Fe61  1  0.50000000  0.00000000  -0.00000000  1
  Fe  Fe62  1  0.50000000  0.00000000  0.50000000  1
  Fe  Fe63  1  -0.00000000  0.50000000  -0.00000000  1
  B  B64  1  0.87399352  0.87399352  0.50000000  1
  B  B65  1  0.12600648  0.12600648  0.50000000  1
  B  B66  1  0.62599053  0.37400947  -0.00000000  1
  B  B67  1  0.37400947  0.62599053  -0.00000000  1
