# generated using pymatgen
data_BaSrN
_symmetry_space_group_name_H-M   'P 1'
_cell_length_a   3.95983878
_cell_length_b   3.95983855
_cell_length_c   7.63351194
_cell_angle_alpha   74.96719780
_cell_angle_beta   105.03280254
_cell_angle_gamma   119.99999798
_symmetry_Int_Tables_number   1
_chemical_formula_structural   BaSrN
_chemical_formula_sum   'Ba1 Sr1 N1'
_cell_volume   98.90144910
_cell_formula_units_Z   1
loop_
 _symmetry_equiv_pos_site_id
 _symmetry_equiv_pos_as_xyz
  1  'x, y, z'
loop_
 _atom_site_type_symbol
 _atom_site_label
 _atom_site_symmetry_multiplicity
 _atom_site_fract_x
 _atom_site_fract_y
 _atom_site_fract_z
 _atom_site_occupancy
  Ba  Ba0  1  0.73404191  0.26595809  0.20212573  1
  Sr  Sr1  1  0.26823832  0.73176168  0.80471496  1
  N  N2  1  0.99771977  0.00228023  0.99315931  1
