# generated using pymatgen
data_CeNdAl2O6
_symmetry_space_group_name_H-M   'P 1'
_cell_length_a   5.37282337
_cell_length_b   5.35077795
_cell_length_c   5.35415929
_cell_angle_alpha   60.25174596
_cell_angle_beta   60.37919307
_cell_angle_gamma   59.90531495
_symmetry_Int_Tables_number   1
_chemical_formula_structural   CeNdAl2O6
_chemical_formula_sum   'Ce1 Nd1 Al2 O6'
_cell_volume   109.27845022
_cell_formula_units_Z   1
loop_
 _symmetry_equiv_pos_site_id
 _symmetry_equiv_pos_as_xyz
  1  'x, y, z'
loop_
 _atom_site_type_symbol
 _atom_site_label
 _atom_site_symmetry_multiplicity
 _atom_site_fract_x
 _atom_site_fract_y
 _atom_site_fract_z
 _atom_site_occupancy
  Ce  Ce0  1  0.75083510  0.75022516  0.24916490  1
  Nd  Nd1  1  0.24749146  0.25028828  0.75250854  1
  Al  Al2  1  0.99974304  0.00026124  0.49977866  1
  Al  Al3  1  0.50022134  0.49978293  0.00025696  1
  O  O4  1  0.21413354  0.78883344  0.21095638  1
  O  O5  1  0.78904362  0.21392335  0.78586646  1
  O  O6  1  0.23392222  0.26621193  0.23222095  1
  O  O7  1  0.76777905  0.73235510  0.76607778  1
  O  O8  1  0.69561036  0.27010199  0.30438964  1
  O  O9  1  0.30122028  0.72801658  0.69877972  1
