# generated using pymatgen
data_Li3NbP3O11
_symmetry_space_group_name_H-M   'P 1'
_cell_length_a   8.23064438
_cell_length_b   8.35257170
_cell_length_c   6.10726739
_cell_angle_alpha   92.93276533
_cell_angle_beta   102.23723637
_cell_angle_gamma   106.82422961
_symmetry_Int_Tables_number   1
_chemical_formula_structural   Li3NbP3O11
_chemical_formula_sum   'Li6 Nb2 P6 O22'
_cell_volume   389.90279560
_cell_formula_units_Z   2
loop_
 _symmetry_equiv_pos_site_id
 _symmetry_equiv_pos_as_xyz
  1  'x, y, z'
loop_
 _atom_site_type_symbol
 _atom_site_label
 _atom_site_symmetry_multiplicity
 _atom_site_fract_x
 _atom_site_fract_y
 _atom_site_fract_z
 _atom_site_occupancy
  Li  Li0  1  0.99748547  0.81947912  0.62189853  1
  Li  Li1  1  0.14377255  0.53658111  0.39951880  1
  Li  Li2  1  0.42673642  0.94721758  0.72129708  1
  Li  Li3  1  0.57326358  0.05278242  0.27870292  1
  Li  Li4  1  0.85622745  0.46341889  0.60048120  1
  Li  Li5  1  0.00251453  0.18052088  0.37810147  1
  Nb  Nb6  1  0.66934399  0.72716200  0.88138606  1
  Nb  Nb7  1  0.33065601  0.27283800  0.11861394  1
  P  P8  1  0.23247466  0.62318463  0.90658218  1
  P  P9  1  0.12719146  0.86904573  0.15095012  1
  P  P10  1  0.38348985  0.31212049  0.60781869  1
  P  P11  1  0.61651015  0.68787951  0.39218131  1
  P  P12  1  0.87280854  0.13095427  0.84904988  1
  P  P13  1  0.76752534  0.37681537  0.09341782  1
  O  O14  1  0.09932992  0.62725399  0.69268409  1
  O  O15  1  0.11290472  0.89399178  0.39062495  1
  O  O16  1  0.21960627  0.44350674  0.94647296  1
  O  O17  1  0.18057890  0.69307708  0.12989017  1
  O  O18  1  0.41194449  0.74702745  0.90326448  1
  O  O19  1  0.03799077  0.16186154  0.04047410  1
  O  O20  1  0.23350516  0.34062783  0.42188205  1
  O  O21  1  0.30808374  0.18854763  0.76897727  1
  O  O22  1  0.52698191  0.77624310  0.54121823  1
  O  O23  1  0.50121520  0.47959350  0.73864502  1
  O  O24  1  0.71255933  0.99938764  0.90164437  1
  O  O25  1  0.28744067  0.00061236  0.09835563  1
  O  O26  1  0.49878480  0.52040650  0.26135498  1
  O  O27  1  0.47301809  0.22375690  0.45878177  1
  O  O28  1  0.69191626  0.81145237  0.23102273  1
  O  O29  1  0.76649484  0.65937217  0.57811795  1
  O  O30  1  0.96200923  0.83813846  0.95952590  1
  O  O31  1  0.58805551  0.25297255  0.09673552  1
  O  O32  1  0.81942110  0.30692292  0.87010983  1
  O  O33  1  0.78039373  0.55649326  0.05352704  1
  O  O34  1  0.88709528  0.10600822  0.60937505  1
  O  O35  1  0.90067008  0.37274601  0.30731591  1
