# generated using pymatgen
data_LiCu3(CO3)3
_symmetry_space_group_name_H-M   'P 1'
_cell_length_a   8.07282754
_cell_length_b   8.05911813
_cell_length_c   6.17659878
_cell_angle_alpha   90.00000000
_cell_angle_beta   90.00000000
_cell_angle_gamma   119.33051879
_symmetry_Int_Tables_number   1
_chemical_formula_structural   LiCu3(CO3)3
_chemical_formula_sum   'Li2 Cu6 C6 O18'
_cell_volume   350.33511944
_cell_formula_units_Z   2
loop_
 _symmetry_equiv_pos_site_id
 _symmetry_equiv_pos_as_xyz
  1  'x, y, z'
loop_
 _atom_site_type_symbol
 _atom_site_label
 _atom_site_symmetry_multiplicity
 _atom_site_fract_x
 _atom_site_fract_y
 _atom_site_fract_z
 _atom_site_occupancy
  Li  Li0  1  0.34857164  0.96878976  0.00000000  1
  Li  Li1  1  0.61775685  0.65533162  0.50000000  1
  Cu  Cu2  1  0.31334622  0.29628779  0.25531492  1
  Cu  Cu3  1  0.31334622  0.29628779  0.74468508  1
  Cu  Cu4  1  0.97663285  0.66002016  0.75146901  1
  Cu  Cu5  1  0.97663285  0.66002016  0.24853099  1
  Cu  Cu6  1  0.71715270  0.04135827  0.25074331  1
  Cu  Cu7  1  0.71715270  0.04135827  0.74925669  1
  C  C8  1  0.33680342  0.67101551  0.24954057  1
  C  C9  1  0.33680342  0.67101551  0.75045943  1
  C  C10  1  0.00678620  0.00968058  0.00000000  1
  C  C11  1  0.99791967  0.99119736  0.50000000  1
  C  C12  1  0.66691219  0.33201522  0.00000000  1
  C  C13  1  0.65395966  0.32977133  0.50000000  1
  O  O14  1  0.07577881  0.89343943  0.00000000  1
  O  O15  1  0.06278669  0.87311271  0.50000000  1
  O  O16  1  0.15560292  0.56904890  0.75381116  1
  O  O17  1  0.15560292  0.56904890  0.24618884  1
  O  O18  1  0.41990365  0.85516955  0.23532580  1
  O  O19  1  0.41990365  0.85516955  0.76467420  1
  O  O20  1  0.12120437  0.19375280  0.00000000  1
  O  O21  1  0.10723685  0.17349936  0.50000000  1
  O  O22  1  0.43782034  0.58618586  0.26728605  1
  O  O23  1  0.43782034  0.58618586  0.73271395  1
  O  O24  1  0.82382470  0.94197198  0.00000000  1
  O  O25  1  0.81117367  0.92612898  0.50000000  1
  O  O26  1  0.48334741  0.26134454  0.00000000  1
  O  O27  1  0.47074680  0.25843239  0.50000000  1
  O  O28  1  0.78149368  0.51341735  0.00000000  1
  O  O29  1  0.76251812  0.51407398  0.50000000  1
  O  O30  1  0.73537915  0.21516767  0.00000000  1
  O  O31  1  0.72892237  0.21974986  0.50000000  1
