# generated using pymatgen
data_Ca3Ge3Au8
_symmetry_space_group_name_H-M   'P 1'
_cell_length_a   4.54015139
_cell_length_b   9.61007528
_cell_length_c   13.53914714
_cell_angle_alpha   90.95672308
_cell_angle_beta   90.00000000
_cell_angle_gamma   90.00000000
_symmetry_Int_Tables_number   1
_chemical_formula_structural   Ca3Ge3Au8
_chemical_formula_sum   'Ca6 Ge6 Au16'
_cell_volume   590.64683888
_cell_formula_units_Z   2
loop_
 _symmetry_equiv_pos_site_id
 _symmetry_equiv_pos_as_xyz
  1  'x, y, z'
loop_
 _atom_site_type_symbol
 _atom_site_label
 _atom_site_symmetry_multiplicity
 _atom_site_fract_x
 _atom_site_fract_y
 _atom_site_fract_z
 _atom_site_occupancy
  Ca  Ca0  1  0.50000000  0.00147851  0.18904450  1
  Ca  Ca1  1  0.50000000  0.99852149  0.81095550  1
  Ca  Ca2  1  -0.00000000  0.50523489  0.31213201  1
  Ca  Ca3  1  -0.00000000  0.49476511  0.68786799  1
  Ca  Ca4  1  -0.00000000  0.50000000  -0.00000000  1
  Ca  Ca5  1  0.50000000  0.00000000  0.50000000  1
  Ge  Ge6  1  0.50000000  0.65125231  0.18040541  1
  Ge  Ge7  1  0.50000000  0.34874769  0.81959459  1
  Ge  Ge8  1  0.00000000  0.14977357  0.31487235  1
  Ge  Ge9  1  0.00000000  0.85022643  0.68512765  1
  Ge  Ge10  1  -0.00000000  0.22070777  0.12588254  1
  Ge  Ge11  1  0.00000000  0.77929223  0.87411746  1
  Au  Au12  1  0.50000000  0.26400177  0.36229080  1
  Au  Au13  1  0.50000000  0.73599823  0.63770920  1
  Au  Au14  1  -0.00000000  0.76129754  0.13661281  1
  Au  Au15  1  0.00000000  0.23870246  0.86338719  1
  Au  Au16  1  0.50000000  0.61324932  0.83952953  1
  Au  Au17  1  0.50000000  0.38675068  0.16047047  1
  Au  Au18  1  -0.00000000  0.11033932  0.65919857  1
  Au  Au19  1  -0.00000000  0.88966068  0.34080143  1
  Au  Au20  1  0.50000000  0.79436567  0.00357827  1
  Au  Au21  1  0.50000000  0.20563433  0.99642173  1
  Au  Au22  1  -0.00000000  0.29645120  0.49599833  1
  Au  Au23  1  -0.00000000  0.70354880  0.50400167  1
  Au  Au24  1  0.50000000  0.50000000  0.50000000  1
  Au  Au25  1  -0.00000000  0.00000000  -0.00000000  1
  Au  Au26  1  0.50000000  0.72011284  0.36824293  1
  Au  Au27  1  0.50000000  0.27988716  0.63175707  1
