# generated using pymatgen
data_CaCe3V4O16
_symmetry_space_group_name_H-M   'P 1'
_cell_length_a   6.47997417
_cell_length_b   7.34779808
_cell_length_c   7.34779808
_cell_angle_alpha   90.00000000
_cell_angle_beta   90.00000000
_cell_angle_gamma   90.00000000
_symmetry_Int_Tables_number   1
_chemical_formula_structural   CaCe3V4O16
_chemical_formula_sum   'Ca1 Ce3 V4 O16'
_cell_volume   349.85469076
_cell_formula_units_Z   1
loop_
 _symmetry_equiv_pos_site_id
 _symmetry_equiv_pos_as_xyz
  1  'x, y, z'
loop_
 _atom_site_type_symbol
 _atom_site_label
 _atom_site_symmetry_multiplicity
 _atom_site_fract_x
 _atom_site_fract_y
 _atom_site_fract_z
 _atom_site_occupancy
  Ca  Ca0  1  0.62500000  0.50000000  0.75000000  1
  Ce  Ce1  1  0.12500000  -0.00000000  0.25000000  1
  Ce  Ce2  1  0.87530471  0.00000000  0.75000000  1
  Ce  Ce3  1  0.37469529  0.50000000  0.25000000  1
  V  V4  1  0.87364405  0.50000000  0.25000000  1
  V  V5  1  0.37635595  -0.00000000  0.75000000  1
  V  V6  1  0.62500000  0.00000000  0.25000000  1
  V  V7  1  0.12500000  0.50000000  0.75000000  1
  O  O8  1  0.04927601  0.31597206  0.25000000  1
  O  O9  1  0.54847154  0.82150062  0.75000000  1
  O  O10  1  0.79836561  0.00000000  0.06799707  1
  O  O11  1  0.29307941  0.50000000  0.56414919  1
  O  O12  1  0.79836561  0.00000000  0.43200293  1
  O  O13  1  0.29307941  0.50000000  0.93585081  1
  O  O14  1  0.04927601  0.68402794  0.25000000  1
  O  O15  1  0.54847154  0.17849938  0.75000000  1
  O  O16  1  0.45163439  0.18200293  0.25000000  1
  O  O17  1  0.95692059  0.68585081  0.75000000  1
  O  O18  1  0.70152846  0.50000000  0.42849938  1
  O  O19  1  0.20072399  0.00000000  0.93402794  1
  O  O20  1  0.70152846  0.50000000  0.07150062  1
  O  O21  1  0.20072399  0.00000000  0.56597206  1
  O  O22  1  0.45163439  0.81799707  0.25000000  1
  O  O23  1  0.95692059  0.31414919  0.75000000  1
