# generated using pymatgen
data_BaSr3Ti4O12
_symmetry_space_group_name_H-M   'P 1'
_cell_length_a   3.96835176
_cell_length_b   3.96835176
_cell_length_c   15.87641522
_cell_angle_alpha   90.00000000
_cell_angle_beta   90.00000000
_cell_angle_gamma   90.00000000
_symmetry_Int_Tables_number   1
_chemical_formula_structural   BaSr3Ti4O12
_chemical_formula_sum   'Ba1 Sr3 Ti4 O12'
_cell_volume   250.01886072
_cell_formula_units_Z   1
loop_
 _symmetry_equiv_pos_site_id
 _symmetry_equiv_pos_as_xyz
  1  'x, y, z'
loop_
 _atom_site_type_symbol
 _atom_site_label
 _atom_site_symmetry_multiplicity
 _atom_site_fract_x
 _atom_site_fract_y
 _atom_site_fract_z
 _atom_site_occupancy
  Ba  Ba0  1  -0.00000000  -0.00000000  -0.00000000  1
  Sr  Sr1  1  0.00000000  -0.00000000  0.25092012  1
  Sr  Sr2  1  0.00000000  -0.00000000  0.50000000  1
  Sr  Sr3  1  0.00000000  0.00000000  0.74907988  1
  Ti  Ti4  1  0.50000000  0.50000000  0.12817475  1
  Ti  Ti5  1  0.50000000  0.50000000  0.37543878  1
  Ti  Ti6  1  0.50000000  0.50000000  0.62456122  1
  Ti  Ti7  1  0.50000000  0.50000000  0.87182525  1
  O  O8  1  -0.00000000  0.50000000  0.12973847  1
  O  O9  1  0.00000000  0.50000000  0.37519158  1
  O  O10  1  -0.00000000  0.50000000  0.62480842  1
  O  O11  1  0.00000000  0.50000000  0.87026153  1
  O  O12  1  0.50000000  0.50000000  -0.00000000  1
  O  O13  1  0.50000000  0.50000000  0.25143327  1
  O  O14  1  0.50000000  0.50000000  0.50000000  1
  O  O15  1  0.50000000  0.50000000  0.74856673  1
  O  O16  1  0.50000000  -0.00000000  0.12973847  1
  O  O17  1  0.50000000  -0.00000000  0.37519158  1
  O  O18  1  0.50000000  0.00000000  0.62480842  1
  O  O19  1  0.50000000  0.00000000  0.87026153  1
