# generated using pymatgen
data_Eu4Zn51
_symmetry_space_group_name_H-M   'P 1'
_cell_length_a   8.60652124
_cell_length_b   8.60652124
_cell_length_c   14.80378389
_cell_angle_alpha   73.10093780
_cell_angle_beta   90.00000000
_cell_angle_gamma   120.00000000
_symmetry_Int_Tables_number   1
_chemical_formula_structural   Eu4Zn51
_chemical_formula_sum   'Eu4 Zn51'
_cell_volume   894.54561933
_cell_formula_units_Z   1
loop_
 _symmetry_equiv_pos_site_id
 _symmetry_equiv_pos_as_xyz
  1  'x, y, z'
loop_
 _atom_site_type_symbol
 _atom_site_label
 _atom_site_symmetry_multiplicity
 _atom_site_fract_x
 _atom_site_fract_y
 _atom_site_fract_z
 _atom_site_occupancy
  Eu  Eu0  1  0.87492988  0.74985976  0.37521036  1
  Eu  Eu1  1  0.37456795  0.74913590  0.87629615  1
  Eu  Eu2  1  0.62507012  0.25014024  0.12478964  1
  Eu  Eu3  1  0.12543205  0.25086410  0.62370385  1
  Zn  Zn4  1  0.33842908  0.44208688  0.10272563  1
  Zn  Zn5  1  0.84257414  0.44151156  0.59871614  1
  Zn  Zn6  1  0.16157092  0.55791312  0.39727437  1
  Zn  Zn7  1  0.65742586  0.55848844  0.90128386  1
  Zn  Zn8  1  0.98454111  0.20472750  0.22160038  1
  Zn  Zn9  1  0.47861010  0.19743135  0.72087580  1
  Zn  Zn10  1  0.51545889  0.79527250  0.27839962  1
  Zn  Zn11  1  0.02138990  0.80256865  0.77912420  1
  Zn  Zn12  1  0.71051875  0.06001582  0.34914142  1
  Zn  Zn13  1  0.20954494  0.05920885  0.84978593  1
  Zn  Zn14  1  0.78948125  0.93998418  0.15085858  1
  Zn  Zn15  1  0.29045506  0.94079115  0.65021407  1
  Zn  Zn16  1  0.66840023  0.69923000  0.02943079  1
  Zn  Zn17  1  0.16918583  0.69959544  0.52920438  1
  Zn  Zn18  1  0.83159977  0.30077000  0.47056921  1
  Zn  Zn19  1  0.33081417  0.30040456  0.97079562  1
  Zn  Zn20  1  0.04481250  0.20638342  0.39727437  1
  Zn  Zn21  1  0.54022770  0.19765356  0.90128386  1
  Zn  Zn22  1  0.45518750  0.79361658  0.10272563  1
  Zn  Zn23  1  0.95977230  0.80234644  0.59871614  1
  Zn  Zn24  1  0.92632788  0.44178677  0.27839962  1
  Zn  Zn25  1  0.41830715  0.43969705  0.77912420  1
  Zn  Zn26  1  0.57367212  0.55821323  0.22160038  1
  Zn  Zn27  1  0.08169285  0.56030295  0.72087580  1
  Zn  Zn28  1  0.90915724  0.69863849  0.15085858  1
  Zn  Zn29  1  0.40899478  0.69944984  0.65021407  1
  Zn  Zn30  1  0.59084276  0.30136151  0.34914142  1
  Zn  Zn31  1  0.09100522  0.30055016  0.84978593  1
  Zn  Zn32  1  0.22866079  0.06026056  0.47056921  1
  Zn  Zn33  1  0.72879982  0.05961399  0.97079562  1
  Zn  Zn34  1  0.27133921  0.93973944  0.02943079  1
  Zn  Zn35  1  0.77120018  0.94038601  0.52920438  1
  Zn  Zn36  1  0.22018639  0.79385851  0.22160038  1
  Zn  Zn37  1  0.71882125  0.80051410  0.72087580  1
  Zn  Zn38  1  0.27981361  0.20614149  0.27839962  1
  Zn  Zn39  1  0.78117875  0.19948590  0.77912420  1
  Zn  Zn40  1  0.10365779  0.55884529  0.10272563  1
  Zn  Zn41  1  0.59893742  0.55870972  0.59871614  1
  Zn  Zn42  1  0.39634221  0.44115471  0.39727437  1
  Zn  Zn43  1  0.90106258  0.44129028  0.90128386  1
  Zn  Zn44  1  0.03082977  0.30216898  0.02943079  1
  Zn  Zn45  1  0.53040961  0.30160979  0.52920438  1
  Zn  Zn46  1  0.46917023  0.69783102  0.47056921  1
  Zn  Zn47  1  0.96959039  0.69839021  0.97079562  1
  Zn  Zn48  1  0.34949707  0.94033984  0.34914142  1
  Zn  Zn49  1  0.84966390  0.94066912  0.84978593  1
  Zn  Zn50  1  0.15050293  0.05966016  0.15085858  1
  Zn  Zn51  1  0.65033610  0.05933088  0.65021407  1
  Zn  Zn52  1  0.75000000  0.50000000  0.75000000  1
  Zn  Zn53  1  0.00001171  0.00002342  -0.00003513  1
  Zn  Zn54  1  0.49998829  -0.00002342  0.50003513  1
