# generated using pymatgen
data_Ca6V3Fe7O24
_symmetry_space_group_name_H-M   'P 1'
_cell_length_a   10.93451699
_cell_length_b   10.93451699
_cell_length_c   10.93451699
_cell_angle_alpha   70.52877937
_cell_angle_beta   70.52877937
_cell_angle_gamma   109.47122063
_symmetry_Int_Tables_number   1
_chemical_formula_structural   Ca6V3Fe7O24
_chemical_formula_sum   'Ca12 V6 Fe14 O48'
_cell_volume   1006.41458256
_cell_formula_units_Z   2
loop_
 _symmetry_equiv_pos_site_id
 _symmetry_equiv_pos_as_xyz
  1  'x, y, z'
loop_
 _atom_site_type_symbol
 _atom_site_label
 _atom_site_symmetry_multiplicity
 _atom_site_fract_x
 _atom_site_fract_y
 _atom_site_fract_z
 _atom_site_occupancy
  Ca  Ca0  1  0.37404036  0.62404036  0.25000000  1
  Ca  Ca1  1  0.12595964  0.87595964  0.75000000  1
  Ca  Ca2  1  0.37595964  0.75000000  0.87404036  1
  Ca  Ca3  1  0.12404036  0.25000000  0.62595964  1
  Ca  Ca4  1  0.25000000  0.62595964  0.62404036  1
  Ca  Ca5  1  0.75000000  0.87404036  0.87595964  1
  Ca  Ca6  1  0.62404036  0.37404036  0.75000000  1
  Ca  Ca7  1  0.87595964  0.12595964  0.25000000  1
  Ca  Ca8  1  0.62595964  0.25000000  0.12404036  1
  Ca  Ca9  1  0.87404036  0.75000000  0.37595964  1
  Ca  Ca10  1  0.75000000  0.37595964  0.37404036  1
  Ca  Ca11  1  0.25000000  0.12404036  0.12595964  1
  V  V12  1  0.87500000  0.62500000  0.75000000  1
  V  V13  1  0.62500000  0.87500000  0.25000000  1
  V  V14  1  0.37500000  0.25000000  0.37500000  1
  V  V15  1  0.12500000  0.75000000  0.12500000  1
  V  V16  1  0.75000000  0.12500000  0.62500000  1
  V  V17  1  0.25000000  0.37500000  0.87500000  1
  Fe  Fe18  1  0.50000000  0.02470121  0.00000000  1
  Fe  Fe19  1  0.52470121  0.50000000  0.50000000  1
  Fe  Fe20  1  0.97529879  0.47529879  0.02470121  1
  Fe  Fe21  1  0.00000000  0.00000000  0.47529879  1
  Fe  Fe22  1  0.50000000  0.52470121  -0.00000000  1
  Fe  Fe23  1  0.47529879  0.97529879  0.52470121  1
  Fe  Fe24  1  0.02470121  0.50000000  0.50000000  1
  Fe  Fe25  1  0.00000000  -0.00000000  0.97529879  1
  Fe  Fe26  1  0.12500000  0.37500000  0.25000000  1
  Fe  Fe27  1  0.37500000  0.12500000  0.75000000  1
  Fe  Fe28  1  0.62500000  0.75000000  0.62500000  1
  Fe  Fe29  1  0.87500000  0.25000000  0.87500000  1
  Fe  Fe30  1  0.25000000  0.87500000  0.37500000  1
  Fe  Fe31  1  0.75000000  0.62500000  0.12500000  1
  O  O32  1  0.58017743  0.89163948  0.10762816  1
  O  O33  1  0.49926764  0.68780559  0.39237184  1
  O  O34  1  0.00073236  0.60836052  0.81146205  1
  O  O35  1  0.91982257  0.81219441  0.68853795  1
  O  O36  1  0.10836052  0.68853795  0.99926764  1
  O  O37  1  0.31219441  0.81146205  0.08017743  1
  O  O38  1  0.39163948  0.39237184  0.41982257  1
  O  O39  1  0.18780559  0.10762816  0.50073236  1
  O  O40  1  0.31146205  0.41982257  0.68780559  1
  O  O41  1  0.18853795  0.50073236  0.89163948  1
  O  O42  1  0.60762816  0.99926764  0.81219441  1
  O  O43  1  0.89237184  0.08017743  0.60836052  1
  O  O44  1  0.41320351  0.12943448  0.90668869  1
  O  O45  1  0.53612317  0.31989220  0.59331131  1
  O  O46  1  0.96387683  0.37056552  0.21623097  1
  O  O47  1  0.08679649  0.18010780  0.28376903  1
  O  O48  1  0.87056552  0.28376903  0.03612317  1
  O  O49  1  0.68010780  0.21623097  0.91320351  1
  O  O50  1  0.62943448  0.59331131  0.58679649  1
  O  O51  1  0.81989220  0.90668869  0.46387683  1
  O  O52  1  0.71623097  0.58679649  0.31989220  1
  O  O53  1  0.78376903  0.46387683  0.12943448  1
  O  O54  1  0.40668869  0.03612317  0.18010780  1
  O  O55  1  0.09331131  0.91320351  0.37056552  1
  O  O56  1  0.41982257  0.31146205  0.18780559  1
  O  O57  1  0.50073236  0.18853795  0.39163948  1
  O  O58  1  0.99926764  0.60762816  0.31219441  1
  O  O59  1  0.08017743  0.89237184  0.10836052  1
  O  O60  1  0.89163948  0.58017743  0.60762816  1
  O  O61  1  0.68780559  0.49926764  0.89237184  1
  O  O62  1  0.60836052  0.00073236  0.31146205  1
  O  O63  1  0.81219441  0.91982257  0.18853795  1
  O  O64  1  0.68853795  0.10836052  0.49926764  1
  O  O65  1  0.81146205  0.31219441  0.58017743  1
  O  O66  1  0.39237184  0.39163948  0.91982257  1
  O  O67  1  0.10762816  0.18780559  0.00073236  1
  O  O68  1  0.58679649  0.71623097  0.81989220  1
  O  O69  1  0.46387683  0.78376903  0.62943448  1
  O  O70  1  0.03612317  0.40668869  0.68010780  1
  O  O71  1  0.91320351  0.09331131  0.87056552  1
  O  O72  1  0.12943448  0.41320351  0.40668869  1
  O  O73  1  0.31989220  0.53612317  0.09331131  1
  O  O74  1  0.37056552  0.96387683  0.71623097  1
  O  O75  1  0.18010780  0.08679649  0.78376903  1
  O  O76  1  0.28376903  0.87056552  0.53612317  1
  O  O77  1  0.21623097  0.68010780  0.41320351  1
  O  O78  1  0.59331131  0.62943448  0.08679649  1
  O  O79  1  0.90668869  0.81989220  0.96387683  1
