# generated using pymatgen
data_Ca4CrFe3O10
_symmetry_space_group_name_H-M   'P 1'
_cell_length_a   5.49306102
_cell_length_b   5.69031304
_cell_length_c   14.77661842
_cell_angle_alpha   90.04688572
_cell_angle_beta   90.00000000
_cell_angle_gamma   90.00000000
_symmetry_Int_Tables_number   1
_chemical_formula_structural   Ca4CrFe3O10
_chemical_formula_sum   'Ca8 Cr2 Fe6 O20'
_cell_volume   461.87610576
_cell_formula_units_Z   2
loop_
 _symmetry_equiv_pos_site_id
 _symmetry_equiv_pos_as_xyz
  1  'x, y, z'
loop_
 _atom_site_type_symbol
 _atom_site_label
 _atom_site_symmetry_multiplicity
 _atom_site_fract_x
 _atom_site_fract_y
 _atom_site_fract_z
 _atom_site_occupancy
  Ca  Ca0  1  0.02158362  0.52509500  0.89286997  1
  Ca  Ca1  1  0.52158362  0.97490500  0.60713003  1
  Ca  Ca2  1  0.97829123  0.47382464  0.39276890  1
  Ca  Ca3  1  0.47829123  0.02617536  0.10723110  1
  Ca  Ca4  1  0.97841638  0.47490500  0.10713003  1
  Ca  Ca5  1  0.47841638  0.02509500  0.39286997  1
  Ca  Ca6  1  0.02170877  0.52617536  0.60723110  1
  Ca  Ca7  1  0.52170877  0.97382464  0.89276890  1
  Cr  Cr8  1  0.50000000  0.50000000  -0.00000000  1
  Cr  Cr9  1  0.00000000  0.00000000  0.50000000  1
  Fe  Fe10  1  0.55385132  0.43138856  0.75094948  1
  Fe  Fe11  1  0.05385132  0.06861144  0.74905052  1
  Fe  Fe12  1  0.44614868  0.56861144  0.24905052  1
  Fe  Fe13  1  0.94614868  0.93138856  0.25094948  1
  Fe  Fe14  1  0.50000000  0.50000000  0.50000000  1
  Fe  Fe15  1  0.00000000  0.00000000  -0.00000000  1
  O  O16  1  0.23533245  0.73760149  0.01728848  1
  O  O17  1  0.73533245  0.76239851  0.48271152  1
  O  O18  1  0.76363269  0.26558958  0.51756328  1
  O  O19  1  0.26363269  0.23441042  0.98243672  1
  O  O20  1  0.76466755  0.26239851  0.98271152  1
  O  O21  1  0.26466755  0.23760149  0.51728848  1
  O  O22  1  0.23636731  0.73441042  0.48243672  1
  O  O23  1  0.73636731  0.76558958  0.01756328  1
  O  O24  1  0.47261377  0.57326186  0.86159234  1
  O  O25  1  0.97261377  0.92673814  0.63840766  1
  O  O26  1  0.53083168  0.42047890  0.35743240  1
  O  O27  1  0.03083168  0.07952110  0.14256760  1
  O  O28  1  0.52738623  0.42673814  0.13840766  1
  O  O29  1  0.02738623  0.07326186  0.36159234  1
  O  O30  1  0.46916832  0.57952110  0.64256760  1
  O  O31  1  0.96916832  0.92047890  0.85743240  1
  O  O32  1  0.90827055  0.37994265  0.75003819  1
  O  O33  1  0.40827055  0.12005735  0.74996181  1
  O  O34  1  0.09172945  0.62005735  0.24996181  1
  O  O35  1  0.59172945  0.87994265  0.25003819  1
