# generated using pymatgen
data_Ca2Zn3Ag
_symmetry_space_group_name_H-M   'P 1'
_cell_length_a   4.66716460
_cell_length_b   5.82155322
_cell_length_c   5.77233162
_cell_angle_alpha   97.14206785
_cell_angle_beta   113.84540917
_cell_angle_gamma   66.36853683
_symmetry_Int_Tables_number   1
_chemical_formula_structural   Ca2Zn3Ag
_chemical_formula_sum   'Ca2 Zn3 Ag1'
_cell_volume   131.28522813
_cell_formula_units_Z   1
loop_
 _symmetry_equiv_pos_site_id
 _symmetry_equiv_pos_as_xyz
  1  'x, y, z'
loop_
 _atom_site_type_symbol
 _atom_site_label
 _atom_site_symmetry_multiplicity
 _atom_site_fract_x
 _atom_site_fract_y
 _atom_site_fract_z
 _atom_site_occupancy
  Ca  Ca0  1  0.75131746  0.69911693  0.20175185  1
  Ca  Ca1  1  0.25015858  0.29929054  0.79960771  1
  Zn  Zn2  1  0.43571569  0.73465150  0.60608287  1
  Zn  Zn3  1  0.06119066  0.09669969  0.21908102  1
  Zn  Zn4  1  0.94285626  0.89100972  0.77672224  1
  Ag  Ag5  1  0.55876135  0.27923162  0.39675431  1
