# generated using pymatgen
data_Ca2TiSi2SnO10
_symmetry_space_group_name_H-M   'P 1'
_cell_length_a   5.56996484
_cell_length_b   5.56410544
_cell_length_c   13.23819503
_cell_angle_alpha   87.79513976
_cell_angle_beta   87.60812733
_cell_angle_gamma   105.66340704
_symmetry_Int_Tables_number   1
_chemical_formula_structural   Ca2TiSi2SnO10
_chemical_formula_sum   'Ca4 Ti2 Si4 Sn2 O20'
_cell_volume   394.16847843
_cell_formula_units_Z   2
loop_
 _symmetry_equiv_pos_site_id
 _symmetry_equiv_pos_as_xyz
  1  'x, y, z'
loop_
 _atom_site_type_symbol
 _atom_site_label
 _atom_site_symmetry_multiplicity
 _atom_site_fract_x
 _atom_site_fract_y
 _atom_site_fract_z
 _atom_site_occupancy
  Ca  Ca0  1  0.03967164  0.70480311  0.12237175  1
  Ca  Ca1  1  0.53967164  0.20480311  0.62237175  1
  Ca  Ca2  1  0.46032836  0.79519689  0.37762825  1
  Ca  Ca3  1  0.96032836  0.29519689  0.87762825  1
  Ti  Ti4  1  0.50000000  0.50000000  -0.00000000  1
  Ti  Ti5  1  0.00000000  -0.00000000  0.50000000  1
  Si  Si6  1  0.80872271  0.44709775  0.37675811  1
  Si  Si7  1  0.30872271  0.94709775  0.87675811  1
  Si  Si8  1  0.69127729  0.05290225  0.12324189  1
  Si  Si9  1  0.19127729  0.55290225  0.62324189  1
  Sn  Sn10  1  0.25000000  0.25000000  0.25000000  1
  Sn  Sn11  1  0.75000000  0.75000000  0.75000000  1
  O  O12  1  0.59411914  0.46546924  0.29672120  1
  O  O13  1  0.09411914  0.96546924  0.79672120  1
  O  O14  1  0.70507066  0.83498528  0.04357744  1
  O  O15  1  0.20507066  0.33498528  0.54357744  1
  O  O16  1  0.90588086  0.03453076  0.20327880  1
  O  O17  1  0.40588086  0.53453076  0.70327880  1
  O  O18  1  0.79492934  0.66501472  0.45642256  1
  O  O19  1  0.29492934  0.16501472  0.95642256  1
  O  O20  1  0.19871198  0.04317194  0.37957418  1
  O  O21  1  0.69871198  0.54317194  0.87957418  1
  O  O22  1  0.30128802  0.45682806  0.12042582  1
  O  O23  1  0.80128802  0.95682806  0.62042582  1
  O  O24  1  0.74978886  0.32875423  0.06085691  1
  O  O25  1  0.24978886  0.82875423  0.56085691  1
  O  O26  1  0.08120144  0.51491717  0.31162668  1
  O  O27  1  0.58120144  0.01491717  0.81162668  1
  O  O28  1  0.75021114  0.17124577  0.43914309  1
  O  O29  1  0.25021114  0.67124577  0.93914309  1
  O  O30  1  0.41879856  0.98508283  0.18837332  1
  O  O31  1  0.91879856  0.48508283  0.68837332  1
