# generated using pymatgen
data_CrO
_symmetry_space_group_name_H-M   'P 1'
_cell_length_a   3.14724997
_cell_length_b   3.47379175
_cell_length_c   16.61399780
_cell_angle_alpha   90.08818435
_cell_angle_beta   89.85440305
_cell_angle_gamma   125.79753092
_symmetry_Int_Tables_number   1
_chemical_formula_structural   CrO
_chemical_formula_sum   'Cr6 O6'
_cell_volume   147.32494551
_cell_formula_units_Z   6
loop_
 _symmetry_equiv_pos_site_id
 _symmetry_equiv_pos_as_xyz
  1  'x, y, z'
loop_
 _atom_site_type_symbol
 _atom_site_label
 _atom_site_symmetry_multiplicity
 _atom_site_fract_x
 _atom_site_fract_y
 _atom_site_fract_z
 _atom_site_occupancy
  Cr  Cr0  1  0.42213658  0.54731801  0.08455646  1
  Cr  Cr1  1  0.61513892  0.95364124  0.74990551  1
  Cr  Cr2  1  0.42269054  0.54924143  0.41558500  1
  Cr  Cr3  1  0.36927213  0.05146220  0.25010708  1
  Cr  Cr4  1  0.58175139  0.45050039  0.58409752  1
  Cr  Cr5  1  0.58011768  0.45214590  0.91573931  1
  O  O6  1  0.01721548  0.98876142  0.00100083  1
  O  O7  1  0.87923559  0.06857053  0.16761215  1
  O  O8  1  0.87936115  0.07198103  0.33260645  1
  O  O9  1  0.01802292  0.98916721  0.49897587  1
  O  O10  1  0.10794894  0.93747972  0.66750536  1
  O  O11  1  0.10710868  0.93992992  0.83230845  1
