# generated using pymatgen
data_Ba2SrTi3O9
_symmetry_space_group_name_H-M   'P 1'
_cell_length_a   4.09803589
_cell_length_b   5.64441491
_cell_length_c   8.91335293
_cell_angle_alpha   71.54094803
_cell_angle_beta   90.00000000
_cell_angle_gamma   90.00000000
_symmetry_Int_Tables_number   1
_chemical_formula_structural   Ba2SrTi3O9
_chemical_formula_sum   'Ba2 Sr1 Ti3 O9'
_cell_volume   195.56723866
_cell_formula_units_Z   1
loop_
 _symmetry_equiv_pos_site_id
 _symmetry_equiv_pos_as_xyz
  1  'x, y, z'
loop_
 _atom_site_type_symbol
 _atom_site_label
 _atom_site_symmetry_multiplicity
 _atom_site_fract_x
 _atom_site_fract_y
 _atom_site_fract_z
 _atom_site_occupancy
  Ba  Ba0  1  0.99498241  0.99967942  0.00064116  1
  Ba  Ba1  1  0.99498241  0.33365358  0.33269184  1
  Sr  Sr2  1  0.00482485  0.66666700  0.66666700  1
  Ti  Ti3  1  0.51374140  0.50199760  0.99600479  1
  Ti  Ti4  1  0.51374140  0.83133540  0.33732821  1
  Ti  Ti5  1  0.51425973  0.16666700  0.66666700  1
  O  O6  1  0.96447750  0.50406688  0.99186624  1
  O  O7  1  0.96447750  0.82926612  0.34146676  1
  O  O8  1  0.96439549  0.16666700  0.66666700  1
  O  O9  1  0.47296089  0.33789667  0.83015074  1
  O  O10  1  0.47813687  0.66666700  0.16666700  1
  O  O11  1  0.47296089  0.99543633  0.50318226  1
  O  O12  1  0.47296089  0.83195159  0.83015074  1
  O  O13  1  0.47813687  0.16666700  0.16666700  1
  O  O14  1  0.47296089  0.50138141  0.50318226  1
