# generated using pymatgen
data_BaNa(FeAs)4
_symmetry_space_group_name_H-M   'P 1'
_cell_length_a   5.45873248
_cell_length_b   5.46282056
_cell_length_c   6.96934899
_cell_angle_alpha   90.00000000
_cell_angle_beta   66.94439566
_cell_angle_gamma   90.00000000
_symmetry_Int_Tables_number   1
_chemical_formula_structural   BaNa(FeAs)4
_chemical_formula_sum   'Ba1 Na1 Fe4 As4'
_cell_volume   191.22641995
_cell_formula_units_Z   1
loop_
 _symmetry_equiv_pos_site_id
 _symmetry_equiv_pos_as_xyz
  1  'x, y, z'
loop_
 _atom_site_type_symbol
 _atom_site_label
 _atom_site_symmetry_multiplicity
 _atom_site_fract_x
 _atom_site_fract_y
 _atom_site_fract_z
 _atom_site_occupancy
  Ba  Ba0  1  0.50000000  0.50000000  -0.00000000  1
  Na  Na1  1  0.00000000  -0.00000000  -0.00000000  1
  Fe  Fe2  1  0.50000000  0.24955614  0.50000000  1
  Fe  Fe3  1  0.00000000  0.75044386  0.50000000  1
  Fe  Fe4  1  0.00000000  0.24955614  0.50000000  1
  Fe  Fe5  1  0.50000000  0.75044386  0.50000000  1
  As  As6  1  0.35023784  0.00000000  0.29952432  1
  As  As7  1  0.85020908  0.50000000  0.29958185  1
  As  As8  1  0.14979092  0.50000000  0.70041815  1
  As  As9  1  0.64976216  -0.00000000  0.70047568  1
