# generated using pymatgen
data_LiCu2PO4
_symmetry_space_group_name_H-M   'P 1'
_cell_length_a   6.28636325
_cell_length_b   5.37187896
_cell_length_c   5.19135468
_cell_angle_alpha   90.00000000
_cell_angle_beta   89.63680092
_cell_angle_gamma   90.00000000
_symmetry_Int_Tables_number   1
_chemical_formula_structural   LiCu2PO4
_chemical_formula_sum   'Li2 Cu4 P2 O8'
_cell_volume   175.30635808
_cell_formula_units_Z   2
loop_
 _symmetry_equiv_pos_site_id
 _symmetry_equiv_pos_as_xyz
  1  'x, y, z'
loop_
 _atom_site_type_symbol
 _atom_site_label
 _atom_site_symmetry_multiplicity
 _atom_site_fract_x
 _atom_site_fract_y
 _atom_site_fract_z
 _atom_site_occupancy
  Li  Li0  1  0.00398375  0.18180289  0.00651939  1
  Li  Li1  1  0.50398375  0.81819711  0.50651939  1
  Cu  Cu2  1  0.00445965  0.81407217  0.51652231  1
  Cu  Cu3  1  0.25283446  0.29335508  0.49862836  1
  Cu  Cu4  1  0.50445965  0.18592783  0.01652231  1
  Cu  Cu5  1  0.75283446  0.70664492  0.99862836  1
  P  P6  1  0.25516580  0.67805874  0.00897115  1
  P  P7  1  0.75516580  0.32194126  0.50897115  1
  O  O8  1  0.05369940  0.82626906  0.91614258  1
  O  O9  1  0.24023907  0.40401758  0.91095704  1
  O  O10  1  0.26668391  0.68813990  0.30521097  1
  O  O11  1  0.45616497  0.80493648  0.88647921  1
  O  O12  1  0.55369940  0.17373094  0.41614258  1
  O  O13  1  0.74023907  0.59598242  0.41095704  1
  O  O14  1  0.76668391  0.31186010  0.80521097  1
  O  O15  1  0.95616497  0.19506352  0.38647921  1
