# generated using pymatgen
data_CaMnZnAs2H3O10
_symmetry_space_group_name_H-M   'P 1'
_cell_length_a   5.56624127
_cell_length_b   5.63401682
_cell_length_c   7.57088767
_cell_angle_alpha   66.55944921
_cell_angle_beta   68.70826798
_cell_angle_gamma   70.77764335
_symmetry_Int_Tables_number   1
_chemical_formula_structural   CaMnZnAs2H3O10
_chemical_formula_sum   'Ca1 Mn1 Zn1 As2 H3 O10'
_cell_volume   198.16432327
_cell_formula_units_Z   1
loop_
 _symmetry_equiv_pos_site_id
 _symmetry_equiv_pos_as_xyz
  1  'x, y, z'
loop_
 _atom_site_type_symbol
 _atom_site_label
 _atom_site_symmetry_multiplicity
 _atom_site_fract_x
 _atom_site_fract_y
 _atom_site_fract_z
 _atom_site_occupancy
  Ca  Ca0  1  0.00014025  0.00008190  0.99958456  1
  Mn  Mn1  1  0.50703559  0.99942664  0.50130175  1
  Zn  Zn2  1  0.99984844  0.51037460  0.50266544  1
  As  As3  1  0.58403814  0.59257859  0.20350782  1
  As  As4  1  0.41882524  0.40855221  0.79595223  1
  H  H5  1  0.20959174  0.20797728  0.26081992  1
  H  H6  1  0.79686486  0.80295953  0.72827663  1
  H  H7  1  0.02915186  0.02660455  0.48135669  1
  O  O8  1  0.24720127  0.68579217  0.23773690  1
  O  O9  1  0.67710833  0.24658468  0.25470552  1
  O  O10  1  0.75542048  0.31282763  0.76025679  1
  O  O11  1  0.32669863  0.75464510  0.74343825  1
  O  O12  1  0.68299267  0.68798204  0.35415085  1
  O  O13  1  0.31488703  0.31167721  0.64833143  1
  O  O14  1  0.75418801  0.74325239  0.97027835  1
  O  O15  1  0.24880382  0.25829714  0.03028486  1
  O  O16  1  0.16905755  0.14993195  0.41324459  1
  O  O17  1  0.83814607  0.86045439  0.57810741  1
