# generated using pymatgen
data_BaCa2In6O12
_symmetry_space_group_name_H-M   'P 1'
_cell_length_a   3.29155149
_cell_length_b   10.05594184
_cell_length_c   10.05611465
_cell_angle_alpha   60.00002323
_cell_angle_beta   89.99993954
_cell_angle_gamma   90.00013500
_symmetry_Int_Tables_number   1
_chemical_formula_structural   BaCa2In6O12
_chemical_formula_sum   'Ba1 Ca2 In6 O12'
_cell_volume   288.25998210
_cell_formula_units_Z   1
loop_
 _symmetry_equiv_pos_site_id
 _symmetry_equiv_pos_as_xyz
  1  'x, y, z'
loop_
 _atom_site_type_symbol
 _atom_site_label
 _atom_site_symmetry_multiplicity
 _atom_site_fract_x
 _atom_site_fract_y
 _atom_site_fract_z
 _atom_site_occupancy
  Ba  Ba0  1  0.66735027  -0.00000281  0.99999293  1
  Ca  Ca1  1  0.74966400  0.66666910  0.66667874  1
  Ca  Ca2  1  0.24966250  0.33333188  0.33333269  1
  In  In3  1  0.75024904  0.35374746  0.65167088  1
  In  In4  1  0.75024674  0.99458752  0.35375255  1
  In  In5  1  0.75024961  0.65165506  0.99457941  1
  In  In6  1  0.24745442  0.64798199  0.34756040  1
  In  In7  1  0.24745271  0.00442569  0.64799127  1
  In  In8  1  0.24744384  0.34760360  0.00444618  1
  O  O9  1  0.74903704  0.13439054  0.46808314  1
  O  O10  1  0.74904488  0.39752086  0.13439086  1
  O  O11  1  0.74904157  0.46809304  0.39751795  1
  O  O12  1  0.24995848  0.86826618  0.53035877  1
  O  O13  1  0.24995925  0.60136859  0.86827920  1
  O  O14  1  0.24996106  0.53035993  0.60137371  1
  O  O15  1  0.74843872  0.88968376  0.80329254  1
  O  O16  1  0.74844369  0.30702600  0.88968532  1
  O  O17  1  0.74843318  0.80329071  0.30701341  1
  O  O18  1  0.24696147  0.10191936  0.18644774  1
  O  O19  1  0.24697205  0.71162507  0.10192532  1
  O  O20  1  0.24697544  0.18645647  0.71162698  1
