# generated using pymatgen
data_BaMgV2ZnO8
_symmetry_space_group_name_H-M   'P 1'
_cell_length_a   8.57565880
_cell_length_b   9.92201738
_cell_length_c   9.92201738
_cell_angle_alpha   100.75205023
_cell_angle_beta   115.60427158
_cell_angle_gamma   64.39572842
_symmetry_Int_Tables_number   1
_chemical_formula_structural   BaMgV2ZnO8
_chemical_formula_sum   'Ba4 Mg4 V8 Zn4 O32'
_cell_volume   686.57535279
_cell_formula_units_Z   4
loop_
 _symmetry_equiv_pos_site_id
 _symmetry_equiv_pos_as_xyz
  1  'x, y, z'
loop_
 _atom_site_type_symbol
 _atom_site_label
 _atom_site_symmetry_multiplicity
 _atom_site_fract_x
 _atom_site_fract_y
 _atom_site_fract_z
 _atom_site_occupancy
  Ba  Ba0  1  0.49980300  0.00022623  0.99980265  1
  Ba  Ba1  1  0.99980300  0.00019735  0.99977377  1
  Ba  Ba2  1  0.24977342  0.50022623  0.49980265  1
  Ba  Ba3  1  0.74977342  0.50019735  0.49977377  1
  Mg  Mg4  1  0.66790624  0.49950388  0.83679119  1
  Mg  Mg5  1  0.16790624  0.16320881  0.50049612  1
  Mg  Mg6  1  0.41938108  0.99950388  0.33679119  1
  Mg  Mg7  1  0.91938108  0.66320881  0.00049612  1
  V  V8  1  0.20493676  0.67006324  0.82993676  1
  V  V9  1  0.70493676  0.17006324  0.32993676  1
  V  V10  1  0.04548252  0.32951748  0.17048252  1
  V  V11  1  0.54548252  0.82951748  0.67048252  1
  V  V12  1  0.12465797  0.83036150  0.32925245  1
  V  V13  1  0.12423298  0.33036150  0.82925245  1
  V  V14  1  0.62423298  0.17074755  0.66963850  1
  V  V15  1  0.62465797  0.67074755  0.16963850  1
  Zn  Zn16  1  0.33231370  0.49979075  0.16366126  1
  Zn  Zn17  1  0.83231370  0.83633874  0.50020925  1
  Zn  Zn18  1  0.08155681  0.99979075  0.66366126  1
  Zn  Zn19  1  0.58155681  0.33633874  0.00020925  1
  O  O20  1  0.21950781  0.84011988  0.83593497  1
  O  O21  1  0.71950781  0.16406503  0.15988012  1
  O  O22  1  0.52630729  0.34011988  0.33593497  1
  O  O23  1  0.02630729  0.66406503  0.65988012  1
  O  O24  1  0.22391747  0.15978590  0.16499887  1
  O  O25  1  0.72391747  0.83500113  0.84021410  1
  O  O26  1  0.53129550  0.65978590  0.66499887  1
  O  O27  1  0.03129550  0.33500113  0.34021410  1
  O  O28  1  0.94093190  0.83509784  0.15958456  1
  O  O29  1  0.11632592  0.16014617  0.83593942  1
  O  O30  1  0.13355482  0.33509784  0.65958456  1
  O  O31  1  0.30946734  0.66014617  0.33593942  1
  O  O32  1  0.61632592  0.16406058  0.83985383  1
  O  O33  1  0.44093190  0.84041544  0.16490216  1
  O  O34  1  0.80946734  0.66406058  0.33985383  1
  O  O35  1  0.63355482  0.34041544  0.66490216  1
  O  O36  1  0.14883752  0.66585845  0.98049165  1
  O  O37  1  0.64883752  0.01950835  0.33414155  1
  O  O38  1  0.91579568  0.16585845  0.48049165  1
  O  O39  1  0.41579568  0.51950835  0.83414155  1
  O  O40  1  0.83403393  0.33503890  0.01847985  1
  O  O41  1  0.33403393  0.98152015  0.66496110  1
  O  O42  1  0.59940702  0.83503890  0.51847985  1
  O  O43  1  0.09940702  0.48152015  0.16496110  1
  O  O44  1  0.18542759  0.98138663  0.33530443  1
  O  O45  1  0.33116353  0.33401849  0.98067401  1
  O  O46  1  0.91849021  0.48138663  0.83530443  1
  O  O47  1  0.06549200  0.83401849  0.48067401  1
  O  O48  1  0.83116353  0.01932599  0.66598151  1
  O  O49  1  0.68542759  0.66469557  0.01861337  1
  O  O50  1  0.56549200  0.51932599  0.16598151  1
  O  O51  1  0.41849021  0.16469557  0.51861337  1
