# generated using pymatgen
data_Ba3SrYb2(ReO6)2
_symmetry_space_group_name_H-M   'P 1'
_cell_length_a   5.93449908
_cell_length_b   5.93449908
_cell_length_c   10.28945413
_cell_angle_alpha   73.23914136
_cell_angle_beta   90.00000000
_cell_angle_gamma   120.00000000
_symmetry_Int_Tables_number   1
_chemical_formula_structural   Ba3SrYb2(ReO6)2
_chemical_formula_sum   'Ba3 Sr1 Yb2 Re2 O12'
_cell_volume   295.91755466
_cell_formula_units_Z   1
loop_
 _symmetry_equiv_pos_site_id
 _symmetry_equiv_pos_as_xyz
  1  'x, y, z'
loop_
 _atom_site_type_symbol
 _atom_site_label
 _atom_site_symmetry_multiplicity
 _atom_site_fract_x
 _atom_site_fract_y
 _atom_site_fract_z
 _atom_site_occupancy
  Ba  Ba0  1  0.12495330  0.24990660  0.62514011  1
  Ba  Ba1  1  0.87526631  0.75053263  0.37420106  1
  Ba  Ba2  1  0.37477607  0.74955215  0.87567178  1
  Sr  Sr3  1  0.62499923  0.24999845  0.12500232  1
  Yb  Yb4  1  0.25015097  0.50030193  0.24954710  1
  Yb  Yb5  1  0.74984426  0.49968851  0.75046723  1
  Re  Re6  1  0.99979709  0.99959417  0.00060874  1
  Re  Re7  1  0.50020222  0.00040445  0.49939333  1
  O  O8  1  0.11545756  0.23091511  0.11591055  1
  O  O9  1  0.61539678  0.23079356  0.61507411  1
  O  O10  1  0.38571240  0.23125473  0.38303287  1
  O  O11  1  0.88339338  0.23063471  0.88597191  1
  O  O12  1  0.65317433  0.76863189  0.11591055  1
  O  O13  1  0.15413232  0.76952910  0.61507411  1
  O  O14  1  0.38571240  0.77142480  0.38303287  1
  O  O15  1  0.88339338  0.76678676  0.88597191  1
  O  O16  1  0.11545756  0.76863189  0.11591055  1
  O  O17  1  0.61539678  0.76952910  0.61507411  1
  O  O18  1  0.84554234  0.23125473  0.38303287  1
  O  O19  1  0.34724133  0.23063471  0.88597191  1
