# generated using pymatgen
data_Ba3TiAl10O20
_symmetry_space_group_name_H-M   'P 1'
_cell_length_a   5.02803648
_cell_length_b   9.77028356
_cell_length_c   9.77028356
_cell_angle_alpha   72.07307335
_cell_angle_beta   75.60947185
_cell_angle_gamma   75.60947185
_symmetry_Int_Tables_number   1
_chemical_formula_structural   Ba3TiAl10O20
_chemical_formula_sum   'Ba3 Ti1 Al10 O20'
_cell_volume   434.56292771
_cell_formula_units_Z   1
loop_
 _symmetry_equiv_pos_site_id
 _symmetry_equiv_pos_as_xyz
  1  'x, y, z'
loop_
 _atom_site_type_symbol
 _atom_site_label
 _atom_site_symmetry_multiplicity
 _atom_site_fract_x
 _atom_site_fract_y
 _atom_site_fract_z
 _atom_site_occupancy
  Ba  Ba0  1  0.00000000  -0.00000000  0.00000000  1
  Ba  Ba1  1  0.25015709  0.72173665  0.72173665  1
  Ba  Ba2  1  0.74984291  0.27826335  0.27826335  1
  Ti  Ti3  1  0.00000000  0.50000000  0.50000000  1
  Al  Al4  1  0.16252104  0.15032973  0.57642272  1
  Al  Al5  1  0.83747896  0.42357728  0.84967027  1
  Al  Al6  1  0.83747896  0.84967027  0.42357728  1
  Al  Al7  1  0.16252104  0.57642272  0.15032973  1
  Al  Al8  1  0.50000000  0.63615526  0.36384474  1
  Al  Al9  1  0.50000000  0.36384474  0.63615526  1
  Al  Al10  1  0.34068788  0.00725153  0.28669115  1
  Al  Al11  1  0.65931212  0.71330885  0.99274847  1
  Al  Al12  1  0.65931212  0.99274847  0.71330885  1
  Al  Al13  1  0.34068788  0.28669115  0.00725153  1
  O  O14  1  0.11338084  0.44747350  0.69365244  1
  O  O15  1  0.88661916  0.30634756  0.55252650  1
  O  O16  1  0.88661916  0.55252650  0.30634756  1
  O  O17  1  0.11338084  0.69365244  0.44747350  1
  O  O18  1  0.99913792  0.28997479  0.98683520  1
  O  O19  1  0.00086208  0.01316480  0.71002521  1
  O  O20  1  0.00086208  0.71002521  0.01316480  1
  O  O21  1  0.99913792  0.98683520  0.28997479  1
  O  O22  1  0.60718783  0.56263562  0.56263562  1
  O  O23  1  0.39281217  0.43736438  0.43736438  1
  O  O24  1  0.46698037  0.10677481  0.10677481  1
  O  O25  1  0.53301963  0.89322519  0.89322519  1
  O  O26  1  0.30564217  0.11833792  0.40403662  1
  O  O27  1  0.69435783  0.59596338  0.88166208  1
  O  O28  1  0.69435783  0.88166208  0.59596338  1
  O  O29  1  0.30564217  0.40403662  0.11833792  1
  O  O30  1  0.56599478  0.82996706  0.34193538  1
  O  O31  1  0.43400522  0.65806462  0.17003294  1
  O  O32  1  0.43400522  0.17003294  0.65806462  1
  O  O33  1  0.56599478  0.34193538  0.82996706  1
