# generated using pymatgen
data_Ba4La2Cu6O13
_symmetry_space_group_name_H-M   'P 1'
_cell_length_a   5.59156588
_cell_length_b   5.59156588
_cell_length_c   12.69089555
_cell_angle_alpha   77.46972537
_cell_angle_beta   77.46972537
_cell_angle_gamma   90.86945523
_symmetry_Int_Tables_number   1
_chemical_formula_structural   Ba4La2Cu6O13
_chemical_formula_sum   'Ba4 La2 Cu6 O13'
_cell_volume   377.30440257
_cell_formula_units_Z   1
loop_
 _symmetry_equiv_pos_site_id
 _symmetry_equiv_pos_as_xyz
  1  'x, y, z'
loop_
 _atom_site_type_symbol
 _atom_site_label
 _atom_site_symmetry_multiplicity
 _atom_site_fract_x
 _atom_site_fract_y
 _atom_site_fract_z
 _atom_site_occupancy
  Ba  Ba0  1  0.39863792  0.89863792  0.18740931  1
  Ba  Ba1  1  0.91395277  0.41395277  0.18740931  1
  Ba  Ba2  1  0.10136208  0.60136208  0.81259069  1
  Ba  Ba3  1  0.58604723  0.08604723  0.81259069  1
  La  La4  1  0.25000000  0.75000000  0.50000000  1
  La  La5  1  0.75000000  0.25000000  0.50000000  1
  Cu  Cu6  1  0.48949996  0.51050004  -0.00000000  1
  Cu  Cu7  1  0.01050004  0.98949996  0.00000000  1
  Cu  Cu8  1  0.32572362  0.32221256  0.35206382  1
  Cu  Cu9  1  0.82221256  0.82572362  0.35206382  1
  Cu  Cu10  1  0.17427638  0.17778744  0.64793618  1
  Cu  Cu11  1  0.67778744  0.67427638  0.64793618  1
  O  O12  1  0.06564876  0.06564876  0.36870247  1
  O  O13  1  0.56564876  0.56564876  0.36870247  1
  O  O14  1  0.93435124  0.93435124  0.63129753  1
  O  O15  1  0.43435124  0.43435124  0.63129753  1
  O  O16  1  0.56395263  0.06395263  0.37209474  1
  O  O17  1  0.06728019  0.56728019  0.36543962  1
  O  O18  1  0.43271981  0.93271981  0.63456038  1
  O  O19  1  0.93604737  0.43604737  0.62790526  1
  O  O20  1  0.44884044  0.40139450  0.14976506  1
  O  O21  1  0.90139450  0.94884044  0.14976506  1
  O  O22  1  0.05115956  0.09860550  0.85023494  1
  O  O23  1  0.59860550  0.55115956  0.85023494  1
  O  O24  1  0.25000000  0.75000000  0.00000000  1
