# generated using pymatgen
data_Ba2(CrS2)5
_symmetry_space_group_name_H-M   'P 1'
_cell_length_a   5.92080305
_cell_length_b   6.83474980
_cell_length_c   17.45999644
_cell_angle_alpha   95.39506107
_cell_angle_beta   91.88782670
_cell_angle_gamma   90.05465556
_symmetry_Int_Tables_number   1
_chemical_formula_structural   Ba2(CrS2)5
_chemical_formula_sum   'Ba4 Cr10 S20'
_cell_volume   703.03968018
_cell_formula_units_Z   2
loop_
 _symmetry_equiv_pos_site_id
 _symmetry_equiv_pos_as_xyz
  1  'x, y, z'
loop_
 _atom_site_type_symbol
 _atom_site_label
 _atom_site_symmetry_multiplicity
 _atom_site_fract_x
 _atom_site_fract_y
 _atom_site_fract_z
 _atom_site_occupancy
  Ba  Ba0  1  0.36540517  0.31637350  0.76803204  1
  Ba  Ba1  1  0.63459483  0.68362650  0.23196796  1
  Ba  Ba2  1  0.74726716  0.26188071  0.54717501  1
  Ba  Ba3  1  0.25273284  0.73811929  0.45282499  1
  Cr  Cr4  1  0.72836488  0.83058513  0.82950937  1
  Cr  Cr5  1  0.27163512  0.16941487  0.17049063  1
  Cr  Cr6  1  0.76691937  0.37559958  0.00218419  1
  Cr  Cr7  1  0.23308063  0.62440042  0.99781581  1
  Cr  Cr8  1  0.09429253  0.79146087  0.66917061  1
  Cr  Cr9  1  0.90570747  0.20853913  0.33082939  1
  Cr  Cr10  1  0.58742175  0.79039202  0.66500438  1
  Cr  Cr11  1  0.41257825  0.20960798  0.33499562  1
  Cr  Cr12  1  0.24280599  0.12239777  0.98966512  1
  Cr  Cr13  1  0.75719401  0.87760223  0.01033488  1
  S  S14  1  0.33457791  0.53985387  0.61431905  1
  S  S15  1  0.66542209  0.46014613  0.38568095  1
  S  S16  1  0.35824660  0.81820091  0.77880612  1
  S  S17  1  0.64175340  0.18179909  0.22119388  1
  S  S18  1  0.07217876  0.35859423  0.91944161  1
  S  S19  1  0.92782124  0.64140577  0.08055839  1
  S  S20  1  0.33521327  0.01640316  0.61430558  1
  S  S21  1  0.66478673  0.98359684  0.38569442  1
  S  S22  1  0.05695828  0.85339617  0.91927866  1
  S  S23  1  0.94304172  0.14660383  0.08072134  1
  S  S24  1  0.58079530  0.61099175  0.92744422  1
  S  S25  1  0.41920470  0.38900825  0.07255578  1
  S  S26  1  0.58941580  0.10282665  0.92338032  1
  S  S27  1  0.41058420  0.89717335  0.07661968  1
  S  S28  1  0.84485379  0.57848615  0.73606738  1
  S  S29  1  0.15514621  0.42151385  0.26393262  1
  S  S30  1  0.84621984  0.03643121  0.73563109  1
  S  S31  1  0.15378016  0.96356879  0.26436891  1
  S  S32  1  0.83155650  0.76566302  0.56307312  1
  S  S33  1  0.16844350  0.23433698  0.43692688  1
