# generated using pymatgen
data_Ba2Ti3Nb4O18
_symmetry_space_group_name_H-M   'P 1'
_cell_length_a   7.51322709
_cell_length_b   10.07495909
_cell_length_c   10.17062586
_cell_angle_alpha   90.00000000
_cell_angle_beta   111.47494392
_cell_angle_gamma   90.00000000
_symmetry_Int_Tables_number   1
_chemical_formula_structural   Ba2Ti3Nb4O18
_chemical_formula_sum   'Ba4 Ti6 Nb8 O36'
_cell_volume   716.42404289
_cell_formula_units_Z   2
loop_
 _symmetry_equiv_pos_site_id
 _symmetry_equiv_pos_as_xyz
  1  'x, y, z'
loop_
 _atom_site_type_symbol
 _atom_site_label
 _atom_site_symmetry_multiplicity
 _atom_site_fract_x
 _atom_site_fract_y
 _atom_site_fract_z
 _atom_site_occupancy
  Ba  Ba0  1  0.43355661  0.58715110  0.79531555  1
  Ba  Ba1  1  0.06644339  0.08715110  0.20468445  1
  Ba  Ba2  1  0.56644339  0.41284890  0.20468445  1
  Ba  Ba3  1  0.93355661  0.91284890  0.79531555  1
  Ti  Ti4  1  0.50000000  -0.00000000  -0.00000000  1
  Ti  Ti5  1  -0.00000000  0.50000000  -0.00000000  1
  Ti  Ti6  1  0.90793704  0.51505661  0.62424281  1
  Ti  Ti7  1  0.59206296  0.01505661  0.37575719  1
  Ti  Ti8  1  0.09206296  0.48494339  0.37575719  1
  Ti  Ti9  1  0.40793704  0.98494339  0.62424281  1
  Nb  Nb10  1  0.15166228  0.25419854  0.89708619  1
  Nb  Nb11  1  0.34833772  0.75419854  0.10291381  1
  Nb  Nb12  1  0.84833772  0.74580146  0.10291381  1
  Nb  Nb13  1  0.65166228  0.24580146  0.89708619  1
  Nb  Nb14  1  0.98694261  0.77212686  0.48516174  1
  Nb  Nb15  1  0.51305739  0.27212686  0.51483826  1
  Nb  Nb16  1  0.01305739  0.22787314  0.51483826  1
  Nb  Nb17  1  0.48694261  0.72787314  0.48516174  1
  O  O18  1  0.45787818  0.67510014  0.29770373  1
  O  O19  1  0.04212182  0.17510014  0.70229627  1
  O  O20  1  0.54212182  0.32489986  0.70229627  1
  O  O21  1  0.95787818  0.82489986  0.29770373  1
  O  O22  1  0.02216490  0.56709346  0.19184259  1
  O  O23  1  0.47783510  0.06709346  0.80815741  1
  O  O24  1  0.97783510  0.43290654  0.80815741  1
  O  O25  1  0.52216490  0.93290654  0.19184259  1
  O  O26  1  0.03894750  0.67099680  0.67873806  1
  O  O27  1  0.46105250  0.17099680  0.32126194  1
  O  O28  1  0.96105250  0.32900320  0.32126194  1
  O  O29  1  0.53894750  0.82900320  0.67873806  1
  O  O30  1  0.85693639  0.66128128  0.93070510  1
  O  O31  1  0.64306361  0.16128128  0.06929490  1
  O  O32  1  0.14306361  0.33871872  0.06929490  1
  O  O33  1  0.35693639  0.83871872  0.93070510  1
  O  O34  1  0.88732172  0.58346602  0.41847768  1
  O  O35  1  0.61267828  0.08346602  0.58152232  1
  O  O36  1  0.11267828  0.41653398  0.58152232  1
  O  O37  1  0.38732172  0.91653398  0.41847768  1
  O  O38  1  0.24428583  0.58935135  0.01703747  1
  O  O39  1  0.25571417  0.08935135  0.98296253  1
  O  O40  1  0.75571417  0.41064865  0.98296253  1
  O  O41  1  0.74428583  0.91064865  0.01703747  1
  O  O42  1  0.24972579  0.65979502  0.49146159  1
  O  O43  1  0.25027421  0.15979502  0.50853841  1
  O  O44  1  0.75027421  0.34020498  0.50853841  1
  O  O45  1  0.74972579  0.84020498  0.49146159  1
  O  O46  1  0.62371338  0.66467372  0.09857495  1
  O  O47  1  0.87628662  0.16467372  0.90142505  1
  O  O48  1  0.37628662  0.33532628  0.90142505  1
  O  O49  1  0.12371338  0.83532628  0.09857495  1
  O  O50  1  0.66024098  0.59298063  0.59407089  1
  O  O51  1  0.83975902  0.09298063  0.40592911  1
  O  O52  1  0.33975902  0.40701937  0.40592911  1
  O  O53  1  0.16024098  0.90701937  0.59407089  1
