# generated using pymatgen
data_Cs2U4Nb4O23
_symmetry_space_group_name_H-M   'P 1'
_cell_length_a   7.75599276
_cell_length_b   8.90166928
_cell_length_c   8.90166928
_cell_angle_alpha   105.14589852
_cell_angle_beta   90.05016555
_cell_angle_gamma   90.05016555
_symmetry_Int_Tables_number   1
_chemical_formula_structural   Cs2U4Nb4O23
_chemical_formula_sum   'Cs2 U4 Nb4 O23'
_cell_volume   593.23368051
_cell_formula_units_Z   1
loop_
 _symmetry_equiv_pos_site_id
 _symmetry_equiv_pos_as_xyz
  1  'x, y, z'
loop_
 _atom_site_type_symbol
 _atom_site_label
 _atom_site_symmetry_multiplicity
 _atom_site_fract_x
 _atom_site_fract_y
 _atom_site_fract_z
 _atom_site_occupancy
  Cs  Cs0  1  0.50022831  0.00178313  0.00178313  1
  Cs  Cs1  1  0.00016289  0.00113301  0.00113301  1
  U  U2  1  0.23959224  0.02928579  0.50817157  1
  U  U3  1  0.76336261  0.49342817  0.95972121  1
  U  U4  1  0.76336261  0.95972121  0.49342817  1
  U  U5  1  0.23959224  0.50817157  0.02928579  1
  Nb  Nb6  1  0.50230028  0.35936435  0.62692737  1
  Nb  Nb7  1  0.00171385  0.38689390  0.60458972  1
  Nb  Nb8  1  0.50230028  0.62692737  0.35936435  1
  Nb  Nb9  1  0.00171385  0.60458972  0.38689390  1
  O  O10  1  0.53565097  0.14304421  0.55849072  1
  O  O11  1  0.46418732  0.45480611  0.84040252  1
  O  O12  1  0.97062592  0.15014846  0.54897091  1
  O  O13  1  0.03299981  0.44807290  0.84220817  1
  O  O14  1  0.46418732  0.84040252  0.45480611  1
  O  O15  1  0.53565097  0.55849072  0.14304421  1
  O  O16  1  0.03299981  0.84220817  0.44807290  1
  O  O17  1  0.97062592  0.54897091  0.15014846  1
  O  O18  1  0.24846995  0.04062189  0.30611432  1
  O  O19  1  0.75966665  0.69556421  0.94925324  1
  O  O20  1  0.75966665  0.94925324  0.69556421  1
  O  O21  1  0.24846995  0.30611432  0.04062189  1
  O  O22  1  0.24413778  0.02027262  0.71156698  1
  O  O23  1  0.75119696  0.29140030  0.97277668  1
  O  O24  1  0.75119696  0.97277668  0.29140030  1
  O  O25  1  0.24413778  0.71156698  0.02027262  1
  O  O26  1  0.25061338  0.31428853  0.58598596  1
  O  O27  1  0.75371740  0.40726137  0.67835608  1
  O  O28  1  0.75371740  0.67835608  0.40726137  1
  O  O29  1  0.25061338  0.58598596  0.31428853  1
  O  O30  1  0.51234617  0.46864158  0.46864158  1
  O  O31  1  0.06802318  0.60123315  0.60123315  1
  O  O32  1  0.93676920  0.39022089  0.39022089  1
