# generated using pymatgen
data_Al4GaSb5
_symmetry_space_group_name_H-M   'P 1'
_cell_length_a   4.40984417
_cell_length_b   6.22491429
_cell_length_c   11.65411458
_cell_angle_alpha   74.51004804
_cell_angle_beta   79.09408136
_cell_angle_gamma   90.00000000
_symmetry_Int_Tables_number   1
_chemical_formula_structural   Al4GaSb5
_chemical_formula_sum   'Al4 Ga1 Sb5'
_cell_volume   302.29577898
_cell_formula_units_Z   1
loop_
 _symmetry_equiv_pos_site_id
 _symmetry_equiv_pos_as_xyz
  1  'x, y, z'
loop_
 _atom_site_type_symbol
 _atom_site_label
 _atom_site_symmetry_multiplicity
 _atom_site_fract_x
 _atom_site_fract_y
 _atom_site_fract_z
 _atom_site_occupancy
  Al  Al0  1  0.40001866  0.39998961  0.19996267  1
  Al  Al1  1  0.80000681  0.79998047  0.39998637  1
  Al  Al2  1  0.19999319  0.19996685  0.60001363  1
  Al  Al3  1  0.59998134  0.59995228  0.80003733  1
  Ga  Ga4  1  0.00000000  0.00001631  0.00000000  1
  Sb  Sb5  1  0.50000000  0.75001596  0.00000000  1
  Sb  Sb6  1  0.90002702  0.15003799  0.19994595  1
  Sb  Sb7  1  0.29998253  0.55001082  0.40003494  1
  Sb  Sb8  1  0.70001747  0.95004576  0.59996506  1
  Sb  Sb9  1  0.09997298  0.34998395  0.80005405  1
