# generated using pymatgen
data_Ba2Sr2Mn3O10
_symmetry_space_group_name_H-M   'P 1'
_cell_length_a   5.64533693
_cell_length_b   7.10427249
_cell_length_c   12.91814760
_cell_angle_alpha   90.00000000
_cell_angle_beta   90.00000000
_cell_angle_gamma   66.58925995
_symmetry_Int_Tables_number   1
_chemical_formula_structural   Ba2Sr2Mn3O10
_chemical_formula_sum   'Ba4 Sr4 Mn6 O20'
_cell_volume   475.44585439
_cell_formula_units_Z   2
loop_
 _symmetry_equiv_pos_site_id
 _symmetry_equiv_pos_as_xyz
  1  'x, y, z'
loop_
 _atom_site_type_symbol
 _atom_site_label
 _atom_site_symmetry_multiplicity
 _atom_site_fract_x
 _atom_site_fract_y
 _atom_site_fract_z
 _atom_site_occupancy
  Ba  Ba0  1  0.76124099  0.47751801  0.88800148  1
  Ba  Ba1  1  0.23875901  0.52248199  0.11199852  1
  Ba  Ba2  1  0.73875901  0.52248199  0.38800148  1
  Ba  Ba3  1  0.26124099  0.47751801  0.61199852  1
  Sr  Sr4  1  0.97037863  0.05924273  0.64409008  1
  Sr  Sr5  1  0.02962137  0.94075727  0.35590992  1
  Sr  Sr6  1  0.52962137  0.94075727  0.14409008  1
  Sr  Sr7  1  0.47037863  0.05924273  0.85590992  1
  Mn  Mn8  1  0.50000000  -0.00000000  0.50000000  1
  Mn  Mn9  1  0.00000000  0.00000000  0.00000000  1
  Mn  Mn10  1  0.62791693  0.74416613  0.65238004  1
  Mn  Mn11  1  0.37208307  0.25583387  0.34761996  1
  Mn  Mn12  1  0.87208307  0.25583387  0.15238004  1
  Mn  Mn13  1  0.12791693  0.74416613  0.84761996  1
  O  O14  1  0.37522093  0.79427753  0.53838137  1
  O  O15  1  0.16949846  0.20572247  0.46161863  1
  O  O16  1  0.66949846  0.20572247  0.03838137  1
  O  O17  1  0.87522093  0.79427753  0.96161863  1
  O  O18  1  0.62477907  0.20572247  0.46161863  1
  O  O19  1  0.83050154  0.79427753  0.53838137  1
  O  O20  1  0.33050154  0.79427753  0.96161863  1
  O  O21  1  0.12477907  0.20572247  0.03838137  1
  O  O22  1  0.77017370  0.45965260  0.64821388  1
  O  O23  1  0.22982630  0.54034740  0.35178612  1
  O  O24  1  0.72982630  0.54034740  0.14821388  1
  O  O25  1  0.27017370  0.45965260  0.85178612  1
  O  O26  1  0.36293002  0.77413996  0.75000000  1
  O  O27  1  0.13706998  0.22586004  0.25000000  1
  O  O28  1  0.63706998  0.22586004  0.25000000  1
  O  O29  1  0.86293002  0.77413996  0.75000000  1
  O  O30  1  0.53329373  0.93341254  0.35311416  1
  O  O31  1  0.46670627  0.06658746  0.64688584  1
  O  O32  1  0.96670627  0.06658746  0.85311416  1
  O  O33  1  0.03329373  0.93341254  0.14688584  1
