# generated using pymatgen
data_Al2GaN3
_symmetry_space_group_name_H-M   'P 1'
_cell_length_a   3.15476499
_cell_length_b   5.99437760
_cell_length_c   7.47097116
_cell_angle_alpha   75.70588574
_cell_angle_beta   90.00247356
_cell_angle_gamma   105.25568189
_symmetry_Int_Tables_number   1
_chemical_formula_structural   Al2GaN3
_chemical_formula_sum   'Al4 Ga2 N6'
_cell_volume   131.76512929
_cell_formula_units_Z   2
loop_
 _symmetry_equiv_pos_site_id
 _symmetry_equiv_pos_as_xyz
  1  'x, y, z'
loop_
 _atom_site_type_symbol
 _atom_site_label
 _atom_site_symmetry_multiplicity
 _atom_site_fract_x
 _atom_site_fract_y
 _atom_site_fract_z
 _atom_site_occupancy
  Al  Al0  1  0.94374247  0.88759504  0.61091969  1
  Al  Al1  1  0.88888003  0.77772770  0.22316621  1
  Al  Al2  1  0.22250908  0.44495156  0.55524422  1
  Al  Al3  1  0.55452840  0.10899509  0.88733602  1
  Ga  Ga4  1  0.27769046  0.55535356  0.94208009  1
  Ga  Ga5  1  0.60961205  0.21923184  0.27825809  1
  N  N6  1  0.14769265  0.29538596  0.81487370  1
  N  N7  1  0.48126518  0.96253652  0.14727645  1
  N  N8  1  0.81784308  0.63570154  0.48467787  1
  N  N9  1  0.76479325  0.52958303  0.09859210  1
  N  N10  1  0.09466423  0.18935226  0.43600443  1
  N  N11  1  0.43197913  0.86398589  0.75677112  1
