# generated using pymatgen
data_LiCuPO4
_symmetry_space_group_name_H-M   'P 1'
_cell_length_a   9.82199238
_cell_length_b   9.82199311
_cell_length_c   21.61957605
_cell_angle_alpha   90.00000000
_cell_angle_beta   90.00000000
_cell_angle_gamma   119.99999942
_symmetry_Int_Tables_number   1
_chemical_formula_structural   LiCuPO4
_chemical_formula_sum   'Li24 Cu24 P24 O96'
_cell_volume   1806.24652966
_cell_formula_units_Z   24
loop_
 _symmetry_equiv_pos_site_id
 _symmetry_equiv_pos_as_xyz
  1  'x, y, z'
loop_
 _atom_site_type_symbol
 _atom_site_label
 _atom_site_symmetry_multiplicity
 _atom_site_fract_x
 _atom_site_fract_y
 _atom_site_fract_z
 _atom_site_occupancy
  Li  Li0  1  0.14582121  0.82855989  0.67381124  1
  Li  Li1  1  0.18912916  0.88143510  0.00939174  1
  Li  Li2  1  0.18013813  0.79041247  0.37438333  1
  Li  Li3  1  0.11856490  0.30769406  0.67605874  1
  Li  Li4  1  0.33137932  0.68673988  0.82308216  1
  Li  Li5  1  0.31326012  0.64463943  0.48974916  1
  Li  Li6  1  0.35536057  0.66862068  0.15641516  1
  Li  Li7  1  0.17144011  0.31726032  0.34047824  1
  Li  Li8  1  0.20958753  0.38972666  0.04105033  1
  Li  Li9  1  0.61027334  0.81986187  0.70771633  1
  Li  Li10  1  0.30769406  0.18912916  0.84272474  1
  Li  Li11  1  0.31726032  0.14582121  0.50714424  1
  Li  Li12  1  0.68273968  0.85417879  0.00714424  1
  Li  Li13  1  0.69230594  0.81087084  0.34272474  1
  Li  Li14  1  0.38972666  0.18013813  0.20771733  1
  Li  Li15  1  0.79041247  0.61027334  0.54105033  1
  Li  Li16  1  0.82855989  0.68273968  0.84047824  1
  Li  Li17  1  0.64463943  0.33137932  0.65641516  1
  Li  Li18  1  0.68673988  0.35536057  0.98974916  1
  Li  Li19  1  0.66862068  0.31326012  0.32308216  1
  Li  Li20  1  0.88143510  0.69230594  0.17605874  1
  Li  Li21  1  0.81986187  0.20958753  0.87438333  1
  Li  Li22  1  0.81087084  0.11856490  0.50939174  1
  Li  Li23  1  0.85417879  0.17144011  0.17381124  1
  Cu  Cu24  1  0.99796660  0.95653831  0.42767063  1
  Cu  Cu25  1  0.04762638  0.55810596  0.90926698  1
  Cu  Cu26  1  0.04418209  0.51579018  0.24523718  1
  Cu  Cu27  1  0.97916294  0.45855202  0.58374642  1
  Cu  Cu28  1  0.47938908  0.02083706  0.91708042  1
  Cu  Cu29  1  0.47160909  0.95581791  0.57857018  1
  Cu  Cu30  1  0.04346169  0.04142829  0.09433663  1
  Cu  Cu31  1  0.51047959  0.95237362  0.24259998  1
  Cu  Cu32  1  0.04142829  0.99796660  0.26100363  1
  Cu  Cu33  1  0.44189404  0.48952041  0.57593298  1
  Cu  Cu34  1  0.48420982  0.52839091  0.91190318  1
  Cu  Cu35  1  0.54144798  0.52061092  0.25041342  1
  Cu  Cu36  1  0.45855202  0.47938908  0.75041342  1
  Cu  Cu37  1  0.51579018  0.47160909  0.41190318  1
  Cu  Cu38  1  0.55810596  0.51047959  0.07593298  1
  Cu  Cu39  1  0.95857171  0.00203340  0.76100363  1
  Cu  Cu40  1  0.48952041  0.04762638  0.74259998  1
  Cu  Cu41  1  0.95653831  0.95857171  0.59433663  1
  Cu  Cu42  1  0.52839091  0.04418209  0.07857018  1
  Cu  Cu43  1  0.52061092  0.97916294  0.41708042  1
  Cu  Cu44  1  0.02083706  0.54144798  0.08374642  1
  Cu  Cu45  1  0.95581791  0.48420982  0.74523718  1
  Cu  Cu46  1  0.95237362  0.44189404  0.40926698  1
  Cu  Cu47  1  0.00203340  0.04346169  0.92767063  1
  P  P48  1  0.17363285  0.86345863  0.81427377  1
  P  P49  1  0.12585253  0.76741864  0.50651217  1
  P  P50  1  0.21726308  0.87538784  0.15239031  1
  P  P51  1  0.12461216  0.34187524  0.81905731  1
  P  P52  1  0.33027415  0.69321280  0.00938104  1
  P  P53  1  0.13654137  0.31017421  0.48094077  1
  P  P54  1  0.30678720  0.63706135  0.67604804  1
  P  P55  1  0.36293865  0.66972585  0.34271404  1
  P  P56  1  0.23258136  0.35843488  0.17317917  1
  P  P57  1  0.64156512  0.87414747  0.83984517  1
  P  P58  1  0.34187524  0.21726308  0.98572331  1
  P  P59  1  0.31017421  0.17363285  0.64760677  1
  P  P60  1  0.68982579  0.82636715  0.14760777  1
  P  P61  1  0.65812476  0.78273692  0.48572331  1
  P  P62  1  0.35843488  0.12585253  0.33984517  1
  P  P63  1  0.76741864  0.64156512  0.67317917  1
  P  P64  1  0.63706135  0.33027415  0.84271404  1
  P  P65  1  0.69321280  0.36293865  0.17604804  1
  P  P66  1  0.86345863  0.68982579  0.98094077  1
  P  P67  1  0.66972585  0.30678720  0.50938104  1
  P  P68  1  0.87538784  0.65812476  0.31905731  1
  P  P69  1  0.78273692  0.12461216  0.65239031  1
  P  P70  1  0.87414747  0.23258136  0.00651217  1
  P  P71  1  0.82636715  0.13654137  0.31427377  1
  O  O72  1  0.02609771  0.70475664  0.79952464  1
  O  O73  1  0.11945019  0.98345212  0.83482715  1
  O  O74  1  0.00911082  0.66533153  0.55868979  1
  O  O75  1  0.11946236  0.92166210  0.49530097  1
  O  O76  1  0.17608499  0.98669922  0.18890933  1
  O  O77  1  0.06306816  0.72521611  0.13276105  1
  O  O78  1  0.08188168  0.66734464  0.44731556  1
  O  O79  1  0.26708178  0.92391463  0.75212383  1
  O  O80  1  0.30295320  0.95946654  0.09139749  1
  O  O81  1  0.14061371  0.62053380  0.68067025  1
  O  O82  1  0.20350807  0.70622055  0.97183363  1
  O  O83  1  0.28570497  0.84949644  0.86070562  1
  O  O84  1  0.19982685  0.63186512  0.31674184  1
  O  O85  1  0.29522387  0.81423623  0.52588457  1
  O  O86  1  0.04053346  0.34348666  0.75806349  1
  O  O87  1  0.32491025  0.83336600  0.19055427  1
  O  O88  1  0.16663400  0.49154525  0.85722127  1
  O  O89  1  0.01330078  0.18938577  0.85557533  1
  O  O90  1  0.07608537  0.34316715  0.41878983  1
  O  O91  1  0.01654788  0.13599906  0.50149415  1
  O  O92  1  0.25827696  0.63253063  0.07485605  1
  O  O93  1  0.07833790  0.19780026  0.16196797  1
  O  O94  1  0.15050356  0.43620853  0.52737262  1
  O  O95  1  0.18576377  0.48098664  0.19255157  1
  O  O96  1  0.37425367  0.74172304  0.40818905  1
  O  O97  1  0.29377945  0.49728752  0.63850063  1
  O  O98  1  0.36746937  0.62574633  0.74152205  1
  O  O99  1  0.36813488  0.56796073  0.98340784  1
  O  O100  1  0.43203927  0.80017315  0.65007484  1
  O  O101  1  0.47992009  0.85938629  0.01400325  1
  O  O102  1  0.37946620  0.52007991  0.34733725  1
  O  O103  1  0.13599906  0.11945019  0.66816015  1
  O  O104  1  0.18938577  0.17608499  0.02224233  1
  O  O105  1  0.27478389  0.33785206  0.79942705  1
  O  O106  1  0.33265536  0.41453704  0.11398156  1
  O  O107  1  0.50271248  0.79649193  0.30516763  1
  O  O108  1  0.19780026  0.11946236  0.32863397  1
  O  O109  1  0.29524336  0.32134107  0.46619164  1
  O  O110  1  0.33466847  0.34377929  0.22535679  1
  O  O111  1  0.51901336  0.70477613  0.85921757  1
  O  O112  1  0.58546296  0.91811832  0.78064856  1
  O  O113  1  0.56379147  0.71429503  0.19403862  1
  O  O114  1  0.34348666  0.30295320  0.92473049  1
  O  O115  1  0.65622071  0.99088918  0.89202379  1
  O  O116  1  0.50845475  0.67508975  0.52388727  1
  O  O117  1  0.34316715  0.26708178  0.58545683  1
  O  O118  1  0.66214794  0.93693184  0.46609405  1
  O  O119  1  0.67865893  0.97390229  0.13285764  1
  O  O120  1  0.32134107  0.02609771  0.63285764  1
  O  O121  1  0.33785206  0.06306816  0.96609405  1
  O  O122  1  0.65683285  0.73291822  0.08545683  1
  O  O123  1  0.49154525  0.32491025  0.02388727  1
  O  O124  1  0.34377929  0.00911082  0.39202379  1
  O  O125  1  0.65651334  0.69704680  0.42473049  1
  O  O126  1  0.43620853  0.28570497  0.69403862  1
  O  O127  1  0.41453704  0.08188168  0.28064856  1
  O  O128  1  0.48098664  0.29522387  0.35921757  1
  O  O129  1  0.66533153  0.65622071  0.72535679  1
  O  O130  1  0.70475664  0.67865893  0.96619164  1
  O  O131  1  0.80219974  0.88053764  0.82863397  1
  O  O132  1  0.49728752  0.20350807  0.80516763  1
  O  O133  1  0.66734464  0.58546296  0.61398156  1
  O  O134  1  0.72521611  0.66214794  0.29942705  1
  O  O135  1  0.81061423  0.82391501  0.52224233  1
  O  O136  1  0.86400094  0.88054981  0.16816015  1
  O  O137  1  0.62053380  0.47992009  0.84733725  1
  O  O138  1  0.52007991  0.14061371  0.51400325  1
  O  O139  1  0.56796073  0.19982685  0.15007484  1
  O  O140  1  0.63186512  0.43203927  0.48340784  1
  O  O141  1  0.63253063  0.37425367  0.24152205  1
  O  O142  1  0.70622055  0.50271248  0.13850063  1
  O  O143  1  0.62574633  0.25827696  0.90818905  1
  O  O144  1  0.81423623  0.51901336  0.69255157  1
  O  O145  1  0.84949644  0.56379147  0.02737262  1
  O  O146  1  0.92166210  0.80219974  0.66196797  1
  O  O147  1  0.74172304  0.36746937  0.57485605  1
  O  O148  1  0.98345212  0.86400094  0.00149415  1
  O  O149  1  0.92391463  0.65683285  0.91878983  1
  O  O150  1  0.98669922  0.81061423  0.35557533  1
  O  O151  1  0.83336600  0.50845475  0.35722127  1
  O  O152  1  0.67508975  0.16663400  0.69055427  1
  O  O153  1  0.95946654  0.65651334  0.25806349  1
  O  O154  1  0.70477613  0.18576377  0.02588457  1
  O  O155  1  0.80017315  0.36813488  0.81674184  1
  O  O156  1  0.71429503  0.15050356  0.36070562  1
  O  O157  1  0.79649193  0.29377945  0.47183363  1
  O  O158  1  0.85938629  0.37946620  0.18067025  1
  O  O159  1  0.69704680  0.04053346  0.59139749  1
  O  O160  1  0.73291822  0.07608537  0.25212383  1
  O  O161  1  0.91811832  0.33265536  0.94731556  1
  O  O162  1  0.93693184  0.27478389  0.63276105  1
  O  O163  1  0.82391501  0.01330078  0.68890933  1
  O  O164  1  0.88053764  0.07833790  0.99530097  1
  O  O165  1  0.99088918  0.33466847  0.05868979  1
  O  O166  1  0.88054981  0.01654788  0.33482715  1
  O  O167  1  0.97390229  0.29524336  0.29952464  1
