# generated using pymatgen
data_AgSbSe2
_symmetry_space_group_name_H-M   'P 1'
_cell_length_a   4.11081837
_cell_length_b   4.11081837
_cell_length_c   7.03383705
_cell_angle_alpha   106.99074412
_cell_angle_beta   73.00925588
_cell_angle_gamma   119.99999989
_symmetry_Int_Tables_number   1
_chemical_formula_structural   AgSbSe2
_chemical_formula_sum   'Ag1 Sb1 Se2'
_cell_volume   96.90183958
_cell_formula_units_Z   1
loop_
 _symmetry_equiv_pos_site_id
 _symmetry_equiv_pos_as_xyz
  1  'x, y, z'
loop_
 _atom_site_type_symbol
 _atom_site_label
 _atom_site_symmetry_multiplicity
 _atom_site_fract_x
 _atom_site_fract_y
 _atom_site_fract_z
 _atom_site_occupancy
  Ag  Ag0  1  0.00000000  -0.00000000  0.00000000  1
  Sb  Sb1  1  0.50000000  0.50000000  0.50000000  1
  Se  Se2  1  0.25201321  0.74798679  0.24396036  1
  Se  Se3  1  0.74798679  0.25201321  0.75603964  1
