# generated using pymatgen
data_Al2S3
_symmetry_space_group_name_H-M   'P 1'
_cell_length_a   6.54918786
_cell_length_b   6.50540787
_cell_length_c   7.13339941
_cell_angle_alpha   62.87397432
_cell_angle_beta   89.01342704
_cell_angle_gamma   119.78875683
_symmetry_Int_Tables_number   1
_chemical_formula_structural   Al2S3
_chemical_formula_sum   'Al4 S6'
_cell_volume   222.75442807
_cell_formula_units_Z   2
loop_
 _symmetry_equiv_pos_site_id
 _symmetry_equiv_pos_as_xyz
  1  'x, y, z'
loop_
 _atom_site_type_symbol
 _atom_site_label
 _atom_site_symmetry_multiplicity
 _atom_site_fract_x
 _atom_site_fract_y
 _atom_site_fract_z
 _atom_site_occupancy
  Al  Al0  1  0.83516744  0.32021362  0.49722299  1
  Al  Al1  1  0.50358033  0.67804232  0.51164526  1
  Al  Al2  1  0.33525140  0.01778432  0.99727767  1
  Al  Al3  1  0.00353957  0.31384718  0.01167620  1
  S  S4  1  0.96942538  0.59052211  0.11399834  1
  S  S5  1  0.61483596  0.91627692  0.12665780  1
  S  S6  1  0.28520921  0.24393398  0.12543312  1
  S  S7  1  0.46945489  0.26490522  0.61403731  1
  S  S8  1  0.11489376  0.57184415  0.62670290  1
  S  S9  1  0.78530907  0.91596317  0.62534841  1
