# generated using pymatgen
data_Ba8Ca5Mn3Fe8F56
_symmetry_space_group_name_H-M   'P 1'
_cell_length_a   5.46441076
_cell_length_b   7.51940408
_cell_length_c   30.58235379
_cell_angle_alpha   91.19941228
_cell_angle_beta   89.74517680
_cell_angle_gamma   68.73007332
_symmetry_Int_Tables_number   1
_chemical_formula_structural   Ba8Ca5Mn3Fe8F56
_chemical_formula_sum   'Ba8 Ca5 Mn3 Fe8 F56'
_cell_volume   1170.64993196
_cell_formula_units_Z   1
loop_
 _symmetry_equiv_pos_site_id
 _symmetry_equiv_pos_as_xyz
  1  'x, y, z'
loop_
 _atom_site_type_symbol
 _atom_site_label
 _atom_site_symmetry_multiplicity
 _atom_site_fract_x
 _atom_site_fract_y
 _atom_site_fract_z
 _atom_site_occupancy
  Ba  Ba0  1  0.14373472  0.62114625  0.18905186  1
  Ba  Ba1  1  0.14339181  0.62169146  0.68887648  1
  Ba  Ba2  1  0.76458506  0.38015892  0.06190100  1
  Ba  Ba3  1  0.76518300  0.37828449  0.56117077  1
  Ba  Ba4  1  0.85660819  0.37830854  0.31112352  1
  Ba  Ba5  1  0.85626528  0.37885375  0.81094814  1
  Ba  Ba6  1  0.23481700  0.62171551  0.43882923  1
  Ba  Ba7  1  0.23541494  0.61984108  0.93809900  1
  Ca  Ca8  1  0.44893854  0.00111602  0.12593805  1
  Ca  Ca9  1  0.44981055  0.00001007  0.62500842  1
  Ca  Ca10  1  0.55018945  -0.00001007  0.37499158  1
  Ca  Ca11  1  0.55106146  0.99888398  0.87406195  1
  Ca  Ca12  1  0.50000000  0.00000000  0.00000000  1
  Mn  Mn13  1  0.50009210  0.00010159  0.25009926  1
  Mn  Mn14  1  0.49990790  0.99989841  0.74990074  1
  Mn  Mn15  1  0.50000000  0.00000000  0.50000000  1
  Fe  Fe16  1  0.87973116  0.24007364  0.18811549  1
  Fe  Fe17  1  0.87980565  0.23976994  0.68799156  1
  Fe  Fe18  1  0.12295682  0.75674943  0.06257191  1
  Fe  Fe19  1  0.11958146  0.76038616  0.56197359  1
  Fe  Fe20  1  0.12019435  0.76023006  0.31200844  1
  Fe  Fe21  1  0.12026884  0.75992636  0.81188451  1
  Fe  Fe22  1  0.88041854  0.23961384  0.43802641  1
  Fe  Fe23  1  0.87704318  0.24325057  0.93742809  1
  F  F24  1  0.73757869  0.17208439  0.24133330  1
  F  F25  1  0.73746291  0.17209648  0.74125711  1
  F  F26  1  0.92484769  0.82257947  0.00891517  1
  F  F27  1  0.91009198  0.82780910  0.50884791  1
  F  F28  1  0.26253709  0.82790352  0.25874289  1
  F  F29  1  0.26242131  0.82791561  0.75866670  1
  F  F30  1  0.08990802  0.17219090  0.49115209  1
  F  F31  1  0.07515231  0.17742053  0.99108483  1
  F  F32  1  0.59909976  0.24637699  0.14940722  1
  F  F33  1  0.59970621  0.24524163  0.64871828  1
  F  F34  1  0.84316134  0.75440810  0.10135665  1
  F  F35  1  0.84417078  0.75475854  0.60137188  1
  F  F36  1  0.40029379  0.75475837  0.35128172  1
  F  F37  1  0.40090024  0.75362301  0.85059278  1
  F  F38  1  0.15582922  0.24524146  0.39862812  1
  F  F39  1  0.15683866  0.24559190  0.89864335  1
  F  F40  1  0.90425476  0.98299993  0.42211482  1
  F  F41  1  0.89860518  0.98491446  0.92278211  1
  F  F42  1  0.88733434  0.01695067  0.32785222  1
  F  F43  1  0.88799501  0.01714197  0.82777209  1
  F  F44  1  0.10139482  0.01508554  0.07721789  1
  F  F45  1  0.09574524  0.01700007  0.57788518  1
  F  F46  1  0.11200499  0.98285803  0.17222791  1
  F  F47  1  0.11266566  0.98304933  0.67214778  1
  F  F48  1  0.57237992  0.25945607  0.47615320  1
  F  F49  1  0.56788894  0.26795560  0.97553998  1
  F  F50  1  0.83259232  0.74045820  0.27394783  1
  F  F51  1  0.83224884  0.74060354  0.77392413  1
  F  F52  1  0.43211106  0.73204440  0.02446002  1
  F  F53  1  0.42762008  0.74054393  0.52384680  1
  F  F54  1  0.16775116  0.25939646  0.22607587  1
  F  F55  1  0.16740768  0.25954180  0.72605217  1
  F  F56  1  0.69093478  0.50353179  0.20416976  1
  F  F57  1  0.69082342  0.50311584  0.70409998  1
  F  F58  1  0.19360960  0.49410061  0.04633703  1
  F  F59  1  0.19399498  0.49700457  0.54592294  1
  F  F60  1  0.30917658  0.49688416  0.29590002  1
  F  F61  1  0.30906522  0.49646821  0.79583024  1
  F  F62  1  0.80600502  0.50299543  0.45407706  1
  F  F63  1  0.80639040  0.50589939  0.95366297  1
  F  F64  1  0.37579785  0.67609585  0.11119666  1
  F  F65  1  0.37474383  0.67668400  0.61063037  1
  F  F66  1  0.05225658  0.32343787  0.13939127  1
  F  F67  1  0.05223884  0.32335679  0.63925566  1
  F  F68  1  0.62525617  0.32331600  0.38936963  1
  F  F69  1  0.62420215  0.32390415  0.88880334  1
  F  F70  1  0.94776116  0.67664321  0.36074434  1
  F  F71  1  0.94774342  0.67656213  0.86060873  1
  F  F72  1  0.54366855  0.12038123  0.06472353  1
  F  F73  1  0.53825717  0.11284686  0.56120706  1
  F  F74  1  0.65204028  0.88655810  0.18899608  1
  F  F75  1  0.65111058  0.88710473  0.68871915  1
  F  F76  1  0.46174283  0.88715314  0.43879294  1
  F  F77  1  0.45633145  0.87961877  0.93527647  1
  F  F78  1  0.34888942  0.11289527  0.31128085  1
  F  F79  1  0.34795972  0.11344190  0.81100392  1
