# generated using pymatgen
data_Ce2Ga10Pd
_symmetry_space_group_name_H-M   'P 1'
_cell_length_a   4.41982175
_cell_length_b   4.41982175
_cell_length_c   13.45576563
_cell_angle_alpha   99.45281082
_cell_angle_beta   99.45281079
_cell_angle_gamma   90.00000003
_symmetry_Int_Tables_number   1
_chemical_formula_structural   Ce2Ga10Pd
_chemical_formula_sum   'Ce2 Ga10 Pd1'
_cell_volume   255.66765548
_cell_formula_units_Z   1
loop_
 _symmetry_equiv_pos_site_id
 _symmetry_equiv_pos_as_xyz
  1  'x, y, z'
loop_
 _atom_site_type_symbol
 _atom_site_label
 _atom_site_symmetry_multiplicity
 _atom_site_fract_x
 _atom_site_fract_y
 _atom_site_fract_z
 _atom_site_occupancy
  Ga  Ga0  1  0.80238210  0.80238210  0.60476421  1
  Ga  Ga1  1  0.19761790  0.19761790  0.39523579  1
  Ga  Ga2  1  0.89455052  0.89455052  0.78910103  1
  Ga  Ga3  1  0.75000000  0.25000000  0.50000000  1
  Ga  Ga4  1  0.25000000  0.75000000  0.50000000  1
  Ga  Ga5  1  0.44796294  0.94796294  0.89592588  1
  Ga  Ga6  1  0.94796294  0.44796294  0.89592588  1
  Ga  Ga7  1  0.55203706  0.05203706  0.10407412  1
  Ga  Ga8  1  0.05203706  0.55203706  0.10407412  1
  Ga  Ga9  1  0.10544948  0.10544948  0.21089897  1
  Pd  Pd10  1  0.50000000  0.50000000  0.00000000  1
  Ce  Ce11  1  0.64423850  0.64423850  0.28847701  1
  Ce  Ce12  1  0.35576150  0.35576150  0.71152299  1
