# generated using pymatgen
data_Ag6SnSb
_symmetry_space_group_name_H-M   'P 1'
_cell_length_a   4.87038277
_cell_length_b   5.27840829
_cell_length_c   6.14467528
_cell_angle_alpha   90.00000000
_cell_angle_beta   90.00000000
_cell_angle_gamma   90.00000000
_symmetry_Int_Tables_number   1
_chemical_formula_structural   Ag6SnSb
_chemical_formula_sum   'Ag6 Sn1 Sb1'
_cell_volume   157.96650585
_cell_formula_units_Z   1
loop_
 _symmetry_equiv_pos_site_id
 _symmetry_equiv_pos_as_xyz
  1  'x, y, z'
loop_
 _atom_site_type_symbol
 _atom_site_label
 _atom_site_symmetry_multiplicity
 _atom_site_fract_x
 _atom_site_fract_y
 _atom_site_fract_z
 _atom_site_occupancy
  Ag  Ag0  1  0.75000000  0.84069023  0.00174997  1
  Ag  Ag1  1  0.75000000  0.84069023  0.49825003  1
  Ag  Ag2  1  0.25000000  0.15813824  0.00192207  1
  Ag  Ag3  1  0.25000000  0.15813824  0.49807793  1
  Ag  Ag4  1  0.25000000  0.67210213  0.75000000  1
  Ag  Ag5  1  0.75000000  0.33162320  0.25000000  1
  Sn  Sn6  1  0.25000000  0.66568682  0.25000000  1
  Sb  Sb7  1  0.75000000  0.33293091  0.75000000  1
