# generated using pymatgen
data_YP5O14
_symmetry_space_group_name_H-M   'P 1'
_cell_length_a   8.82383848
_cell_length_b   9.17600427
_cell_length_c   12.85150409
_cell_angle_alpha   90.00000000
_cell_angle_beta   90.00000000
_cell_angle_gamma   90.00000000
_symmetry_Int_Tables_number   1
_chemical_formula_structural   YP5O14
_chemical_formula_sum   'Y4 P20 O56'
_cell_volume   1040.55518000
_cell_formula_units_Z   4
loop_
 _symmetry_equiv_pos_site_id
 _symmetry_equiv_pos_as_xyz
  1  'x, y, z'
loop_
 _atom_site_type_symbol
 _atom_site_label
 _atom_site_symmetry_multiplicity
 _atom_site_fract_x
 _atom_site_fract_y
 _atom_site_fract_z
 _atom_site_occupancy
  O  O0  1  0.00984594  0.15259337  0.86515363  1
  O  O1  1  0.50984594  0.34740663  0.63484637  1
  O  O2  1  0.49015406  0.65259337  0.13484637  1
  O  O3  1  0.99015406  0.84740663  0.36515363  1
  O  O4  1  0.99015406  0.84740663  0.13484637  1
  O  O5  1  0.49015406  0.65259337  0.36515363  1
  O  O6  1  0.50984594  0.34740663  0.86515363  1
  O  O7  1  0.00984594  0.15259337  0.63484637  1
  O  O8  1  0.66278892  0.15660848  0.97241336  1
  O  O9  1  0.16278892  0.34339152  0.52758664  1
  O  O10  1  0.83721108  0.65660848  0.02758664  1
  O  O11  1  0.33721108  0.84339152  0.47241336  1
  O  O12  1  0.33721108  0.84339152  0.02758664  1
  O  O13  1  0.83721108  0.65660848  0.47241336  1
  O  O14  1  0.16278892  0.34339152  0.97241336  1
  O  O15  1  0.66278892  0.15660848  0.52758664  1
  O  O16  1  0.84136040  0.83950000  0.88112211  1
  O  O17  1  0.34136040  0.66050000  0.61887789  1
  O  O18  1  0.65863960  0.33950000  0.11887789  1
  O  O19  1  0.38499061  0.18143708  0.00441736  1
  O  O20  1  0.15863960  0.16050000  0.38112211  1
  O  O21  1  0.65863960  0.33950000  0.38112211  1
  O  O22  1  0.34136040  0.66050000  0.88112211  1
  O  O23  1  0.84136040  0.83950000  0.61887789  1
  O  O24  1  0.72961585  0.05810845  0.75000000  1
  O  O25  1  0.22961585  0.44189155  0.75000000  1
  O  O26  1  0.77038415  0.55810845  0.25000000  1
  O  O27  1  0.27038415  0.94189155  0.25000000  1
  O  O28  1  0.47601439  0.06881118  0.65354545  1
  O  O29  1  0.97601439  0.43118882  0.84645455  1
  O  O30  1  0.02398561  0.56881118  0.34645455  1
  O  O31  1  0.52398561  0.93118882  0.15354545  1
  O  O32  1  0.52398561  0.93118882  0.34645455  1
  O  O33  1  0.02398561  0.56881118  0.15354545  1
  O  O34  1  0.97601439  0.43118882  0.65354545  1
  O  O35  1  0.47601439  0.06881118  0.84645455  1
  O  O36  1  0.03705712  0.66122393  0.75000000  1
  O  O37  1  0.53705712  0.83877607  0.75000000  1
  O  O38  1  0.46294288  0.16122393  0.25000000  1
  O  O39  1  0.96294288  0.33877607  0.25000000  1
  O  O40  1  0.17155905  0.89321739  0.62807985  1
  O  O41  1  0.67155905  0.60678261  0.87192015  1
  O  O42  1  0.32844095  0.39321739  0.37192015  1
  O  O43  1  0.82844095  0.10678261  0.12807985  1
  O  O44  1  0.82844095  0.10678261  0.37192015  1
  O  O45  1  0.32844095  0.39321739  0.12807985  1
  O  O46  1  0.67155905  0.60678261  0.62807985  1
  O  O47  1  0.17155905  0.89321739  0.87192015  1
  O  O48  1  0.38499061  0.18143708  0.49558264  1
  O  O49  1  0.88499061  0.31856292  0.00441736  1
  O  O50  1  0.11500939  0.68143708  0.50441736  1
  O  O51  1  0.61500939  0.81856292  0.99558264  1
  O  O52  1  0.61500939  0.81856292  0.50441736  1
  O  O53  1  0.11500939  0.68143708  0.99558264  1
  O  O54  1  0.88499061  0.31856292  0.49558264  1
  O  O55  1  0.15863960  0.16050000  0.11887789  1
  P  P56  1  0.24294691  0.77219219  0.93113245  1
  P  P57  1  0.74294691  0.72780781  0.56886755  1
  P  P58  1  0.25705309  0.27219219  0.06886755  1
  P  P59  1  0.75705309  0.22780781  0.43113245  1
  P  P60  1  0.75705309  0.22780781  0.06886755  1
  P  P61  1  0.25705309  0.27219219  0.43113245  1
  P  P62  1  0.74294691  0.72780781  0.93113245  1
  P  P63  1  0.24294691  0.77219219  0.56886755  1
  P  P64  1  0.42732481  0.00354122  0.25000000  1
  P  P65  1  0.92732481  0.49645878  0.25000000  1
  P  P66  1  0.07267519  0.50354122  0.75000000  1
  P  P67  1  0.57267519  0.99645878  0.75000000  1
  P  P68  1  0.50920504  0.20452843  0.91784144  1
  P  P69  1  0.00920504  0.29547157  0.58215856  1
  P  P70  1  0.99079496  0.70452843  0.08215856  1
  P  P71  1  0.49079496  0.79547157  0.41784144  1
  P  P72  1  0.49079496  0.79547157  0.08215856  1
  P  P73  1  0.99079496  0.70452843  0.41784144  1
  P  P74  1  0.00920504  0.29547157  0.91784144  1
  P  P75  1  0.50920504  0.20452843  0.58215856  1
  Y  Y76  1  0.02052063  0.05690582  0.25000000  1
  Y  Y77  1  0.52052063  0.44309418  0.25000000  1
  Y  Y78  1  0.47947937  0.55690582  0.75000000  1
  Y  Y79  1  0.97947937  0.94309418  0.75000000  1
