# generated using pymatgen
data_K3SiF7
_symmetry_space_group_name_H-M   'P 1'
_cell_length_a   5.62874598
_cell_length_b   7.83247578
_cell_length_c   7.83247578
_cell_angle_alpha   90.00000000
_cell_angle_beta   90.00000000
_cell_angle_gamma   90.00000000
_symmetry_Int_Tables_number   1
_chemical_formula_structural   K3SiF7
_chemical_formula_sum   'K6 Si2 F14'
_cell_volume   345.31048942
_cell_formula_units_Z   2
loop_
 _symmetry_equiv_pos_site_id
 _symmetry_equiv_pos_as_xyz
  1  'x, y, z'
loop_
 _atom_site_type_symbol
 _atom_site_label
 _atom_site_symmetry_multiplicity
 _atom_site_fract_x
 _atom_site_fract_y
 _atom_site_fract_z
 _atom_site_occupancy
  F  F0  1  0.78202842  0.60862871  0.10862871  1
  F  F1  1  0.78202842  0.39137129  0.89137129  1
  F  F2  1  0.78202842  0.10862871  0.39137129  1
  F  F3  1  0.78202842  0.89137129  0.60862871  1
  F  F4  1  0.21797158  0.60862871  0.10862871  1
  F  F5  1  0.21797158  0.89137129  0.60862871  1
  F  F6  1  0.21797158  0.10862871  0.39137129  1
  F  F7  1  0.21797158  0.39137129  0.89137129  1
  F  F8  1  0.50000000  0.00000000  0.00000000  1
  F  F9  1  0.50000000  0.50000000  0.50000000  1
  F  F10  1  0.00000000  0.15487402  0.65487402  1
  F  F11  1  0.00000000  0.34512598  0.15487402  1
  F  F12  1  0.00000000  0.65487402  0.84512598  1
  F  F13  1  0.00000000  0.84512598  0.34512598  1
  Si  Si14  1  0.00000000  0.50000000  0.00000000  1
  Si  Si15  1  0.00000000  0.00000000  0.50000000  1
  K  K16  1  0.50000000  0.80512564  0.30512564  1
  K  K17  1  0.50000000  0.69487436  0.80512564  1
  K  K18  1  0.50000000  0.30512564  0.19487436  1
  K  K19  1  0.50000000  0.19487436  0.69487436  1
  K  K20  1  0.00000000  0.50000000  0.50000000  1
  K  K21  1  0.00000000  0.00000000  0.00000000  1
