# generated using pymatgen
data_LiCu2(CO3)3
_symmetry_space_group_name_H-M   'P 1'
_cell_length_a   7.76399066
_cell_length_b   7.75039395
_cell_length_c   7.59941250
_cell_angle_alpha   111.18824418
_cell_angle_beta   108.97629390
_cell_angle_gamma   108.72761152
_symmetry_Int_Tables_number   1
_chemical_formula_structural   LiCu2(CO3)3
_chemical_formula_sum   'Li2 Cu4 C6 O18'
_cell_volume   349.77817119
_cell_formula_units_Z   2
loop_
 _symmetry_equiv_pos_site_id
 _symmetry_equiv_pos_as_xyz
  1  'x, y, z'
loop_
 _atom_site_type_symbol
 _atom_site_label
 _atom_site_symmetry_multiplicity
 _atom_site_fract_x
 _atom_site_fract_y
 _atom_site_fract_z
 _atom_site_occupancy
  Li  Li0  1  0.25388819  0.52103496  0.71998856  1
  Li  Li1  1  0.83751158  0.84418820  0.83748714  1
  Cu  Cu2  1  0.01751594  0.55970765  0.14747445  1
  Cu  Cu3  1  0.16075871  0.02499580  0.55988377  1
  Cu  Cu4  1  0.47192048  0.43055093  0.43727592  1
  Cu  Cu5  1  0.56571919  0.15774981  0.01948789  1
  C  C6  1  0.15536359  0.27984611  0.97075188  1
  C  C7  1  0.26997012  0.95736142  0.13791344  1
  C  C8  1  0.38643190  0.79807475  0.57208293  1
  C  C9  1  0.57842640  0.40141148  0.80588179  1
  C  C10  1  0.80641682  0.59411208  0.40251947  1
  C  C11  1  0.95479857  0.15939449  0.28620976  1
  O  O12  1  0.06814982  0.38912265  0.92895749  1
  O  O13  1  0.06822578  0.08192370  0.83176509  1
  O  O14  1  0.07903632  0.81000011  0.04151349  1
  O  O15  1  0.09265945  0.35523058  0.39094182  1
  O  O16  1  0.38260562  0.96815378  0.69780029  1
  O  O17  1  0.31415942  0.73532336  0.37134710  1
  O  O18  1  0.38225615  0.33648041  0.74942459  1
  O  O19  1  0.46579744  0.71141085  0.66289252  1
  O  O20  1  0.38160387  0.93618520  0.04545068  1
  O  O21  1  0.33553495  0.37195404  0.14092657  1
  O  O22  1  0.34540209  0.11967921  0.32993801  1
  O  O23  1  0.69661733  0.38078814  0.95618285  1
  O  O24  1  0.66360831  0.49122145  0.72252082  1
  O  O25  1  0.73908713  0.69366723  0.51090676  1
  O  O26  1  0.72598223  0.39191325  0.32170196  1
  O  O27  1  0.96123037  0.70135693  0.38171397  1
  O  O28  1  0.93982655  0.05109833  0.38290429  1
  O  O29  1  0.82001966  0.05972509  0.08176168  1
