# generated using pymatgen
data_K3Nb3Si2O13
_symmetry_space_group_name_H-M   'P 1'
_cell_length_a   9.25780977
_cell_length_b   9.25780976
_cell_length_c   7.92675338
_cell_angle_alpha   90.00000000
_cell_angle_beta   90.00000000
_cell_angle_gamma   119.99999999
_symmetry_Int_Tables_number   1
_chemical_formula_structural   K3Nb3Si2O13
_chemical_formula_sum   'K6 Nb6 Si4 O26'
_cell_volume   588.35911117
_cell_formula_units_Z   2
loop_
 _symmetry_equiv_pos_site_id
 _symmetry_equiv_pos_as_xyz
  1  'x, y, z'
loop_
 _atom_site_type_symbol
 _atom_site_label
 _atom_site_symmetry_multiplicity
 _atom_site_fract_x
 _atom_site_fract_y
 _atom_site_fract_z
 _atom_site_occupancy
  O  O0  1  0.00000000  0.23192685  0.50000000  1
  O  O1  1  0.76807315  0.76807315  0.50000000  1
  O  O2  1  0.23192685  0.00000000  0.50000000  1
  O  O3  1  0.51337695  0.69613026  0.27086913  1
  O  O4  1  0.30386974  0.81724668  0.27086913  1
  O  O5  1  0.18275332  0.48662305  0.27086913  1
  O  O6  1  0.48662305  0.18275332  0.72913087  1
  O  O7  1  0.18275332  0.48662305  0.72913087  1
  O  O8  1  0.51337695  0.69613026  0.72913087  1
  O  O9  1  0.30386974  0.81724668  0.72913087  1
  O  O10  1  0.69613026  0.51337695  0.27086913  1
  O  O11  1  0.81724668  0.30386974  0.27086913  1
  O  O12  1  0.81724668  0.30386974  0.72913087  1
  O  O13  1  0.69613026  0.51337695  0.72913087  1
  O  O14  1  0.48662305  0.18275332  0.27086913  1
  O  O15  1  0.82608290  0.00000000  0.76540772  1
  O  O16  1  0.33333333  0.66666667  0.00000000  1
  O  O17  1  0.66666667  0.33333333  0.00000000  1
  O  O18  1  0.27010129  0.00000000  0.00000000  1
  O  O19  1  0.72989871  0.72989871  0.00000000  1
  O  O20  1  0.00000000  0.27010129  0.00000000  1
  O  O21  1  0.82608290  0.00000000  0.23459228  1
  O  O22  1  0.17391710  0.17391710  0.76540772  1
  O  O23  1  0.00000000  0.82608290  0.76540772  1
  O  O24  1  0.00000000  0.82608290  0.23459228  1
  O  O25  1  0.17391710  0.17391710  0.23459228  1
  Si  Si26  1  0.66666667  0.33333333  0.20890599  1
  Si  Si27  1  0.66666667  0.33333333  0.79109401  1
  Si  Si28  1  0.33333333  0.66666667  0.79109401  1
  Si  Si29  1  0.33333333  0.66666667  0.20890599  1
  K  K30  1  0.40412510  0.40412510  0.50000000  1
  K  K31  1  0.00000000  0.59587490  0.50000000  1
  K  K32  1  0.61074214  0.00000000  0.00000000  1
  K  K33  1  0.38925786  0.38925786  0.00000000  1
  K  K34  1  0.59587490  0.00000000  0.50000000  1
  K  K35  1  0.00000000  0.61074214  0.00000000  1
  Nb  Nb36  1  0.23786201  0.00000000  0.25042332  1
  Nb  Nb37  1  0.00000000  0.23786201  0.74957668  1
  Nb  Nb38  1  0.00000000  0.23786201  0.25042332  1
  Nb  Nb39  1  0.76213799  0.76213799  0.25042332  1
  Nb  Nb40  1  0.23786201  0.00000000  0.74957668  1
  Nb  Nb41  1  0.76213799  0.76213799  0.74957668  1
