# generated using pymatgen
data_Rb4Ta2S11
_symmetry_space_group_name_H-M   'P 1'
_cell_length_a   7.84373554
_cell_length_b   13.86015052
_cell_length_c   18.66958461
_cell_angle_alpha   90.00000000
_cell_angle_beta   90.00000000
_cell_angle_gamma   90.00000000
_symmetry_Int_Tables_number   1
_chemical_formula_structural   Rb4Ta2S11
_chemical_formula_sum   'Rb16 Ta8 S44'
_cell_volume   2029.67052275
_cell_formula_units_Z   4
loop_
 _symmetry_equiv_pos_site_id
 _symmetry_equiv_pos_as_xyz
  1  'x, y, z'
loop_
 _atom_site_type_symbol
 _atom_site_label
 _atom_site_symmetry_multiplicity
 _atom_site_fract_x
 _atom_site_fract_y
 _atom_site_fract_z
 _atom_site_occupancy
  S  S0  1  0.74817026  0.57660657  0.96712128  1
  S  S1  1  0.25182974  0.42339343  0.46712128  1
  S  S2  1  0.25182974  0.07660657  0.96712128  1
  S  S3  1  0.74817026  0.92339343  0.46712128  1
  S  S4  1  0.54226385  0.47799459  0.12882675  1
  S  S5  1  0.45773615  0.52200541  0.62882675  1
  S  S6  1  0.45773615  0.97799459  0.12882675  1
  S  S7  1  0.54226385  0.02200541  0.62882675  1
  S  S8  1  0.01424921  0.18400194  0.77235333  1
  S  S9  1  0.98575079  0.81599806  0.27235333  1
  S  S10  1  0.98575079  0.68400194  0.77235333  1
  S  S11  1  0.01424921  0.31599806  0.27235333  1
  S  S12  1  0.60198956  0.25795465  0.69290836  1
  S  S13  1  0.39801044  0.74204535  0.19290836  1
  S  S14  1  0.39801044  0.75795465  0.69290836  1
  S  S15  1  0.60198956  0.24204535  0.19290836  1
  S  S16  1  0.77258989  0.23646130  0.60841469  1
  S  S17  1  0.25125687  0.03896817  0.26596680  1
  S  S18  1  0.22741011  0.73646130  0.60841469  1
  S  S19  1  0.77258989  0.26353870  0.10841469  1
  S  S20  1  0.96271461  0.02368166  0.62131453  1
  S  S21  1  0.03728539  0.97631834  0.12131453  1
  S  S22  1  0.03728539  0.52368166  0.62131453  1
  S  S23  1  0.96271461  0.47631834  0.12131453  1
  S  S24  1  0.60428085  0.07118680  0.81238669  1
  S  S25  1  0.39571915  0.92881320  0.31238669  1
  S  S26  1  0.39571915  0.57118680  0.81238669  1
  S  S27  1  0.60428085  0.42881320  0.31238669  1
  S  S28  1  0.74874313  0.96103183  0.76596680  1
  S  S29  1  0.73941969  0.32288035  0.92494465  1
  S  S30  1  0.25125687  0.46103183  0.76596680  1
  S  S31  1  0.74874313  0.53896817  0.26596680  1
  S  S32  1  0.43549803  0.09832572  0.54329485  1
  S  S33  1  0.56450197  0.90167428  0.04329485  1
  S  S34  1  0.56450197  0.59832572  0.54329485  1
  S  S35  1  0.43549803  0.40167428  0.04329485  1
  S  S36  1  0.97377500  0.15921041  0.47594078  1
  S  S37  1  0.02622500  0.84078959  0.97594078  1
  S  S38  1  0.02622500  0.65921041  0.47594078  1
  S  S39  1  0.97377500  0.34078959  0.97594078  1
  S  S40  1  0.73941969  0.17711965  0.42494465  1
  S  S41  1  0.26058031  0.82288035  0.92494465  1
  S  S42  1  0.26058031  0.67711965  0.42494465  1
  S  S43  1  0.22741011  0.76353870  0.10841469  1
  Rb  Rb44  1  0.81385171  0.08547856  0.97312687  1
  Rb  Rb45  1  0.18614829  0.91452144  0.47312687  1
  Rb  Rb46  1  0.18614829  0.58547856  0.97312687  1
  Rb  Rb47  1  0.81385171  0.41452144  0.47312687  1
  Rb  Rb48  1  0.33071624  0.26905936  0.87325156  1
  Rb  Rb49  1  0.66928376  0.73094064  0.37325156  1
  Rb  Rb50  1  0.66928376  0.76905936  0.87325156  1
  Rb  Rb51  1  0.21028266  0.53966293  0.27129663  1
  Rb  Rb52  1  0.79528973  0.78616623  0.62106809  1
  Rb  Rb53  1  0.20471027  0.21383377  0.12106809  1
  Rb  Rb54  1  0.20471027  0.28616623  0.62106809  1
  Rb  Rb55  1  0.79528973  0.71383377  0.12106809  1
  Rb  Rb56  1  0.33071624  0.23094064  0.37325156  1
  Rb  Rb57  1  0.78971734  0.03966293  0.27129663  1
  Rb  Rb58  1  0.78971734  0.46033707  0.77129663  1
  Rb  Rb59  1  0.21028266  0.96033707  0.77129663  1
  Ta  Ta60  1  0.74124526  0.43702374  0.02940007  1
  Ta  Ta61  1  0.25875474  0.56297626  0.52940007  1
  Ta  Ta62  1  0.25875474  0.93702374  0.02940007  1
  Ta  Ta63  1  0.74124526  0.06297626  0.52940007  1
  Ta  Ta64  1  0.79466712  0.38011325  0.21028406  1
  Ta  Ta65  1  0.20533288  0.61988675  0.71028406  1
  Ta  Ta66  1  0.20533288  0.88011325  0.21028406  1
  Ta  Ta67  1  0.79466712  0.11988675  0.71028406  1
