# generated using pymatgen
data_Na6Sn2Se7
_symmetry_space_group_name_H-M   'P 1'
_cell_length_a   7.50481090
_cell_length_b   7.50481090
_cell_length_c   16.23140669
_cell_angle_alpha   99.43862764
_cell_angle_beta   99.43862761
_cell_angle_gamma   98.18579949
_symmetry_Int_Tables_number   1
_chemical_formula_structural   Na6Sn2Se7
_chemical_formula_sum   'Na12 Sn4 Se14'
_cell_volume   876.03977169
_cell_formula_units_Z   2
loop_
 _symmetry_equiv_pos_site_id
 _symmetry_equiv_pos_as_xyz
  1  'x, y, z'
loop_
 _atom_site_type_symbol
 _atom_site_label
 _atom_site_symmetry_multiplicity
 _atom_site_fract_x
 _atom_site_fract_y
 _atom_site_fract_z
 _atom_site_occupancy
  Na  Na0  1  0.57272768  0.42727232  0.25000000  1
  Na  Na1  1  0.95784512  0.24875346  0.57066583  1
  Na  Na2  1  0.75124654  0.04215488  0.92933417  1
  Na  Na3  1  0.04188381  0.49963702  0.13880160  1
  Na  Na4  1  0.50036298  0.95811619  0.36119840  1
  Na  Na5  1  0.95811619  0.50036298  0.86119840  1
  Na  Na6  1  0.49963702  0.04188381  0.63880160  1
  Na  Na7  1  0.50000000  0.50000000  0.00000000  1
  Na  Na8  1  0.50000000  0.50000000  0.50000000  1
  Na  Na9  1  0.04215488  0.75124654  0.42933417  1
  Na  Na10  1  0.42727232  0.57272768  0.75000000  1
  Na  Na11  1  0.24875346  0.95784512  0.07066583  1
  Se  Se12  1  0.76932031  0.31429539  0.39720496  1
  Se  Se13  1  0.04860582  0.95139418  0.25000000  1
  Se  Se14  1  0.68570461  0.23067969  0.10279504  1
  Se  Se15  1  0.52038629  0.24806580  0.81911195  1
  Se  Se16  1  0.31429539  0.76932031  0.89720496  1
  Se  Se17  1  0.26925285  0.13609407  0.48172863  1
  Se  Se18  1  0.86390593  0.73074715  0.01827137  1
  Se  Se19  1  0.73074715  0.86390593  0.51827137  1
  Se  Se20  1  0.13609407  0.26925285  0.98172863  1
  Se  Se21  1  0.24806580  0.52038629  0.31911195  1
  Se  Se22  1  0.47961371  0.75193420  0.18088805  1
  Se  Se23  1  0.75193420  0.47961371  0.68088805  1
  Se  Se24  1  0.95139418  0.04860582  0.75000000  1
  Se  Se25  1  0.23067969  0.68570461  0.60279504  1
  Sn  Sn26  1  0.07278847  0.24721075  0.36265648  1
  Sn  Sn27  1  0.75278925  0.92721153  0.13734352  1
  Sn  Sn28  1  0.24721075  0.07278847  0.86265648  1
  Sn  Sn29  1  0.92721153  0.75278925  0.63734352  1
