# generated using pymatgen
data_Sr2ScF7
_symmetry_space_group_name_H-M   'P 1'
_cell_length_a   5.54602737
_cell_length_b   8.33671800
_cell_length_c   12.32388263
_cell_angle_alpha   90.00000000
_cell_angle_beta   90.00000000
_cell_angle_gamma   90.43423771
_symmetry_Int_Tables_number   1
_chemical_formula_structural   Sr2ScF7
_chemical_formula_sum   'Sr8 Sc4 F28'
_cell_volume   569.78655942
_cell_formula_units_Z   4
loop_
 _symmetry_equiv_pos_site_id
 _symmetry_equiv_pos_as_xyz
  1  'x, y, z'
loop_
 _atom_site_type_symbol
 _atom_site_label
 _atom_site_symmetry_multiplicity
 _atom_site_fract_x
 _atom_site_fract_y
 _atom_site_fract_z
 _atom_site_occupancy
  F  F0  1  0.19931936  0.52375100  0.13631298  1
  F  F1  1  0.80068064  0.97624900  0.63631298  1
  F  F2  1  0.80068064  0.47624900  0.86368702  1
  F  F3  1  0.19931936  0.02375100  0.36368702  1
  F  F4  1  0.01491605  0.30308105  0.25491665  1
  F  F5  1  0.98508395  0.19691895  0.75491665  1
  F  F6  1  0.98508395  0.69691895  0.74508335  1
  F  F7  1  0.01491605  0.80308105  0.24508335  1
  F  F8  1  0.80147685  0.71004036  0.03666166  1
  F  F9  1  0.19852315  0.78995964  0.53666166  1
  F  F10  1  0.19852315  0.28995964  0.96333834  1
  F  F11  1  0.80147685  0.21004036  0.46333834  1
  F  F12  1  0.48799292  0.07505938  0.10522261  1
  F  F13  1  0.51200708  0.42494062  0.60522261  1
  F  F14  1  0.51200708  0.92494062  0.89477739  1
  F  F15  1  0.48799292  0.57505938  0.39477739  1
  F  F16  1  0.48723271  0.79238312  0.22964460  1
  F  F17  1  0.51276729  0.70761688  0.72964460  1
  F  F18  1  0.51276729  0.20761688  0.77035540  1
  F  F19  1  0.48723271  0.29238312  0.27035540  1
  F  F20  1  0.61363334  0.87099654  0.42493385  1
  F  F21  1  0.38636666  0.62900346  0.92493385  1
  F  F22  1  0.38636666  0.12900346  0.57506615  1
  F  F23  1  0.61363334  0.37099654  0.07506615  1
  F  F24  1  0.01647545  0.09096722  0.10502935  1
  F  F25  1  0.98352455  0.40903278  0.60502935  1
  F  F26  1  0.98352455  0.90903278  0.89497065  1
  F  F27  1  0.01647545  0.59096722  0.39497065  1
  Sc  Sc28  1  0.27816566  0.28386522  0.12619210  1
  Sc  Sc29  1  0.72183434  0.21613478  0.62619210  1
  Sc  Sc30  1  0.72183434  0.71613478  0.87380790  1
  Sc  Sc31  1  0.27816566  0.78386522  0.37380790  1
  Sr  Sr32  1  0.76498138  0.67725497  0.56109915  1
  Sr  Sr33  1  0.23501862  0.82274503  0.06109915  1
  Sr  Sr34  1  0.23501862  0.32274503  0.43890085  1
  Sr  Sr35  1  0.76498138  0.17725497  0.93890085  1
  Sr  Sr36  1  0.76540443  0.55189808  0.21998504  1
  Sr  Sr37  1  0.23459557  0.94810192  0.71998504  1
  Sr  Sr38  1  0.23459557  0.44810192  0.78001496  1
  Sr  Sr39  1  0.76540443  0.05189808  0.28001496  1
