# generated using pymatgen
data_Ba(Ni5P3)2
_symmetry_space_group_name_H-M   'P 1'
_cell_length_a   6.43033906
_cell_length_b   8.72396840
_cell_length_c   8.77426385
_cell_angle_alpha   90.00000000
_cell_angle_beta   90.00000000
_cell_angle_gamma   111.62587345
_symmetry_Int_Tables_number   1
_chemical_formula_structural   Ba(Ni5P3)2
_chemical_formula_sum   'Ba2 Ni20 P12'
_cell_volume   457.57206816
_cell_formula_units_Z   2
loop_
 _symmetry_equiv_pos_site_id
 _symmetry_equiv_pos_as_xyz
  1  'x, y, z'
loop_
 _atom_site_type_symbol
 _atom_site_label
 _atom_site_symmetry_multiplicity
 _atom_site_fract_x
 _atom_site_fract_y
 _atom_site_fract_z
 _atom_site_occupancy
  P  P0  1  0.35951902  0.21903805  0.75000000  1
  P  P1  1  0.14048098  0.78096195  0.25000000  1
  P  P2  1  0.58991643  0.17983287  0.37271255  1
  P  P3  1  0.41008357  0.82016713  0.62728745  1
  P  P4  1  0.91008357  0.82016713  0.87271255  1
  P  P5  1  0.08991643  0.17983287  0.12728745  1
  P  P6  1  0.70861662  0.41723325  0.07471428  1
  P  P7  1  0.29138338  0.58276675  0.92528572  1
  P  P8  1  0.79138338  0.58276675  0.57471428  1
  P  P9  1  0.20861662  0.41723325  0.42528572  1
  P  P10  1  0.64048098  0.78096195  0.25000000  1
  P  P11  1  0.85951902  0.21903805  0.75000000  1
  Ni  Ni12  1  0.79086608  0.58173217  0.29356555  1
  Ni  Ni13  1  0.70913392  0.41826783  0.79356555  1
  Ni  Ni14  1  0.58824518  0.67649035  0.75000000  1
  Ni  Ni15  1  0.29086608  0.58173217  0.20643445  1
  Ni  Ni16  1  0.41175482  0.32350965  0.25000000  1
  Ni  Ni17  1  0.08824518  0.67649035  0.75000000  1
  Ni  Ni18  1  0.04532123  0.09064246  0.88148175  1
  Ni  Ni19  1  0.95467877  0.90935754  0.11851825  1
  Ni  Ni20  1  0.45467877  0.90935754  0.38148175  1
  Ni  Ni21  1  0.54532123  0.09064246  0.61851825  1
  Ni  Ni22  1  0.12641345  0.65022065  0.47108864  1
  Ni  Ni23  1  0.47619280  0.34977935  0.52891136  1
  Ni  Ni24  1  0.37358655  0.34977935  0.97108864  1
  Ni  Ni25  1  0.02380720  0.65022065  0.02891136  1
  Ni  Ni26  1  0.87358655  0.34977935  0.52891136  1
  Ni  Ni27  1  0.52380720  0.65022065  0.47108864  1
  Ni  Ni28  1  0.62641345  0.65022065  0.02891136  1
  Ni  Ni29  1  0.97619280  0.34977935  0.97108864  1
  Ni  Ni30  1  0.91175482  0.32350965  0.25000000  1
  Ni  Ni31  1  0.20913392  0.41826783  0.70643445  1
  Ba  Ba32  1  0.00000000  0.00000000  0.50000000  1
  Ba  Ba33  1  0.50000000  0.00000000  0.00000000  1
