# generated using pymatgen
data_LiCuPO4
_symmetry_space_group_name_H-M   'P 1'
_cell_length_a   10.81087206
_cell_length_b   10.81087130
_cell_length_c   11.16393590
_cell_angle_alpha   90.00000000
_cell_angle_beta   90.00000000
_cell_angle_gamma   120.00000233
_symmetry_Int_Tables_number   1
_chemical_formula_structural   LiCuPO4
_chemical_formula_sum   'Li12 Cu12 P12 O48'
_cell_volume   1129.97641935
_cell_formula_units_Z   12
loop_
 _symmetry_equiv_pos_site_id
 _symmetry_equiv_pos_as_xyz
  1  'x, y, z'
loop_
 _atom_site_type_symbol
 _atom_site_label
 _atom_site_symmetry_multiplicity
 _atom_site_fract_x
 _atom_site_fract_y
 _atom_site_fract_z
 _atom_site_occupancy
  Li  Li0  1  0.00000000  0.50000000  0.01426853  1
  Li  Li1  1  0.00000000  0.50000000  0.65239747  1
  Li  Li2  1  0.00000000  0.50000000  0.33333300  1
  Li  Li3  1  0.00000000  0.00000000  0.16666700  1
  Li  Li4  1  0.00000000  0.00000000  0.50000000  1
  Li  Li5  1  0.00000000  0.00000000  0.83333300  1
  Li  Li6  1  0.50000000  0.50000000  0.34760253  1
  Li  Li7  1  0.50000000  0.50000000  0.66666700  1
  Li  Li8  1  0.50000000  0.50000000  0.98573147  1
  Li  Li9  1  0.50000000  0.00000000  0.31906447  1
  Li  Li10  1  0.50000000  0.00000000  0.00000000  1
  Li  Li11  1  0.50000000  0.00000000  0.68093553  1
  Cu  Cu12  1  1.00000000  0.76517163  0.33333300  1
  Cu  Cu13  1  0.24668584  0.75331416  0.66666700  1
  Cu  Cu14  1  0.00000000  0.23482837  0.33333300  1
  Cu  Cu15  1  0.24668584  0.49337267  0.00000000  1
  Cu  Cu16  1  0.23482837  0.23482837  0.66666700  1
  Cu  Cu17  1  0.50662733  0.75331416  0.33333300  1
  Cu  Cu18  1  0.23482837  0.00000000  0.00000000  1
  Cu  Cu19  1  0.49337267  0.24668584  0.33333300  1
  Cu  Cu20  1  0.76517163  0.76517163  0.66666700  1
  Cu  Cu21  1  0.75331416  0.50662733  0.00000000  1
  Cu  Cu22  1  0.75331416  0.24668584  0.66666700  1
  Cu  Cu23  1  0.76517163  0.00000000  0.00000000  1
  P  P24  1  1.00000000  0.74081042  0.83333300  1
  P  P25  1  0.00000000  0.25918958  0.83333300  1
  P  P26  1  0.25013921  0.74986079  0.16666700  1
  P  P27  1  0.25013921  0.50027742  0.50000000  1
  P  P28  1  0.49972258  0.74986079  0.83333300  1
  P  P29  1  0.25918958  0.25918958  0.16666700  1
  P  P30  1  0.25918958  0.00000000  0.50000000  1
  P  P31  1  0.74081042  0.74081042  0.16666700  1
  P  P32  1  0.50027742  0.25013921  0.83333300  1
  P  P33  1  0.74986079  0.49972258  0.50000000  1
  P  P34  1  0.74986079  0.25013921  0.16666700  1
  P  P35  1  0.74081042  0.00000000  0.50000000  1
  O  O36  1  0.10548971  0.88178056  0.46318199  1
  O  O37  1  0.11821944  0.89451029  0.87015201  1
  O  O38  1  0.04964533  0.68188472  0.72950101  1
  O  O39  1  0.12160783  0.70524870  0.25086948  1
  O  O40  1  0.29475130  0.87839217  0.08246452  1
  O  O41  1  0.31811528  0.95035467  0.60383199  1
  O  O42  1  0.19757346  0.58677196  0.57461852  1
  O  O43  1  0.04964533  0.36775961  0.93716499  1
  O  O44  1  0.19757346  0.61080150  0.09204848  1
  O  O45  1  0.12160783  0.41635914  0.41579752  1
  O  O46  1  0.10548971  0.22370915  0.20348501  1
  O  O47  1  0.41322804  0.80242654  0.75871448  1
  O  O48  1  0.38919850  0.80242654  0.24128552  1
  O  O49  1  0.11821944  0.22370915  0.79651499  1
  O  O50  1  0.29475130  0.41635914  0.58420248  1
  O  O51  1  0.41322804  0.61080150  0.90795152  1
  O  O52  1  0.31811528  0.36775961  0.06283501  1
  O  O53  1  0.38919850  0.58677196  0.42538148  1
  O  O54  1  0.22370915  0.11821944  0.53681801  1
  O  O55  1  0.22370915  0.10548971  0.12984799  1
  O  O56  1  0.63224039  0.95035467  0.39616801  1
  O  O57  1  0.58364086  0.87839217  0.91753548  1
  O  O58  1  0.58364086  0.70524870  0.74913052  1
  O  O59  1  0.36775961  0.31811528  0.27049899  1
  O  O60  1  0.63224039  0.68188472  0.27049899  1
  O  O61  1  0.41635914  0.29475130  0.74913052  1
  O  O62  1  0.41635914  0.12160783  0.91753548  1
  O  O63  1  0.36775961  0.04964533  0.39616801  1
  O  O64  1  0.77629085  0.89451029  0.12984799  1
  O  O65  1  0.77629085  0.88178056  0.53681801  1
  O  O66  1  0.61080150  0.41322804  0.42538148  1
  O  O67  1  0.68188472  0.63224039  0.06283501  1
  O  O68  1  0.58677196  0.38919850  0.90795152  1
  O  O69  1  0.70524870  0.58364086  0.58420248  1
  O  O70  1  0.88178056  0.77629085  0.79651499  1
  O  O71  1  0.61080150  0.19757346  0.24128552  1
  O  O72  1  0.58677196  0.19757346  0.75871448  1
  O  O73  1  0.89451029  0.77629085  0.20348501  1
  O  O74  1  0.87839217  0.58364086  0.41579752  1
  O  O75  1  0.80242654  0.38919850  0.09204848  1
  O  O76  1  0.95035467  0.63224039  0.93716499  1
  O  O77  1  0.80242654  0.41322804  0.57461852  1
  O  O78  1  0.68188472  0.04964533  0.60383199  1
  O  O79  1  0.70524870  0.12160783  0.08246452  1
  O  O80  1  0.87839217  0.29475130  0.25086948  1
  O  O81  1  0.95035467  0.31811528  0.72950101  1
  O  O82  1  0.88178056  0.10548971  0.87015201  1
  O  O83  1  0.89451029  0.11821944  0.46318199  1
