# generated using pymatgen
data_Ba3Ho4O9
_symmetry_space_group_name_H-M   'P 1'
_cell_length_a   9.21345494
_cell_length_b   9.21345493
_cell_length_c   9.21345494
_cell_angle_alpha   38.83506969
_cell_angle_beta   38.83506970
_cell_angle_gamma   38.83506964
_symmetry_Int_Tables_number   1
_chemical_formula_structural   Ba3Ho4O9
_chemical_formula_sum   'Ba3 Ho4 O9'
_cell_volume   276.49810161
_cell_formula_units_Z   1
loop_
 _symmetry_equiv_pos_site_id
 _symmetry_equiv_pos_as_xyz
  1  'x, y, z'
loop_
 _atom_site_type_symbol
 _atom_site_label
 _atom_site_symmetry_multiplicity
 _atom_site_fract_x
 _atom_site_fract_y
 _atom_site_fract_z
 _atom_site_occupancy
  O  O0  1  0.45546395  0.58215460  0.04156256  1
  O  O1  1  0.58215460  0.04156256  0.45546395  1
  O  O2  1  0.04156256  0.45546395  0.58215460  1
  O  O3  1  0.59356224  0.69557657  0.12669279  1
  O  O4  1  0.69557657  0.12669279  0.59356224  1
  O  O5  1  0.12669279  0.59356224  0.69557657  1
  O  O6  1  0.02232693  0.57978888  0.14217855  1
  O  O7  1  0.14217855  0.02232693  0.57978888  1
  O  O8  1  0.57978888  0.14217855  0.02232693  1
  Ba  Ba9  1  0.99839289  0.99839289  0.99839289  1
  Ba  Ba10  1  0.16400694  0.16400694  0.16400694  1
  Ba  Ba11  1  0.57611235  0.57611235  0.57611235  1
  Ho  Ho12  1  0.42495735  0.42495735  0.42495735  1
  Ho  Ho13  1  0.86348665  0.86348665  0.86348665  1
  Ho  Ho14  1  0.73775118  0.73775118  0.73775118  1
  Ho  Ho15  1  0.29988558  0.29988558  0.29988558  1
