# generated using pymatgen
data_As2O3
_symmetry_space_group_name_H-M   'P 1'
_cell_length_a   4.65853148
_cell_length_b   5.65915327
_cell_length_c   13.82279280
_cell_angle_alpha   90.00000000
_cell_angle_beta   90.00000000
_cell_angle_gamma   94.42563179
_symmetry_Int_Tables_number   1
_chemical_formula_structural   As2O3
_chemical_formula_sum   'As8 O12'
_cell_volume   363.32847149
_cell_formula_units_Z   4
loop_
 _symmetry_equiv_pos_site_id
 _symmetry_equiv_pos_as_xyz
  1  'x, y, z'
loop_
 _atom_site_type_symbol
 _atom_site_label
 _atom_site_symmetry_multiplicity
 _atom_site_fract_x
 _atom_site_fract_y
 _atom_site_fract_z
 _atom_site_occupancy
  O  O0  1  0.36692322  0.53534201  0.35264264  1
  O  O1  1  0.13307678  0.96465799  0.85264264  1
  O  O2  1  0.63307678  0.46465799  0.64735736  1
  O  O3  1  0.86692322  0.03534201  0.14735736  1
  O  O4  1  0.34781106  0.84084543  0.11025761  1
  O  O5  1  0.15218894  0.65915457  0.61025761  1
  O  O6  1  0.65218894  0.15915457  0.88974239  1
  O  O7  1  0.84781106  0.34084543  0.38974239  1
  O  O8  1  0.93404226  0.56421553  0.21630594  1
  O  O9  1  0.56595774  0.93578447  0.71630594  1
  O  O10  1  0.06595774  0.43578447  0.78369406  1
  O  O11  1  0.43404226  0.06421553  0.28369406  1
  As  As12  1  0.50179808  0.12927638  0.15553032  1
  As  As13  1  -0.00179808  0.37072362  0.65553032  1
  As  As14  1  0.49820192  0.87072362  0.84446968  1
  As  As15  1  1.00179808  0.62927638  0.34446968  1
  As  As16  1  0.46565769  0.24365752  0.39233934  1
  As  As17  1  0.03434231  0.25634248  0.89233934  1
  As  As18  1  0.53434231  0.75634248  0.60766066  1
  As  As19  1  0.96565769  0.74365752  0.10766066  1
