# generated using pymatgen
data_K4Nb2S11
_symmetry_space_group_name_H-M   'P 1'
_cell_length_a   7.57475341
_cell_length_b   13.53308255
_cell_length_c   18.42313192
_cell_angle_alpha   90.00000000
_cell_angle_beta   90.00000000
_cell_angle_gamma   90.00000000
_symmetry_Int_Tables_number   1
_chemical_formula_structural   K4Nb2S11
_chemical_formula_sum   'K16 Nb8 S44'
_cell_volume   1888.55089040
_cell_formula_units_Z   4
loop_
 _symmetry_equiv_pos_site_id
 _symmetry_equiv_pos_as_xyz
  1  'x, y, z'
loop_
 _atom_site_type_symbol
 _atom_site_label
 _atom_site_symmetry_multiplicity
 _atom_site_fract_x
 _atom_site_fract_y
 _atom_site_fract_z
 _atom_site_occupancy
  S  S0  1  0.25398494  0.41149823  0.03521536  1
  S  S1  1  0.74601506  0.58850177  0.53521536  1
  S  S2  1  0.74601506  0.91149823  0.03521536  1
  S  S3  1  0.25398494  0.08850177  0.53521536  1
  S  S4  1  0.25762570  0.67309852  0.08036693  1
  S  S5  1  0.74237430  0.32690148  0.58036693  1
  S  S6  1  0.74237430  0.17309852  0.08036693  1
  S  S7  1  0.25762570  0.82690148  0.58036693  1
  S  S8  1  0.01802439  0.65399353  0.02720483  1
  S  S9  1  0.98197561  0.34600647  0.52720483  1
  S  S10  1  0.98197561  0.15399353  0.02720483  1
  S  S11  1  0.01802439  0.84600647  0.52720483  1
  S  S12  1  0.46565247  0.51736307  0.87168531  1
  S  S13  1  0.53434753  0.48263693  0.37168531  1
  S  S14  1  0.53434753  0.01736307  0.87168531  1
  S  S15  1  0.46565247  0.98263693  0.37168531  1
  S  S16  1  0.39287095  0.56625507  0.68446236  1
  S  S17  1  0.57692279  0.59402113  0.95813005  1
  S  S18  1  0.42307721  0.09402113  0.95813005  1
  S  S19  1  0.57692279  0.90597887  0.45813005  1
  S  S20  1  0.24463885  0.45482682  0.73346036  1
  S  S21  1  0.75536115  0.54517318  0.23346036  1
  S  S22  1  0.75536115  0.95482682  0.73346036  1
  S  S23  1  0.24463885  0.04517318  0.23346036  1
  S  S24  1  0.02843072  0.98564093  0.38010171  1
  S  S25  1  0.97156928  0.01435907  0.88010171  1
  S  S26  1  0.97156928  0.48564093  0.38010171  1
  S  S27  1  0.02843072  0.51435907  0.88010171  1
  S  S28  1  0.22389035  0.76436529  0.39394073  1
  S  S29  1  0.77610965  0.23563471  0.89394073  1
  S  S30  1  0.77610965  0.26436529  0.39394073  1
  S  S31  1  0.22389035  0.73563471  0.89394073  1
  S  S32  1  0.39746038  0.74025200  0.30813275  1
  S  S33  1  0.60253962  0.25974800  0.80813275  1
  S  S34  1  0.60253962  0.24025200  0.30813275  1
  S  S35  1  0.39746038  0.75974800  0.80813275  1
  S  S36  1  0.96627522  0.81720040  0.22908174  1
  S  S37  1  0.03372478  0.18279960  0.72908174  1
  S  S38  1  0.03372478  0.31720040  0.22908174  1
  S  S39  1  0.96627522  0.68279960  0.72908174  1
  S  S40  1  0.39287095  0.93374493  0.18446236  1
  S  S41  1  0.60712905  0.06625507  0.68446236  1
  S  S42  1  0.60712905  0.43374493  0.18446236  1
  S  S43  1  0.42307721  0.40597887  0.45813005  1
  K  K44  1  0.66861955  0.77477734  0.62699502  1
  K  K45  1  0.33138045  0.22522266  0.12699502  1
  K  K46  1  0.33138045  0.27477734  0.62699502  1
  K  K47  1  0.66861955  0.72522266  0.12699502  1
  K  K48  1  0.18626909  0.59131487  0.52743860  1
  K  K49  1  0.81373091  0.40868513  0.02743860  1
  K  K50  1  0.81373091  0.09131487  0.52743860  1
  K  K51  1  0.18626909  0.90868513  0.02743860  1
  K  K52  1  0.78290947  0.46129883  0.73222084  1
  K  K53  1  0.21709053  0.53870117  0.23222084  1
  K  K54  1  0.21709053  0.96129883  0.73222084  1
  K  K55  1  0.78290947  0.03870117  0.23222084  1
  K  K56  1  0.20703482  0.28433845  0.88036120  1
  K  K57  1  0.79296518  0.71566155  0.38036120  1
  K  K58  1  0.79296518  0.78433845  0.88036120  1
  K  K59  1  0.20703482  0.21566155  0.38036120  1
  Nb  Nb60  1  0.25950355  0.55537949  0.97326576  1
  Nb  Nb61  1  0.74049645  0.44462051  0.47326576  1
  Nb  Nb62  1  0.74049645  0.05537949  0.97326576  1
  Nb  Nb63  1  0.25950355  0.94462051  0.47326576  1
  Nb  Nb64  1  0.19733808  0.61732029  0.78973646  1
  Nb  Nb65  1  0.80266192  0.38267971  0.28973646  1
  Nb  Nb66  1  0.80266192  0.11732029  0.78973646  1
  Nb  Nb67  1  0.19733808  0.88267971  0.28973646  1
