# generated using pymatgen
data_Nd2SiTeO4
_symmetry_space_group_name_H-M   'P 1'
_cell_length_a   6.47398108
_cell_length_b   8.79548193
_cell_length_c   9.97697155
_cell_angle_alpha   95.29453028
_cell_angle_beta   90.00000000
_cell_angle_gamma   90.00000000
_symmetry_Int_Tables_number   1
_chemical_formula_structural   Nd2SiTeO4
_chemical_formula_sum   'Nd8 Si4 Te4 O16'
_cell_volume   565.68273543
_cell_formula_units_Z   4
loop_
 _symmetry_equiv_pos_site_id
 _symmetry_equiv_pos_as_xyz
  1  'x, y, z'
loop_
 _atom_site_type_symbol
 _atom_site_label
 _atom_site_symmetry_multiplicity
 _atom_site_fract_x
 _atom_site_fract_y
 _atom_site_fract_z
 _atom_site_occupancy
  O  O0  1  0.13815127  0.59189762  0.24798978  1
  O  O1  1  0.63815127  0.90810238  0.75201022  1
  O  O2  1  0.86184873  0.40810238  0.75201022  1
  O  O3  1  0.36184873  0.09189762  0.24798978  1
  O  O4  1  0.49058183  0.68389573  0.15687947  1
  O  O5  1  0.99058183  0.81610427  0.84312053  1
  O  O6  1  0.50941817  0.31610427  0.84312053  1
  O  O7  1  0.00941817  0.18389573  0.15687947  1
  O  O8  1  0.13338563  0.87596265  0.12554859  1
  O  O9  1  0.80571609  0.42230634  0.01929600  1
  O  O10  1  0.86661437  0.12403735  0.87445141  1
  O  O11  1  0.36661437  0.37596265  0.12554859  1
  O  O12  1  0.69428391  0.92230634  0.01929600  1
  O  O13  1  0.19428391  0.57769366  0.98070400  1
  O  O14  1  0.30571609  0.07769366  0.98070400  1
  O  O15  1  0.63338563  0.62403735  0.87445141  1
  Si  Si16  1  0.19071539  0.05718713  0.12544647  1
  Si  Si17  1  0.80928461  0.94281287  0.87455353  1
  Si  Si18  1  0.69071539  0.44281287  0.87455353  1
  Si  Si19  1  0.30928461  0.55718713  0.12544647  1
  Te  Te20  1  0.28651016  0.61934604  0.59091782  1
  Te  Te21  1  0.78651016  0.88065396  0.40908218  1
  Te  Te22  1  0.71348984  0.38065396  0.40908218  1
  Te  Te23  1  0.21348984  0.11934604  0.59091782  1
  Nd  Nd24  1  0.69596376  0.16323927  0.65370178  1
  Nd  Nd25  1  0.80403624  0.66323927  0.65370178  1
  Nd  Nd26  1  0.30403624  0.83676073  0.34629822  1
  Nd  Nd27  1  0.19596376  0.33676073  0.34629822  1
  Nd  Nd28  1  0.84729434  0.69514721  0.10575399  1
  Nd  Nd29  1  0.34729434  0.80485279  0.89424601  1
  Nd  Nd30  1  0.15270566  0.30485279  0.89424601  1
  Nd  Nd31  1  0.65270566  0.19514721  0.10575399  1
