# generated using pymatgen
data_YSO4F
_symmetry_space_group_name_H-M   'P 1'
_cell_length_a   6.45182882
_cell_length_b   7.00275592
_cell_length_c   8.41210976
_cell_angle_alpha   90.00000000
_cell_angle_beta   90.00000000
_cell_angle_gamma   90.00000000
_symmetry_Int_Tables_number   1
_chemical_formula_structural   YSO4F
_chemical_formula_sum   'Y4 S4 O16 F4'
_cell_volume   380.06401871
_cell_formula_units_Z   4
loop_
 _symmetry_equiv_pos_site_id
 _symmetry_equiv_pos_as_xyz
  1  'x, y, z'
loop_
 _atom_site_type_symbol
 _atom_site_label
 _atom_site_symmetry_multiplicity
 _atom_site_fract_x
 _atom_site_fract_y
 _atom_site_fract_z
 _atom_site_occupancy
  O  O0  1  0.01235551  0.75000000  0.51976744  1
  O  O1  1  0.51235551  0.25000000  0.98023256  1
  O  O2  1  0.98764449  0.25000000  0.48023256  1
  O  O3  1  0.48764449  0.75000000  0.01976744  1
  O  O4  1  0.38208373  0.75000000  0.74161553  1
  O  O5  1  0.88208373  0.25000000  0.75838447  1
  O  O6  1  0.61791627  0.25000000  0.25838447  1
  O  O7  1  0.11791627  0.75000000  0.24161553  1
  O  O8  1  0.32631576  0.91805953  0.43873859  1
  O  O9  1  0.82631576  0.08194047  0.06126141  1
  O  O10  1  0.67368424  0.41805953  0.56126141  1
  O  O11  1  0.17368424  0.58194047  0.93873859  1
  O  O12  1  0.82631576  0.41805953  0.06126141  1
  O  O13  1  0.32631576  0.58194047  0.43873859  1
  O  O14  1  0.17368424  0.91805953  0.93873859  1
  O  O15  1  0.67368424  0.08194047  0.56126141  1
  F  F16  1  0.70166522  0.75000000  0.29440612  1
  F  F17  1  0.20166522  0.25000000  0.20559388  1
  F  F18  1  0.29833478  0.25000000  0.70559388  1
  F  F19  1  0.79833478  0.75000000  0.79440612  1
  S  S20  1  0.18584813  0.75000000  0.40731309  1
  S  S21  1  0.68584813  0.25000000  0.09268691  1
  S  S22  1  0.81415187  0.25000000  0.59268691  1
  S  S23  1  0.31415187  0.75000000  0.90731309  1
  Y  Y24  1  0.65207851  0.75000000  0.55432432  1
  Y  Y25  1  0.15207851  0.25000000  0.94567568  1
  Y  Y26  1  0.34792149  0.25000000  0.44567568  1
  Y  Y27  1  0.84792149  0.75000000  0.05432432  1
