# generated using pymatgen
data_LiUNbO6
_symmetry_space_group_name_H-M   'P 1'
_cell_length_a   6.49531512
_cell_length_b   7.62448386
_cell_length_c   10.42776986
_cell_angle_alpha   100.67830186
_cell_angle_beta   90.00000000
_cell_angle_gamma   90.00000000
_symmetry_Int_Tables_number   1
_chemical_formula_structural   LiUNbO6
_chemical_formula_sum   'Li4 U4 Nb4 O24'
_cell_volume   507.47607588
_cell_formula_units_Z   4
loop_
 _symmetry_equiv_pos_site_id
 _symmetry_equiv_pos_as_xyz
  1  'x, y, z'
loop_
 _atom_site_type_symbol
 _atom_site_label
 _atom_site_symmetry_multiplicity
 _atom_site_fract_x
 _atom_site_fract_y
 _atom_site_fract_z
 _atom_site_occupancy
  Li  Li0  1  0.99760423  0.82095262  0.00182679  1
  Li  Li1  1  0.50239577  0.32095262  0.00182679  1
  Li  Li2  1  0.00239577  0.17904738  0.99817321  1
  Li  Li3  1  0.49760423  0.67904738  0.99817321  1
  O  O4  1  0.05514255  0.21511473  0.70342169  1
  O  O5  1  0.55514255  0.28488527  0.29657831  1
  O  O6  1  0.94485745  0.78488527  0.29657831  1
  O  O7  1  0.44485745  0.71511473  0.70342169  1
  O  O8  1  0.74993415  0.22468716  0.90123414  1
  O  O9  1  0.75006585  0.72468716  0.90123414  1
  O  O10  1  0.25006585  0.77531284  0.09876586  1
  O  O11  1  0.24993415  0.27531284  0.09876586  1
  O  O12  1  0.16005767  0.96624472  0.87458488  1
  O  O13  1  0.66005767  0.53375528  0.12541512  1
  O  O14  1  0.83994233  0.03375528  0.12541512  1
  O  O15  1  0.33994233  0.46624472  0.87458488  1
  O  O16  1  0.21752993  0.87502317  0.51327714  1
  O  O17  1  0.71752993  0.62497683  0.48672286  1
  O  O18  1  0.78247007  0.12497683  0.48672286  1
  O  O19  1  0.28247007  0.37502317  0.51327714  1
  O  O20  1  0.82825901  0.92052929  0.68820938  1
  O  O21  1  0.32825901  0.57947071  0.31179062  1
  O  O22  1  0.17174099  0.07947071  0.31179062  1
  O  O23  1  0.67174099  0.42052929  0.68820938  1
  O  O24  1  0.04943920  0.62998410  0.69715639  1
  O  O25  1  0.54943920  0.87001590  0.30284361  1
  O  O26  1  0.95056080  0.37001590  0.30284361  1
  O  O27  1  0.45056080  0.12998410  0.69715639  1
  Nb  Nb28  1  0.75087078  0.18013853  0.72418510  1
  Nb  Nb29  1  0.25087078  0.31986147  0.27581490  1
  Nb  Nb30  1  0.24912922  0.81986147  0.27581490  1
  Nb  Nb31  1  0.74912922  0.68013853  0.72418510  1
  U  U32  1  0.30093422  0.42090760  0.69323699  1
  U  U33  1  0.80093422  0.07909240  0.30676301  1
  U  U34  1  0.69906578  0.57909240  0.30676301  1
  U  U35  1  0.19906578  0.92090760  0.69323699  1
