# generated using pymatgen
data_Cd4SiS6
_symmetry_space_group_name_H-M   'P 1'
_cell_length_a   7.18661048
_cell_length_b   7.24483705
_cell_length_c   12.48145332
_cell_angle_alpha   74.23663322
_cell_angle_beta   73.26823036
_cell_angle_gamma   60.26550681
_symmetry_Int_Tables_number   1
_chemical_formula_structural   Cd4SiS6
_chemical_formula_sum   'Cd8 Si2 S12'
_cell_volume   533.87272016
_cell_formula_units_Z   2
loop_
 _symmetry_equiv_pos_site_id
 _symmetry_equiv_pos_as_xyz
  1  'x, y, z'
loop_
 _atom_site_type_symbol
 _atom_site_label
 _atom_site_symmetry_multiplicity
 _atom_site_fract_x
 _atom_site_fract_y
 _atom_site_fract_z
 _atom_site_occupancy
  Si  Si0  1  0.02503503  0.05829045  0.43728222  1
  Si  Si1  1  0.47939229  0.55829045  0.93728222  1
  S  S2  1  0.30564828  0.37291615  0.98584891  1
  S  S3  1  0.33558666  0.87291615  0.48584891  1
  S  S4  1  0.83367319  0.36543291  0.49097000  1
  S  S5  1  0.30992390  0.86543291  0.99097000  1
  S  S6  1  0.90282132  0.92804049  0.80620688  1
  S  S7  1  0.36293131  0.42804049  0.30620688  1
  S  S8  1  0.58854906  0.59554299  0.75765319  1
  S  S9  1  0.05825476  0.09554299  0.25765319  1
  S  S10  1  0.76705287  0.39112938  0.01228112  1
  S  S11  1  0.82953663  0.89112938  0.51228112  1
  S  S12  1  0.75530877  0.80159863  0.18509130  1
  S  S13  1  0.25800130  0.30159863  0.68509130  1
  Cd  Cd14  1  0.63290542  0.25616432  0.68893309  1
  Cd  Cd15  1  0.42199716  0.75616432  0.18893309  1
  Cd  Cd16  1  0.25811771  0.94078020  0.69242153  1
  Cd  Cd17  1  0.10868056  0.44078020  0.19242153  1
  Cd  Cd18  1  0.01458979  0.51956547  0.84771381  1
  Cd  Cd19  1  0.61813092  0.01956547  0.34771381  1
  Cd  Cd20  1  0.11307537  0.49563899  0.49929794  1
  Cd  Cd21  1  0.89198770  0.99563899  0.99929794  1
