# generated using pymatgen
data_KNb(PO4)2
_symmetry_space_group_name_H-M   'P 1'
_cell_length_a   5.25871328
_cell_length_b   12.06402663
_cell_length_c   12.00639720
_cell_angle_alpha   90.00000000
_cell_angle_beta   90.00000000
_cell_angle_gamma   91.22757628
_symmetry_Int_Tables_number   1
_chemical_formula_structural   KNb(PO4)2
_chemical_formula_sum   'K4 Nb4 P8 O32'
_cell_volume   761.52611221
_cell_formula_units_Z   4
loop_
 _symmetry_equiv_pos_site_id
 _symmetry_equiv_pos_as_xyz
  1  'x, y, z'
loop_
 _atom_site_type_symbol
 _atom_site_label
 _atom_site_symmetry_multiplicity
 _atom_site_fract_x
 _atom_site_fract_y
 _atom_site_fract_z
 _atom_site_occupancy
  O  O0  1  0.01465713  0.34758698  0.48652135  1
  O  O1  1  0.48534287  0.15241302  0.98652135  1
  O  O2  1  0.98534287  0.65241302  0.51347865  1
  O  O3  1  0.51465713  0.84758698  0.01347865  1
  O  O4  1  0.73015736  0.28551303  0.32817674  1
  O  O5  1  0.76984264  0.21448697  0.82817674  1
  O  O6  1  0.26984264  0.71448697  0.67182326  1
  O  O7  1  0.23015736  0.78551303  0.17182326  1
  O  O8  1  0.95055627  0.37590754  0.72297821  1
  O  O9  1  0.54944373  0.12409246  0.22297821  1
  O  O10  1  0.04944373  0.62409246  0.27702179  1
  O  O11  1  0.45055627  0.87590754  0.77702179  1
  O  O12  1  0.77570183  0.41125702  0.91674055  1
  O  O13  1  0.72429817  0.08874298  0.41674055  1
  O  O14  1  0.22429817  0.58874298  0.08325945  1
  O  O15  1  0.27570183  0.91125702  0.58325945  1
  O  O16  1  0.20807743  0.97931024  0.10941634  1
  O  O17  1  0.29192257  0.52068976  0.60941634  1
  O  O18  1  0.79192257  0.02068976  0.89058366  1
  O  O19  1  0.70807743  0.47931024  0.39058366  1
  O  O20  1  0.04734103  0.82314945  0.98060157  1
  O  O21  1  0.45265897  0.67685055  0.48060157  1
  O  O22  1  0.95265897  0.17685055  0.01939843  1
  O  O23  1  0.54734103  0.32314945  0.51939843  1
  O  O24  1  0.79510578  0.81288160  0.35921487  1
  O  O25  1  0.70489422  0.68711840  0.85921487  1
  O  O26  1  0.20489422  0.18711840  0.64078513  1
  O  O27  1  0.29510578  0.31288160  0.14078513  1
  O  O28  1  0.97999791  0.86105648  0.74404116  1
  O  O29  1  0.52000209  0.63894352  0.24404116  1
  O  O30  1  0.02000209  0.13894352  0.25595884  1
  O  O31  1  0.47999791  0.36105648  0.75595884  1
  P  P32  1  0.75005216  0.36547982  0.43615768  1
  P  P33  1  0.25005216  0.86547982  0.06384232  1
  P  P34  1  0.24994784  0.63452018  0.56384232  1
  P  P35  1  0.74994784  0.13452018  0.93615768  1
  P  P36  1  0.74313390  0.34801993  0.81094634  1
  P  P37  1  0.24313390  0.84801993  0.68905366  1
  P  P38  1  0.25686610  0.65198007  0.18905366  1
  P  P39  1  0.75686610  0.15198007  0.31094634  1
  K  K40  1  0.73723645  0.05252688  0.63407173  1
  K  K41  1  0.26276355  0.94747312  0.36592827  1
  K  K42  1  0.23723645  0.55252688  0.86592827  1
  K  K43  1  0.76276355  0.44747312  0.13407173  1
  Nb  Nb44  1  0.24261105  0.33100145  0.62265058  1
  Nb  Nb45  1  0.25738895  0.16899855  0.12265058  1
  Nb  Nb46  1  0.75738895  0.66899855  0.37734942  1
  Nb  Nb47  1  0.74261105  0.83100145  0.87734942  1
