# generated using pymatgen
data_Sm2SiTeO4
_symmetry_space_group_name_H-M   'P 1'
_cell_length_a   6.39481177
_cell_length_b   8.70397952
_cell_length_c   9.89361217
_cell_angle_alpha   95.49272798
_cell_angle_beta   90.00000000
_cell_angle_gamma   90.00000000
_symmetry_Int_Tables_number   1
_chemical_formula_structural   Sm2SiTeO4
_chemical_formula_sum   'Sm8 Si4 Te4 O16'
_cell_volume   548.15299308
_cell_formula_units_Z   4
loop_
 _symmetry_equiv_pos_site_id
 _symmetry_equiv_pos_as_xyz
  1  'x, y, z'
loop_
 _atom_site_type_symbol
 _atom_site_label
 _atom_site_symmetry_multiplicity
 _atom_site_fract_x
 _atom_site_fract_y
 _atom_site_fract_z
 _atom_site_occupancy
  O  O0  1  0.13406768  0.59103627  0.24746141  1
  O  O1  1  0.63406768  0.90896373  0.75253859  1
  O  O2  1  0.86593232  0.40896373  0.75253859  1
  O  O3  1  0.36593232  0.09103627  0.24746141  1
  O  O4  1  0.49304220  0.68280997  0.16047031  1
  O  O5  1  0.99304220  0.81719003  0.83952969  1
  O  O6  1  0.50695780  0.31719003  0.83952969  1
  O  O7  1  0.00695780  0.18280997  0.16047031  1
  O  O8  1  0.13421011  0.87281605  0.12485084  1
  O  O9  1  0.80383972  0.42316235  0.02200805  1
  O  O10  1  0.86578989  0.12718395  0.87514916  1
  O  O11  1  0.36578989  0.37281605  0.12485084  1
  O  O12  1  0.69616028  0.92316235  0.02200805  1
  O  O13  1  0.19616028  0.57683765  0.97799195  1
  O  O14  1  0.30383972  0.07683765  0.97799195  1
  O  O15  1  0.63421011  0.62718395  0.87514916  1
  Si  Si16  1  0.19101496  0.05614131  0.12490845  1
  Si  Si17  1  0.80898504  0.94385869  0.87509155  1
  Si  Si18  1  0.69101496  0.44385869  0.87509155  1
  Si  Si19  1  0.30898504  0.55614131  0.12490845  1
  Te  Te20  1  0.28609198  0.62022794  0.58868322  1
  Te  Te21  1  0.78609198  0.87977206  0.41131678  1
  Te  Te22  1  0.71390802  0.37977206  0.41131678  1
  Te  Te23  1  0.21390802  0.12022794  0.58868322  1
  Sm  Sm24  1  0.69609802  0.16381049  0.65483644  1
  Sm  Sm25  1  0.80390198  0.66381049  0.65483644  1
  Sm  Sm26  1  0.30390198  0.83618951  0.34516356  1
  Sm  Sm27  1  0.19609802  0.33618951  0.34516356  1
  Sm  Sm28  1  0.84613736  0.69543306  0.10803137  1
  Sm  Sm29  1  0.34613736  0.80456694  0.89196863  1
  Sm  Sm30  1  0.15386264  0.30456694  0.89196863  1
  Sm  Sm31  1  0.65386264  0.19543306  0.10803137  1
