# generated using pymatgen
data_ZrMnSi2
_symmetry_space_group_name_H-M   'P 1'
_cell_length_a   5.15849615
_cell_length_b   7.88563986
_cell_length_c   9.85793528
_cell_angle_alpha   113.57593247
_cell_angle_beta   105.16750390
_cell_angle_gamma   90.00000003
_symmetry_Int_Tables_number   1
_chemical_formula_structural   ZrMnSi2
_chemical_formula_sum   'Zr6 Mn6 Si12'
_cell_volume   352.23647539
_cell_formula_units_Z   6
loop_
 _symmetry_equiv_pos_site_id
 _symmetry_equiv_pos_as_xyz
  1  'x, y, z'
loop_
 _atom_site_type_symbol
 _atom_site_label
 _atom_site_symmetry_multiplicity
 _atom_site_fract_x
 _atom_site_fract_y
 _atom_site_fract_z
 _atom_site_occupancy
  Si  Si0  1  0.75546804  0.00000000  0.00000000  1
  Si  Si1  1  0.24453196  0.00000000  0.00000000  1
  Si  Si2  1  0.24546170  0.50000000  0.00000000  1
  Si  Si3  1  0.75453830  0.50000000  0.00000000  1
  Si  Si4  1  0.20197140  0.20197140  0.40394280  1
  Si  Si5  1  0.79802860  0.79802860  0.59605720  1
  Si  Si6  1  0.78836802  0.28836802  0.57673604  1
  Si  Si7  1  0.21163198  0.71163198  0.42326396  1
  Si  Si8  1  0.36307856  0.71356746  0.72615711  1
  Si  Si9  1  0.63692144  0.28643254  0.27384289  1
  Si  Si10  1  0.63692144  0.98741035  0.27384289  1
  Si  Si11  1  0.36307856  0.01258965  0.72615711  1
  Mn  Mn12  1  0.00000000  0.50000000  0.50000000  1
  Mn  Mn13  1  0.50000000  0.50000000  0.50000000  1
  Mn  Mn14  1  0.00000000  0.00000000  0.50000000  1
  Mn  Mn15  1  0.50000000  0.00000000  0.50000000  1
  Mn  Mn16  1  0.50000000  0.24784589  0.00000000  1
  Mn  Mn17  1  0.50000000  0.75215411  0.00000000  1
  Zr  Zr18  1  0.09473425  0.35366406  0.18946850  1
  Zr  Zr19  1  0.90526575  0.64633594  0.81053150  1
  Zr  Zr20  1  0.90526575  0.16419556  0.81053150  1
  Zr  Zr21  1  0.09473425  0.83580444  0.18946850  1
  Zr  Zr22  1  0.64110118  0.64110118  0.28220237  1
  Zr  Zr23  1  0.35889882  0.35889882  0.71779763  1
