# generated using pymatgen
data_LiCu2PO4
_symmetry_space_group_name_H-M   'P 1'
_cell_length_a   4.51215331
_cell_length_b   5.33991904
_cell_length_c   4.50515845
_cell_angle_alpha   65.04661960
_cell_angle_beta   90.00582862
_cell_angle_gamma   114.99477327
_symmetry_Int_Tables_number   1
_chemical_formula_structural   LiCu2PO4
_chemical_formula_sum   'Li1 Cu2 P1 O4'
_cell_volume   87.07800556
_cell_formula_units_Z   1
loop_
 _symmetry_equiv_pos_site_id
 _symmetry_equiv_pos_as_xyz
  1  'x, y, z'
loop_
 _atom_site_type_symbol
 _atom_site_label
 _atom_site_symmetry_multiplicity
 _atom_site_fract_x
 _atom_site_fract_y
 _atom_site_fract_z
 _atom_site_occupancy
  Li  Li0  1  0.25015885  0.50031770  0.24984115  1
  Cu  Cu1  1  0.74967145  0.49934189  0.75032855  1
  Cu  Cu2  1  0.50026065  0.00052230  0.49973935  1
  P  P3  1  0.99995044  0.99990088  0.00004956  1
  O  O4  1  0.92277734  0.21318484  0.10587598  1
  O  O5  1  0.29040750  0.21318484  0.68093918  1
  O  O6  1  0.68109723  0.78677377  0.92253600  1
  O  O7  1  0.10567654  0.78677377  0.29069023  1
