# generated using pymatgen
data_RbEuPO4
_symmetry_space_group_name_H-M   'P 1'
_cell_length_a   5.52971951
_cell_length_b   7.70994489
_cell_length_c   10.42869783
_cell_angle_alpha   90.00000000
_cell_angle_beta   90.00000000
_cell_angle_gamma   90.00000000
_symmetry_Int_Tables_number   1
_chemical_formula_structural   RbEuPO4
_chemical_formula_sum   'Rb4 Eu4 P4 O16'
_cell_volume   444.61535835
_cell_formula_units_Z   4
loop_
 _symmetry_equiv_pos_site_id
 _symmetry_equiv_pos_as_xyz
  1  'x, y, z'
loop_
 _atom_site_type_symbol
 _atom_site_label
 _atom_site_symmetry_multiplicity
 _atom_site_fract_x
 _atom_site_fract_y
 _atom_site_fract_z
 _atom_site_occupancy
  O  O0  1  0.25000000  0.79336292  0.47274805  1
  O  O1  1  0.75000000  0.20663708  0.52725195  1
  O  O2  1  0.25000000  0.29336292  0.02725195  1
  O  O3  1  0.75000000  0.70663708  0.97274805  1
  O  O4  1  0.25000000  0.50286037  0.58260728  1
  O  O5  1  0.75000000  0.49713963  0.41739272  1
  O  O6  1  0.25000000  0.00286037  0.91739272  1
  O  O7  1  0.75000000  0.99713963  0.08260728  1
  O  O8  1  0.01690718  0.25278847  0.81704956  1
  O  O9  1  0.51690718  0.74721153  0.18295044  1
  O  O10  1  0.48309282  0.75278847  0.68295044  1
  O  O11  1  0.98309282  0.24721153  0.31704956  1
  O  O12  1  0.01690718  0.75278847  0.68295044  1
  O  O13  1  0.51690718  0.24721153  0.31704956  1
  O  O14  1  0.48309282  0.25278847  0.81704956  1
  O  O15  1  0.98309282  0.74721153  0.18295044  1
  P  P16  1  0.25000000  0.20282577  0.89314415  1
  P  P17  1  0.75000000  0.79717423  0.10685585  1
  P  P18  1  0.75000000  0.29717423  0.39314415  1
  P  P19  1  0.25000000  0.70282577  0.60685585  1
  Rb  Rb20  1  0.25000000  0.64229236  0.93073969  1
  Rb  Rb21  1  0.25000000  0.14229236  0.56926031  1
  Rb  Rb22  1  0.75000000  0.35770764  0.06926031  1
  Rb  Rb23  1  0.75000000  0.85770764  0.43073969  1
  Eu  Eu24  1  0.25000000  0.53413073  0.32634450  1
  Eu  Eu25  1  0.75000000  0.46586927  0.67365550  1
  Eu  Eu26  1  0.25000000  0.03413073  0.17365550  1
  Eu  Eu27  1  0.75000000  0.96586927  0.82634450  1
