# generated using pymatgen
data_SrV2O6
_symmetry_space_group_name_H-M   'P 1'
_cell_length_a   3.71334374
_cell_length_b   9.82844743
_cell_length_c   12.99695088
_cell_angle_alpha   90.00000000
_cell_angle_beta   90.00000000
_cell_angle_gamma   90.00000000
_symmetry_Int_Tables_number   1
_chemical_formula_structural   SrV2O6
_chemical_formula_sum   'Sr4 V8 O24'
_cell_volume   474.34196668
_cell_formula_units_Z   4
loop_
 _symmetry_equiv_pos_site_id
 _symmetry_equiv_pos_as_xyz
  1  'x, y, z'
loop_
 _atom_site_type_symbol
 _atom_site_label
 _atom_site_symmetry_multiplicity
 _atom_site_fract_x
 _atom_site_fract_y
 _atom_site_fract_z
 _atom_site_occupancy
  O  O0  1  0.24999948  0.89110719  0.02442926  1
  O  O1  1  0.75000116  0.10889332  0.97557092  1
  O  O2  1  0.24999948  0.39110694  0.47557121  1
  O  O3  1  0.75000116  0.60889357  0.52442896  1
  O  O4  1  0.24999948  0.78401284  0.21751648  1
  O  O5  1  0.75000116  0.21598665  0.78248369  1
  O  O6  1  0.24999948  0.28401360  0.28248399  1
  O  O7  1  0.75000116  0.71598691  0.71751618  1
  O  O8  1  0.24999948  0.53533784  0.10195584  1
  O  O9  1  0.75000116  0.46466165  0.89804357  1
  O  O10  1  0.24999948  0.03533860  0.39804386  1
  O  O11  1  0.75000116  0.96466190  0.60195631  1
  O  O12  1  0.75000116  0.83088178  0.39058561  1
  O  O13  1  0.24999948  0.16911771  0.60941457  1
  O  O14  1  0.75000116  0.33088153  0.10941486  1
  O  O15  1  0.24999948  0.66911796  0.89058531  1
  O  O16  1  0.75000116  0.02801275  0.23524486  1
  O  O17  1  0.24999948  0.97198674  0.76475454  1
  O  O18  1  0.24999948  0.30919406  0.92802784  1
  O  O19  1  0.24999948  0.47198648  0.73524533  1
  O  O20  1  0.75000116  0.19080620  0.42802813  1
  O  O21  1  0.24999948  0.80919431  0.57197204  1
  O  O22  1  0.75000116  0.69080543  0.07197157  1
  O  O23  1  0.75000116  0.52801300  0.26475484  1
  V  V24  1  0.24999948  0.74198549  0.09534842  1
  V  V25  1  0.75000116  0.25801502  0.90465175  1
  V  V26  1  0.24999948  0.24198524  0.40465128  1
  V  V27  1  0.75000116  0.75801527  0.59534889  1
  V  V28  1  0.24999948  0.50013616  0.86302517  1
  V  V29  1  0.75000116  0.49986435  0.13697424  1
  V  V30  1  0.75000116  -0.00013590  0.36302546  1
  V  V31  1  0.24999948  1.00013539  0.63697471  1
  Sr  Sr32  1  0.24999948  0.13561317  0.11596460  1
  Sr  Sr33  1  0.75000116  0.86438734  0.88403558  1
  Sr  Sr34  1  0.24999948  0.63561342  0.38403587  1
  Sr  Sr35  1  0.75000116  0.36438709  0.61596430  1
