# generated using pymatgen
data_KEr(SO4)2
_symmetry_space_group_name_H-M   'P 1'
_cell_length_a   5.49625523
_cell_length_b   8.89335982
_cell_length_c   13.50114518
_cell_angle_alpha   90.00000000
_cell_angle_beta   90.00000000
_cell_angle_gamma   93.32202069
_symmetry_Int_Tables_number   1
_chemical_formula_structural   KEr(SO4)2
_chemical_formula_sum   'K4 Er4 S8 O32'
_cell_volume   658.82939709
_cell_formula_units_Z   4
loop_
 _symmetry_equiv_pos_site_id
 _symmetry_equiv_pos_as_xyz
  1  'x, y, z'
loop_
 _atom_site_type_symbol
 _atom_site_label
 _atom_site_symmetry_multiplicity
 _atom_site_fract_x
 _atom_site_fract_y
 _atom_site_fract_z
 _atom_site_occupancy
  O  O0  1  0.25272156  0.18883373  0.96665532  1
  O  O1  1  0.24727844  0.31116627  0.46665532  1
  O  O2  1  0.74727844  0.81116627  0.03334468  1
  O  O3  1  0.75272156  0.68883373  0.53334468  1
  O  O4  1  0.52106935  0.48976970  0.62135217  1
  O  O5  1  0.97893065  0.01023030  0.12135217  1
  O  O6  1  0.47893065  0.51023030  0.37864783  1
  O  O7  1  0.02106935  0.98976970  0.87864783  1
  O  O8  1  0.45840719  0.97840485  0.89871566  1
  O  O9  1  0.04159281  0.52159515  0.39871566  1
  O  O10  1  0.54159281  0.02159515  0.10128434  1
  O  O11  1  0.95840719  0.47840485  0.60128434  1
  O  O12  1  0.29896185  0.16267288  0.78874467  1
  O  O13  1  0.20103815  0.33732712  0.28874467  1
  O  O14  1  0.70103815  0.83732712  0.21125533  1
  O  O15  1  0.79896185  0.66267288  0.71125533  1
  O  O16  1  0.32016573  0.73592519  0.76683521  1
  O  O17  1  0.17983427  0.76407481  0.26683521  1
  O  O18  1  0.67983427  0.26407481  0.23316479  1
  O  O19  1  0.82016573  0.23592519  0.73316479  1
  O  O20  1  0.70623236  0.96417677  0.70936672  1
  O  O21  1  0.79376764  0.53582323  0.20936672  1
  O  O22  1  0.29376764  0.03582323  0.29063328  1
  O  O23  1  0.20623236  0.46417677  0.79063328  1
  O  O24  1  0.03287139  0.64817368  0.89664147  1
  O  O25  1  0.46712861  0.85182632  0.39664147  1
  O  O26  1  0.96712861  0.35182632  0.10335853  1
  O  O27  1  0.53287139  0.14817368  0.60335853  1
  O  O28  1  0.46824295  0.60748900  0.90637534  1
  O  O29  1  0.03175705  0.89251100  0.40637534  1
  O  O30  1  0.53175705  0.39251100  0.09362466  1
  O  O31  1  0.96824295  0.10748900  0.59362466  1
  S  S32  1  0.25668617  0.07993312  0.88330967  1
  S  S33  1  0.24331383  0.42006688  0.38330967  1
  S  S34  1  0.74331383  0.92006688  0.11669033  1
  S  S35  1  0.75668617  0.57993312  0.61669033  1
  S  S36  1  0.75285624  0.11304576  0.66260002  1
  S  S37  1  0.74714376  0.38695424  0.16260002  1
  S  S38  1  0.24714376  0.88695424  0.33739998  1
  S  S39  1  0.25285624  0.61304576  0.83739998  1
  K  K40  1  0.75362803  0.34388131  0.91169174  1
  K  K41  1  0.74637197  0.15611869  0.41169174  1
  K  K42  1  0.24637197  0.65611869  0.08830826  1
  K  K43  1  0.25362803  0.84388131  0.58830826  1
  Er  Er44  1  0.22280806  0.31310481  0.65144225  1
  Er  Er45  1  0.27719194  0.18689519  0.15144225  1
  Er  Er46  1  0.77719194  0.68689519  0.34855775  1
  Er  Er47  1  0.72280806  0.81310481  0.84855775  1
