# generated using pymatgen
data_Na2Ge2Se5
_symmetry_space_group_name_H-M   'P 1'
_cell_length_a   9.66493116
_cell_length_b   9.66493116
_cell_length_c   11.26598293
_cell_angle_alpha   90.00000000
_cell_angle_beta   90.00000000
_cell_angle_gamma   88.76563390
_symmetry_Int_Tables_number   1
_chemical_formula_structural   Na2Ge2Se5
_chemical_formula_sum   'Na8 Ge8 Se20'
_cell_volume   1052.12133162
_cell_formula_units_Z   4
loop_
 _symmetry_equiv_pos_site_id
 _symmetry_equiv_pos_as_xyz
  1  'x, y, z'
loop_
 _atom_site_type_symbol
 _atom_site_label
 _atom_site_symmetry_multiplicity
 _atom_site_fract_x
 _atom_site_fract_y
 _atom_site_fract_z
 _atom_site_occupancy
  Na  Na0  1  0.42405947  0.07546637  0.75000000  1
  Na  Na1  1  0.57594053  0.92453363  0.25000000  1
  Na  Na2  1  0.07546637  0.42405947  0.75000000  1
  Na  Na3  1  0.92453363  0.57594053  0.25000000  1
  Na  Na4  1  0.14502029  0.85497971  0.50000000  1
  Na  Na5  1  0.85497971  0.14502029  0.00000000  1
  Na  Na6  1  0.85497971  0.14502029  0.50000000  1
  Na  Na7  1  0.14502029  0.85497971  0.00000000  1
  Ge  Ge8  1  0.68645699  0.40637924  0.75000000  1
  Ge  Ge9  1  0.31354301  0.59362076  0.25000000  1
  Ge  Ge10  1  0.40637924  0.68645699  0.75000000  1
  Ge  Ge11  1  0.59362076  0.31354301  0.25000000  1
  Ge  Ge12  1  0.74475713  0.74475713  0.91993293  1
  Ge  Ge13  1  0.25524287  0.25524287  0.41993293  1
  Ge  Ge14  1  0.74475713  0.74475713  0.58006707  1
  Ge  Ge15  1  0.25524287  0.25524287  0.08006707  1
  Se  Se16  1  0.83025063  0.26767060  0.25000000  1
  Se  Se17  1  0.16974937  0.73232940  0.75000000  1
  Se  Se18  1  0.26767060  0.83025063  0.25000000  1
  Se  Se19  1  0.73232940  0.16974937  0.75000000  1
  Se  Se20  1  0.84312814  0.84312814  0.08738621  1
  Se  Se21  1  0.15687186  0.15687186  0.58738621  1
  Se  Se22  1  0.84312814  0.84312814  0.41261379  1
  Se  Se23  1  0.15687186  0.15687186  0.91261379  1
  Se  Se24  1  0.84980302  0.84980302  0.75000000  1
  Se  Se25  1  0.15019698  0.15019698  0.25000000  1
  Se  Se26  1  0.20207301  0.50043621  0.07603092  1
  Se  Se27  1  0.79792699  0.49956379  0.57603092  1
  Se  Se28  1  0.50043621  0.20207301  0.42396908  1
  Se  Se29  1  0.49956379  0.79792699  0.92396908  1
  Se  Se30  1  0.79792699  0.49956379  0.92396908  1
  Se  Se31  1  0.20207301  0.50043621  0.42396908  1
  Se  Se32  1  0.49956379  0.79792699  0.57603092  1
  Se  Se33  1  0.50043621  0.20207301  0.07603092  1
  Se  Se34  1  0.44186973  0.44186973  0.75000000  1
  Se  Se35  1  0.55813027  0.55813027  0.25000000  1
