# generated using pymatgen
data_NaCr(WO4)2
_symmetry_space_group_name_H-M   'P 1'
_cell_length_a   5.08423066
_cell_length_b   5.80622709
_cell_length_c   9.97987484
_cell_angle_alpha   90.00000000
_cell_angle_beta   90.84958667
_cell_angle_gamma   90.00000000
_symmetry_Int_Tables_number   1
_chemical_formula_structural   NaCr(WO4)2
_chemical_formula_sum   'Na2 Cr2 W4 O16'
_cell_volume   294.57549147
_cell_formula_units_Z   2
loop_
 _symmetry_equiv_pos_site_id
 _symmetry_equiv_pos_as_xyz
  1  'x, y, z'
loop_
 _atom_site_type_symbol
 _atom_site_label
 _atom_site_symmetry_multiplicity
 _atom_site_fract_x
 _atom_site_fract_y
 _atom_site_fract_z
 _atom_site_occupancy
  O  O0  1  0.92039966  0.12408546  0.87652358  1
  O  O1  1  0.57960034  0.12408546  0.12347642  1
  O  O2  1  0.07960034  0.87591454  0.12347642  1
  O  O3  1  0.42039966  0.87591454  0.87652358  1
  O  O4  1  0.55012013  0.09147912  0.67196107  1
  O  O5  1  0.94987987  0.09147912  0.32803893  1
  O  O6  1  0.44987987  0.90852088  0.32803893  1
  O  O7  1  0.05012013  0.90852088  0.67196107  1
  O  O8  1  0.40888485  0.37891573  0.89314519  1
  O  O9  1  0.09111515  0.37891573  0.10685481  1
  O  O10  1  0.59111515  0.62108427  0.10685481  1
  O  O11  1  0.90888485  0.62108427  0.89314519  1
  O  O12  1  0.61955771  0.62393457  0.64691962  1
  O  O13  1  0.88044229  0.62393457  0.35308038  1
  O  O14  1  0.38044229  0.37606543  0.35308038  1
  O  O15  1  0.11955771  0.37606543  0.64691962  1
  Na  Na16  1  0.25000000  0.68682899  0.50000000  1
  Na  Na17  1  0.75000000  0.31317101  0.50000000  1
  Cr  Cr18  1  0.25000000  0.64782944  0.00000000  1
  Cr  Cr19  1  0.75000000  0.35217056  0.00000000  1
  W  W20  1  0.23675988  0.17466696  0.76615235  1
  W  W21  1  0.26324012  0.17466696  0.23384765  1
  W  W22  1  0.76324012  0.82533304  0.23384765  1
  W  W23  1  0.73675988  0.82533304  0.76615235  1
