# generated using pymatgen
data_GaH5(NF)2
_symmetry_space_group_name_H-M   'P 1'
_cell_length_a   5.85925469
_cell_length_b   6.33215709
_cell_length_c   5.01144580
_cell_angle_alpha   91.42787286
_cell_angle_beta   90.00000000
_cell_angle_gamma   62.44120537
_symmetry_Int_Tables_number   1
_chemical_formula_structural   GaH5(NF)2
_chemical_formula_sum   'Ga2 H10 N4 F4'
_cell_volume   164.77150596
_cell_formula_units_Z   2
loop_
 _symmetry_equiv_pos_site_id
 _symmetry_equiv_pos_as_xyz
  1  'x, y, z'
loop_
 _atom_site_type_symbol
 _atom_site_label
 _atom_site_symmetry_multiplicity
 _atom_site_fract_x
 _atom_site_fract_y
 _atom_site_fract_z
 _atom_site_occupancy
  Ga  Ga0  1  0.50000000  0.00000000  0.50000000  1
  Ga  Ga1  1  0.00000000  0.00000000  0.00000000  1
  H  H2  1  0.11181267  0.77637466  0.42612793  1
  H  H3  1  0.04292509  0.61692056  0.21157564  1
  H  H4  1  0.34015435  0.61692056  0.21157564  1
  H  H5  1  0.64877785  0.70244530  0.11107427  1
  H  H6  1  0.72364884  0.55270231  0.40196854  1
  H  H7  1  0.27635116  0.44729769  0.59803146  1
  H  H8  1  0.35122215  0.29755470  0.88892573  1
  H  H9  1  0.65984565  0.38307944  0.78842436  1
  H  H10  1  0.95707491  0.38307944  0.78842436  1
  H  H11  1  0.88818733  0.22362534  0.57387207  1
  N  N12  1  0.64402904  0.71194292  0.31217743  1
  N  N13  1  0.14319721  0.71360458  0.23231624  1
  N  N14  1  0.85680279  0.28639542  0.76768376  1
  N  N15  1  0.35597096  0.28805708  0.68782257  1
  F  F16  1  0.31041592  0.85763691  0.76414680  1
  F  F17  1  0.83194718  0.85763691  0.76414680  1
  F  F18  1  0.16805282  0.14236309  0.23585320  1
  F  F19  1  0.68958408  0.14236309  0.23585320  1
