# generated using pymatgen
data_Ba5Dy8Zn4O21
_symmetry_space_group_name_H-M   'P 1'
_cell_length_a   5.75813139
_cell_length_b   10.24409116
_cell_length_c   10.24409115
_cell_angle_alpha   85.46965219
_cell_angle_beta   73.67732856
_cell_angle_gamma   73.67732854
_symmetry_Int_Tables_number   1
_chemical_formula_structural   Ba5Dy8Zn4O21
_chemical_formula_sum   'Ba5 Dy8 Zn4 O21'
_cell_volume   556.53712808
_cell_formula_units_Z   1
loop_
 _symmetry_equiv_pos_site_id
 _symmetry_equiv_pos_as_xyz
  1  'x, y, z'
loop_
 _atom_site_type_symbol
 _atom_site_label
 _atom_site_symmetry_multiplicity
 _atom_site_fract_x
 _atom_site_fract_y
 _atom_site_fract_z
 _atom_site_occupancy
  O  O0  1  0.09959198  0.89087307  0.40570061  1
  O  O1  1  0.50529259  0.59429939  0.89087307  1
  O  O2  1  0.99046505  0.40570061  0.10912693  1
  O  O3  1  0.39616566  0.10912693  0.59429939  1
  O  O4  1  0.90040802  0.10912693  0.59429939  1
  O  O5  1  0.49470741  0.40570061  0.10912693  1
  O  O6  1  0.00953495  0.59429939  0.89087307  1
  O  O7  1  0.60383434  0.89087307  0.40570061  1
  O  O8  1  0.92782260  0.86996716  0.77435612  1
  O  O9  1  0.70217872  0.22564388  0.86996716  1
  O  O10  1  0.79778976  0.77435612  0.13003284  1
  O  O11  1  0.57214588  0.13003284  0.22564388  1
  O  O12  1  0.07217740  0.13003284  0.22564388  1
  O  O13  1  0.29782128  0.77435612  0.13003284  1
  O  O14  1  0.20221024  0.22564388  0.86996716  1
  O  O15  1  0.42785412  0.86996716  0.77435612  1
  O  O16  1  0.37197798  0.66529348  0.59075056  1
  O  O17  1  0.50000000  0.00000000  0.00000000  1
  O  O18  1  0.62802202  0.33470652  0.40924944  1
  O  O19  1  0.03727146  0.59075056  0.33470652  1
  O  O20  1  0.96272854  0.40924944  0.66529348  1
  Zn  Zn21  1  0.95938541  0.78979502  0.29143416  1
  Zn  Zn22  1  0.25081957  0.70856584  0.78979502  1
  Zn  Zn23  1  0.74918043  0.29143416  0.21020498  1
  Zn  Zn24  1  0.04061459  0.21020498  0.70856584  1
  Ba  Ba25  1  0.46512652  0.39563187  0.67411509  1
  Ba  Ba26  1  0.13924161  0.32588491  0.39563187  1
  Ba  Ba27  1  0.86075839  0.67411509  0.60436813  1
  Ba  Ba28  1  0.53487348  0.60436813  0.32588491  1
  Ba  Ba29  1  0.00000000  0.00000000  0.00000000  1
  Dy  Dy30  1  0.58866727  0.05350253  0.76916294  1
  Dy  Dy31  1  0.35783021  0.23083706  0.05350253  1
  Dy  Dy32  1  0.64216979  0.76916294  0.94649747  1
  Dy  Dy33  1  0.41133273  0.94649747  0.23083706  1
  Dy  Dy34  1  0.75269732  0.07944967  0.41515570  1
  Dy  Dy35  1  0.16785301  0.58484430  0.07944967  1
  Dy  Dy36  1  0.83214699  0.41515570  0.92055033  1
  Dy  Dy37  1  0.24730268  0.92055033  0.58484430  1
