# generated using pymatgen
data_K2CeNb5O15
_symmetry_space_group_name_H-M   'P 1'
_cell_length_a   3.97062801
_cell_length_b   12.78501117
_cell_length_c   12.78501117
_cell_angle_alpha   90.00000000
_cell_angle_beta   90.00000000
_cell_angle_gamma   90.00000000
_symmetry_Int_Tables_number   1
_chemical_formula_structural   K2CeNb5O15
_chemical_formula_sum   'K4 Ce2 Nb10 O30'
_cell_volume   649.02499947
_cell_formula_units_Z   2
loop_
 _symmetry_equiv_pos_site_id
 _symmetry_equiv_pos_as_xyz
  1  'x, y, z'
loop_
 _atom_site_type_symbol
 _atom_site_label
 _atom_site_symmetry_multiplicity
 _atom_site_fract_x
 _atom_site_fract_y
 _atom_site_fract_z
 _atom_site_occupancy
  K  K0  1  0.00000000  0.82945399  0.32945399  1
  K  K1  1  0.00000000  0.17054601  0.67054601  1
  K  K2  1  0.00000000  0.32945399  0.17054601  1
  K  K3  1  0.00000000  0.67054601  0.82945399  1
  Ce  Ce4  1  0.00000000  0.00000000  0.00000000  1
  Ce  Ce5  1  0.00000000  0.50000000  0.50000000  1
  Nb  Nb6  1  0.50000000  0.78646736  0.07607708  1
  Nb  Nb7  1  0.50000000  0.57607708  0.28646736  1
  Nb  Nb8  1  0.50000000  0.92392292  0.78646736  1
  Nb  Nb9  1  0.50000000  0.42392292  0.71353264  1
  Nb  Nb10  1  0.50000000  0.71353264  0.57607708  1
  Nb  Nb11  1  0.50000000  0.21353264  0.92392292  1
  Nb  Nb12  1  0.50000000  0.50000000  0.00000000  1
  Nb  Nb13  1  0.50000000  0.28646736  0.42392292  1
  Nb  Nb14  1  0.50000000  0.07607708  0.21353264  1
  Nb  Nb15  1  0.50000000  0.00000000  0.50000000  1
  O  O16  1  0.50000000  0.93987706  0.13074796  1
  O  O17  1  0.00000000  0.69013768  0.57622844  1
  O  O18  1  0.50000000  0.34220933  0.00181685  1
  O  O19  1  0.50000000  0.06012294  0.86925204  1
  O  O20  1  0.50000000  0.13074796  0.06012294  1
  O  O21  1  0.50000000  0.84220933  0.49818315  1
  O  O22  1  0.50000000  0.15779067  0.50181685  1
  O  O23  1  0.00000000  0.07622844  0.19013768  1
  O  O24  1  0.50000000  0.56012294  0.63074796  1
  O  O25  1  0.00000000  0.92377156  0.80986232  1
  O  O26  1  0.50000000  0.00181685  0.65779067  1
  O  O27  1  0.50000000  0.43987706  0.36925204  1
  O  O28  1  0.00000000  0.80986232  0.07622844  1
  O  O29  1  0.50000000  0.63074796  0.43987706  1
  O  O30  1  0.00000000  0.57622844  0.30986232  1
  O  O31  1  0.50000000  0.65779067  0.99818315  1
  O  O32  1  0.50000000  0.86925204  0.93987706  1
  O  O33  1  0.50000000  0.49818315  0.15779067  1
  O  O34  1  0.50000000  0.71573700  0.21573700  1
  O  O35  1  0.00000000  0.50000000  0.00000000  1
  O  O36  1  0.00000000  0.42377156  0.69013768  1
  O  O37  1  0.00000000  0.30986232  0.42377156  1
  O  O38  1  0.50000000  0.50181685  0.84220933  1
  O  O39  1  0.50000000  0.36925204  0.56012294  1
  O  O40  1  0.50000000  0.78426300  0.71573700  1
  O  O41  1  0.00000000  0.00000000  0.50000000  1
  O  O42  1  0.50000000  0.28426300  0.78426300  1
  O  O43  1  0.50000000  0.99818315  0.34220933  1
  O  O44  1  0.50000000  0.21573700  0.28426300  1
  O  O45  1  0.00000000  0.19013768  0.92377156  1
