# generated using pymatgen
data_Mn3Al2(SiO4)3
_symmetry_space_group_name_H-M   'P 1'
_cell_length_a   10.17292439
_cell_length_b   10.17292439
_cell_length_c   10.17292439
_cell_angle_alpha   109.47122065
_cell_angle_beta   109.47122066
_cell_angle_gamma   109.47122063
_symmetry_Int_Tables_number   1
_chemical_formula_structural   Mn3Al2(SiO4)3
_chemical_formula_sum   'Mn12 Al8 Si12 O48'
_cell_volume   810.43009277
_cell_formula_units_Z   4
loop_
 _symmetry_equiv_pos_site_id
 _symmetry_equiv_pos_as_xyz
  1  'x, y, z'
loop_
 _atom_site_type_symbol
 _atom_site_label
 _atom_site_symmetry_multiplicity
 _atom_site_fract_x
 _atom_site_fract_y
 _atom_site_fract_z
 _atom_site_occupancy
  O  O0  1  0.30056915  0.48769473  0.38272903  1
  O  O1  1  0.01230527  0.31287442  0.89503430  1
  O  O2  1  0.11727097  0.60496570  0.91784012  1
  O  O3  1  0.19943085  0.58215988  0.18712558  1
  O  O4  1  0.19943085  0.11727097  0.01230527  1
  O  O5  1  0.58215988  0.18712558  0.19943085  1
  O  O6  1  0.60496570  0.18712558  0.48769473  1
  O  O7  1  0.18712558  0.19943085  0.58215988  1
  O  O8  1  0.89503430  0.38272903  0.58215988  1
  O  O9  1  0.31287442  0.91784012  0.30056915  1
  O  O10  1  0.91784012  0.30056915  0.31287442  1
  O  O11  1  0.01230527  0.19943085  0.11727097  1
  O  O12  1  0.18712558  0.48769473  0.60496570  1
  O  O13  1  0.58215988  0.89503430  0.38272903  1
  O  O14  1  0.11727097  0.01230527  0.19943085  1
  O  O15  1  0.48769473  0.60496570  0.18712558  1
  O  O16  1  0.38272903  0.58215988  0.89503430  1
  O  O17  1  0.89503430  0.01230527  0.31287442  1
  O  O18  1  0.60496570  0.91784012  0.11727097  1
  O  O19  1  0.10496570  0.61727097  0.41784012  1
  O  O20  1  0.91784012  0.11727097  0.60496570  1
  O  O21  1  0.38272903  0.30056915  0.48769473  1
  O  O22  1  0.31287442  0.89503430  0.01230527  1
  O  O23  1  0.30056915  0.31287442  0.91784012  1
  O  O24  1  0.69943085  0.51230527  0.61727097  1
  O  O25  1  0.98769473  0.68712558  0.10496570  1
  O  O26  1  0.88272903  0.39503430  0.08215988  1
  O  O27  1  0.80056915  0.41784012  0.81287442  1
  O  O28  1  0.80056915  0.88272903  0.98769473  1
  O  O29  1  0.41784012  0.81287442  0.80056915  1
  O  O30  1  0.39503430  0.81287442  0.51230527  1
  O  O31  1  0.81287442  0.80056915  0.41784012  1
  O  O32  1  0.69943085  0.68712558  0.08215988  1
  O  O33  1  0.68712558  0.10496570  0.98769473  1
  O  O34  1  0.61727097  0.69943085  0.51230527  1
  O  O35  1  0.51230527  0.61727097  0.69943085  1
  O  O36  1  0.08215988  0.88272903  0.39503430  1
  O  O37  1  0.39503430  0.08215988  0.88272903  1
  O  O38  1  0.10496570  0.98769473  0.68712558  1
  O  O39  1  0.61727097  0.41784012  0.10496570  1
  O  O40  1  0.51230527  0.39503430  0.81287442  1
  O  O41  1  0.88272903  0.98769473  0.80056915  1
  O  O42  1  0.41784012  0.10496570  0.61727097  1
  O  O43  1  0.81287442  0.51230527  0.39503430  1
  O  O44  1  0.98769473  0.80056915  0.88272903  1
  O  O45  1  0.08215988  0.69943085  0.68712558  1
  O  O46  1  0.68712558  0.08215988  0.69943085  1
  O  O47  1  0.48769473  0.38272903  0.30056915  1
  Al  Al48  1  0.00000000  0.00000000  0.00000000  1
  Al  Al49  1  0.50000000  0.00000000  0.50000000  1
  Al  Al50  1  0.50000000  0.50000000  0.50000000  1
  Al  Al51  1  0.00000000  0.50000000  0.50000000  1
  Al  Al52  1  0.50000000  0.00000000  0.00000000  1
  Al  Al53  1  0.00000000  0.00000000  0.50000000  1
  Al  Al54  1  0.00000000  0.50000000  0.00000000  1
  Al  Al55  1  0.50000000  0.50000000  0.00000000  1
  Si  Si56  1  0.12500000  0.87500000  0.25000000  1
  Si  Si57  1  0.37500000  0.62500000  0.75000000  1
  Si  Si58  1  0.62500000  0.75000000  0.37500000  1
  Si  Si59  1  0.25000000  0.62500000  0.37500000  1
  Si  Si60  1  0.75000000  0.37500000  0.62500000  1
  Si  Si61  1  0.87500000  0.12500000  0.75000000  1
  Si  Si62  1  0.12500000  0.75000000  0.87500000  1
  Si  Si63  1  0.62500000  0.37500000  0.25000000  1
  Si  Si64  1  0.37500000  0.25000000  0.62500000  1
  Si  Si65  1  0.75000000  0.87500000  0.12500000  1
  Si  Si66  1  0.87500000  0.25000000  0.12500000  1
  Si  Si67  1  0.25000000  0.12500000  0.87500000  1
  Mn  Mn68  1  0.37500000  0.12500000  0.25000000  1
  Mn  Mn69  1  0.12500000  0.25000000  0.37500000  1
  Mn  Mn70  1  0.37500000  0.75000000  0.12500000  1
  Mn  Mn71  1  0.25000000  0.37500000  0.12500000  1
  Mn  Mn72  1  0.12500000  0.37500000  0.75000000  1
  Mn  Mn73  1  0.75000000  0.12500000  0.37500000  1
  Mn  Mn74  1  0.75000000  0.62500000  0.87500000  1
  Mn  Mn75  1  0.87500000  0.75000000  0.62500000  1
  Mn  Mn76  1  0.62500000  0.87500000  0.75000000  1
  Mn  Mn77  1  0.87500000  0.62500000  0.25000000  1
  Mn  Mn78  1  0.25000000  0.87500000  0.62500000  1
  Mn  Mn79  1  0.62500000  0.25000000  0.87500000  1
