# generated using pymatgen
data_La2InCuSe5
_symmetry_space_group_name_H-M   'P 1'
_cell_length_a   4.13940865
_cell_length_b   12.25927266
_cell_length_c   17.59535398
_cell_angle_alpha   90.00000000
_cell_angle_beta   90.00000000
_cell_angle_gamma   90.00000000
_symmetry_Int_Tables_number   1
_chemical_formula_structural   La2InCuSe5
_chemical_formula_sum   'La8 In4 Cu4 Se20'
_cell_volume   892.89628395
_cell_formula_units_Z   4
loop_
 _symmetry_equiv_pos_site_id
 _symmetry_equiv_pos_as_xyz
  1  'x, y, z'
loop_
 _atom_site_type_symbol
 _atom_site_label
 _atom_site_symmetry_multiplicity
 _atom_site_fract_x
 _atom_site_fract_y
 _atom_site_fract_z
 _atom_site_occupancy
  Cu  Cu0  1  0.75000000  0.42404950  0.49790700  1
  Cu  Cu1  1  0.25000000  0.07595050  0.99790700  1
  Cu  Cu2  1  0.75000000  0.92404950  0.00209300  1
  Cu  Cu3  1  0.25000000  0.57595050  0.50209300  1
  Se  Se4  1  0.25000000  0.98390466  0.30531546  1
  Se  Se5  1  0.75000000  0.01609534  0.69468454  1
  Se  Se6  1  0.25000000  0.48390466  0.19468454  1
  Se  Se7  1  0.75000000  0.51609534  0.80531546  1
  Se  Se8  1  0.25000000  0.89254414  0.53667256  1
  Se  Se9  1  0.75000000  0.10745586  0.46332744  1
  Se  Se10  1  0.25000000  0.39254414  0.96332744  1
  Se  Se11  1  0.75000000  0.60745586  0.03667256  1
  Se  Se12  1  0.25000000  0.68188873  0.38607099  1
  Se  Se13  1  0.75000000  0.81811127  0.88607099  1
  Se  Se14  1  0.25000000  0.18188873  0.11392901  1
  Se  Se15  1  0.75000000  0.31811127  0.61392901  1
  Se  Se16  1  0.75000000  0.60105873  0.57669962  1
  Se  Se17  1  0.25000000  0.39894127  0.42330038  1
  Se  Se18  1  0.75000000  0.10105873  0.92330038  1
  Se  Se19  1  0.25000000  0.89894127  0.07669962  1
  Se  Se20  1  0.75000000  0.76001731  0.22893523  1
  Se  Se21  1  0.25000000  0.23998269  0.77106477  1
  Se  Se22  1  0.75000000  0.26001731  0.27106477  1
  Se  Se23  1  0.25000000  0.73998269  0.72893523  1
  In  In24  1  0.25000000  0.69107400  0.13893555  1
  In  In25  1  0.75000000  0.30892600  0.86106445  1
  In  In26  1  0.25000000  0.19107400  0.36106445  1
  In  In27  1  0.75000000  0.80892600  0.63893555  1
  La  La28  1  0.25000000  0.63726368  0.90668179  1
  La  La29  1  0.75000000  0.36273632  0.09331821  1
  La  La30  1  0.25000000  0.13726368  0.59331821  1
  La  La31  1  0.75000000  0.86273632  0.40668179  1
  La  La32  1  0.25000000  0.97793277  0.82178411  1
  La  La33  1  0.75000000  0.02206723  0.17821589  1
  La  La34  1  0.25000000  0.47793277  0.67821589  1
  La  La35  1  0.75000000  0.52206723  0.32178411  1
