# generated using pymatgen
data_Sc2Cu2Ge4O13
_symmetry_space_group_name_H-M   'P 1'
_cell_length_a   4.98141913
_cell_length_b   8.87220479
_cell_length_c   12.43956725
_cell_angle_alpha   90.00000000
_cell_angle_beta   96.06367821
_cell_angle_gamma   90.00000000
_symmetry_Int_Tables_number   1
_chemical_formula_structural   Sc2Cu2Ge4O13
_chemical_formula_sum   'Sc4 Cu4 Ge8 O26'
_cell_volume   546.70527092
_cell_formula_units_Z   2
loop_
 _symmetry_equiv_pos_site_id
 _symmetry_equiv_pos_as_xyz
  1  'x, y, z'
loop_
 _atom_site_type_symbol
 _atom_site_label
 _atom_site_symmetry_multiplicity
 _atom_site_fract_x
 _atom_site_fract_y
 _atom_site_fract_z
 _atom_site_occupancy
  O  O0  1  0.80260281  0.58300334  0.00439919  1
  O  O1  1  0.19739719  0.08300334  0.99560081  1
  O  O2  1  0.19739719  0.41699666  0.99560081  1
  O  O3  1  0.80260281  0.91699666  0.00439919  1
  O  O4  1  0.29011132  0.25000000  0.43280551  1
  O  O5  1  0.70988868  0.75000000  0.56719449  1
  O  O6  1  0.87562326  0.58464708  0.25243325  1
  O  O7  1  0.12437674  0.08464708  0.74756675  1
  O  O8  1  0.12437674  0.41535292  0.74756675  1
  O  O9  1  0.87562326  0.91535292  0.25243325  1
  O  O10  1  0.20723192  0.58295157  0.49480221  1
  O  O11  1  0.79276808  0.08295157  0.50519779  1
  O  O12  1  0.79276808  0.41704843  0.50519779  1
  O  O13  1  0.20723192  0.91704843  0.49480221  1
  O  O14  1  0.55338755  0.25000000  0.87272983  1
  O  O15  1  0.44661245  0.75000000  0.12727017  1
  O  O16  1  0.21124304  0.75000000  0.67646540  1
  O  O17  1  0.78875696  0.25000000  0.32353460  1
  O  O18  1  0.45233823  0.75000000  0.34699919  1
  O  O19  1  0.54766177  0.25000000  0.65300081  1
  O  O20  1  0.36527715  0.75000000  0.89344119  1
  O  O21  1  0.63472285  0.25000000  0.10655881  1
  O  O22  1  0.71381520  0.91265634  0.75840627  1
  O  O23  1  0.28618480  0.41265634  0.24159373  1
  O  O24  1  0.28618480  0.08734366  0.24159373  1
  O  O25  1  0.71381520  0.58734366  0.75840627  1
  Sc  Sc26  1  0.95387138  0.93821760  0.62719109  1
  Sc  Sc27  1  0.04612862  0.43821760  0.37280891  1
  Sc  Sc28  1  0.04612862  0.06178240  0.37280891  1
  Sc  Sc29  1  0.95387138  0.56178240  0.62719109  1
  Cu  Cu30  1  0.95280032  0.00229092  0.87711635  1
  Cu  Cu31  1  0.04719968  0.50229092  0.12288365  1
  Cu  Cu32  1  0.04719968  0.99770908  0.12288365  1
  Cu  Cu33  1  0.95280032  0.49770908  0.87711635  1
  Ge  Ge34  1  0.60200165  0.25000000  0.51483792  1
  Ge  Ge35  1  0.39799835  0.75000000  0.48516208  1
  Ge  Ge36  1  0.39025687  0.25000000  0.99273499  1
  Ge  Ge37  1  0.60974313  0.75000000  0.00726501  1
  Ge  Ge38  1  0.32480599  0.25000000  0.75112297  1
  Ge  Ge39  1  0.67519401  0.75000000  0.24887703  1
  Ge  Ge40  1  0.49084051  0.25000000  0.23298052  1
  Ge  Ge41  1  0.50915949  0.75000000  0.76701948  1
