# generated using pymatgen
data_U2Cr30P19
_symmetry_space_group_name_H-M   'P 1'
_cell_length_a   14.56591528
_cell_length_b   14.56591528
_cell_length_c   3.44059250
_cell_angle_alpha   90.00000000
_cell_angle_beta   90.00000000
_cell_angle_gamma   120.00000000
_symmetry_Int_Tables_number   1
_chemical_formula_structural   U2Cr30P19
_chemical_formula_sum   'U2 Cr30 P19'
_cell_volume   632.17807427
_cell_formula_units_Z   1
loop_
 _symmetry_equiv_pos_site_id
 _symmetry_equiv_pos_as_xyz
  1  'x, y, z'
loop_
 _atom_site_type_symbol
 _atom_site_label
 _atom_site_symmetry_multiplicity
 _atom_site_fract_x
 _atom_site_fract_y
 _atom_site_fract_z
 _atom_site_occupancy
  P  P0  1  0.00000000  0.00000000  0.00000000  1
  P  P1  1  0.27123514  0.08987081  0.50000000  1
  P  P2  1  0.73208883  0.90709042  0.00000000  1
  P  P3  1  0.09290958  0.82499842  0.00000000  1
  P  P4  1  0.17500158  0.26791117  0.00000000  1
  P  P5  1  0.50390255  0.18858370  0.50000000  1
  P  P6  1  0.81141630  0.31531885  0.50000000  1
  P  P7  1  0.68468115  0.49609745  0.50000000  1
  P  P8  1  0.49581297  0.81218999  0.00000000  1
  P  P9  1  0.18781001  0.68362298  0.00000000  1
  P  P10  1  0.31637702  0.50418703  0.00000000  1
  P  P11  1  0.36173567  0.95073076  0.50000000  1
  P  P12  1  0.04926924  0.41100491  0.50000000  1
  P  P13  1  0.58899509  0.63826433  0.50000000  1
  P  P14  1  0.63374124  0.04691446  0.00000000  1
  P  P15  1  0.95308554  0.58682678  0.00000000  1
  P  P16  1  0.41317322  0.36625876  0.00000000  1
  P  P17  1  0.91012919  0.18136433  0.50000000  1
  P  P18  1  0.81863567  0.72876486  0.50000000  1
  Cr  Cr19  1  0.48979816  0.64806789  0.00000000  1
  Cr  Cr20  1  0.39153172  0.19043373  0.00000000  1
  Cr  Cr21  1  0.79890200  0.60846828  0.00000000  1
  Cr  Cr22  1  0.80956627  0.20109800  0.00000000  1
  Cr  Cr23  1  0.60935990  0.81319355  0.50000000  1
  Cr  Cr24  1  0.15826973  0.51020184  0.00000000  1
  Cr  Cr25  1  0.18680645  0.79616635  0.50000000  1
  Cr  Cr26  1  0.18073500  0.11049075  0.00000000  1
  Cr  Cr27  1  0.92975575  0.81926500  0.00000000  1
  Cr  Cr28  1  0.88950925  0.07024425  0.00000000  1
  Cr  Cr29  1  0.85736049  0.91487616  0.50000000  1
  Cr  Cr30  1  0.05751568  0.14263951  0.50000000  1
  Cr  Cr31  1  0.08512384  0.94248432  0.50000000  1
  Cr  Cr32  1  0.84267724  0.48929820  0.50000000  1
  Cr  Cr33  1  0.51070180  0.35337904  0.50000000  1
  Cr  Cr34  1  0.64662096  0.15732276  0.50000000  1
  Cr  Cr35  1  0.06424988  0.58447443  0.50000000  1
  Cr  Cr36  1  0.41552557  0.47977545  0.50000000  1
  Cr  Cr37  1  0.52022455  0.93575012  0.50000000  1
  Cr  Cr38  1  0.93563583  0.41231435  0.00000000  1
  Cr  Cr39  1  0.58768565  0.52332149  0.00000000  1
  Cr  Cr40  1  0.47667851  0.06436417  0.00000000  1
  Cr  Cr41  1  0.02359098  0.28596242  0.00000000  1
  Cr  Cr42  1  0.71403758  0.73762855  0.00000000  1
  Cr  Cr43  1  0.26237145  0.97640902  0.00000000  1
  Cr  Cr44  1  0.97812476  0.71165701  0.50000000  1
  Cr  Cr45  1  0.28834299  0.26646774  0.50000000  1
  Cr  Cr46  1  0.73353226  0.02187524  0.50000000  1
  Cr  Cr47  1  0.20383365  0.39064010  0.50000000  1
  Cr  Cr48  1  0.35193211  0.84173027  0.00000000  1
  U  U49  1  0.33333333  0.66666667  0.50000000  1
  U  U50  1  0.66666667  0.33333333  0.00000000  1
