# generated using pymatgen
data_Cu5Se2(ClO4)2
_symmetry_space_group_name_H-M   'P 1'
_cell_length_a   5.68093300
_cell_length_b   6.16116732
_cell_length_c   13.91040175
_cell_angle_alpha   90.00000000
_cell_angle_beta   90.00000000
_cell_angle_gamma   95.10878879
_symmetry_Int_Tables_number   1
_chemical_formula_structural   Cu5Se2(ClO4)2
_chemical_formula_sum   'Cu10 Se4 Cl4 O16'
_cell_volume   484.94628579
_cell_formula_units_Z   2
loop_
 _symmetry_equiv_pos_site_id
 _symmetry_equiv_pos_as_xyz
  1  'x, y, z'
loop_
 _atom_site_type_symbol
 _atom_site_label
 _atom_site_symmetry_multiplicity
 _atom_site_fract_x
 _atom_site_fract_y
 _atom_site_fract_z
 _atom_site_occupancy
  O  O0  1  0.31326081  0.24942510  0.27789735  1
  O  O1  1  0.07316205  0.23068040  0.05648927  1
  O  O2  1  0.42683795  0.76931960  0.55648927  1
  O  O3  1  0.18673919  0.75057490  0.77789735  1
  O  O4  1  0.18180238  0.50494092  0.44122873  1
  O  O5  1  0.31819762  0.49505908  0.94122873  1
  O  O6  1  0.81819762  0.49505908  0.55877127  1
  O  O7  1  0.68180238  0.50494092  0.05877127  1
  O  O8  1  0.13168491  0.02558103  0.42719560  1
  O  O9  1  0.36831509  0.97441897  0.92719560  1
  O  O10  1  0.86831509  0.97441897  0.57280440  1
  O  O11  1  0.63168491  0.02558103  0.07280440  1
  O  O12  1  0.57316205  0.23068040  0.44351073  1
  O  O13  1  0.92683795  0.76931960  0.94351073  1
  O  O14  1  0.81326081  0.24942510  0.22210265  1
  O  O15  1  0.68673919  0.75057490  0.72210265  1
  Cl  Cl16  1  0.27157422  0.67023394  0.17604200  1
  Cl  Cl17  1  0.77157422  0.67023394  0.32395800  1
  Cl  Cl18  1  0.72842578  0.32976606  0.82395800  1
  Cl  Cl19  1  0.22842578  0.32976606  0.67604200  1
  Cu  Cu20  1  0.55308989  0.43362099  0.18804782  1
  Cu  Cu21  1  0.94691011  0.56637901  0.68804782  1
  Cu  Cu22  1  0.44691011  0.56637901  0.81195218  1
  Cu  Cu23  1  0.05308989  0.43362099  0.31195218  1
  Cu  Cu24  1  0.99066233  0.25853196  0.50345169  1
  Cu  Cu25  1  0.50933767  0.74146804  0.00345169  1
  Cu  Cu26  1  0.00933767  0.74146804  0.49654831  1
  Cu  Cu27  1  0.49066233  0.25853196  0.99654831  1
  Cu  Cu28  1  0.50000000  0.50000000  0.50000000  1
  Cu  Cu29  1  0.00000000  0.50000000  0.00000000  1
  Se  Se30  1  0.90033220  0.06655991  0.13451107  1
  Se  Se31  1  0.59966780  0.93344009  0.63451107  1
  Se  Se32  1  0.09966780  0.93344009  0.86548893  1
  Se  Se33  1  0.40033220  0.06655991  0.36548893  1
