# generated using pymatgen
data_BaZnCl4
_symmetry_space_group_name_H-M   'P 1'
_cell_length_a   6.59373725
_cell_length_b   6.94236724
_cell_length_c   15.59730485
_cell_angle_alpha   90.00000000
_cell_angle_beta   90.00000000
_cell_angle_gamma   90.00000000
_symmetry_Int_Tables_number   1
_chemical_formula_structural   BaZnCl4
_chemical_formula_sum   'Ba4 Zn4 Cl16'
_cell_volume   713.98449581
_cell_formula_units_Z   4
loop_
 _symmetry_equiv_pos_site_id
 _symmetry_equiv_pos_as_xyz
  1  'x, y, z'
loop_
 _atom_site_type_symbol
 _atom_site_label
 _atom_site_symmetry_multiplicity
 _atom_site_fract_x
 _atom_site_fract_y
 _atom_site_fract_z
 _atom_site_occupancy
  Cl  Cl0  1  0.85380886  0.47364406  0.29987219  1
  Cl  Cl1  1  0.35380886  0.52635594  0.20012781  1
  Cl  Cl2  1  0.64619114  0.97364406  0.20012781  1
  Cl  Cl3  1  0.14619114  0.02635594  0.29987219  1
  Cl  Cl4  1  0.14619114  0.52635594  0.70012781  1
  Cl  Cl5  1  0.64619114  0.47364406  0.79987219  1
  Cl  Cl6  1  0.35380886  0.02635594  0.79987219  1
  Cl  Cl7  1  0.85380886  0.97364406  0.70012781  1
  Cl  Cl8  1  0.75413237  0.59293108  0.03761140  1
  Cl  Cl9  1  0.25413237  0.40706892  0.46238860  1
  Cl  Cl10  1  0.74586763  0.09293108  0.46238860  1
  Cl  Cl11  1  0.24586763  0.90706892  0.03761140  1
  Cl  Cl12  1  0.24586763  0.40706892  0.96238860  1
  Cl  Cl13  1  0.74586763  0.59293108  0.53761140  1
  Cl  Cl14  1  0.25413237  0.90706892  0.53761140  1
  Cl  Cl15  1  0.75413237  0.09293108  0.96238860  1
  Zn  Zn16  1  0.00000000  0.75000000  0.60943454  1
  Zn  Zn17  1  0.50000000  0.25000000  0.89056546  1
  Zn  Zn18  1  0.00000000  0.25000000  0.39056546  1
  Zn  Zn19  1  0.50000000  0.75000000  0.10943454  1
  Ba  Ba20  1  0.50000000  0.75000000  0.37092071  1
  Ba  Ba21  1  0.00000000  0.25000000  0.12907929  1
  Ba  Ba22  1  0.50000000  0.25000000  0.62907929  1
  Ba  Ba23  1  0.00000000  0.75000000  0.87092071  1
