# generated using pymatgen
data_Cu3H2(CO4)2
_symmetry_space_group_name_H-M   'P 1'
_cell_length_a   5.07003691
_cell_length_b   6.03063467
_cell_length_c   10.50006809
_cell_angle_alpha   90.00000000
_cell_angle_beta   92.74310304
_cell_angle_gamma   90.00000000
_symmetry_Int_Tables_number   1
_chemical_formula_structural   Cu3H2(CO4)2
_chemical_formula_sum   'Cu6 H4 C4 O16'
_cell_volume   320.67738760
_cell_formula_units_Z   2
loop_
 _symmetry_equiv_pos_site_id
 _symmetry_equiv_pos_as_xyz
  1  'x, y, z'
loop_
 _atom_site_type_symbol
 _atom_site_label
 _atom_site_symmetry_multiplicity
 _atom_site_fract_x
 _atom_site_fract_y
 _atom_site_fract_z
 _atom_site_occupancy
  H  H0  1  0.17929144  0.70052610  0.87511357  1
  H  H1  1  0.82070856  0.20052610  0.62488643  1
  H  H2  1  0.82070856  0.29947390  0.12488643  1
  H  H3  1  0.17929144  0.79947390  0.37511357  1
  C  C4  1  0.33338486  0.19384100  0.81909773  1
  C  C5  1  0.66661514  0.69384100  0.68090227  1
  C  C6  1  0.33338486  0.30615900  0.31909773  1
  C  C7  1  0.66661514  0.80615900  0.18090227  1
  O  O8  1  0.56863306  0.69735927  0.79194218  1
  O  O9  1  0.43136694  0.19735927  0.70805782  1
  O  O10  1  0.06876621  0.80853998  0.44979167  1
  O  O11  1  0.93123379  0.30853998  0.05020833  1
  O  O12  1  0.93123379  0.19146002  0.55020833  1
  O  O13  1  0.06876621  0.69146002  0.94979167  1
  O  O14  1  0.11426994  0.41350412  0.33350526  1
  O  O15  1  0.88573006  0.91350412  0.16649474  1
  O  O16  1  0.88573006  0.58649588  0.66649474  1
  O  O17  1  0.11426994  0.08649588  0.83350526  1
  O  O18  1  0.44880578  0.20559880  0.41547445  1
  O  O19  1  0.55119422  0.70559880  0.08452555  1
  O  O20  1  0.55119422  0.79440120  0.58452555  1
  O  O21  1  0.44880578  0.29440120  0.91547445  1
  O  O22  1  0.43136694  0.30264073  0.20805782  1
  O  O23  1  0.56863306  0.80264073  0.29194218  1
  Cu  Cu24  1  0.74909054  0.50048220  0.91621403  1
  Cu  Cu25  1  0.25090946  0.00048220  0.58378597  1
  Cu  Cu26  1  0.25090946  0.49951780  0.08378597  1
  Cu  Cu27  1  0.74909054  0.99951780  0.41621403  1
  Cu  Cu28  1  0.00000000  0.50000000  0.50000000  1
  Cu  Cu29  1  0.00000000  0.00000000  0.00000000  1
