# generated using pymatgen
data_Eu2SiS4
_symmetry_space_group_name_H-M   'P 1'
_cell_length_a   6.55443319
_cell_length_b   6.60895349
_cell_length_c   8.12692650
_cell_angle_alpha   90.00000000
_cell_angle_beta   108.09320708
_cell_angle_gamma   90.00000000
_symmetry_Int_Tables_number   1
_chemical_formula_structural   Eu2SiS4
_chemical_formula_sum   'Eu4 Si2 S8'
_cell_volume   334.63418376
_cell_formula_units_Z   2
loop_
 _symmetry_equiv_pos_site_id
 _symmetry_equiv_pos_as_xyz
  1  'x, y, z'
loop_
 _atom_site_type_symbol
 _atom_site_label
 _atom_site_symmetry_multiplicity
 _atom_site_fract_x
 _atom_site_fract_y
 _atom_site_fract_z
 _atom_site_occupancy
  Si  Si0  1  0.22257205  0.25000000  0.29765448  1
  Si  Si1  1  0.77742795  0.75000000  0.70234552  1
  S  S2  1  0.99328484  0.49982164  0.76233621  1
  S  S3  1  0.00671516  0.99982164  0.23766379  1
  S  S4  1  0.00671516  0.50017836  0.23766379  1
  S  S5  1  0.99328484  0.00017836  0.76233621  1
  S  S6  1  0.42016539  0.25000000  0.13260163  1
  S  S7  1  0.57983461  0.75000000  0.86739837  1
  S  S8  1  0.39158844  0.25000000  0.56757542  1
  S  S9  1  0.60841156  0.75000000  0.43242458  1
  Eu  Eu10  1  0.21708353  0.75000000  0.54904969  1
  Eu  Eu11  1  0.78291647  0.25000000  0.45095031  1
  Eu  Eu12  1  0.27220443  0.75000000  0.07022625  1
  Eu  Eu13  1  0.72779557  0.25000000  0.92977375  1
