# generated using pymatgen
data_Si(Bi3O5)4
_symmetry_space_group_name_H-M   'P 1'
_cell_length_a   8.87330015
_cell_length_b   8.87330015
_cell_length_c   8.87330015
_cell_angle_alpha   109.47122067
_cell_angle_beta   109.47122065
_cell_angle_gamma   109.47122059
_symmetry_Int_Tables_number   1
_chemical_formula_structural   Si(Bi3O5)4
_chemical_formula_sum   'Si1 Bi12 O20'
_cell_volume   537.81588555
_cell_formula_units_Z   1
loop_
 _symmetry_equiv_pos_site_id
 _symmetry_equiv_pos_as_xyz
  1  'x, y, z'
loop_
 _atom_site_type_symbol
 _atom_site_label
 _atom_site_symmetry_multiplicity
 _atom_site_fract_x
 _atom_site_fract_y
 _atom_site_fract_z
 _atom_site_occupancy
  O  O0  1  0.18822985  0.00000000  0.00000000  1
  O  O1  1  0.00000000  0.00000000  0.18822985  1
  O  O2  1  0.00000000  0.18822985  0.00000000  1
  O  O3  1  0.81177015  0.81177015  0.81177015  1
  O  O4  1  0.60558285  0.00000000  0.00000000  1
  O  O5  1  0.00000000  0.00000000  0.60558285  1
  O  O6  1  0.00000000  0.60558285  0.00000000  1
  O  O7  1  0.39441715  0.39441715  0.39441715  1
  O  O8  1  0.25966270  0.64346676  0.87873962  1
  O  O9  1  0.76472713  0.38092308  0.12126038  1
  O  O10  1  0.23527287  0.35653324  0.61619595  1
  O  O11  1  0.61907692  0.38380405  0.74033730  1
  O  O12  1  0.38380405  0.74033730  0.61907692  1
  O  O13  1  0.74033730  0.61907692  0.38380405  1
  O  O14  1  0.35653324  0.61619595  0.23527287  1
  O  O15  1  0.12126038  0.76472713  0.38092308  1
  O  O16  1  0.64346676  0.87873962  0.25966270  1
  O  O17  1  0.61619595  0.23527287  0.35653324  1
  O  O18  1  0.38092308  0.12126038  0.76472713  1
  O  O19  1  0.87873962  0.25966270  0.64346676  1
  Si  Si20  1  0.00000000  0.00000000  0.00000000  1
  Bi  Bi21  1  0.66738471  0.16147242  0.85893461  1
  Bi  Bi22  1  0.30253781  0.80845011  0.14106539  1
  Bi  Bi23  1  0.69746219  0.83852758  0.50591230  1
  Bi  Bi24  1  0.19154989  0.49408770  0.33261529  1
  Bi  Bi25  1  0.49408770  0.33261529  0.19154989  1
  Bi  Bi26  1  0.85893461  0.66738471  0.16147242  1
  Bi  Bi27  1  0.80845011  0.14106539  0.30253781  1
  Bi  Bi28  1  0.50591230  0.69746219  0.83852758  1
  Bi  Bi29  1  0.16147242  0.85893461  0.66738471  1
  Bi  Bi30  1  0.14106539  0.30253781  0.80845011  1
  Bi  Bi31  1  0.83852758  0.50591230  0.69746219  1
  Bi  Bi32  1  0.33261529  0.19154989  0.49408770  1
