# generated using pymatgen
data_Pb3SO6
_symmetry_space_group_name_H-M   'P 1'
_cell_length_a   5.88815014
_cell_length_b   7.36357248
_cell_length_c   8.33041132
_cell_angle_alpha   104.03780691
_cell_angle_beta   90.00000000
_cell_angle_gamma   90.00000000
_symmetry_Int_Tables_number   1
_chemical_formula_structural   Pb3SO6
_chemical_formula_sum   'Pb6 S2 O12'
_cell_volume   350.40190179
_cell_formula_units_Z   2
loop_
 _symmetry_equiv_pos_site_id
 _symmetry_equiv_pos_as_xyz
  1  'x, y, z'
loop_
 _atom_site_type_symbol
 _atom_site_label
 _atom_site_symmetry_multiplicity
 _atom_site_fract_x
 _atom_site_fract_y
 _atom_site_fract_z
 _atom_site_occupancy
  O  O0  1  0.50053717  0.17788667  0.62115351  1
  O  O1  1  0.00053717  0.82211333  0.37884649  1
  O  O2  1  0.49946283  0.82211333  0.37884649  1
  O  O3  1  0.99946283  0.17788667  0.62115351  1
  O  O4  1  0.25000000  0.81611937  0.72509672  1
  O  O5  1  0.75000000  0.18388063  0.27490328  1
  O  O6  1  0.25000000  0.83754392  0.02227353  1
  O  O7  1  0.75000000  0.16245608  0.97772647  1
  O  O8  1  0.54450116  0.41849986  0.16499287  1
  O  O9  1  0.04450116  0.58150014  0.83500713  1
  O  O10  1  0.45549884  0.58150014  0.83500713  1
  O  O11  1  0.95549884  0.41849986  0.16499287  1
  S  S12  1  0.25000000  0.70633348  0.85716588  1
  S  S13  1  0.75000000  0.29366652  0.14283412  1
  Pb  Pb14  1  0.25000000  0.23907175  0.84268974  1
  Pb  Pb15  1  0.75000000  0.76092825  0.15731026  1
  Pb  Pb16  1  0.25000000  0.60743834  0.41401755  1
  Pb  Pb17  1  0.75000000  0.39256166  0.58598245  1
  Pb  Pb18  1  0.25000000  0.07749541  0.37780359  1
  Pb  Pb19  1  0.75000000  0.92250459  0.62219641  1
