# generated using pymatgen
data_Rb2CuH12(SO7)2
_symmetry_space_group_name_H-M   'P 1'
_cell_length_a   6.27631735
_cell_length_b   9.31561572
_cell_length_c   12.50697411
_cell_angle_alpha   90.00000000
_cell_angle_beta   90.00000000
_cell_angle_gamma   104.67089468
_symmetry_Int_Tables_number   1
_chemical_formula_structural   Rb2CuH12(SO7)2
_chemical_formula_sum   'Rb4 Cu2 H24 S4 O28'
_cell_volume   707.41332776
_cell_formula_units_Z   2
loop_
 _symmetry_equiv_pos_site_id
 _symmetry_equiv_pos_as_xyz
  1  'x, y, z'
loop_
 _atom_site_type_symbol
 _atom_site_label
 _atom_site_symmetry_multiplicity
 _atom_site_fract_x
 _atom_site_fract_y
 _atom_site_fract_z
 _atom_site_occupancy
  H  H0  1  0.30786962  0.53266958  0.64044254  1
  H  H1  1  0.69213038  0.96733042  0.14044254  1
  H  H2  1  0.69213038  0.46733042  0.35955746  1
  H  H3  1  0.30786962  0.03266958  0.85955746  1
  H  H4  1  0.32367493  0.39969392  0.56228210  1
  H  H5  1  0.67632507  0.10030608  0.06228210  1
  H  H6  1  0.92174919  0.20514422  0.39608579  1
  H  H7  1  0.07825081  0.29485578  0.89608579  1
  H  H8  1  0.07825081  0.79485578  0.60391421  1
  H  H9  1  0.92174919  0.70514422  0.10391421  1
  H  H10  1  0.08200784  0.73082188  0.37656288  1
  H  H11  1  0.91799216  0.76917812  0.87656288  1
  H  H12  1  0.91799216  0.26917812  0.62343712  1
  H  H13  1  0.08200784  0.23082188  0.12343712  1
  H  H14  1  0.31554008  0.69820036  0.40931231  1
  H  H15  1  0.00817656  0.67240075  0.69303711  1
  H  H16  1  0.68445992  0.80179964  0.90931231  1
  H  H17  1  0.68445992  0.30179964  0.59068769  1
  H  H18  1  0.31554008  0.19820036  0.09068769  1
  H  H19  1  0.00817656  0.17240075  0.80696289  1
  H  H20  1  0.99182344  0.32759925  0.30696289  1
  H  H21  1  0.32367493  0.89969392  0.93771790  1
  H  H22  1  0.67632507  0.60030608  0.43771790  1
  H  H23  1  0.99182344  0.82759925  0.19303711  1
  O  O24  1  0.84087853  0.34891661  0.61069831  1
  O  O25  1  0.84087853  0.84891661  0.88930169  1
  O  O26  1  0.02691491  0.80181984  0.11941355  1
  O  O27  1  0.97308509  0.69818016  0.61941355  1
  O  O28  1  0.97308509  0.19818016  0.88058645  1
  O  O29  1  0.02691491  0.30181984  0.38058645  1
  O  O30  1  0.15912147  0.15108339  0.11069831  1
  O  O31  1  0.94610740  0.86211863  0.32997198  1
  O  O32  1  0.05389260  0.63788137  0.82997198  1
  O  O33  1  0.05389260  0.13788137  0.67002802  1
  O  O34  1  0.28585142  0.99791912  0.93551259  1
  O  O35  1  0.71414858  0.50208088  0.43551259  1
  O  O36  1  0.71414858  0.00208088  0.06448741  1
  O  O37  1  0.28585142  0.49791912  0.56448741  1
  O  O38  1  0.94610740  0.36211863  0.17002802  1
  O  O39  1  0.59904804  0.75975665  0.42502570  1
  O  O40  1  0.40095196  0.74024335  0.92502570  1
  O  O41  1  0.59904804  0.25975665  0.07497430  1
  O  O42  1  0.75752588  0.02584489  0.42377028  1
  O  O43  1  0.24247412  0.47415511  0.92377028  1
  O  O44  1  0.24247412  0.97415511  0.57622972  1
  O  O45  1  0.75752588  0.52584489  0.07622972  1
  O  O46  1  0.40095196  0.24024335  0.57497430  1
  O  O47  1  0.40100276  0.60124915  0.76029157  1
  O  O48  1  0.40100276  0.10124915  0.73970843  1
  O  O49  1  0.59899724  0.39875085  0.23970843  1
  O  O50  1  0.15912147  0.65108339  0.38930169  1
  O  O51  1  0.59899724  0.89875085  0.26029157  1
  S  S52  1  0.27264301  0.61163119  0.85935845  1
  S  S53  1  0.72735699  0.88836881  0.35935845  1
  S  S54  1  0.72735699  0.38836881  0.14064155  1
  S  S55  1  0.27264301  0.11163119  0.64064155  1
  Cu  Cu56  1  0.00000000  0.50000000  0.50000000  1
  Cu  Cu57  1  0.00000000  0.00000000  0.00000000  1
  Rb  Rb58  1  0.34705685  0.11912478  0.35048909  1
  Rb  Rb59  1  0.65294315  0.38087522  0.85048909  1
  Rb  Rb60  1  0.65294315  0.88087522  0.64951091  1
  Rb  Rb61  1  0.34705685  0.61912478  0.14951091  1
