# generated using pymatgen
data_LiH6ClO7
_symmetry_space_group_name_H-M   'P 1'
_cell_length_a   7.72899442
_cell_length_b   7.72899443
_cell_length_c   5.60790817
_cell_angle_alpha   90.00000000
_cell_angle_beta   90.00000000
_cell_angle_gamma   119.99999998
_symmetry_Int_Tables_number   1
_chemical_formula_structural   LiH6ClO7
_chemical_formula_sum   'Li2 H12 Cl2 O14'
_cell_volume   290.11989596
_cell_formula_units_Z   2
loop_
 _symmetry_equiv_pos_site_id
 _symmetry_equiv_pos_as_xyz
  1  'x, y, z'
loop_
 _atom_site_type_symbol
 _atom_site_label
 _atom_site_symmetry_multiplicity
 _atom_site_fract_x
 _atom_site_fract_y
 _atom_site_fract_z
 _atom_site_occupancy
  H  H0  1  0.06442496  0.33111238  0.03508791  1
  H  H1  1  0.93557504  0.26668741  0.53508791  1
  H  H2  1  0.66888762  0.73331259  0.03508791  1
  H  H3  1  0.26668741  0.93557504  0.03508791  1
  H  H4  1  0.73331259  0.06442496  0.53508791  1
  H  H5  1  0.93557504  0.66888762  0.53508791  1
  H  H6  1  0.33111238  0.26668741  0.53508791  1
  H  H7  1  0.06442496  0.73331259  0.03508791  1
  H  H8  1  0.33111238  0.06442496  0.53508791  1
  H  H9  1  0.73331259  0.66888762  0.53508791  1
  H  H10  1  0.26668741  0.33111238  0.03508791  1
  H  H11  1  0.66888762  0.93557504  0.03508791  1
  Li  Li12  1  0.00000000  0.00000000  0.77805122  1
  Li  Li13  1  0.00000000  0.00000000  0.27805122  1
  O  O14  1  0.12154683  0.24309365  0.02814563  1
  O  O15  1  0.43634141  0.87268282  0.58688697  1
  O  O16  1  0.24309365  0.12154683  0.52814563  1
  O  O17  1  0.12154683  0.87845317  0.02814563  1
  O  O18  1  0.87845317  0.12154683  0.52814563  1
  O  O19  1  0.43634141  0.56365859  0.58688697  1
  O  O20  1  0.87268282  0.43634141  0.08688697  1
  O  O21  1  0.56365859  0.12731718  0.08688697  1
  O  O22  1  0.87845317  0.75690635  0.52814563  1
  O  O23  1  0.12731718  0.56365859  0.58688697  1
  O  O24  1  0.56365859  0.43634141  0.08688697  1
  O  O25  1  0.33333333  0.66666667  0.23770068  1
  O  O26  1  0.66666667  0.33333333  0.73770068  1
  O  O27  1  0.75690635  0.87845317  0.02814563  1
  Cl  Cl28  1  0.66666667  0.33333333  0.99702285  1
  Cl  Cl29  1  0.33333333  0.66666667  0.49702285  1
