# generated using pymatgen
data_H8S(NO2)2
_symmetry_space_group_name_H-M   'P 1'
_cell_length_a   6.47073195
_cell_length_b   7.70018154
_cell_length_c   10.67747289
_cell_angle_alpha   90.00000000
_cell_angle_beta   90.00000000
_cell_angle_gamma   90.00000000
_symmetry_Int_Tables_number   1
_chemical_formula_structural   H8S(NO2)2
_chemical_formula_sum   'H32 S4 N8 O16'
_cell_volume   532.01374310
_cell_formula_units_Z   4
loop_
 _symmetry_equiv_pos_site_id
 _symmetry_equiv_pos_as_xyz
  1  'x, y, z'
loop_
 _atom_site_type_symbol
 _atom_site_label
 _atom_site_symmetry_multiplicity
 _atom_site_fract_x
 _atom_site_fract_y
 _atom_site_fract_z
 _atom_site_occupancy
  H  H0  1  0.11980419  0.32562129  0.82617480  1
  H  H1  1  0.61980419  0.67437871  0.17382520  1
  H  H2  1  0.38019581  0.82562129  0.67382520  1
  H  H3  1  0.88019581  0.17437871  0.32617480  1
  H  H4  1  0.88019581  0.67437871  0.17382520  1
  H  H5  1  0.38019581  0.32562129  0.82617480  1
  H  H6  1  0.61980419  0.17437871  0.32617480  1
  H  H7  1  0.11980419  0.82562129  0.67382520  1
  H  H8  1  0.75000000  0.59516699  0.29733989  1
  H  H9  1  0.25000000  0.40483301  0.70266011  1
  H  H10  1  0.75000000  0.09516699  0.20266011  1
  H  H11  1  0.25000000  0.90483301  0.79733989  1
  H  H12  1  0.75000000  0.48223966  0.15639735  1
  H  H13  1  0.25000000  0.51776034  0.84360265  1
  H  H14  1  0.75000000  0.66990565  0.88748451  1
  H  H15  1  0.75000000  0.98223966  0.34360265  1
  H  H16  1  0.12031056  0.16917295  0.03732492  1
  H  H17  1  0.62031056  0.83082705  0.96267508  1
  H  H18  1  0.37968944  0.66917295  0.46267508  1
  H  H19  1  0.87968944  0.33082705  0.53732492  1
  H  H20  1  0.87968944  0.83082705  0.96267508  1
  H  H21  1  0.37968944  0.16917295  0.03732492  1
  H  H22  1  0.62031056  0.33082705  0.53732492  1
  H  H23  1  0.12031056  0.66917295  0.46267508  1
  H  H24  1  0.75000000  0.87659580  0.82807195  1
  H  H25  1  0.25000000  0.12340420  0.17192805  1
  H  H26  1  0.75000000  0.37659580  0.67192805  1
  H  H27  1  0.25000000  0.62340420  0.32807195  1
  H  H28  1  0.25000000  0.83009435  0.38748451  1
  H  H29  1  0.75000000  0.16990565  0.61251549  1
  H  H30  1  0.25000000  0.33009435  0.11251549  1
  H  H31  1  0.25000000  0.01776034  0.65639735  1
  N  N32  1  0.75000000  0.60349458  0.20121448  1
  N  N33  1  0.25000000  0.39650542  0.79878552  1
  N  N34  1  0.75000000  0.10349458  0.29878552  1
  N  N35  1  0.25000000  0.89650542  0.70121448  1
  N  N36  1  0.75000000  0.80238232  0.90883434  1
  N  N37  1  0.25000000  0.19761768  0.09116566  1
  N  N38  1  0.75000000  0.30238232  0.59116566  1
  N  N39  1  0.25000000  0.69761768  0.40883434  1
  O  O40  1  0.05997314  0.82938753  0.10569050  1
  O  O41  1  0.55997314  0.17061247  0.89430950  1
  O  O42  1  0.44002686  0.32938753  0.39430950  1
  O  O43  1  0.94002686  0.67061247  0.60569050  1
  O  O44  1  0.94002686  0.17061247  0.89430950  1
  O  O45  1  0.44002686  0.82938753  0.10569050  1
  O  O46  1  0.55997314  0.67061247  0.60569050  1
  O  O47  1  0.05997314  0.32938753  0.39430950  1
  O  O48  1  0.75000000  0.29323914  0.06986436  1
  O  O49  1  0.25000000  0.70676086  0.93013564  1
  O  O50  1  0.75000000  0.79323914  0.43013564  1
  O  O51  1  0.25000000  0.20676086  0.56986436  1
  O  O52  1  0.75000000  0.44000434  0.86383931  1
  O  O53  1  0.25000000  0.55999566  0.13616069  1
  O  O54  1  0.75000000  0.94000434  0.63616069  1
  O  O55  1  0.25000000  0.05999566  0.36383931  1
  S  S56  1  0.75000000  0.27002543  0.93083029  1
  S  S57  1  0.25000000  0.72997457  0.06916971  1
  S  S58  1  0.75000000  0.77002543  0.56916971  1
  S  S59  1  0.25000000  0.22997457  0.43083029  1
