# generated using pymatgen
data_K2AlH2OF5
_symmetry_space_group_name_H-M   'P 1'
_cell_length_a   6.21366962
_cell_length_b   6.21724866
_cell_length_c   7.60903589
_cell_angle_alpha   90.00000000
_cell_angle_beta   90.00000000
_cell_angle_gamma   98.60200349
_symmetry_Int_Tables_number   1
_chemical_formula_structural   K2AlH2OF5
_chemical_formula_sum   'K4 Al2 H4 O2 F10'
_cell_volume   290.64511656
_cell_formula_units_Z   2
loop_
 _symmetry_equiv_pos_site_id
 _symmetry_equiv_pos_as_xyz
  1  'x, y, z'
loop_
 _atom_site_type_symbol
 _atom_site_label
 _atom_site_symmetry_multiplicity
 _atom_site_fract_x
 _atom_site_fract_y
 _atom_site_fract_z
 _atom_site_occupancy
  H  H0  1  0.60888472  0.60791768  0.14807547  1
  H  H1  1  0.39111528  0.39208232  0.64807547  1
  H  H2  1  0.39111528  0.39208232  0.85192453  1
  H  H3  1  0.60888472  0.60791768  0.35192453  1
  O  O4  1  0.53370961  0.53287308  0.25000000  1
  O  O5  1  0.46629039  0.46712692  0.75000000  1
  F  F6  1  0.99500466  0.99470290  0.75000000  1
  F  F7  1  0.00499534  0.00529710  0.25000000  1
  F  F8  1  0.19146944  0.80863006  0.00015738  1
  F  F9  1  0.80853056  0.19136994  0.50015738  1
  F  F10  1  0.80853056  0.19136994  0.99984262  1
  F  F11  1  0.19146944  0.80863006  0.49984262  1
  F  F12  1  0.77620793  0.77636155  0.00228587  1
  F  F13  1  0.22379207  0.22363845  0.50228587  1
  F  F14  1  0.22379207  0.22363845  0.99771413  1
  F  F15  1  0.77620793  0.77636155  0.49771413  1
  Al  Al16  1  0.00000000  0.00000000  0.50000000  1
  Al  Al17  1  0.00000000  0.00000000  0.00000000  1
  K  K18  1  0.49800861  0.07614539  0.25000000  1
  K  K19  1  0.50199139  0.92385461  0.75000000  1
  K  K20  1  0.07698312  0.49776595  0.25000000  1
  K  K21  1  0.92301688  0.50223405  0.75000000  1
