# generated using pymatgen
data_Ba5Co5O14
_symmetry_space_group_name_H-M   'P 1'
_cell_length_a   5.72978130
_cell_length_b   5.72978131
_cell_length_c   11.95749312
_cell_angle_alpha   90.00000000
_cell_angle_beta   90.00000000
_cell_angle_gamma   119.99999997
_symmetry_Int_Tables_number   1
_chemical_formula_structural   Ba5Co5O14
_chemical_formula_sum   'Ba5 Co5 O14'
_cell_volume   339.97490672
_cell_formula_units_Z   1
loop_
 _symmetry_equiv_pos_site_id
 _symmetry_equiv_pos_as_xyz
  1  'x, y, z'
loop_
 _atom_site_type_symbol
 _atom_site_label
 _atom_site_symmetry_multiplicity
 _atom_site_fract_x
 _atom_site_fract_y
 _atom_site_fract_z
 _atom_site_occupancy
  O  O0  1  0.85297103  0.14702897  0.39836647  1
  O  O1  1  0.85297103  0.70594206  0.39836647  1
  O  O2  1  0.29405794  0.14702897  0.39836647  1
  O  O3  1  0.70594206  0.85297103  0.60163353  1
  O  O4  1  0.14702897  0.29405794  0.60163353  1
  O  O5  1  0.14702897  0.85297103  0.60163353  1
  O  O6  1  0.83764623  0.16235377  0.80290732  1
  O  O7  1  0.83764623  0.67529247  0.80290732  1
  O  O8  1  0.32470753  0.16235377  0.80290732  1
  O  O9  1  0.67529247  0.83764623  0.19709268  1
  O  O10  1  0.33333333  0.66666667  0.99515925  1
  O  O11  1  0.66666667  0.33333333  0.00484075  1
  O  O12  1  0.16235377  0.83764623  0.19709268  1
  O  O13  1  0.16235377  0.32470753  0.19709268  1
  Co  Co14  1  0.66666667  0.33333333  0.85912479  1
  Co  Co15  1  0.33333333  0.66666667  0.14087521  1
  Co  Co16  1  0.00000000  0.00000000  0.70647010  1
  Co  Co17  1  0.00000000  0.00000000  0.29352990  1
  Co  Co18  1  0.00000000  0.00000000  0.50000000  1
  Ba  Ba19  1  0.66666667  0.33333333  0.58121502  1
  Ba  Ba20  1  0.33333333  0.66666667  0.41878498  1
  Ba  Ba21  1  0.66666667  0.33333333  0.22719993  1
  Ba  Ba22  1  0.33333333  0.66666667  0.77280007  1
  Ba  Ba23  1  0.00000000  0.00000000  0.00000000  1
