# generated using pymatgen
data_Na2CoP2O7
_symmetry_space_group_name_H-M   'P 1'
_cell_length_a   7.83812178
_cell_length_b   7.83812178
_cell_length_c   10.42389492
_cell_angle_alpha   90.00000000
_cell_angle_beta   90.00000000
_cell_angle_gamma   90.00000000
_symmetry_Int_Tables_number   1
_chemical_formula_structural   Na2CoP2O7
_chemical_formula_sum   'Na8 Co4 P8 O28'
_cell_volume   640.40400356
_cell_formula_units_Z   4
loop_
 _symmetry_equiv_pos_site_id
 _symmetry_equiv_pos_as_xyz
  1  'x, y, z'
loop_
 _atom_site_type_symbol
 _atom_site_label
 _atom_site_symmetry_multiplicity
 _atom_site_fract_x
 _atom_site_fract_y
 _atom_site_fract_z
 _atom_site_occupancy
  O  O0  1  0.50000015  0.50000015  0.84622365  1
  O  O1  1  0.00000000  0.00000000  0.34622436  1
  O  O2  1  0.00000000  0.00000000  0.65377614  1
  O  O3  1  0.50000015  0.50000015  0.15377589  1
  O  O4  1  0.19401160  0.58024498  0.14582938  1
  O  O5  1  0.80598869  0.41975532  0.14582938  1
  O  O6  1  0.58024498  0.19401160  0.85417111  1
  O  O7  1  0.08024483  0.30598854  0.64582963  1
  O  O8  1  0.91975547  0.69401175  0.64582963  1
  O  O9  1  0.30598854  0.08024483  0.35417086  1
  O  O10  1  0.69401175  0.91975547  0.35417086  1
  O  O11  1  0.41975532  0.80598869  0.85417111  1
  O  O12  1  0.80598869  0.41975532  0.85417111  1
  O  O13  1  0.19401160  0.58024498  0.85417111  1
  O  O14  1  0.41975532  0.80598869  0.14582938  1
  O  O15  1  0.91975547  0.69401175  0.35417086  1
  O  O16  1  0.08024483  0.30598854  0.35417086  1
  O  O17  1  0.69401175  0.91975547  0.64582963  1
  O  O18  1  0.30598854  0.08024483  0.64582963  1
  O  O19  1  0.58024498  0.19401160  0.14582938  1
  O  O20  1  0.63710622  0.36289280  0.35528743  1
  O  O21  1  0.13710607  0.13710607  0.85528768  1
  O  O22  1  0.86289294  0.86289294  0.85528768  1
  O  O23  1  0.13710607  0.13710607  0.14471282  1
  O  O24  1  0.63710622  0.36289280  0.64471307  1
  O  O25  1  0.36289280  0.63710622  0.35528743  1
  O  O26  1  0.36289280  0.63710622  0.64471307  1
  O  O27  1  0.86289294  0.86289294  0.14471282  1
  Na  Na28  1  0.19394672  0.80605358  0.50000025  1
  Na  Na29  1  0.69394687  0.69394687  0.00000000  1
  Na  Na30  1  0.30605343  0.30605343  0.00000000  1
  Na  Na31  1  0.80605358  0.19394672  0.50000025  1
  Na  Na32  1  0.14596755  0.85403275  0.00000000  1
  Na  Na33  1  0.64596770  0.64596770  0.50000025  1
  Na  Na34  1  0.35403260  0.35403260  0.50000025  1
  Na  Na35  1  0.85403275  0.14596755  0.00000000  1
  P  P36  1  0.63817205  0.36182825  0.78996428  1
  P  P37  1  0.36182825  0.63817205  0.78996428  1
  P  P38  1  0.63817205  0.36182825  0.21003622  1
  P  P39  1  0.86182840  0.86182840  0.28996403  1
  P  P40  1  0.13817190  0.13817190  0.28996403  1
  P  P41  1  0.86182840  0.86182840  0.71003551  1
  P  P42  1  0.13817190  0.13817190  0.71003551  1
  P  P43  1  0.36182825  0.63817205  0.21003622  1
  Co  Co44  1  0.00000000  0.50000015  0.75000037  1
  Co  Co45  1  0.00000000  0.50000015  0.25000012  1
  Co  Co46  1  0.50000015  0.00000000  0.75000037  1
  Co  Co47  1  0.50000015  0.00000000  0.25000012  1
