# generated using pymatgen
data_BaAsH3O5
_symmetry_space_group_name_H-M   'P 1'
_cell_length_a   7.98227481
_cell_length_b   8.78707431
_cell_length_c   14.88855599
_cell_angle_alpha   90.00000000
_cell_angle_beta   90.00000000
_cell_angle_gamma   90.00000000
_symmetry_Int_Tables_number   1
_chemical_formula_structural   BaAsH3O5
_chemical_formula_sum   'Ba8 As8 H24 O40'
_cell_volume   1044.29585209
_cell_formula_units_Z   8
loop_
 _symmetry_equiv_pos_site_id
 _symmetry_equiv_pos_as_xyz
  1  'x, y, z'
loop_
 _atom_site_type_symbol
 _atom_site_label
 _atom_site_symmetry_multiplicity
 _atom_site_fract_x
 _atom_site_fract_y
 _atom_site_fract_z
 _atom_site_occupancy
  H  H0  1  0.90120532  0.40048366  0.22582394  1
  H  H1  1  0.40120532  0.09951634  0.77417606  1
  H  H2  1  0.09879468  0.90048366  0.27417606  1
  H  H3  1  0.59879468  0.59951634  0.72582394  1
  H  H4  1  0.09879468  0.59951634  0.77417606  1
  H  H5  1  0.59879468  0.90048366  0.22582394  1
  H  H6  1  0.90120532  0.09951634  0.72582394  1
  H  H7  1  0.40120532  0.40048366  0.27417606  1
  H  H8  1  0.94901540  0.32227527  0.13183996  1
  H  H9  1  0.44901540  0.17772473  0.86816004  1
  H  H10  1  0.05098460  0.82227527  0.36816004  1
  H  H11  1  0.55098460  0.67772473  0.63183996  1
  H  H12  1  0.05098460  0.67772473  0.86816004  1
  H  H13  1  0.55098460  0.82227527  0.13183996  1
  H  H14  1  0.94901540  0.17772473  0.63183996  1
  H  H15  1  0.44901540  0.32227527  0.36816004  1
  H  H16  1  0.77434012  0.25980720  0.30916660  1
  H  H17  1  0.27434012  0.24019280  0.69083340  1
  H  H18  1  0.22565988  0.75980720  0.19083340  1
  H  H19  1  0.72565988  0.74019280  0.80916660  1
  H  H20  1  0.22565988  0.74019280  0.69083340  1
  H  H21  1  0.72565988  0.75980720  0.30916660  1
  H  H22  1  0.77434012  0.24019280  0.80916660  1
  H  H23  1  0.27434012  0.25980720  0.19083340  1
  O  O24  1  0.37773397  0.09757955  0.83996174  1
  O  O25  1  0.87773397  0.40242045  0.16003826  1
  O  O26  1  0.62226603  0.59757955  0.66003826  1
  O  O27  1  0.12226603  0.90242045  0.33996174  1
  O  O28  1  0.62226603  0.90242045  0.16003826  1
  O  O29  1  0.12226603  0.59757955  0.83996174  1
  O  O30  1  0.37773397  0.40242045  0.33996174  1
  O  O31  1  0.87773397  0.09757955  0.66003826  1
  O  O32  1  0.48955441  0.16325149  0.43314795  1
  O  O33  1  0.98955441  0.33674851  0.56685205  1
  O  O34  1  0.51044559  0.66325149  0.06685205  1
  O  O35  1  0.01044559  0.83674851  0.93314795  1
  O  O36  1  0.51044559  0.83674851  0.56685205  1
  O  O37  1  0.01044559  0.66325149  0.43314795  1
  O  O38  1  0.48955441  0.33674851  0.93314795  1
  O  O39  1  0.98955441  0.16325149  0.06685205  1
  O  O40  1  0.81476325  0.05638215  0.45785486  1
  O  O41  1  0.31476325  0.44361785  0.54214514  1
  O  O42  1  0.18523675  0.55638215  0.04214514  1
  O  O43  1  0.68523675  0.94361785  0.95785486  1
  O  O44  1  0.18523675  0.94361785  0.54214514  1
  O  O45  1  0.68523675  0.55638215  0.45785486  1
  O  O46  1  0.81476325  0.44361785  0.95785486  1
  O  O47  1  0.31476325  0.05638215  0.04214514  1
  O  O48  1  0.59024307  0.88979817  0.34188802  1
  O  O49  1  0.09024307  0.61020183  0.65811198  1
  O  O50  1  0.40975693  0.38979817  0.15811198  1
  O  O51  1  0.90975693  0.11020183  0.84188802  1
  O  O52  1  0.40975693  0.11020183  0.65811198  1
  O  O53  1  0.90975693  0.38979817  0.34188802  1
  O  O54  1  0.59024307  0.61020183  0.84188802  1
  O  O55  1  0.09024307  0.88979817  0.15811198  1
  O  O56  1  0.71064263  0.16699329  0.28726854  1
  O  O57  1  0.21064263  0.33300671  0.71273146  1
  O  O58  1  0.28935737  0.66699329  0.21273146  1
  O  O59  1  0.78935737  0.83300671  0.78726854  1
  O  O60  1  0.28935737  0.83300671  0.71273146  1
  O  O61  1  0.78935737  0.66699329  0.28726854  1
  O  O62  1  0.71064263  0.33300671  0.78726854  1
  O  O63  1  0.21064263  0.16699329  0.21273146  1
  As  As64  1  0.64982241  0.06201969  0.38529321  1
  As  As65  1  0.14982241  0.43798031  0.61470679  1
  As  As66  1  0.35017759  0.56201969  0.11470679  1
  As  As67  1  0.85017759  0.93798031  0.88529321  1
  As  As68  1  0.35017759  0.93798031  0.61470679  1
  As  As69  1  0.85017759  0.56201969  0.38529321  1
  As  As70  1  0.64982241  0.43798031  0.88529321  1
  As  As71  1  0.14982241  0.06201969  0.11470679  1
  Ba  Ba72  1  0.13606920  0.18439313  0.41747813  1
  Ba  Ba73  1  0.63606920  0.31560687  0.58252187  1
  Ba  Ba74  1  0.86393080  0.68439313  0.08252187  1
  Ba  Ba75  1  0.36393080  0.81560687  0.91747813  1
  Ba  Ba76  1  0.86393080  0.81560687  0.58252187  1
  Ba  Ba77  1  0.36393080  0.68439313  0.41747813  1
  Ba  Ba78  1  0.13606920  0.31560687  0.91747813  1
  Ba  Ba79  1  0.63606920  0.18439313  0.08252187  1
