# generated using pymatgen
data_CaLaMn2O6
_symmetry_space_group_name_H-M   'P 1'
_cell_length_a   5.53020593
_cell_length_b   7.67764020
_cell_length_c   11.01035317
_cell_angle_alpha   90.00000000
_cell_angle_beta   90.00000000
_cell_angle_gamma   90.00000000
_symmetry_Int_Tables_number   1
_chemical_formula_structural   CaLaMn2O6
_chemical_formula_sum   'Ca4 La4 Mn8 O24'
_cell_volume   467.48782952
_cell_formula_units_Z   4
loop_
 _symmetry_equiv_pos_site_id
 _symmetry_equiv_pos_as_xyz
  1  'x, y, z'
loop_
 _atom_site_type_symbol
 _atom_site_label
 _atom_site_symmetry_multiplicity
 _atom_site_fract_x
 _atom_site_fract_y
 _atom_site_fract_z
 _atom_site_occupancy
  O  O0  1  0.92414544  0.50000004  0.11730793  1
  O  O1  1  0.07585447  0.00000000  0.61730791  1
  O  O2  1  0.08259986  0.00000000  0.13589737  1
  O  O3  1  0.91740005  0.50000004  0.63589735  1
  O  O4  1  0.58334897  0.50000004  0.36869831  1
  O  O5  1  0.41665094  0.00000000  0.86869829  1
  O  O6  1  0.42505498  0.00000000  0.38782599  1
  O  O7  1  0.57494493  0.50000004  0.88782597  1
  O  O8  1  0.24909364  0.28846768  0.00254287  1
  O  O9  1  0.75090627  0.21153237  0.50254285  1
  O  O10  1  0.75090627  0.78846772  0.50254285  1
  O  O11  1  0.24909364  0.71153241  0.00254287  1
  O  O12  1  0.76677595  0.20639644  0.75731778  1
  O  O13  1  0.23322396  0.29360361  0.25731780  1
  O  O14  1  0.23322396  0.70639648  0.25731780  1
  O  O15  1  0.76677595  0.79360365  0.75731778  1
  O  O16  1  0.74898209  0.79600059  0.00275174  1
  O  O17  1  0.25101782  0.70399954  0.50275172  1
  O  O18  1  0.25101782  0.29600055  0.50275172  1
  O  O19  1  0.74898209  0.20399950  0.00275174  1
  O  O20  1  0.73339854  0.20604794  0.24790485  1
  O  O21  1  0.26660137  0.70604798  0.74790483  1
  O  O22  1  0.26660137  0.29395210  0.74790483  1
  O  O23  1  0.73339854  0.79395215  0.24790485  1
  Ca  Ca24  1  0.51001220  0.00000000  0.12082093  1
  Ca  Ca25  1  0.48998771  0.50000004  0.62082091  1
  Ca  Ca26  1  0.01071117  0.50000004  0.38518276  1
  Ca  Ca27  1  0.98928875  0.00000000  0.88518273  1
  Mn  Mn28  1  0.99515503  0.24702126  0.12771961  1
  Mn  Mn29  1  0.00484488  0.25297879  0.62771959  1
  Mn  Mn30  1  0.00484488  0.74702130  0.62771959  1
  Mn  Mn31  1  0.99515503  0.75297883  0.12771961  1
  Mn  Mn32  1  0.49589570  0.74683761  0.37750300  1
  Mn  Mn33  1  0.50410421  0.75316252  0.87750298  1
  Mn  Mn34  1  0.50410421  0.24683757  0.87750298  1
  Mn  Mn35  1  0.49589570  0.25316248  0.37750300  1
  La  La36  1  0.49054262  0.50000004  0.13117822  1
  La  La37  1  0.50945729  0.00000000  0.63117820  1
  La  La38  1  0.00861110  0.50000004  0.87380822  1
  La  La39  1  0.99138882  0.00000000  0.37380824  1
