# generated using pymatgen
data_VFeH2O5
_symmetry_space_group_name_H-M   'P 1'
_cell_length_a   5.56057223
_cell_length_b   5.70972876
_cell_length_c   6.76819109
_cell_angle_alpha   100.49306186
_cell_angle_beta   95.03977875
_cell_angle_gamma   107.19249562
_symmetry_Int_Tables_number   1
_chemical_formula_structural   VFeH2O5
_chemical_formula_sum   'V2 Fe2 H4 O10'
_cell_volume   199.54190233
_cell_formula_units_Z   2
loop_
 _symmetry_equiv_pos_site_id
 _symmetry_equiv_pos_as_xyz
  1  'x, y, z'
loop_
 _atom_site_type_symbol
 _atom_site_label
 _atom_site_symmetry_multiplicity
 _atom_site_fract_x
 _atom_site_fract_y
 _atom_site_fract_z
 _atom_site_occupancy
  H  H0  1  0.08003137  0.11331760  0.70391168  1
  H  H1  1  0.91996972  0.88668176  0.29608790  1
  H  H2  1  0.87398197  0.85032771  0.71180010  1
  H  H3  1  0.12601794  0.14967353  0.28819969  1
  O  O4  1  0.64737167  0.63881196  0.33059318  1
  O  O5  1  0.62349433  0.26224564  0.99379303  1
  O  O6  1  0.37650557  0.73775560  0.00620676  1
  O  O7  1  0.35263005  0.36118928  0.66940675  1
  O  O8  1  0.37782673  0.86160666  0.61793046  1
  O  O9  1  0.90871035  0.03390373  0.73759042  1
  O  O10  1  0.07515003  0.47082923  0.27839423  1
  O  O11  1  0.92485106  0.52917012  0.72160535  1
  O  O12  1  0.09128956  0.96609751  0.26240937  1
  O  O13  1  0.62217435  0.13839268  0.38207060  1
  V  V14  1  0.25793481  0.62096213  0.75580985  1
  V  V15  1  0.74206509  0.37903910  0.24419142  1
  Fe  Fe16  1  0.63622117  0.21672021  0.69928326  1
  Fe  Fe17  1  0.36377811  0.78327914  0.30071618  1
