# generated using pymatgen
data_TlVO3
_symmetry_space_group_name_H-M   'P 1'
_cell_length_a   5.30566850
_cell_length_b   5.92083627
_cell_length_c   11.35166193
_cell_angle_alpha   90.00000000
_cell_angle_beta   90.00000000
_cell_angle_gamma   90.00000000
_symmetry_Int_Tables_number   1
_chemical_formula_structural   TlVO3
_chemical_formula_sum   'Tl4 V4 O12'
_cell_volume   356.60104534
_cell_formula_units_Z   4
loop_
 _symmetry_equiv_pos_site_id
 _symmetry_equiv_pos_as_xyz
  1  'x, y, z'
loop_
 _atom_site_type_symbol
 _atom_site_label
 _atom_site_symmetry_multiplicity
 _atom_site_fract_x
 _atom_site_fract_y
 _atom_site_fract_z
 _atom_site_occupancy
  O  O0  1  0.57031166  0.50000000  0.75000000  1
  O  O1  1  0.42968834  0.00000000  0.25000000  1
  O  O2  1  0.42968834  0.50000000  0.25000000  1
  O  O3  1  0.57031166  0.00000000  0.75000000  1
  O  O4  1  0.42708921  0.75000000  0.46811373  1
  O  O5  1  0.42708921  0.25000000  0.03188627  1
  O  O6  1  0.57291079  0.25000000  0.53188627  1
  O  O7  1  0.57291079  0.75000000  0.96811373  1
  O  O8  1  0.14157217  0.75000000  0.83772705  1
  O  O9  1  0.14157217  0.25000000  0.66227295  1
  O  O10  1  0.85842783  0.25000000  0.16227295  1
  O  O11  1  0.85842783  0.75000000  0.33772705  1
  V  V12  1  0.54164050  0.75000000  0.33109120  1
  V  V13  1  0.54164050  0.25000000  0.16890880  1
  V  V14  1  0.45835950  0.25000000  0.66890880  1
  V  V15  1  0.45835950  0.75000000  0.83109120  1
  Tl  Tl16  1  0.07903599  0.75000000  0.09597378  1
  Tl  Tl17  1  0.07903599  0.25000000  0.40402622  1
  Tl  Tl18  1  0.92096401  0.25000000  0.90402622  1
  Tl  Tl19  1  0.92096401  0.75000000  0.59597378  1
