# generated using pymatgen
data_Sr3Fe2Cl2O5
_symmetry_space_group_name_H-M   'P 1'
_cell_length_a   3.99982367
_cell_length_b   3.99982137
_cell_length_c   12.49116498
_cell_angle_alpha   99.21521838
_cell_angle_beta   99.21525318
_cell_angle_gamma   89.99845194
_symmetry_Int_Tables_number   1
_chemical_formula_structural   Sr3Fe2Cl2O5
_chemical_formula_sum   'Sr3 Fe2 Cl2 O5'
_cell_volume   194.64846705
_cell_formula_units_Z   1
loop_
 _symmetry_equiv_pos_site_id
 _symmetry_equiv_pos_as_xyz
  1  'x, y, z'
loop_
 _atom_site_type_symbol
 _atom_site_label
 _atom_site_symmetry_multiplicity
 _atom_site_fract_x
 _atom_site_fract_y
 _atom_site_fract_z
 _atom_site_occupancy
  O  O0  1  0.91001767  0.40999369  0.81989070  1
  O  O1  1  0.40999308  0.91001777  0.81989082  1
  O  O2  1  0.08998321  0.59000675  0.18011043  1
  O  O3  1  0.99999842  0.99999826  0.99999697  1
  O  O4  1  0.59000733  0.08998217  0.18011036  1
  Cl  Cl5  1  0.20284277  0.20284207  0.40562797  1
  Cl  Cl6  1  0.79715966  0.79715970  0.59437654  1
  Fe  Fe7  1  0.92101403  0.92101454  0.84201320  1
  Fe  Fe8  1  0.07898315  0.07898335  0.15797969  1
  Sr  Sr9  1  0.65536667  0.65536622  0.31067558  1
  Sr  Sr10  1  0.34463471  0.34463463  0.68932684  1
  Sr  Sr11  1  0.50000048  0.50000172  0.00000170  1
