# generated using pymatgen
data_Yb4Br6O
_symmetry_space_group_name_H-M   'P 1'
_cell_length_a   9.16346133
_cell_length_b   9.16346133
_cell_length_c   6.98078603
_cell_angle_alpha   90.00000000
_cell_angle_beta   90.00000000
_cell_angle_gamma   90.00000000
_symmetry_Int_Tables_number   1
_chemical_formula_structural   Yb4Br6O
_chemical_formula_sum   'Yb8 Br12 O2'
_cell_volume   586.16978653
_cell_formula_units_Z   2
loop_
 _symmetry_equiv_pos_site_id
 _symmetry_equiv_pos_as_xyz
  1  'x, y, z'
loop_
 _atom_site_type_symbol
 _atom_site_label
 _atom_site_symmetry_multiplicity
 _atom_site_fract_x
 _atom_site_fract_y
 _atom_site_fract_z
 _atom_site_occupancy
  Yb  Yb0  1  0.97900846  0.25000000  0.60348391  1
  Yb  Yb1  1  0.25000000  0.97900846  0.10348391  1
  Yb  Yb2  1  0.25000000  0.52099154  0.10348391  1
  Yb  Yb3  1  0.52099154  0.25000000  0.60348391  1
  Yb  Yb4  1  0.47900846  0.75000000  0.39651609  1
  Yb  Yb5  1  0.75000000  0.47900846  0.89651609  1
  Yb  Yb6  1  0.75000000  0.02099154  0.89651609  1
  Yb  Yb7  1  0.02099154  0.75000000  0.39651609  1
  Br  Br8  1  0.04585340  0.95414660  0.75000000  1
  Br  Br9  1  0.04585340  0.54585340  0.75000000  1
  Br  Br10  1  0.25000000  0.25000000  0.89758386  1
  Br  Br11  1  0.25000000  0.25000000  0.39758386  1
  Br  Br12  1  0.45414660  0.54585340  0.75000000  1
  Br  Br13  1  0.45414660  0.95414660  0.75000000  1
  Br  Br14  1  0.54585340  0.04585340  0.25000000  1
  Br  Br15  1  0.54585340  0.45414660  0.25000000  1
  Br  Br16  1  0.75000000  0.75000000  0.10241614  1
  Br  Br17  1  0.75000000  0.75000000  0.60241614  1
  Br  Br18  1  0.95414660  0.04585340  0.25000000  1
  Br  Br19  1  0.95414660  0.45414660  0.25000000  1
  O  O20  1  0.25000000  0.75000000  0.25000000  1
  O  O21  1  0.75000000  0.25000000  0.75000000  1
