# generated using pymatgen
data_FeMoClO4
_symmetry_space_group_name_H-M   'P 1'
_cell_length_a   5.62605890
_cell_length_b   6.78433464
_cell_length_c   6.78433464
_cell_angle_alpha   90.00000000
_cell_angle_beta   90.00000000
_cell_angle_gamma   90.00000000
_symmetry_Int_Tables_number   1
_chemical_formula_structural   FeMoClO4
_chemical_formula_sum   'Fe2 Mo2 Cl2 O8'
_cell_volume   258.95171855
_cell_formula_units_Z   2
loop_
 _symmetry_equiv_pos_site_id
 _symmetry_equiv_pos_as_xyz
  1  'x, y, z'
loop_
 _atom_site_type_symbol
 _atom_site_label
 _atom_site_symmetry_multiplicity
 _atom_site_fract_x
 _atom_site_fract_y
 _atom_site_fract_z
 _atom_site_occupancy
  O  O0  1  0.18515484  0.96512337  0.25000000  1
  O  O1  1  0.18515484  0.53487663  0.25000000  1
  O  O2  1  0.18515484  0.25000000  0.53487663  1
  O  O3  1  0.18515484  0.25000000  0.96512337  1
  O  O4  1  0.81484516  0.75000000  0.46512337  1
  O  O5  1  0.81484516  0.03487663  0.75000000  1
  O  O6  1  0.81484516  0.75000000  0.03487663  1
  O  O7  1  0.81484516  0.46512337  0.75000000  1
  Cl  Cl8  1  0.66448814  0.25000000  0.25000000  1
  Cl  Cl9  1  0.33551186  0.75000000  0.75000000  1
  Fe  Fe10  1  0.26753866  0.25000000  0.25000000  1
  Fe  Fe11  1  0.73246134  0.75000000  0.75000000  1
  Mo  Mo12  1  0.00000000  0.25000000  0.75000000  1
  Mo  Mo13  1  0.00000000  0.75000000  0.25000000  1
