# generated using pymatgen
data_CaNiBP2H3O10
_symmetry_space_group_name_H-M   'P 1'
_cell_length_a   6.68114713
_cell_length_b   6.68114713
_cell_length_c   9.24140855
_cell_angle_alpha   70.34891968
_cell_angle_beta   70.34891968
_cell_angle_gamma   78.22795425
_symmetry_Int_Tables_number   1
_chemical_formula_structural   CaNiBP2H3O10
_chemical_formula_sum   'Ca2 Ni2 B2 P4 H6 O20'
_cell_volume   363.93555109
_cell_formula_units_Z   2
loop_
 _symmetry_equiv_pos_site_id
 _symmetry_equiv_pos_as_xyz
  1  'x, y, z'
loop_
 _atom_site_type_symbol
 _atom_site_label
 _atom_site_symmetry_multiplicity
 _atom_site_fract_x
 _atom_site_fract_y
 _atom_site_fract_z
 _atom_site_occupancy
  H  H0  1  0.99999984  0.49999950  0.00000064  1
  H  H1  1  0.49999953  0.00000029  0.50000023  1
  H  H2  1  0.33741228  0.69440590  0.41487935  1
  H  H3  1  0.30559290  0.66258812  0.08512137  1
  H  H4  1  0.69440568  0.33741305  0.91487892  1
  H  H5  1  0.66258805  0.30559366  0.58512090  1
  B  B6  1  0.47239666  0.52760399  0.24999956  1
  B  B7  1  0.52760351  0.47239717  0.75000034  1
  O  O8  1  0.70031513  0.52969467  0.24327332  1
  O  O9  1  0.32315334  0.56099368  0.39886795  1
  O  O10  1  0.52969490  0.70031597  0.74327276  1
  O  O11  1  0.29968345  0.47030650  0.75672697  1
  O  O12  1  0.47030543  0.29968359  0.25672749  1
  O  O13  1  0.43900519  0.67684628  0.10113295  1
  O  O14  1  0.34643387  0.97038046  0.47037055  1
  O  O15  1  0.02961941  0.65356613  0.02963001  1
  O  O16  1  0.65356646  0.02961910  0.52962971  1
  O  O17  1  0.97038092  0.34643344  0.97037024  1
  O  O18  1  0.67684700  0.43900588  0.60113230  1
  O  O19  1  0.93856297  0.73152488  0.61373560  1
  O  O20  1  0.73152571  0.93856275  0.11373575  1
  O  O21  1  0.06143736  0.26847468  0.38626465  1
  O  O22  1  0.73376471  0.93881969  0.79886461  1
  O  O23  1  0.06118080  0.26623615  0.70113499  1
  O  O24  1  0.26623546  0.06118148  0.20113529  1
  O  O25  1  0.93881937  0.73376500  0.29886382  1
  O  O26  1  0.56099356  0.32315329  0.89886770  1
  O  O27  1  0.26847463  0.06143682  0.88626451  1
  P  P28  1  0.84716198  0.71744720  0.17304717  1
  P  P29  1  0.28255268  0.15283894  0.32695316  1
  P  P30  1  0.71744606  0.84716063  0.67304749  1
  P  P31  1  0.15283819  0.28255397  0.82695273  1
  Ca  Ca32  1  0.87432324  0.12567679  0.24999971  1
  Ca  Ca33  1  0.12567709  0.87432278  0.75000054  1
  Ni  Ni34  1  0.50000059  0.99999961  0.00000043  1
  Ni  Ni35  1  0.00000038  0.50000017  0.50000005  1
