# generated using pymatgen
data_Cr2Fe3Sb(PO4)6
_symmetry_space_group_name_H-M   'P 1'
_cell_length_a   8.58032799
_cell_length_b   8.58032829
_cell_length_c   8.58032755
_cell_angle_alpha   60.66415664
_cell_angle_beta   60.66415817
_cell_angle_gamma   60.66415785
_symmetry_Int_Tables_number   1
_chemical_formula_structural   Cr2Fe3Sb(PO4)6
_chemical_formula_sum   'Cr2 Fe3 Sb1 P6 O24'
_cell_volume   453.37755195
_cell_formula_units_Z   1
loop_
 _symmetry_equiv_pos_site_id
 _symmetry_equiv_pos_as_xyz
  1  'x, y, z'
loop_
 _atom_site_type_symbol
 _atom_site_label
 _atom_site_symmetry_multiplicity
 _atom_site_fract_x
 _atom_site_fract_y
 _atom_site_fract_z
 _atom_site_occupancy
  Cr  Cr0  1  0.00417848  0.00417848  0.00417848  1
  Cr  Cr1  1  0.49823791  0.49823791  0.49823791  1
  Fe  Fe2  1  0.14642145  0.14642145  0.14642145  1
  Fe  Fe3  1  0.35627556  0.35627556  0.35627556  1
  Fe  Fe4  1  0.64449952  0.64449952  0.64449952  1
  Sb  Sb5  1  0.85612408  0.85612408  0.85612408  1
  P  P6  1  0.74649207  0.45325507  0.04911203  1
  P  P7  1  0.25436375  0.54002952  0.95075773  1
  P  P8  1  0.54002952  0.95075773  0.25436375  1
  P  P9  1  0.95075773  0.25436375  0.54002952  1
  P  P10  1  0.04911203  0.74649207  0.45325507  1
  P  P11  1  0.45325507  0.04911203  0.74649207  1
  O  O12  1  0.10046676  0.31489593  0.51463174  1
  O  O13  1  0.31489593  0.51463174  0.10046676  1
  O  O14  1  0.05933794  0.91025133  0.26080890  1
  O  O15  1  0.51463174  0.10046676  0.31489593  1
  O  O16  1  0.00962489  0.81720609  0.61103551  1
  O  O17  1  0.24677094  0.59298082  0.44399298  1
  O  O18  1  0.26080890  0.05933794  0.91025133  1
  O  O19  1  0.44399298  0.24677094  0.59298082  1
  O  O20  1  0.18121713  0.39008961  0.99130520  1
  O  O21  1  0.59298082  0.44399298  0.24677094  1
  O  O22  1  0.08857090  0.74565251  0.93137756  1
  O  O23  1  0.39008961  0.99130520  0.18121713  1
  O  O24  1  0.61103551  0.00962489  0.81720609  1
  O  O25  1  0.91025133  0.26080890  0.05933794  1
  O  O26  1  0.40702456  0.56193592  0.74716959  1
  O  O27  1  0.81720609  0.61103551  0.00962489  1
  O  O28  1  0.56193592  0.74716959  0.40702456  1
  O  O29  1  0.74565251  0.93137756  0.08857090  1
  O  O30  1  0.74716959  0.40702456  0.56193592  1
  O  O31  1  0.99130520  0.18121713  0.39008961  1
  O  O32  1  0.50296599  0.89093574  0.68000529  1
  O  O33  1  0.93137756  0.08857090  0.74565251  1
  O  O34  1  0.68000529  0.50296599  0.89093574  1
  O  O35  1  0.89093574  0.68000529  0.50296599  1
