# generated using pymatgen
data_Ag4P2S7
_symmetry_space_group_name_H-M   'P 1'
_cell_length_a   6.40783234
_cell_length_b   6.40783234
_cell_length_c   16.25279202
_cell_angle_alpha   93.42262481
_cell_angle_beta   98.79896465
_cell_angle_gamma   117.42509964
_symmetry_Int_Tables_number   1
_chemical_formula_structural   Ag4P2S7
_chemical_formula_sum   'Ag8 P4 S14'
_cell_volume   578.89313102
_cell_formula_units_Z   2
loop_
 _symmetry_equiv_pos_site_id
 _symmetry_equiv_pos_as_xyz
  1  'x, y, z'
loop_
 _atom_site_type_symbol
 _atom_site_label
 _atom_site_symmetry_multiplicity
 _atom_site_fract_x
 _atom_site_fract_y
 _atom_site_fract_z
 _atom_site_occupancy
  P  P0  1  0.57340908  0.93312170  0.85643188  1
  P  P1  1  0.42331019  0.28302280  0.35643188  1
  P  P2  1  0.42659092  0.06687830  0.14356812  1
  P  P3  1  0.57668981  0.71697720  0.64356812  1
  S  S4  1  0.23504170  0.64803895  0.59742441  1
  S  S5  1  0.55061453  0.63761729  0.90257559  1
  S  S6  1  0.38692592  0.57532565  0.32375908  1
  S  S7  1  0.75156657  0.06316685  0.17624092  1
  S  S8  1  0.25524612  1.00524612  0.25000000  1
  S  S9  1  0.44938547  0.36238271  0.09742441  1
  S  S10  1  0.76495830  0.35196105  0.40257559  1
  S  S11  1  0.74475388  -0.00524612  0.75000000  1
  S  S12  1  0.80737578  0.89975800  0.56805202  1
  S  S13  1  0.83170598  0.23932376  0.93194798  1
  S  S14  1  0.19262422  0.10024200  0.43194798  1
  S  S15  1  0.16829402  0.76067624  0.06805202  1
  S  S16  1  0.24843343  0.93683315  0.82375908  1
  S  S17  1  0.61307408  0.42467435  0.67624092  1
  Ag  Ag18  1  0.26699485  0.73893249  0.44504827  1
  Ag  Ag19  1  0.79388422  0.82194658  0.05495173  1
  Ag  Ag20  1  0.73300515  0.26106751  0.55495173  1
  Ag  Ag21  1  0.20611578  0.17805342  0.94504827  1
  Ag  Ag22  1  0.12481795  0.44545598  0.16294820  1
  Ag  Ag23  1  0.78250778  0.96186975  0.33705180  1
  Ag  Ag24  1  0.87518205  0.55454402  0.83705180  1
  Ag  Ag25  1  0.21749222  0.03813025  0.66294820  1
