# generated using pymatgen
data_B2Pd5
_symmetry_space_group_name_H-M   'P 1'
_cell_length_a   5.01244018
_cell_length_b   5.53172576
_cell_length_c   6.95358883
_cell_angle_alpha   96.60730047
_cell_angle_beta   111.12605909
_cell_angle_gamma   90.00000004
_symmetry_Int_Tables_number   1
_chemical_formula_structural   B2Pd5
_chemical_formula_sum   'B4 Pd10'
_cell_volume   178.47320338
_cell_formula_units_Z   2
loop_
 _symmetry_equiv_pos_site_id
 _symmetry_equiv_pos_as_xyz
  1  'x, y, z'
loop_
 _atom_site_type_symbol
 _atom_site_label
 _atom_site_symmetry_multiplicity
 _atom_site_fract_x
 _atom_site_fract_y
 _atom_site_fract_z
 _atom_site_occupancy
  B  B0  1  0.58735032  0.42154363  0.77135717  1
  B  B1  1  0.81599316  0.07845637  0.22864283  1
  B  B2  1  0.41264968  0.57845637  0.22864283  1
  B  B3  1  0.18400684  0.92154363  0.77135717  1
  Pd  Pd4  1  0.00492419  0.41947149  0.19191963  1
  Pd  Pd5  1  0.81300456  0.08052851  0.80808037  1
  Pd  Pd6  1  0.35842965  0.68513658  0.57559047  1
  Pd  Pd7  1  0.78283918  0.81486342  0.42440953  1
  Pd  Pd8  1  0.64157035  0.31486342  0.42440953  1
  Pd  Pd9  1  0.21716082  0.18513658  0.57559047  1
  Pd  Pd10  1  0.18699544  0.91947149  0.19191963  1
  Pd  Pd11  1  0.99507581  0.58052851  0.80808037  1
  Pd  Pd12  1  0.43132952  0.25000000  0.00000000  1
  Pd  Pd13  1  0.56867048  0.75000000  0.00000000  1
