# generated using pymatgen
data_Ta3SeI7
_symmetry_space_group_name_H-M   'P 1'
_cell_length_a   7.64371470
_cell_length_b   7.64371470
_cell_length_c   14.83594645
_cell_angle_alpha   90.00000000
_cell_angle_beta   90.00000000
_cell_angle_gamma   120.00000000
_symmetry_Int_Tables_number   1
_chemical_formula_structural   Ta3SeI7
_chemical_formula_sum   'Ta6 Se2 I14'
_cell_volume   750.67996710
_cell_formula_units_Z   2
loop_
 _symmetry_equiv_pos_site_id
 _symmetry_equiv_pos_as_xyz
  1  'x, y, z'
loop_
 _atom_site_type_symbol
 _atom_site_label
 _atom_site_symmetry_multiplicity
 _atom_site_fract_x
 _atom_site_fract_y
 _atom_site_fract_z
 _atom_site_occupancy
  Se  Se0  1  0.00000000  0.00000000  0.87760138  1
  Se  Se1  1  0.00000000  0.00000000  0.37760138  1
  I  I2  1  0.49793511  0.99587021  0.35440052  1
  I  I3  1  0.50206489  0.00412979  0.85440052  1
  I  I4  1  0.99587021  0.49793511  0.85440052  1
  I  I5  1  0.49793511  0.50206489  0.35440052  1
  I  I6  1  0.00412979  0.50206489  0.35440052  1
  I  I7  1  0.50206489  0.49793511  0.85440052  1
  I  I8  1  0.33333333  0.66666667  0.65395002  1
  I  I9  1  0.66666667  0.33333333  0.15395002  1
  I  I10  1  0.83219587  0.16780413  0.62376058  1
  I  I11  1  0.66439173  0.83219587  0.12376058  1
  I  I12  1  0.16780413  0.33560827  0.12376058  1
  I  I13  1  0.83219587  0.66439173  0.62376058  1
  I  I14  1  0.33560827  0.16780413  0.62376058  1
  I  I15  1  0.16780413  0.83219587  0.12376058  1
  Ta  Ta16  1  0.12975148  0.87024852  0.75015511  1
  Ta  Ta17  1  0.25950297  0.12975148  0.25015511  1
  Ta  Ta18  1  0.87024852  0.74049703  0.25015511  1
  Ta  Ta19  1  0.12975148  0.25950297  0.75015511  1
  Ta  Ta20  1  0.74049703  0.87024852  0.75015511  1
  Ta  Ta21  1  0.87024852  0.12975148  0.25015511  1
