# generated using pymatgen
data_Te2PdCl10
_symmetry_space_group_name_H-M   'P 1'
_cell_length_a   7.78147875
_cell_length_b   14.36795496
_cell_length_c   16.00615968
_cell_angle_alpha   90.18747106
_cell_angle_beta   90.00000000
_cell_angle_gamma   90.00000000
_symmetry_Int_Tables_number   1
_chemical_formula_structural   Te2PdCl10
_chemical_formula_sum   'Te8 Pd4 Cl40'
_cell_volume   1789.54207654
_cell_formula_units_Z   4
loop_
 _symmetry_equiv_pos_site_id
 _symmetry_equiv_pos_as_xyz
  1  'x, y, z'
loop_
 _atom_site_type_symbol
 _atom_site_label
 _atom_site_symmetry_multiplicity
 _atom_site_fract_x
 _atom_site_fract_y
 _atom_site_fract_z
 _atom_site_occupancy
  Cl  Cl0  1  0.56376629  0.49642016  0.17064191  1
  Cl  Cl1  1  0.06376629  0.00357984  0.32935809  1
  Cl  Cl2  1  0.43623371  0.50357984  0.82935809  1
  Cl  Cl3  1  0.93623371  0.99642016  0.67064191  1
  Cl  Cl4  1  0.13482037  0.45872021  0.21709910  1
  Cl  Cl5  1  0.63482037  0.04127979  0.28290090  1
  Cl  Cl6  1  0.86517963  0.54127979  0.78290090  1
  Cl  Cl7  1  0.36517963  0.95872021  0.71709910  1
  Cl  Cl8  1  0.43242715  0.28525260  0.24515782  1
  Cl  Cl9  1  0.93242715  0.21474740  0.25484218  1
  Cl  Cl10  1  0.56757285  0.71474740  0.75484218  1
  Cl  Cl11  1  0.06757285  0.78525260  0.74515782  1
  Cl  Cl12  1  0.20296223  0.10547778  0.11485978  1
  Cl  Cl13  1  0.70296223  0.39452222  0.38514022  1
  Cl  Cl14  1  0.79703777  0.89452222  0.88514022  1
  Cl  Cl15  1  0.29703777  0.60547778  0.61485978  1
  Cl  Cl16  1  0.26823684  0.86352753  0.92441722  1
  Cl  Cl17  1  0.76823684  0.63647247  0.57558278  1
  Cl  Cl18  1  0.73176316  0.13647247  0.07558278  1
  Cl  Cl19  1  0.23176316  0.36352753  0.42441722  1
  Cl  Cl20  1  0.17721829  0.87737697  0.12353189  1
  Cl  Cl21  1  0.67721829  0.62262303  0.37646811  1
  Cl  Cl22  1  0.82278171  0.12262303  0.87646811  1
  Cl  Cl23  1  0.32278171  0.37737697  0.62353189  1
  Cl  Cl24  1  0.29504585  0.09135494  0.91422032  1
  Cl  Cl25  1  0.79504585  0.40864506  0.58577968  1
  Cl  Cl26  1  0.70495415  0.90864506  0.08577968  1
  Cl  Cl27  1  0.20495415  0.59135494  0.41422032  1
  Cl  Cl28  1  0.13372007  0.63689441  0.02266364  1
  Cl  Cl29  1  0.63372007  0.86310559  0.47733636  1
  Cl  Cl30  1  0.86627993  0.36310559  0.97733636  1
  Cl  Cl31  1  0.36627993  0.13689441  0.52266364  1
  Cl  Cl32  1  0.69543372  0.66835278  0.99693174  1
  Cl  Cl33  1  0.19543372  0.83164722  0.50306826  1
  Cl  Cl34  1  0.30456628  0.33164722  0.00306826  1
  Cl  Cl35  1  0.80456628  0.16835278  0.49693174  1
  Cl  Cl36  1  0.88270545  0.71517572  0.18512949  1
  Cl  Cl37  1  0.38270545  0.78482428  0.31487051  1
  Cl  Cl38  1  0.11729455  0.28482428  0.81487051  1
  Cl  Cl39  1  0.61729455  0.21517572  0.68512949  1
  Pd  Pd40  1  0.23340926  0.98473137  0.01929738  1
  Pd  Pd41  1  0.73340926  0.51526863  0.48070262  1
  Pd  Pd42  1  0.76659074  0.01526863  0.98070262  1
  Pd  Pd43  1  0.26659074  0.48473137  0.51929738  1
  Te  Te44  1  0.56861291  0.25789843  0.54608873  1
  Te  Te45  1  0.06861291  0.24210157  0.95391127  1
  Te  Te46  1  0.43138709  0.74210157  0.45391127  1
  Te  Te47  1  0.93138709  0.75789843  0.04608873  1
  Te  Te48  1  0.09829469  0.94064395  0.78665433  1
  Te  Te49  1  0.59829469  0.55935605  0.71334567  1
  Te  Te50  1  0.90170531  0.05935605  0.21334567  1
  Te  Te51  1  0.40170531  0.44064395  0.28665433  1
