# generated using pymatgen
data_Ca2FeN2
_symmetry_space_group_name_H-M   'P 1'
_cell_length_a   4.96440291
_cell_length_b   5.97735288
_cell_length_c   6.54066420
_cell_angle_alpha   64.68425152
_cell_angle_beta   67.69710138
_cell_angle_gamma   65.46382543
_symmetry_Int_Tables_number   1
_chemical_formula_structural   Ca2FeN2
_chemical_formula_sum   'Ca4 Fe2 N4'
_cell_volume   154.71844021
_cell_formula_units_Z   2
loop_
 _symmetry_equiv_pos_site_id
 _symmetry_equiv_pos_as_xyz
  1  'x, y, z'
loop_
 _atom_site_type_symbol
 _atom_site_label
 _atom_site_symmetry_multiplicity
 _atom_site_fract_x
 _atom_site_fract_y
 _atom_site_fract_z
 _atom_site_occupancy
  N  N0  1  0.19068274  0.23892094  0.37971359  1
  N  N1  1  0.80931726  0.76107906  0.62028641  1
  N  N2  1  0.48068968  0.23484417  0.80377647  1
  N  N3  1  0.51931032  0.76515583  0.19622353  1
  Ca  Ca4  1  0.68102388  0.24016758  0.39778467  1
  Ca  Ca5  1  0.31897612  0.75983242  0.60221533  1
  Ca  Ca6  1  0.04115309  0.69312548  0.22456834  1
  Ca  Ca7  1  0.95884691  0.30687452  0.77543166  1
  Fe  Fe8  1  0.37317859  0.12434527  0.12929756  1
  Fe  Fe9  1  0.62682141  0.87565473  0.87070244  1
