# generated using pymatgen
data_LiCu(PO3)2
_symmetry_space_group_name_H-M   'P 1'
_cell_length_a   8.93016926
_cell_length_b   4.97864318
_cell_length_c   7.80584317
_cell_angle_alpha   89.27059475
_cell_angle_beta   114.56086606
_cell_angle_gamma   90.36609663
_symmetry_Int_Tables_number   1
_chemical_formula_structural   LiCu(PO3)2
_chemical_formula_sum   'Li2 Cu2 P4 O12'
_cell_volume   315.62207018
_cell_formula_units_Z   2
loop_
 _symmetry_equiv_pos_site_id
 _symmetry_equiv_pos_as_xyz
  1  'x, y, z'
loop_
 _atom_site_type_symbol
 _atom_site_label
 _atom_site_symmetry_multiplicity
 _atom_site_fract_x
 _atom_site_fract_y
 _atom_site_fract_z
 _atom_site_occupancy
  Li  Li0  1  0.30718903  0.35792842  0.13669555  1
  Li  Li1  1  0.72050759  0.85820536  0.90505463  1
  Cu  Cu2  1  0.37253419  0.86362819  0.94215592  1
  Cu  Cu3  1  0.90867984  0.35285968  0.91076789  1
  P  P4  1  0.09142155  0.81659068  0.49552261  1
  P  P5  1  0.10486573  0.86031169  0.10197146  1
  P  P6  1  0.61723645  0.36905698  0.05738482  1
  P  P7  1  0.87510378  0.31830593  0.47926242  1
  O  O8  1  0.02580194  0.53218547  0.54199371  1
  O  O9  1  0.24194502  0.90029920  0.65775300  1
  O  O10  1  0.10760347  0.75720412  0.31113343  1
  O  O11  1  0.11779331  0.16547283  0.11037660  1
  O  O12  1  0.58438650  0.65607857  0.98368156  1
  O  O13  1  0.25681513  0.72115206  0.10482945  1
  O  O14  1  0.71278952  0.20731736  0.97289420  1
  O  O15  1  0.47365638  0.22818603  0.07587167  1
  O  O16  1  0.81172132  0.29209579  0.62586869  1
  O  O17  1  0.93983531  0.75810882  0.95752168  1
  O  O18  1  0.75416411  0.42105568  0.28573479  1
  O  O19  1  0.94345183  0.03245617  0.44252492  1
