# generated using pymatgen
data_Ca2Bi2O5
_symmetry_space_group_name_H-M   'P 1'
_cell_length_a   10.28365366
_cell_length_b   10.23607501
_cell_length_c   10.66295715
_cell_angle_alpha   116.96257785
_cell_angle_beta   107.27285870
_cell_angle_gamma   93.72757369
_symmetry_Int_Tables_number   1
_chemical_formula_structural   Ca2Bi2O5
_chemical_formula_sum   'Ca12 Bi12 O30'
_cell_volume   928.65330583
_cell_formula_units_Z   6
loop_
 _symmetry_equiv_pos_site_id
 _symmetry_equiv_pos_as_xyz
  1  'x, y, z'
loop_
 _atom_site_type_symbol
 _atom_site_label
 _atom_site_symmetry_multiplicity
 _atom_site_fract_x
 _atom_site_fract_y
 _atom_site_fract_z
 _atom_site_occupancy
  O  O0  1  0.44426413  0.47785412  0.29480084  1
  O  O1  1  0.55573587  0.52214588  0.70519916  1
  O  O2  1  0.36697223  0.07015770  0.65206046  1
  O  O3  1  0.63302777  0.92984230  0.34793954  1
  O  O4  1  0.73191277  0.36254831  0.26145928  1
  O  O5  1  0.26808723  0.63745169  0.73854072  1
  O  O6  1  0.53904129  0.19276500  0.31766023  1
  O  O7  1  0.46095871  0.80723500  0.68233977  1
  O  O8  1  0.67740207  0.10413355  0.93125965  1
  O  O9  1  0.32259793  0.89586645  0.06874035  1
  O  O10  1  0.91528804  0.42921392  0.07745135  1
  O  O11  1  0.08471196  0.57078608  0.92254865  1
  O  O12  1  0.41166183  0.16853884  0.00060538  1
  O  O13  1  0.58833817  0.83146116  0.99939462  1
  O  O14  1  0.61875212  0.28022904  0.78357902  1
  O  O15  1  0.38124788  0.71977096  0.21642098  1
  O  O16  1  0.86078752  0.05823397  0.27446483  1
  O  O17  1  0.13921248  0.94176603  0.72553517  1
  O  O18  1  0.37884609  0.39702252  0.86321695  1
  O  O19  1  0.62115391  0.60297748  0.13678305  1
  O  O20  1  0.09662579  0.17414764  0.56750465  1
  O  O21  1  0.90337421  0.82585236  0.43249535  1
  O  O22  1  0.83036633  0.34764119  0.59469591  1
  O  O23  1  0.16963367  0.65235881  0.40530409  1
  O  O24  1  0.91994237  0.61826978  0.57678313  1
  O  O25  1  0.08005763  0.38173022  0.42321687  1
  O  O26  1  0.83797809  0.69311352  0.96441734  1
  O  O27  1  0.16202191  0.30688648  0.03558266  1
  O  O28  1  0.10771900  0.83303834  0.23510424  1
  O  O29  1  0.89228100  0.16696166  0.76489576  1
  Ca  Ca30  1  0.16844453  0.57066488  0.16001356  1
  Ca  Ca31  1  0.83155547  0.42933512  0.83998644  1
  Ca  Ca32  1  0.40740359  0.65366690  0.97561623  1
  Ca  Ca33  1  0.59259641  0.34633310  0.02438377  1
  Ca  Ca34  1  0.05773097  0.47919857  0.66246645  1
  Ca  Ca35  1  0.94226903  0.52080143  0.33753355  1
  Ca  Ca36  1  0.84792982  0.10664232  0.51576572  1
  Ca  Ca37  1  0.15207018  0.89335768  0.48423428  1
  Ca  Ca38  1  0.21549450  0.20158353  0.81700445  1
  Ca  Ca39  1  0.78450550  0.79841647  0.18299555  1
  Ca  Ca40  1  0.66027333  0.10178048  0.14632424  1
  Ca  Ca41  1  0.33972667  0.89821952  0.85367576  1
  Bi  Bi42  1  0.33645598  0.24860159  0.17877984  1
  Bi  Bi43  1  0.66354402  0.75139841  0.82122016  1
  Bi  Bi44  1  0.42475607  0.30739109  0.66711279  1
  Bi  Bi45  1  0.57524393  0.69260891  0.33288721  1
  Bi  Bi46  1  0.68831174  0.42645737  0.46561859  1
  Bi  Bi47  1  0.31168826  0.57354263  0.53438141  1
  Bi  Bi48  1  0.07609194  0.15033988  0.35290334  1
  Bi  Bi49  1  0.92390806  0.84966012  0.64709666  1
  Bi  Bi50  1  0.57252257  0.02219354  0.69614951  1
  Bi  Bi51  1  0.42747743  0.97780646  0.30385049  1
  Bi  Bi52  1  0.94109819  0.20648354  0.98686917  1
  Bi  Bi53  1  0.05890181  0.79351646  0.01313083  1
