# generated using pymatgen
data_TlBS3
_symmetry_space_group_name_H-M   'P 1'
_cell_length_a   5.83175826
_cell_length_b   7.06762981
_cell_length_c   12.17007674
_cell_angle_alpha   90.00000000
_cell_angle_beta   90.00000000
_cell_angle_gamma   113.67225668
_symmetry_Int_Tables_number   1
_chemical_formula_structural   TlBS3
_chemical_formula_sum   'Tl4 B4 S12'
_cell_volume   459.40355027
_cell_formula_units_Z   4
loop_
 _symmetry_equiv_pos_site_id
 _symmetry_equiv_pos_as_xyz
  1  'x, y, z'
loop_
 _atom_site_type_symbol
 _atom_site_label
 _atom_site_symmetry_multiplicity
 _atom_site_fract_x
 _atom_site_fract_y
 _atom_site_fract_z
 _atom_site_occupancy
  B  B0  1  0.64095409  0.70029426  0.23045556  1
  B  B1  1  0.85904591  0.29970574  0.73045556  1
  B  B2  1  0.35904591  0.29970574  0.76954444  1
  B  B3  1  0.14095409  0.70029426  0.26954444  1
  S  S4  1  0.16854730  0.94112958  0.18249731  1
  S  S5  1  0.33145270  0.05887042  0.68249731  1
  S  S6  1  0.83145270  0.05887042  0.81750269  1
  S  S7  1  0.66854730  0.94112958  0.31750269  1
  S  S8  1  0.32837690  0.81047517  0.40095454  1
  S  S9  1  0.17162310  0.18952483  0.90095454  1
  S  S10  1  0.67162310  0.18952483  0.59904546  1
  S  S11  1  0.82837690  0.81047517  0.09904546  1
  S  S12  1  0.29651153  0.53699311  0.19889868  1
  S  S13  1  0.20348847  0.46300689  0.69889868  1
  S  S14  1  0.70348847  0.46300689  0.80110132  1
  S  S15  1  0.79651153  0.53699311  0.30110132  1
  Tl  Tl16  1  0.72522395  0.24785837  0.08966548  1
  Tl  Tl17  1  0.77477605  0.75214163  0.58966548  1
  Tl  Tl18  1  0.27477605  0.75214163  0.91033452  1
  Tl  Tl19  1  0.22522395  0.24785837  0.41033452  1
