# generated using pymatgen
data_Er6Zn23
_symmetry_space_group_name_H-M   'P 1'
_cell_length_a   8.94107537
_cell_length_b   8.94107537
_cell_length_c   8.94107537
_cell_angle_alpha   59.99999998
_cell_angle_beta   59.99999998
_cell_angle_gamma   59.99999996
_symmetry_Int_Tables_number   1
_chemical_formula_structural   Er6Zn23
_chemical_formula_sum   'Er6 Zn23'
_cell_volume   505.42214885
_cell_formula_units_Z   1
loop_
 _symmetry_equiv_pos_site_id
 _symmetry_equiv_pos_as_xyz
  1  'x, y, z'
loop_
 _atom_site_type_symbol
 _atom_site_label
 _atom_site_symmetry_multiplicity
 _atom_site_fract_x
 _atom_site_fract_y
 _atom_site_fract_z
 _atom_site_occupancy
  Zn  Zn0  1  0.82951165  0.82951165  0.82951165  1
  Zn  Zn1  1  0.17048835  0.17048835  0.48853494  1
  Zn  Zn2  1  0.17048835  0.48853494  0.17048835  1
  Zn  Zn3  1  0.48853494  0.17048835  0.17048835  1
  Zn  Zn4  1  0.82951165  0.51146506  0.82951165  1
  Zn  Zn5  1  0.51146506  0.82951165  0.82951165  1
  Zn  Zn6  1  0.50000000  0.50000000  0.50000000  1
  Zn  Zn7  1  0.50000000  0.00000000  0.00000000  1
  Zn  Zn8  1  0.00000000  0.00000000  0.50000000  1
  Zn  Zn9  1  0.50000000  0.50000000  0.00000000  1
  Zn  Zn10  1  0.00000000  0.50000000  0.50000000  1
  Zn  Zn11  1  0.00000000  0.50000000  0.00000000  1
  Zn  Zn12  1  0.50000000  0.00000000  0.50000000  1
  Zn  Zn13  1  0.37738553  0.37738553  0.37738553  1
  Zn  Zn14  1  0.62261447  0.62261447  0.13215659  1
  Zn  Zn15  1  0.13215659  0.62261447  0.62261447  1
  Zn  Zn16  1  0.62261447  0.13215659  0.62261447  1
  Zn  Zn17  1  0.86784341  0.37738553  0.37738553  1
  Zn  Zn18  1  0.37738553  0.86784341  0.37738553  1
  Zn  Zn19  1  0.37738553  0.37738553  0.86784341  1
  Zn  Zn20  1  0.62261447  0.62261447  0.62261447  1
  Zn  Zn21  1  0.17048835  0.17048835  0.17048835  1
  Zn  Zn22  1  0.82951165  0.82951165  0.51146506  1
  Er  Er23  1  0.20505179  0.79494821  0.79494821  1
  Er  Er24  1  0.20505179  0.79494821  0.20505179  1
  Er  Er25  1  0.79494821  0.20505179  0.79494821  1
  Er  Er26  1  0.20505179  0.20505179  0.79494821  1
  Er  Er27  1  0.79494821  0.79494821  0.20505179  1
  Er  Er28  1  0.79494821  0.20505179  0.20505179  1
