# generated using pymatgen
data_Ce10Ga5Cl4
_symmetry_space_group_name_H-M   'P 1'
_cell_length_a   7.78373227
_cell_length_b   7.78373227
_cell_length_c   16.57767268
_cell_angle_alpha   103.57780206
_cell_angle_beta   103.57780209
_cell_angle_gamma   89.99999998
_symmetry_Int_Tables_number   1
_chemical_formula_structural   Ce10Ga5Cl4
_chemical_formula_sum   'Ce20 Ga10 Cl8'
_cell_volume   947.41070868
_cell_formula_units_Z   2
loop_
 _symmetry_equiv_pos_site_id
 _symmetry_equiv_pos_as_xyz
  1  'x, y, z'
loop_
 _atom_site_type_symbol
 _atom_site_label
 _atom_site_symmetry_multiplicity
 _atom_site_fract_x
 _atom_site_fract_y
 _atom_site_fract_z
 _atom_site_occupancy
  Cl  Cl0  1  0.86001389  0.63998611  0.00000000  1
  Cl  Cl1  1  0.36001389  0.86001389  0.00000000  1
  Cl  Cl2  1  0.63998611  0.13998611  0.00000000  1
  Cl  Cl3  1  0.13998611  0.36001389  0.00000000  1
  Cl  Cl4  1  0.44307352  0.44307352  0.88614703  1
  Cl  Cl5  1  0.05692648  0.05692648  0.11385297  1
  Cl  Cl6  1  0.55692648  0.55692648  0.11385297  1
  Cl  Cl7  1  0.94307352  0.94307352  0.88614703  1
  Ga  Ga8  1  0.25000000  0.25000000  0.50000000  1
  Ga  Ga9  1  0.75000000  0.75000000  0.50000000  1
  Ga  Ga10  1  0.48922500  0.98922500  0.73247656  1
  Ga  Ga11  1  0.75674844  0.25674844  0.26752344  1
  Ga  Ga12  1  0.51077500  0.01077500  0.26752344  1
  Ga  Ga13  1  0.25674844  0.51077500  0.26752344  1
  Ga  Ga14  1  0.01077500  0.75674844  0.26752344  1
  Ga  Ga15  1  0.74325156  0.48922500  0.73247656  1
  Ga  Ga16  1  0.98922500  0.24325156  0.73247656  1
  Ga  Ga17  1  0.24325156  0.74325156  0.73247656  1
  Ce  Ce18  1  0.15342378  0.15342378  0.30684757  1
  Ce  Ce19  1  0.34657622  0.34657622  0.69315243  1
  Ce  Ce20  1  0.65342378  0.65342378  0.30684757  1
  Ce  Ce21  1  0.84657622  0.84657622  0.69315243  1
  Ce  Ce22  1  0.46803909  0.62557247  0.59361156  1
  Ce  Ce23  1  0.53196091  0.37442753  0.40638844  1
  Ce  Ce24  1  0.87442753  0.03196091  0.40638844  1
  Ce  Ce25  1  0.37442753  0.87442753  0.40638844  1
  Ce  Ce26  1  0.03196091  0.53196091  0.40638844  1
  Ce  Ce27  1  0.96803909  0.46803909  0.59361156  1
  Ce  Ce28  1  0.62557247  0.12557247  0.59361156  1
  Ce  Ce29  1  0.12557247  0.96803909  0.59361156  1
  Ce  Ce30  1  0.60276476  0.75991528  0.86268004  1
  Ce  Ce31  1  0.39723524  0.24008472  0.13731996  1
  Ce  Ce32  1  0.74008472  0.89723524  0.13731996  1
  Ce  Ce33  1  0.24008472  0.74008472  0.13731996  1
  Ce  Ce34  1  0.89723524  0.39723524  0.13731996  1
  Ce  Ce35  1  0.10276476  0.60276476  0.86268004  1
  Ce  Ce36  1  0.75991528  0.25991528  0.86268004  1
  Ce  Ce37  1  0.25991528  0.10276476  0.86268004  1
