# generated using pymatgen
data_Sb4S5Cl2
_symmetry_space_group_name_H-M   'P 1'
_cell_length_a   9.56520405
_cell_length_b   11.20718614
_cell_length_c   12.05958025
_cell_angle_alpha   90.00000000
_cell_angle_beta   90.00000000
_cell_angle_gamma   90.00000000
_symmetry_Int_Tables_number   1
_chemical_formula_structural   Sb4S5Cl2
_chemical_formula_sum   'Sb16 S20 Cl8'
_cell_volume   1292.77521161
_cell_formula_units_Z   4
loop_
 _symmetry_equiv_pos_site_id
 _symmetry_equiv_pos_as_xyz
  1  'x, y, z'
loop_
 _atom_site_type_symbol
 _atom_site_label
 _atom_site_symmetry_multiplicity
 _atom_site_fract_x
 _atom_site_fract_y
 _atom_site_fract_z
 _atom_site_occupancy
  S  S0  1  0.94195765  0.98439409  0.14395717  1
  S  S1  1  0.55364206  0.18900379  0.51742209  1
  S  S2  1  0.44635794  0.31099621  0.01742209  1
  S  S3  1  0.94635794  0.68900379  0.98257791  1
  S  S4  1  0.44195765  0.01560591  0.85604283  1
  S  S5  1  0.05364206  0.81099621  0.48257791  1
  S  S6  1  0.05804235  0.51560591  0.64395717  1
  S  S7  1  0.55804235  0.48439409  0.35604283  1
  S  S8  1  0.25000000  0.82152013  0.03042063  1
  S  S9  1  0.75000000  0.17847987  0.96957937  1
  S  S10  1  0.25000000  0.32152013  0.46957937  1
  S  S11  1  0.75000000  0.67847987  0.53042063  1
  S  S12  1  0.94635794  0.18900379  0.51742209  1
  S  S13  1  0.44635794  0.81099621  0.48257791  1
  S  S14  1  0.55364206  0.68900379  0.98257791  1
  S  S15  1  0.05364206  0.31099621  0.01742209  1
  S  S16  1  0.44195765  0.51560591  0.64395717  1
  S  S17  1  0.94195765  0.48439409  0.35604283  1
  S  S18  1  0.05804235  0.01560591  0.85604283  1
  S  S19  1  0.55804235  0.98439409  0.14395717  1
  Cl  Cl20  1  0.75000000  0.98422709  0.65425058  1
  Cl  Cl21  1  0.25000000  0.01577291  0.34574942  1
  Cl  Cl22  1  0.25000000  0.78579035  0.72887761  1
  Cl  Cl23  1  0.25000000  0.51577291  0.15425058  1
  Cl  Cl24  1  0.75000000  0.71420965  0.22887761  1
  Cl  Cl25  1  0.25000000  0.28579035  0.77112239  1
  Cl  Cl26  1  0.75000000  0.21420965  0.27112239  1
  Cl  Cl27  1  0.75000000  0.48422709  0.84574942  1
  Sb  Sb28  1  0.75000000  0.95531070  0.00452873  1
  Sb  Sb29  1  0.25000000  0.04468930  0.99547127  1
  Sb  Sb30  1  0.75000000  0.45531070  0.49547127  1
  Sb  Sb31  1  0.25000000  0.54468930  0.50452873  1
  Sb  Sb32  1  0.25000000  0.93997981  0.54500908  1
  Sb  Sb33  1  0.75000000  0.06002019  0.45499092  1
  Sb  Sb34  1  0.25000000  0.43997981  0.95499092  1
  Sb  Sb35  1  0.75000000  0.56002019  0.04500908  1
  Sb  Sb36  1  0.53155207  0.22154482  0.84230443  1
  Sb  Sb37  1  0.03155207  0.77845518  0.15769557  1
  Sb  Sb38  1  0.96844793  0.72154482  0.65769557  1
  Sb  Sb39  1  0.46844793  0.27845518  0.34230443  1
  Sb  Sb40  1  0.46844793  0.77845518  0.15769557  1
  Sb  Sb41  1  0.96844793  0.22154482  0.84230443  1
  Sb  Sb42  1  0.03155207  0.27845518  0.34230443  1
  Sb  Sb43  1  0.53155207  0.72154482  0.65769557  1
