# generated using pymatgen
data_H5NO5
_symmetry_space_group_name_H-M   'P 1'
_cell_length_a   6.77249668
_cell_length_b   9.69906848
_cell_length_c   13.00210928
_cell_angle_alpha   90.00000000
_cell_angle_beta   90.00000000
_cell_angle_gamma   98.22310758
_symmetry_Int_Tables_number   1
_chemical_formula_structural   H5NO5
_chemical_formula_sum   'H40 N8 O40'
_cell_volume   845.28737526
_cell_formula_units_Z   8
loop_
 _symmetry_equiv_pos_site_id
 _symmetry_equiv_pos_as_xyz
  1  'x, y, z'
loop_
 _atom_site_type_symbol
 _atom_site_label
 _atom_site_symmetry_multiplicity
 _atom_site_fract_x
 _atom_site_fract_y
 _atom_site_fract_z
 _atom_site_occupancy
  H  H0  1  0.76076638  0.04072394  0.22582306  1
  H  H1  1  0.13744885  0.25768812  0.96365241  1
  H  H2  1  0.63744885  0.75768812  0.53634759  1
  H  H3  1  0.36255115  0.24231188  0.46365241  1
  H  H4  1  0.73923362  0.45927606  0.72582306  1
  H  H5  1  0.23923362  0.95927606  0.77417694  1
  H  H6  1  0.26076638  0.54072394  0.27417694  1
  H  H7  1  0.70702180  0.16325107  0.15002458  1
  H  H8  1  0.79297820  0.33674893  0.65002458  1
  H  H9  1  0.29297820  0.83674893  0.84997542  1
  H  H10  1  0.20702180  0.66325107  0.34997542  1
  H  H11  1  0.82943388  0.40442480  0.33390432  1
  H  H12  1  0.67056612  0.09557520  0.83390432  1
  H  H13  1  0.17056612  0.59557520  0.66609568  1
  H  H14  1  0.32943388  0.90442480  0.16609568  1
  H  H15  1  0.81284354  0.23349274  0.28635893  1
  H  H16  1  0.68715646  0.26650726  0.78635893  1
  H  H17  1  0.18715646  0.76650726  0.71364107  1
  H  H18  1  0.31284354  0.73349274  0.21364107  1
  H  H19  1  0.87351072  0.28051653  0.41273417  1
  H  H20  1  0.62648928  0.21948347  0.91273417  1
  H  H21  1  0.12648928  0.71948347  0.58726583  1
  H  H22  1  0.37351072  0.78051653  0.08726583  1
  H  H23  1  0.86370628  0.77531586  0.16872673  1
  H  H24  1  0.86255115  0.74231188  0.03634759  1
  H  H25  1  0.36370628  0.27531586  0.33127327  1
  H  H26  1  0.13629372  0.22468414  0.83127327  1
  H  H27  1  0.63629372  0.72468414  0.66872673  1
  H  H28  1  0.52342072  0.59804671  0.79106366  1
  H  H29  1  0.02342072  0.09804671  0.70893634  1
  H  H30  1  0.47657928  0.40195329  0.20893634  1
  H  H31  1  0.76121847  0.82332944  0.31272950  1
  H  H32  1  0.73878153  0.67667056  0.81272950  1
  H  H33  1  0.23878153  0.17667056  0.68727050  1
  H  H34  1  0.26121847  0.32332944  0.18727050  1
  H  H35  1  0.81677508  0.60860564  0.12080754  1
  H  H36  1  0.68322492  0.89139436  0.62080754  1
  H  H37  1  0.18322492  0.39139436  0.87919246  1
  H  H38  1  0.31677508  0.10860564  0.37919246  1
  H  H39  1  0.97657928  0.90195329  0.29106366  1
  N  N40  1  0.71086214  0.59551866  0.41848000  1
  N  N41  1  0.78913786  0.90448134  0.91848000  1
  N  N42  1  0.28913786  0.40448134  0.58152000  1
  N  N43  1  0.21086214  0.09551866  0.08152000  1
  N  N44  1  0.69602945  0.39593059  0.03915060  1
  N  N45  1  0.80397055  0.10406941  0.53915060  1
  N  N46  1  0.30397055  0.60406941  0.96084940  1
  N  N47  1  0.19602945  0.89593059  0.46084940  1
  O  O48  1  0.71735597  0.13400469  0.22217598  1
  O  O49  1  0.78264403  0.36599531  0.72217598  1
  O  O50  1  0.28264403  0.86599531  0.77782402  1
  O  O51  1  0.88846088  0.31334380  0.33845101  1
  O  O52  1  0.61153912  0.18665620  0.83845101  1
  O  O53  1  0.11153912  0.68665620  0.66154899  1
  O  O54  1  0.38846088  0.81334380  0.16154899  1
  O  O55  1  0.73217248  0.52912213  0.49831285  1
  O  O56  1  0.76782752  0.97087787  0.99831285  1
  O  O57  1  0.26782752  0.47087787  0.50168715  1
  O  O58  1  0.23217248  0.02912213  0.00168715  1
  O  O59  1  0.73766901  0.54749595  0.32939324  1
  O  O60  1  0.76233099  0.95250405  0.82939324  1
  O  O61  1  0.26233099  0.45250405  0.67060676  1
  O  O62  1  0.23766901  0.04749595  0.17060676  1
  O  O63  1  0.66015611  0.71919291  0.42325101  1
  O  O64  1  0.83984389  0.78080709  0.92325101  1
  O  O65  1  0.33984389  0.28080709  0.57674899  1
  O  O66  1  0.16015611  0.21919291  0.07674899  1
  O  O67  1  0.84486348  0.87482028  0.25820589  1
  O  O68  1  0.65513652  0.62517972  0.75820589  1
  O  O69  1  0.15513652  0.12517972  0.74179411  1
  O  O70  1  0.34486348  0.37482028  0.24179411  1
  O  O71  1  0.88913400  0.70744448  0.10986196  1
  O  O72  1  0.61086600  0.79255552  0.60986196  1
  O  O73  1  0.11086600  0.29255552  0.89013804  1
  O  O74  1  0.38913400  0.20744448  0.39013804  1
  O  O75  1  0.73206594  0.46865974  0.96112421  1
  O  O76  1  0.76793406  0.03134026  0.46112421  1
  O  O77  1  0.26793406  0.53134026  0.03887579  1
  O  O78  1  0.23206594  0.96865974  0.53887579  1
  O  O79  1  0.71069210  0.45043524  0.12969196  1
  O  O80  1  0.78930790  0.04956476  0.62969196  1
  O  O81  1  0.28930790  0.54956476  0.87030804  1
  O  O82  1  0.21069210  0.95043524  0.37030804  1
  O  O83  1  0.64274412  0.26410819  0.03292584  1
  O  O84  1  0.85725588  0.23589181  0.53292584  1
  O  O85  1  0.35725588  0.73589181  0.96707416  1
  O  O86  1  0.14274412  0.76410819  0.46707416  1
  O  O87  1  0.21735597  0.63400469  0.27782402  1
