# generated using pymatgen
data_SbIF10
_symmetry_space_group_name_H-M   'P 1'
_cell_length_a   8.38622250
_cell_length_b   8.45057978
_cell_length_c   12.22101037
_cell_angle_alpha   110.22696353
_cell_angle_beta   110.06626803
_cell_angle_gamma   90.00000001
_symmetry_Int_Tables_number   1
_chemical_formula_structural   SbIF10
_chemical_formula_sum   'Sb4 I4 F40'
_cell_volume   756.39518154
_cell_formula_units_Z   4
loop_
 _symmetry_equiv_pos_site_id
 _symmetry_equiv_pos_as_xyz
  1  'x, y, z'
loop_
 _atom_site_type_symbol
 _atom_site_label
 _atom_site_symmetry_multiplicity
 _atom_site_fract_x
 _atom_site_fract_y
 _atom_site_fract_z
 _atom_site_occupancy
  F  F0  1  0.12857384  0.11009980  0.17004565  1
  F  F1  1  0.45852818  0.38990020  0.82995435  1
  F  F2  1  0.37142616  0.94005415  0.82995435  1
  F  F3  1  0.04147182  0.55994585  0.17004565  1
  F  F4  1  0.87142616  0.88990020  0.82995435  1
  F  F5  1  0.54147182  0.61009980  0.17004565  1
  F  F6  1  0.62857384  0.05994585  0.17004565  1
  F  F7  1  0.95852818  0.44005415  0.82995435  1
  F  F8  1  0.17391369  0.66339038  0.59068588  1
  F  F9  1  0.08322782  0.83660962  0.40931412  1
  F  F10  1  0.32608631  0.07270450  0.40931412  1
  F  F11  1  0.41677218  0.42729550  0.59068588  1
  F  F12  1  0.82608631  0.33660962  0.40931412  1
  F  F13  1  0.91677218  0.16339038  0.59068588  1
  F  F14  1  0.67391369  0.92729550  0.59068588  1
  F  F15  1  0.58322782  0.57270450  0.40931412  1
  F  F16  1  0.17449153  0.42243076  0.65494735  1
  F  F17  1  0.01954418  0.07756924  0.34505265  1
  F  F18  1  0.32550847  0.76748340  0.34505265  1
  F  F19  1  0.48045582  0.73251660  0.65494735  1
  F  F20  1  0.82550847  0.57756924  0.34505265  1
  F  F21  1  0.98045582  0.92243076  0.65494735  1
  F  F22  1  0.67449153  0.23251660  0.65494735  1
  F  F23  1  0.51954418  0.26748340  0.34505265  1
  F  F24  1  0.00302011  0.75302011  0.00604022  1
  F  F25  1  0.49697989  0.74697989  0.99395978  1
  F  F26  1  0.99697989  0.24697989  0.99395978  1
  F  F27  1  0.50302011  0.25302011  0.00604022  1
  F  F28  1  0.82514762  0.57514762  0.65029525  1
  F  F29  1  0.67485238  0.92485238  0.34970475  1
  F  F30  1  0.17485238  0.42485238  0.34970475  1
  F  F31  1  0.32514762  0.07514762  0.65029525  1
  F  F32  1  0.14171594  0.70755645  0.82923626  1
  F  F33  1  0.81247968  0.79244355  0.17076374  1
  F  F34  1  0.35828406  0.87832019  0.17076374  1
  F  F35  1  0.68752032  0.62167981  0.82923626  1
  F  F36  1  0.85828406  0.29244355  0.17076374  1
  F  F37  1  0.18752032  0.20755645  0.82923626  1
  F  F38  1  0.64171594  0.12167981  0.82923626  1
  F  F39  1  0.31247968  0.37832019  0.17076374  1
  Sb  Sb40  1  0.41399797  0.16399797  0.82799594  1
  Sb  Sb41  1  0.08600203  0.33600203  0.17200406  1
  Sb  Sb42  1  0.58600203  0.83600203  0.17200406  1
  Sb  Sb43  1  0.91399797  0.66399797  0.82799594  1
  I  I44  1  0.85047323  0.10047323  0.70094645  1
  I  I45  1  0.64952677  0.39952677  0.29905355  1
  I  I46  1  0.14952677  0.89952677  0.29905355  1
  I  I47  1  0.35047323  0.60047323  0.70094645  1
