# generated using pymatgen
data_Cd2P3Br
_symmetry_space_group_name_H-M   'P 1'
_cell_length_a   6.17823179
_cell_length_b   6.17823179
_cell_length_c   7.65239349
_cell_angle_alpha   96.69083379
_cell_angle_beta   96.69083382
_cell_angle_gamma   96.58876909
_symmetry_Int_Tables_number   1
_chemical_formula_structural   Cd2P3Br
_chemical_formula_sum   'Cd4 P6 Br2'
_cell_volume   285.68261755
_cell_formula_units_Z   2
loop_
 _symmetry_equiv_pos_site_id
 _symmetry_equiv_pos_as_xyz
  1  'x, y, z'
loop_
 _atom_site_type_symbol
 _atom_site_label
 _atom_site_symmetry_multiplicity
 _atom_site_fract_x
 _atom_site_fract_y
 _atom_site_fract_z
 _atom_site_occupancy
  P  P0  1  0.94292834  0.55296011  0.95691825  1
  P  P1  1  0.55296011  0.94292834  0.45691825  1
  P  P2  1  0.68075618  0.58943527  0.74341819  1
  P  P3  1  0.58943527  0.68075618  0.24341819  1
  P  P4  1  0.81506798  0.90738501  0.67083297  1
  P  P5  1  0.90738501  0.81506798  0.17083297  1
  Br  Br6  1  0.12214732  0.37377105  0.45330442  1
  Br  Br7  1  0.37377105  0.12214732  0.95330442  1
  Cd  Cd8  1  0.64978346  0.35345991  0.42396692  1
  Cd  Cd9  1  0.35345991  0.64978346  0.92396692  1
  Cd  Cd10  1  0.14281201  0.84749337  0.49155925  1
  Cd  Cd11  1  0.84749337  0.14281201  0.99155925  1
