# generated using pymatgen
data_Rb2Bi8Se13
_symmetry_space_group_name_H-M   'P 1'
_cell_length_a   4.22101778
_cell_length_b   13.89366320
_cell_length_c   25.28277362
_cell_angle_alpha   96.63142020
_cell_angle_beta   90.00000000
_cell_angle_gamma   90.00000000
_symmetry_Int_Tables_number   1
_chemical_formula_structural   Rb2Bi8Se13
_chemical_formula_sum   'Rb4 Bi16 Se26'
_cell_volume   1472.79835755
_cell_formula_units_Z   2
loop_
 _symmetry_equiv_pos_site_id
 _symmetry_equiv_pos_as_xyz
  1  'x, y, z'
loop_
 _atom_site_type_symbol
 _atom_site_label
 _atom_site_symmetry_multiplicity
 _atom_site_fract_x
 _atom_site_fract_y
 _atom_site_fract_z
 _atom_site_occupancy
  Se  Se0  1  0.25000000  0.61219034  0.48779862  1
  Se  Se1  1  0.75000000  0.38780966  0.51220138  1
  Se  Se2  1  0.75000000  0.51639149  0.37262766  1
  Se  Se3  1  0.25000000  0.48360851  0.62737234  1
  Se  Se4  1  0.25000000  0.55350110  0.23884951  1
  Se  Se5  1  0.75000000  0.44649890  0.76115049  1
  Se  Se6  1  0.25000000  0.25894219  0.27967252  1
  Se  Se7  1  0.75000000  0.74105781  0.72032748  1
  Se  Se8  1  0.75000000  0.32346840  0.14596298  1
  Se  Se9  1  0.25000000  0.67653160  0.85403702  1
  Se  Se10  1  0.25000000  0.40675584  0.02124070  1
  Se  Se11  1  0.75000000  0.59324416  0.97875930  1
  Se  Se12  1  0.25000000  0.10349482  0.04841919  1
  Se  Se13  1  0.75000000  0.89650518  0.95158081  1
  Se  Se14  1  0.25000000  0.81478011  0.08780552  1
  Se  Se15  1  0.75000000  0.18521989  0.91219448  1
  Se  Se16  1  0.75000000  0.75359757  0.23513822  1
  Se  Se17  1  0.25000000  0.24640243  0.76486178  1
  Se  Se18  1  0.75000000  0.03669937  0.18245690  1
  Se  Se19  1  0.25000000  0.96330063  0.81754310  1
  Se  Se20  1  0.25000000  0.09924528  0.55094586  1
  Se  Se21  1  0.75000000  0.90075472  0.44905414  1
  Se  Se22  1  0.25000000  0.80979133  0.58556574  1
  Se  Se23  1  0.75000000  0.19020867  0.41443426  1
  Se  Se24  1  0.75000000  0.02652898  0.68074653  1
  Se  Se25  1  0.25000000  0.97347102  0.31925347  1
  Rb  Rb26  1  0.75000000  0.58132657  0.11900839  1
  Rb  Rb27  1  0.25000000  0.41867343  0.88099161  1
  Rb  Rb28  1  0.25000000  0.72280673  0.36172163  1
  Rb  Rb29  1  0.75000000  0.27719327  0.63827837  1
  Bi  Bi30  1  0.25000000  0.42839146  0.43631086  1
  Bi  Bi31  1  0.75000000  0.57160854  0.56368914  1
  Bi  Bi32  1  0.25000000  0.19086362  0.16932936  1
  Bi  Bi33  1  0.75000000  0.80913638  0.83067064  1
  Bi  Bi34  1  0.75000000  0.95365132  0.07001627  1
  Bi  Bi35  1  0.25000000  0.04634868  0.92998373  1
  Bi  Bi36  1  0.75000000  0.11661349  0.30759848  1
  Bi  Bi37  1  0.25000000  0.88338651  0.69240152  1
  Bi  Bi38  1  0.75000000  0.43639974  0.26753028  1
  Bi  Bi39  1  0.25000000  0.56360026  0.73246972  1
  Bi  Bi40  1  0.75000000  0.27721955  0.03208870  1
  Bi  Bi41  1  0.25000000  0.72278045  0.96791130  1
  Bi  Bi42  1  0.25000000  0.87500162  0.21240242  1
  Bi  Bi43  1  0.75000000  0.12499838  0.78759758  1
  Bi  Bi44  1  0.25000000  0.04993508  0.44047636  1
  Bi  Bi45  1  0.75000000  0.95006492  0.55952364  1
