# generated using pymatgen
data_Sb5PO10
_symmetry_space_group_name_H-M   'P 1'
_cell_length_a   6.89831379
_cell_length_b   7.28101776
_cell_length_c   20.34541086
_cell_angle_alpha   90.00000000
_cell_angle_beta   90.00000000
_cell_angle_gamma   90.00000000
_symmetry_Int_Tables_number   1
_chemical_formula_structural   Sb5PO10
_chemical_formula_sum   'Sb20 P4 O40'
_cell_volume   1021.88376764
_cell_formula_units_Z   4
loop_
 _symmetry_equiv_pos_site_id
 _symmetry_equiv_pos_as_xyz
  1  'x, y, z'
loop_
 _atom_site_type_symbol
 _atom_site_label
 _atom_site_symmetry_multiplicity
 _atom_site_fract_x
 _atom_site_fract_y
 _atom_site_fract_z
 _atom_site_occupancy
  O  O0  1  0.28280122  0.97492209  0.52150729  1
  O  O1  1  0.78280122  0.52507791  0.47849271  1
  O  O2  1  0.71719878  0.47492209  0.97849271  1
  O  O3  1  0.21719878  0.02507791  0.02150729  1
  O  O4  1  0.42358125  0.52970235  0.49406753  1
  O  O5  1  0.92358125  0.97029765  0.50593247  1
  O  O6  1  0.57641875  0.02970235  0.00593247  1
  O  O7  1  0.07641875  0.47029765  0.99406753  1
  O  O8  1  0.03421910  0.98656012  0.34444355  1
  O  O9  1  0.53421910  0.51343988  0.65555645  1
  O  O10  1  0.96578090  0.48656012  0.15555645  1
  O  O11  1  0.46578090  0.01343988  0.84444355  1
  O  O12  1  0.65393318  0.41439521  0.25320749  1
  O  O13  1  0.15393318  0.08560479  0.74679251  1
  O  O14  1  0.34606682  0.91439521  0.24679251  1
  O  O15  1  0.11264114  0.25839953  0.47585265  1
  O  O16  1  0.84606682  0.58560479  0.75320749  1
  O  O17  1  0.57084390  0.32610975  0.40275078  1
  O  O18  1  0.92915610  0.67389025  0.90275078  1
  O  O19  1  0.42915610  0.82610975  0.09724922  1
  O  O20  1  0.12407100  0.62748364  0.40916496  1
  O  O21  1  0.62407100  0.87251636  0.59083504  1
  O  O22  1  0.87592900  0.12748364  0.09083504  1
  O  O23  1  0.37592900  0.37251636  0.90916496  1
  O  O24  1  0.76901434  0.23124311  0.70018551  1
  O  O25  1  0.26901434  0.26875689  0.29981449  1
  O  O26  1  0.23098566  0.73124311  0.79981449  1
  O  O27  1  0.73098566  0.76875689  0.20018551  1
  O  O28  1  0.84828616  0.95078207  0.79756202  1
  O  O29  1  0.34828616  0.54921793  0.20243798  1
  O  O30  1  0.15171384  0.45078207  0.70243798  1
  O  O31  1  0.65171384  0.04921793  0.29756202  1
  O  O32  1  0.56937858  0.86612196  0.71897362  1
  O  O33  1  0.06937858  0.63387804  0.28102638  1
  O  O34  1  0.43062142  0.36612196  0.78102638  1
  O  O35  1  0.93062142  0.13387804  0.21897362  1
  O  O36  1  0.38735886  0.74160047  0.97585265  1
  O  O37  1  0.88735886  0.75839953  0.02414735  1
  O  O38  1  0.61264114  0.24160047  0.52414735  1
  O  O39  1  0.07084390  0.17389025  0.59724922  1
  P  P40  1  0.09728807  0.09372432  0.52726677  1
  P  P41  1  0.59728807  0.40627568  0.47273323  1
  P  P42  1  0.90271193  0.59372432  0.97273323  1
  P  P43  1  0.40271193  0.90627568  0.02726677  1
  Sb  Sb44  1  0.10842290  0.53177108  0.49966361  1
  Sb  Sb45  1  0.60842290  0.96822892  0.50033639  1
  Sb  Sb46  1  0.89157710  0.03177108  1.00033639  1
  Sb  Sb47  1  0.39157710  0.46822892  -0.00033639  1
  Sb  Sb48  1  0.91202688  0.73650406  0.35513042  1
  Sb  Sb49  1  0.41202688  0.76349594  0.64486958  1
  Sb  Sb50  1  0.08797312  0.23650406  0.14486958  1
  Sb  Sb51  1  0.58797312  0.26349594  0.85513042  1
  Sb  Sb52  1  0.35139689  0.02829222  0.33912040  1
  Sb  Sb53  1  0.85139689  0.47170778  0.66087960  1
  Sb  Sb54  1  0.64860311  0.52829222  0.16087960  1
  Sb  Sb55  1  0.14860311  0.97170778  0.83912040  1
  Sb  Sb56  1  0.59518739  0.01013432  0.19602582  1
  Sb  Sb57  1  0.09518739  0.48986568  0.80397418  1
  Sb  Sb58  1  0.40481261  0.51013432  0.30397418  1
  Sb  Sb59  1  0.90481261  0.98986568  0.69602582  1
  Sb  Sb60  1  0.87597340  0.22978040  0.31060991  1
  Sb  Sb61  1  0.37597340  0.27021960  0.68939009  1
  Sb  Sb62  1  0.12402660  0.72978040  0.18939009  1
  Sb  Sb63  1  0.62402660  0.77021960  0.81060991  1
