# generated using pymatgen
data_Li2MnNb3O8
_symmetry_space_group_name_H-M   'P 1'
_cell_length_a   6.13443956
_cell_length_b   6.13447621
_cell_length_c   10.26159796
_cell_angle_alpha   90.00038942
_cell_angle_beta   90.00015469
_cell_angle_gamma   120.00021270
_symmetry_Int_Tables_number   1
_chemical_formula_structural   Li2MnNb3O8
_chemical_formula_sum   'Li4 Mn2 Nb6 O16'
_cell_volume   334.42372093
_cell_formula_units_Z   2
loop_
 _symmetry_equiv_pos_site_id
 _symmetry_equiv_pos_as_xyz
  1  'x, y, z'
loop_
 _atom_site_type_symbol
 _atom_site_label
 _atom_site_symmetry_multiplicity
 _atom_site_fract_x
 _atom_site_fract_y
 _atom_site_fract_z
 _atom_site_occupancy
  Li  Li0  1  0.33333735  0.66668564  0.89036316  1
  Li  Li1  1  0.99999574  -0.00000058  0.99527255  1
  Li  Li2  1  0.00000537  0.00000458  0.49527789  1
  Li  Li3  1  0.66665986  0.33334779  0.39036738  1
  Mn  Mn4  1  0.33332401  0.66667990  0.50118534  1
  Mn  Mn5  1  0.66665994  0.33334316  0.00120285  1
  Nb  Nb6  1  0.17678528  0.82322354  0.21410141  1
  Nb  Nb7  1  0.17678650  0.35358441  0.21410137  1
  Nb  Nb8  1  0.64642487  0.82322591  0.21410170  1
  Nb  Nb9  1  0.35356201  0.17679456  0.71407482  1
  Nb  Nb10  1  0.82322241  0.64645135  0.71407769  1
  Nb  Nb11  1  0.82322047  0.17678912  0.71407583  1
  O  O12  1  0.15650530  0.84350999  0.60618564  1
  O  O13  1  0.02560882  0.51281909  0.33586110  1
  O  O14  1  0.33333210  0.66667345  0.08454239  1
  O  O15  1  0.00000044  0.00001533  0.31411523  1
  O  O16  1  0.00000318  0.00001310  0.81411648  1
  O  O17  1  0.15650351  0.31300641  0.60618261  1
  O  O18  1  0.48718487  0.97438459  0.33586965  1
  O  O19  1  0.48718972  0.51282772  0.33586615  1
  O  O20  1  0.31299865  0.15650800  0.10619139  1
  O  O21  1  0.68700330  0.84350819  0.60618602  1
  O  O22  1  0.51280987  0.48720727  0.83587007  1
  O  O23  1  0.51280461  0.02562459  0.83586702  1
  O  O24  1  0.66666985  0.33334479  0.58454299  1
  O  O25  1  0.84349410  0.68700800  0.10619446  1
  O  O26  1  0.97440950  0.48721386  0.83586104  1
  O  O27  1  0.84349840  0.15650727  0.10618576  1
