# generated using pymatgen
data_ThFe3
_symmetry_space_group_name_H-M   'P 1'
_cell_length_a   5.14252652
_cell_length_b   5.14252652
_cell_length_c   8.84044154
_cell_angle_alpha   73.09100815
_cell_angle_beta   73.09100815
_cell_angle_gamma   59.99999747
_symmetry_Int_Tables_number   1
_chemical_formula_structural   ThFe3
_chemical_formula_sum   'Th3 Fe9'
_cell_volume   190.70848948
_cell_formula_units_Z   3
loop_
 _symmetry_equiv_pos_site_id
 _symmetry_equiv_pos_as_xyz
  1  'x, y, z'
loop_
 _atom_site_type_symbol
 _atom_site_label
 _atom_site_symmetry_multiplicity
 _atom_site_fract_x
 _atom_site_fract_y
 _atom_site_fract_z
 _atom_site_occupancy
  Th  Th0  1  0.14117560  0.14117560  0.57647319  1
  Th  Th1  1  0.85882440  0.85882440  0.42352681  1
  Th  Th2  1  -0.00000000  -0.00000000  0.00000000  1
  Fe  Fe3  1  0.08315008  0.58031969  0.75621055  1
  Fe  Fe4  1  0.58031969  0.58031969  0.75621055  1
  Fe  Fe5  1  0.58031969  0.08315008  0.75621055  1
  Fe  Fe6  1  0.91684992  0.41968031  0.24378945  1
  Fe  Fe7  1  0.41968031  0.41968031  0.24378945  1
  Fe  Fe8  1  0.41968031  0.91684992  0.24378945  1
  Fe  Fe9  1  0.33256408  0.33256408  0.00230777  1
  Fe  Fe10  1  0.66743592  0.66743592  0.99769223  1
  Fe  Fe11  1  0.50000000  0.50000000  0.50000000  1
