# generated using pymatgen
data_Dy2CoSi2
_symmetry_space_group_name_H-M   'P 1'
_cell_length_a   4.13515347
_cell_length_b   5.62077424
_cell_length_c   8.95682141
_cell_angle_alpha   83.16960467
_cell_angle_beta   76.65357361
_cell_angle_gamma   68.41719269
_symmetry_Int_Tables_number   1
_chemical_formula_structural   Dy2CoSi2
_chemical_formula_sum   'Dy4 Co2 Si4'
_cell_volume   188.22355564
_cell_formula_units_Z   2
loop_
 _symmetry_equiv_pos_site_id
 _symmetry_equiv_pos_as_xyz
  1  'x, y, z'
loop_
 _atom_site_type_symbol
 _atom_site_label
 _atom_site_symmetry_multiplicity
 _atom_site_fract_x
 _atom_site_fract_y
 _atom_site_fract_z
 _atom_site_occupancy
  Si  Si0  1  0.49565644  0.13545963  0.87322750  1
  Si  Si1  1  0.50434356  0.86454037  0.12677250  1
  Si  Si2  1  0.34794246  0.73770779  0.56640730  1
  Si  Si3  1  0.65205754  0.26229221  0.43359270  1
  Co  Co4  1  0.72738361  0.92500387  0.62022890  1
  Co  Co5  1  0.27261639  0.07499613  0.37977110  1
  Dy  Dy6  1  0.18623924  0.73285078  0.89467073  1
  Dy  Dy7  1  0.81376076  0.26714922  0.10532927  1
  Dy  Dy8  1  -0.00111720  0.32995098  0.67228343  1
  Dy  Dy9  1  1.00111720  0.67004902  0.32771657  1
