# generated using pymatgen
data_LiMn2P5O16
_symmetry_space_group_name_H-M   'P 1'
_cell_length_a   18.37433022
_cell_length_b   6.82064080
_cell_length_c   5.09095390
_cell_angle_alpha   90.00000000
_cell_angle_beta   90.41072562
_cell_angle_gamma   90.00000000
_symmetry_Int_Tables_number   1
_chemical_formula_structural   LiMn2P5O16
_chemical_formula_sum   'Li2 Mn4 P10 O32'
_cell_volume   638.00590989
_cell_formula_units_Z   2
loop_
 _symmetry_equiv_pos_site_id
 _symmetry_equiv_pos_as_xyz
  1  'x, y, z'
loop_
 _atom_site_type_symbol
 _atom_site_label
 _atom_site_symmetry_multiplicity
 _atom_site_fract_x
 _atom_site_fract_y
 _atom_site_fract_z
 _atom_site_occupancy
  Li  Li0  1  0.46643949  0.36785090  0.74802490  1
  Li  Li1  1  0.96643898  0.63214965  0.74802555  1
  O  O2  1  0.35684736  0.29361288  0.23697519  1
  O  O3  1  0.92086211  0.40673408  0.04660518  1
  O  O4  1  0.92920536  0.91544409  0.93054490  1
  O  O5  1  0.89168545  0.43935128  0.54533366  1
  O  O6  1  0.00878407  0.21215499  0.67120363  1
  O  O7  1  0.07192738  0.62894810  0.90599237  1
  O  O8  1  0.07111398  0.06323267  0.07063212  1
  O  O9  1  0.11833381  0.57504835  0.43770031  1
  O  O10  1  0.11517317  0.97066796  0.61017833  1
  O  O11  1  0.13602386  0.30799689  0.77873813  1
  O  O12  1  0.19675371  0.86492381  0.14861507  1
  O  O13  1  0.21035471  0.59357400  0.80952325  1
  O  O14  1  0.28899946  0.59937992  0.21376366  1
  O  O15  1  0.30668237  0.85105471  0.84533089  1
  O  O16  1  0.98706780  0.78365343  0.35507718  1
  O  O17  1  0.38706891  0.95234020  0.37817155  1
  O  O18  1  0.39168542  0.56064926  0.54533299  1
  O  O19  1  0.42920533  0.08455499  0.93054620  1
  O  O20  1  0.42086207  0.59326646  0.04660648  1
  O  O21  1  0.48706778  0.21634564  0.35507651  1
  O  O22  1  0.50878411  0.78784555  0.67120233  1
  O  O23  1  0.57192686  0.37105097  0.90599106  1
  O  O24  1  0.88706894  0.04766035  0.37817221  1
  O  O25  1  0.61833384  0.42495219  0.43769902  1
  O  O26  1  0.61517320  0.02933259  0.61017703  1
  O  O27  1  0.63602389  0.69200366  0.77873880  1
  O  O28  1  0.69675374  0.13507527  0.14861377  1
  O  O29  1  0.71035474  0.40642655  0.80952392  1
  O  O30  1  0.78899949  0.40061916  0.21376236  1
  O  O31  1  0.80668239  0.14894437  0.84533155  1
  O  O32  1  0.85684739  0.70638620  0.23697389  1
  O  O33  1  0.57111401  0.93676788  0.07063279  1
  P  P34  1  0.91881257  0.87882805  0.22805371  1
  P  P35  1  0.87102170  0.47634454  0.26030700  1
  P  P36  1  0.75079886  0.25839344  0.00416031  1
  P  P37  1  0.62808686  0.46347027  0.73049479  1
  P  P38  1  0.08009932  0.12244838  0.78070017  1
  P  P39  1  0.12808683  0.53653027  0.73049609  1
  P  P40  1  0.25079883  0.74160710  0.00415964  1
  P  P41  1  0.58009935  0.87755216  0.78070084  1
  P  P42  1  0.41881254  0.12117249  0.22805501  1
  P  P43  1  0.37102167  0.52365601  0.26030633  1
  Mn  Mn44  1  0.09337453  0.82440964  0.25764766  1
  Mn  Mn45  1  0.40854317  0.82380301  0.74886247  1
  Mn  Mn46  1  0.59337456  0.17559090  0.25764833  1
  Mn  Mn47  1  0.90854320  0.17619606  0.74886313  1
