# generated using pymatgen
data_Fe3Co3(SbO8)2
_symmetry_space_group_name_H-M   'P 1'
_cell_length_a   5.85502410
_cell_length_b   5.85597589
_cell_length_c   9.26903850
_cell_angle_alpha   90.30035543
_cell_angle_beta   91.74654983
_cell_angle_gamma   119.52045602
_symmetry_Int_Tables_number   1
_chemical_formula_structural   Fe3Co3(SbO8)2
_chemical_formula_sum   'Fe3 Co3 Sb2 O16'
_cell_volume   276.34525273
_cell_formula_units_Z   1
loop_
 _symmetry_equiv_pos_site_id
 _symmetry_equiv_pos_as_xyz
  1  'x, y, z'
loop_
 _atom_site_type_symbol
 _atom_site_label
 _atom_site_symmetry_multiplicity
 _atom_site_fract_x
 _atom_site_fract_y
 _atom_site_fract_z
 _atom_site_occupancy
  Fe  Fe0  1  0.67026605  0.83439998  0.21292340  1
  Fe  Fe1  1  0.84225590  0.66836809  0.70926225  1
  Fe  Fe2  1  0.84220968  0.17426325  0.70891667  1
  Co  Co3  1  0.17398517  0.83074280  0.21371453  1
  Co  Co4  1  0.17331969  0.33619163  0.20860859  1
  Co  Co5  1  0.34568927  0.17414747  0.71761674  1
  Sb  Sb6  1  0.33158161  0.66488768  0.48915089  1
  Sb  Sb7  1  0.66428045  0.33274732  0.99170154  1
  O  O8  1  0.16990042  0.83580466  0.59926788  1
  O  O9  1  0.03663721  0.51615961  0.32514787  1
  O  O10  1  0.31429563  0.65930587  0.11072936  1
  O  O11  1  0.02489835  0.00780740  0.30655151  1
  O  O12  1  0.02593022  0.01538242  0.80584285  1
  O  O13  1  0.17033700  0.33528891  0.59889620  1
  O  O14  1  0.46651714  0.96268744  0.33981837  1
  O  O15  1  0.46684059  0.50680668  0.33643480  1
  O  O16  1  0.32369878  0.16573107  0.10673618  1
  O  O17  1  0.66972659  0.83507646  0.59822721  1
  O  O18  1  0.50258759  0.46827041  0.83925646  1
  O  O19  1  0.50288480  0.03539129  0.83989424  1
  O  O20  1  0.64425912  0.31977146  0.60802772  1
  O  O21  1  0.83820290  0.67335233  0.09967337  1
  O  O22  1  0.95931132  0.47803279  0.84536342  1
  O  O23  1  0.84038653  0.16958397  0.10395995  1
