# generated using pymatgen
data_PrCu6
_symmetry_space_group_name_H-M   'P 1'
_cell_length_a   5.08856413
_cell_length_b   8.10205648
_cell_length_c   10.16160830
_cell_angle_alpha   90.00000000
_cell_angle_beta   90.00000000
_cell_angle_gamma   90.00000000
_symmetry_Int_Tables_number   1
_chemical_formula_structural   PrCu6
_chemical_formula_sum   'Pr4 Cu24'
_cell_volume   418.94110000
_cell_formula_units_Z   4
loop_
 _symmetry_equiv_pos_site_id
 _symmetry_equiv_pos_as_xyz
  1  'x, y, z'
loop_
 _atom_site_type_symbol
 _atom_site_label
 _atom_site_symmetry_multiplicity
 _atom_site_fract_x
 _atom_site_fract_y
 _atom_site_fract_z
 _atom_site_occupancy
  Cu  Cu0  1  0.75000000  0.85284840  0.85771832  1
  Cu  Cu1  1  0.25000000  0.14715160  0.14228168  1
  Cu  Cu2  1  0.75000000  0.35284840  0.64228168  1
  Cu  Cu3  1  0.25000000  0.64715160  0.35771832  1
  Cu  Cu4  1  0.75000000  0.18155516  0.24386332  1
  Cu  Cu5  1  0.25000000  0.81844484  0.75613668  1
  Cu  Cu6  1  0.75000000  0.68155516  0.25613668  1
  Cu  Cu7  1  0.25000000  0.31844484  0.74386332  1
  Cu  Cu8  1  0.75000000  0.43539070  0.40220443  1
  Cu  Cu9  1  0.25000000  0.56460930  0.59779557  1
  Cu  Cu10  1  0.75000000  0.93539070  0.09779557  1
  Cu  Cu11  1  0.25000000  0.06460930  0.90220443  1
  Cu  Cu12  1  0.75000000  0.09914168  0.48363623  1
  Cu  Cu13  1  0.25000000  0.90085832  0.51636377  1
  Cu  Cu14  1  0.75000000  0.59914168  0.01636377  1
  Cu  Cu15  1  0.25000000  0.40085832  0.98363623  1
  Cu  Cu16  1  0.99493097  0.56521384  0.80931336  1
  Cu  Cu17  1  0.49493097  0.43478616  0.19068664  1
  Cu  Cu18  1  0.50506903  0.06521384  0.69068664  1
  Cu  Cu19  1  0.00506903  0.93478616  0.30931336  1
  Cu  Cu20  1  0.00506903  0.43478616  0.19068664  1
  Cu  Cu21  1  0.50506903  0.56521384  0.80931336  1
  Cu  Cu22  1  0.49493097  0.93478616  0.30931336  1
  Cu  Cu23  1  0.99493097  0.06521384  0.69068664  1
  Pr  Pr24  1  0.75000000  0.73932799  0.56370907  1
  Pr  Pr25  1  0.25000000  0.26067201  0.43629093  1
  Pr  Pr26  1  0.75000000  0.23932799  0.93629093  1
  Pr  Pr27  1  0.25000000  0.76067201  0.06370907  1
