# generated using pymatgen
data_Li3Mn2(PO4)3
_symmetry_space_group_name_H-M   'P 1'
_cell_length_a   8.35713196
_cell_length_b   8.80168574
_cell_length_c   12.45508979
_cell_angle_alpha   90.00000000
_cell_angle_beta   86.57912834
_cell_angle_gamma   90.00000000
_symmetry_Int_Tables_number   1
_chemical_formula_structural   Li3Mn2(PO4)3
_chemical_formula_sum   'Li12 Mn8 P12 O48'
_cell_volume   914.52471314
_cell_formula_units_Z   4
loop_
 _symmetry_equiv_pos_site_id
 _symmetry_equiv_pos_as_xyz
  1  'x, y, z'
loop_
 _atom_site_type_symbol
 _atom_site_label
 _atom_site_symmetry_multiplicity
 _atom_site_fract_x
 _atom_site_fract_y
 _atom_site_fract_z
 _atom_site_occupancy
  Li  Li0  1  0.04749082  0.50495653  0.66962726  1
  Li  Li1  1  0.09191132  0.09620576  0.30641537  1
  Li  Li2  1  0.18701827  0.78734753  0.83292820  1
  Li  Li3  1  0.31298250  0.28734777  0.66707232  1
  Li  Li4  1  0.40808849  0.59620665  0.19358426  1
  Li  Li5  1  0.45250995  0.00495678  0.83037246  1
  Li  Li6  1  0.54749087  0.99504273  0.16962754  1
  Li  Li7  1  0.59191112  0.40379399  0.80641579  1
  Li  Li8  1  0.68701832  0.71265287  0.33292768  1
  Li  Li9  1  0.81298255  0.21265198  0.16707180  1
  Li  Li10  1  0.90808951  0.90379375  0.69358463  1
  Li  Li11  1  0.95251000  0.49504298  0.33037274  1
  O  O12  1  0.18203885  0.18447185  0.55979258  1
  O  O13  1  0.95147097  0.13404207  0.44011399  1
  O  O14  1  0.93261407  0.33793396  0.59029911  1
  O  O15  1  0.93210575  0.41875811  0.17745024  1
  O  O16  1  0.89415183  0.63366386  0.58677260  1
  O  O17  1  0.88461352  0.79790864  0.84069946  1
  O  O18  1  0.87317887  0.60146072  0.98618486  1
  O  O19  1  0.83387492  0.73594706  0.19864394  1
  O  O20  1  0.05710844  0.89659440  0.10642208  1
  O  O21  1  0.04852865  0.86595744  0.55988606  1
  O  O22  1  0.06738675  0.66206554  0.40970089  1
  O  O23  1  0.06789386  0.58124140  0.82254981  1
  O  O24  1  0.10584899  0.36633565  0.41322740  1
  O  O25  1  0.11538609  0.20209087  0.15930059  1
  O  O26  1  0.12682074  0.39853879  0.01381518  1
  O  O27  1  0.11556317  0.99108545  0.74170651  1
  O  O28  1  0.16612470  0.26405358  0.80135611  1
  O  O29  1  0.94289117  0.10340511  0.89357796  1
  O  O30  1  0.22488414  0.47098736  0.20065950  1
  O  O31  1  0.23779596  0.03499731  0.91518244  1
  O  O32  1  0.27511567  0.97098825  0.29934093  1
  O  O33  1  0.26220361  0.53499707  0.58481732  1
  O  O34  1  0.31796072  0.68447161  0.94020799  1
  O  O35  1  0.33387487  0.76405333  0.69864446  1
  O  O36  1  0.37317906  0.89853968  0.48618444  1
  O  O37  1  0.38461371  0.70209062  0.34069903  1
  O  O38  1  0.39415202  0.86633540  0.08677217  1
  O  O39  1  0.38443639  0.49108570  0.75829406  1
  O  O40  1  0.43261426  0.16206579  0.09029949  1
  O  O41  1  0.44289137  0.39659464  0.39357754  1
  O  O42  1  0.43210570  0.08124164  0.67745076  1
  O  O43  1  0.45147092  0.36595768  0.94011371  1
  O  O44  1  0.54852870  0.63404296  0.05988634  1
  O  O45  1  0.56789391  0.91875900  0.32254929  1
  O  O46  1  0.55710825  0.60340600  0.60642251  1
  O  O47  1  0.56738656  0.83793485  0.90970051  1
  O  O48  1  0.61556322  0.50891495  0.24170599  1
  O  O49  1  0.60584880  0.13366410  0.91322782  1
  O  O50  1  0.61538590  0.29790889  0.65930101  1
  O  O51  1  0.62682055  0.10146096  0.51381561  1
  O  O52  1  0.66612475  0.23594617  0.30135559  1
  O  O53  1  0.68203890  0.31552790  0.05979206  1
  O  O54  1  0.73779601  0.46500244  0.41518272  1
  O  O55  1  0.72488394  0.02901239  0.70065912  1
  O  O56  1  0.76220366  0.96500219  0.08481761  1
  O  O57  1  0.77511668  0.52901215  0.79934050  1
  O  O58  1  0.81796077  0.81552765  0.44020747  1
  O  O59  1  0.88443644  0.00891519  0.25829354  1
  P  P60  1  0.95800628  0.74619535  0.49682237  1
  P  P61  1  0.88982814  0.62047743  0.86310341  1
  P  P62  1  0.88553069  0.89480831  0.15984135  1
  P  P63  1  0.61017128  0.12047768  0.63689625  1
  P  P64  1  0.61447018  0.39480855  0.34015893  1
  P  P65  1  0.54199339  0.24619560  0.00317716  1
  P  P66  1  0.45800623  0.75380391  0.99682289  1
  P  P67  1  0.38553064  0.60519095  0.65984107  1
  P  P68  1  0.04199334  0.25380415  0.50317768  1
  P  P69  1  0.11017148  0.37952321  0.13689663  1
  P  P70  1  0.38982833  0.87952296  0.36310379  1
  P  P71  1  0.11447013  0.10519120  0.84015865  1
  Mn  Mn72  1  0.23839554  0.03486241  0.08920544  1
  Mn  Mn73  1  0.26160427  0.53486217  0.41079418  1
  Mn  Mn74  1  0.24980917  0.96074517  0.60924730  1
  Mn  Mn75  1  0.25019160  0.46074542  0.89075241  1
  Mn  Mn76  1  0.74980922  0.53925523  0.10924759  1
  Mn  Mn77  1  0.75019165  0.03925548  0.39075270  1
  Mn  Mn78  1  0.73839534  0.46513734  0.58920587  1
  Mn  Mn79  1  0.76160528  0.96513823  0.91079455  1
