# generated using pymatgen
data_Er3GaO6
_symmetry_space_group_name_H-M   'P 1'
_cell_length_a   5.39696294
_cell_length_b   7.07306820
_cell_length_c   7.07306819
_cell_angle_alpha   102.85626159
_cell_angle_beta   90.00000000
_cell_angle_gamma   90.00000000
_symmetry_Int_Tables_number   1
_chemical_formula_structural   Er3GaO6
_chemical_formula_sum   'Er6 Ga2 O12'
_cell_volume   263.23228602
_cell_formula_units_Z   2
loop_
 _symmetry_equiv_pos_site_id
 _symmetry_equiv_pos_as_xyz
  1  'x, y, z'
loop_
 _atom_site_type_symbol
 _atom_site_label
 _atom_site_symmetry_multiplicity
 _atom_site_fract_x
 _atom_site_fract_y
 _atom_site_fract_z
 _atom_site_occupancy
  O  O0  1  0.83149233  0.78462260  0.21537740  1
  O  O1  1  0.33149233  0.21537740  0.78462260  1
  O  O2  1  0.34293318  0.96129782  0.03870218  1
  O  O3  1  0.84293318  0.03870218  0.96129782  1
  O  O4  1  0.29567530  0.32216693  0.35694246  1
  O  O5  1  0.79567530  0.67783307  0.64305754  1
  O  O6  1  0.29567530  0.64305754  0.67783307  1
  O  O7  1  0.79567530  0.35694246  0.32216693  1
  O  O8  1  0.80971469  0.42425147  0.89401405  1
  O  O9  1  0.30971469  0.57574853  0.10598595  1
  O  O10  1  0.80971469  0.10598595  0.57574853  1
  O  O11  1  0.30971469  0.89401405  0.42425147  1
  Ga  Ga12  1  0.49125213  0.80638732  0.19361268  1
  Ga  Ga13  1  0.99125213  0.19361268  0.80638732  1
  Er  Er14  1  0.07067861  0.60139519  0.39860481  1
  Er  Er15  1  0.57067861  0.39860481  0.60139519  1
  Er  Er16  1  0.02154189  0.08829156  0.29850951  1
  Er  Er17  1  0.52154189  0.91170844  0.70149049  1
  Er  Er18  1  0.02154189  0.70149049  0.91170844  1
  Er  Er19  1  0.52154189  0.29850951  0.08829156  1
