# generated using pymatgen
data_LiCo6P7O24
_symmetry_space_group_name_H-M   'P 1'
_cell_length_a   5.38984175
_cell_length_b   26.83688976
_cell_length_c   6.43892821
_cell_angle_alpha   90.00000000
_cell_angle_beta   107.30289908
_cell_angle_gamma   90.00000000
_symmetry_Int_Tables_number   1
_chemical_formula_structural   LiCo6P7O24
_chemical_formula_sum   'Li2 Co12 P14 O48'
_cell_volume   889.22059799
_cell_formula_units_Z   2
loop_
 _symmetry_equiv_pos_site_id
 _symmetry_equiv_pos_as_xyz
  1  'x, y, z'
loop_
 _atom_site_type_symbol
 _atom_site_label
 _atom_site_symmetry_multiplicity
 _atom_site_fract_x
 _atom_site_fract_y
 _atom_site_fract_z
 _atom_site_occupancy
  Li  Li0  1  0.08690834  0.25000017  0.44871449  1
  Li  Li1  1  0.91309089  0.75000014  0.55128627  1
  O  O2  1  0.12798072  0.40525662  0.39988962  1
  O  O3  1  0.86224140  0.45228678  0.01404546  1
  O  O4  1  0.86224140  0.04771319  0.01404546  1
  O  O5  1  0.85944514  0.62335835  0.22116631  1
  O  O6  1  0.80877116  0.75000014  0.24167592  1
  O  O7  1  0.86425238  0.30667284  0.40908388  1
  O  O8  1  0.86425238  0.19332713  0.40908388  1
  O  O9  1  0.87202046  0.90525659  0.60011162  1
  O  O10  1  0.87202046  0.59474332  0.60011162  1
  O  O11  1  0.83025585  0.47074922  0.61896946  1
  O  O12  1  0.85944514  0.87664194  0.22116631  1
  O  O13  1  0.92818543  0.33681698  0.05669576  1
  O  O14  1  0.07181381  0.66318296  0.94330500  1
  O  O15  1  0.07181381  0.83681695  0.94330500  1
  O  O16  1  0.13775784  0.54771316  0.98595374  1
  O  O17  1  0.13775784  0.95228675  0.98595374  1
  O  O18  1  0.14055410  0.12335800  0.77883288  1
  O  O19  1  0.14055410  0.37664197  0.77883288  1
  O  O20  1  0.19122807  0.25000017  0.75832328  1
  O  O21  1  0.13574685  0.69332747  0.59091532  1
  O  O22  1  0.13574685  0.80667281  0.59091532  1
  O  O23  1  0.12798072  0.09474335  0.39988962  1
  O  O24  1  0.92818543  0.16318299  0.05669576  1
  O  O25  1  0.16974532  0.52925072  0.38103178  1
  O  O26  1  0.16974532  0.97074919  0.38103178  1
  O  O27  1  0.41211119  0.61969523  0.79287072  1
  O  O28  1  0.41211119  0.88030468  0.79287072  1
  O  O29  1  0.49818065  0.70369970  0.94244197  1
  O  O30  1  0.49818065  0.79630021  0.94244197  1
  O  O31  1  0.42714878  0.05552556  0.72923492  1
  O  O32  1  0.42714878  0.44447441  0.72923492  1
  O  O33  1  0.31657866  0.75000014  0.21397376  1
  O  O34  1  0.59966514  0.52763984  0.82419049  1
  O  O35  1  0.59966514  0.97236007  0.82419049  1
  O  O36  1  0.51502244  0.14512991  0.62782210  1
  O  O37  1  0.51502244  0.35487006  0.62782210  1
  O  O38  1  0.48497679  0.64512988  0.37217866  1
  O  O39  1  0.48497679  0.85487003  0.37217866  1
  O  O40  1  0.40033603  0.02763987  0.17581074  1
  O  O41  1  0.40033603  0.47236010  0.17581074  1
  O  O42  1  0.68342251  0.25000017  0.78602591  1
  O  O43  1  0.57285045  0.55552590  0.27076584  1
  O  O44  1  0.57285045  0.94447438  0.27076584  1
  O  O45  1  0.50182053  0.20369973  0.05755926  1
  O  O46  1  0.83025585  0.02925075  0.61896946  1
  O  O47  1  0.58788805  0.11969526  0.20712848  1
  O  O48  1  0.58788805  0.38030471  0.20712848  1
  O  O49  1  0.50182053  0.29630024  0.05755926  1
  P  P50  1  0.30571435  0.10810941  0.62907812  1
  P  P51  1  0.30571435  0.39189056  0.62907812  1
  P  P52  1  0.47111073  0.25000017  0.89971473  1
  P  P53  1  0.30274425  0.52533925  0.20450399  1
  P  P54  1  0.30274425  0.97466103  0.20450399  1
  P  P55  1  0.69725692  0.02533891  0.79549724  1
  P  P56  1  0.69725692  0.47466106  0.79549724  1
  P  P57  1  0.26222746  0.83274200  0.80782259  1
  P  P58  1  0.52888850  0.75000014  0.10028446  1
  P  P59  1  0.69428683  0.60810938  0.37092155  1
  P  P60  1  0.69428683  0.89189053  0.37092155  1
  P  P61  1  0.73777372  0.16725794  0.19217864  1
  P  P62  1  0.26222746  0.66725791  0.80782259  1
  P  P63  1  0.73777372  0.33274203  0.19217864  1
  Co  Co64  1  0.77559311  0.44818204  0.30988166  1
  Co  Co65  1  0.77559311  0.05181793  0.30988166  1
  Co  Co66  1  0.86362484  0.31984028  0.72510383  1
  Co  Co67  1  0.86362484  0.18015969  0.72510383  1
  Co  Co68  1  0.81534491  0.90383244  0.90579871  1
  Co  Co69  1  0.81534491  0.59616747  0.90579871  1
  Co  Co70  1  0.18465626  0.40383247  0.09420252  1
  Co  Co71  1  0.18465626  0.09616750  0.09420252  1
  Co  Co72  1  0.13637440  0.81984025  0.27489693  1
  Co  Co73  1  0.13637440  0.68015966  0.27489693  1
  Co  Co74  1  0.22440806  0.94818201  0.69011801  1
  Co  Co75  1  0.22440806  0.55181790  0.69011801  1
