# generated using pymatgen
data_Hf(TeCl)6
_symmetry_space_group_name_H-M   'P 1'
_cell_length_a   11.39676477
_cell_length_b   11.38257325
_cell_length_c   13.13630962
_cell_angle_alpha   90.00000000
_cell_angle_beta   90.00000000
_cell_angle_gamma   90.00000000
_symmetry_Int_Tables_number   1
_chemical_formula_structural   Hf(TeCl)6
_chemical_formula_sum   'Hf4 Te24 Cl24'
_cell_volume   1704.10132613
_cell_formula_units_Z   4
loop_
 _symmetry_equiv_pos_site_id
 _symmetry_equiv_pos_as_xyz
  1  'x, y, z'
loop_
 _atom_site_type_symbol
 _atom_site_label
 _atom_site_symmetry_multiplicity
 _atom_site_fract_x
 _atom_site_fract_y
 _atom_site_fract_z
 _atom_site_occupancy
  Cl  Cl0  1  0.90841157  0.15820317  0.88318938  1
  Cl  Cl1  1  0.40841157  0.84179683  0.88318938  1
  Cl  Cl2  1  0.90841157  0.15820317  0.61681062  1
  Cl  Cl3  1  0.67332199  0.36355232  0.61955330  1
  Cl  Cl4  1  0.17332199  0.63644768  0.88044670  1
  Cl  Cl5  1  0.82667801  0.36355232  0.38044670  1
  Cl  Cl6  1  0.32667801  0.63644768  0.11955330  1
  Cl  Cl7  1  0.32667801  0.63644768  0.38044670  1
  Cl  Cl8  1  0.82667801  0.36355232  0.11955330  1
  Cl  Cl9  1  0.17332199  0.63644768  0.61955330  1
  Cl  Cl10  1  0.67332199  0.36355232  0.88044670  1
  Cl  Cl11  1  0.34547689  0.89885901  0.25000000  1
  Cl  Cl12  1  0.84547689  0.10114099  0.25000000  1
  Cl  Cl13  1  0.15452311  0.89885901  0.75000000  1
  Cl  Cl14  1  0.65452311  0.10114099  0.75000000  1
  Cl  Cl15  1  0.05893721  0.58162365  0.25000000  1
  Cl  Cl16  1  0.55893721  0.41837635  0.25000000  1
  Cl  Cl17  1  0.44106279  0.58162365  0.75000000  1
  Cl  Cl18  1  0.94106279  0.41837635  0.75000000  1
  Cl  Cl19  1  0.09158843  0.84179683  0.38318938  1
  Cl  Cl20  1  0.09158843  0.84179683  0.11681062  1
  Cl  Cl21  1  0.59158843  0.15820317  0.11681062  1
  Cl  Cl22  1  0.40841157  0.84179683  0.61681062  1
  Cl  Cl23  1  0.59158843  0.15820317  0.38318938  1
  Te  Te24  1  0.74212775  0.72583370  0.75000000  1
  Te  Te25  1  0.25787225  0.27416630  0.25000000  1
  Te  Te26  1  0.60001104  0.81491540  0.09613676  1
  Te  Te27  1  0.75000000  0.97565833  0.50000000  1
  Te  Te28  1  0.25000000  0.02434167  0.00000000  1
  Te  Te29  1  0.25000000  0.02434167  0.50000000  1
  Te  Te30  1  0.75000000  0.97565833  0.00000000  1
  Te  Te31  1  0.63513797  0.61420301  0.53198666  1
  Te  Te32  1  0.13513797  0.38579699  0.96801334  1
  Te  Te33  1  0.86486203  0.61420301  0.46801334  1
  Te  Te34  1  0.36486203  0.38579699  0.03198666  1
  Te  Te35  1  0.36486203  0.38579699  0.46801334  1
  Te  Te36  1  0.86486203  0.61420301  0.03198666  1
  Te  Te37  1  0.13513797  0.38579699  0.53198666  1
  Te  Te38  1  0.63513797  0.61420301  0.96801334  1
  Te  Te39  1  0.60001104  0.81491540  0.40386324  1
  Te  Te40  1  0.10001104  0.18508460  0.09613676  1
  Te  Te41  1  0.89998896  0.81491540  0.59613676  1
  Te  Te42  1  0.39998896  0.18508460  0.90386324  1
  Te  Te43  1  0.39998896  0.18508460  0.59613676  1
  Te  Te44  1  0.89998896  0.81491540  0.90386324  1
  Te  Te45  1  0.10001104  0.18508460  0.40386324  1
  Te  Te46  1  0.24212775  0.27416630  0.75000000  1
  Te  Te47  1  0.75787225  0.72583370  0.25000000  1
  Hf  Hf48  1  0.20763749  0.73669587  0.25000000  1
  Hf  Hf49  1  0.29236251  0.73669587  0.75000000  1
  Hf  Hf50  1  0.79236251  0.26330413  0.75000000  1
  Hf  Hf51  1  0.70763749  0.26330413  0.25000000  1
