# generated using pymatgen
data_LiCoPO4
_symmetry_space_group_name_H-M   'P 1'
_cell_length_a   8.59141699
_cell_length_b   8.59141698
_cell_length_c   8.59141698
_cell_angle_alpha   107.85606465
_cell_angle_beta   107.85606468
_cell_angle_gamma   107.85606461
_symmetry_Int_Tables_number   1
_chemical_formula_structural   LiCoPO4
_chemical_formula_sum   'Li6 Co6 P6 O24'
_cell_volume   515.29873060
_cell_formula_units_Z   6
loop_
 _symmetry_equiv_pos_site_id
 _symmetry_equiv_pos_as_xyz
  1  'x, y, z'
loop_
 _atom_site_type_symbol
 _atom_site_label
 _atom_site_symmetry_multiplicity
 _atom_site_fract_x
 _atom_site_fract_y
 _atom_site_fract_z
 _atom_site_occupancy
  Li  Li0  1  0.12540293  0.89206242  0.72222222  1
  Li  Li1  1  0.72222100  0.12540279  0.89206177  1
  Li  Li2  1  0.60910272  0.21212250  0.42913843  1
  Li  Li3  1  0.89206164  0.72222187  0.12540267  1
  Li  Li4  1  0.42913922  0.60910350  0.21212317  1
  Li  Li5  1  0.21212242  0.42913956  0.60910332  1
  O  O6  1  0.27210928  0.90039463  0.58367423  1
  O  O7  1  0.90039500  0.58367447  0.27210936  1
  O  O8  1  0.68923185  0.37082900  0.68958703  1
  O  O9  1  0.35411076  0.02050128  0.29351469  1
  O  O10  1  0.97355755  0.30215090  0.97406208  1
  O  O11  1  0.76516815  0.09030541  0.39542512  1
  O  O12  1  0.30215073  0.97406202  0.97355710  1
  O  O13  1  0.07646053  0.74234769  0.02136562  1
  O  O14  1  0.29351586  0.35411184  0.02050243  1
  O  O15  1  0.39542493  0.76516835  0.09030520  1
  O  O16  1  0.30821334  0.64700862  0.36884516  1
  O  O17  1  0.58367487  0.27210977  0.90039442  1
  O  O18  1  0.37082903  0.68958662  0.68923226  1
  O  O19  1  0.09030623  0.39542605  0.76516880  1
  O  O20  1  0.02050155  0.29351563  0.35411105  1
  O  O21  1  0.74234745  0.02136580  0.07645988  1
  O  O22  1  0.02136615  0.07645976  0.74234836  1
  O  O23  1  0.97406271  0.97355763  0.30214997  1
  O  O24  1  0.68958616  0.68923225  0.37082793  1
  O  O25  1  0.63859470  0.58926635  0.92458417  1
  O  O26  1  0.36884488  0.30821195  0.64700795  1
  O  O27  1  0.64700744  0.36884440  0.30821219  1
  O  O28  1  0.92458457  0.63859391  0.58926653  1
  O  O29  1  0.58926668  0.92458459  0.63859449  1
  P  P30  1  0.28120105  0.87509204  0.09585504  1
  P  P31  1  0.38627530  0.79133353  0.56888016  1
  P  P32  1  0.09585443  0.28120150  0.87509228  1
  P  P33  1  0.56888005  0.38627457  0.79133296  1
  P  P34  1  0.79133375  0.56888035  0.38627524  1
  P  P35  1  0.87509153  0.09585468  0.28120051  1
  Co  Co36  1  0.94557853  0.53485531  0.76938522  1
  Co  Co37  1  0.45646807  0.23528294  0.05084787  1
  Co  Co38  1  0.23528342  0.05084868  0.45646771  1
  Co  Co39  1  0.76938515  0.94557785  0.53485452  1
  Co  Co40  1  0.53485568  0.76938579  0.94557919  1
  Co  Co41  1  0.05084846  0.45646818  0.23528388  1
