# generated using pymatgen
data_Ba2V3O9
_symmetry_space_group_name_H-M   'P 1'
_cell_length_a   5.95077743
_cell_length_b   8.56249924
_cell_length_c   9.49945064
_cell_angle_alpha   114.44991095
_cell_angle_beta   90.00000000
_cell_angle_gamma   90.00000000
_symmetry_Int_Tables_number   1
_chemical_formula_structural   Ba2V3O9
_chemical_formula_sum   'Ba4 V6 O18'
_cell_volume   440.62433280
_cell_formula_units_Z   2
loop_
 _symmetry_equiv_pos_site_id
 _symmetry_equiv_pos_as_xyz
  1  'x, y, z'
loop_
 _atom_site_type_symbol
 _atom_site_label
 _atom_site_symmetry_multiplicity
 _atom_site_fract_x
 _atom_site_fract_y
 _atom_site_fract_z
 _atom_site_occupancy
  O  O0  1  0.00299554  0.47330140  0.70081207  1
  O  O1  1  0.50299592  0.52669814  0.29918781  1
  O  O2  1  0.01764751  0.98714803  0.80959098  1
  O  O3  1  0.51764788  0.01285151  0.19040890  1
  O  O4  1  0.25397279  0.01228387  0.56854278  1
  O  O5  1  0.75397317  0.98771568  0.43145710  1
  O  O6  1  0.25135486  0.37798526  0.90962811  1
  O  O7  1  0.75135524  0.62201429  0.09037178  1
  O  O8  1  0.24978075  0.71968390  0.95045517  1
  O  O9  1  0.74978112  0.28031565  0.04954471  1
  O  O10  1  0.75306987  0.32134486  0.42069540  1
  O  O11  1  0.25306949  0.67865598  0.57930495  1
  O  O12  1  0.99773064  0.52668115  0.29891217  1
  O  O13  1  0.49773026  0.47331969  0.70108818  1
  O  O14  1  0.47946753  0.98738857  0.81265995  1
  O  O15  1  0.24892738  0.34993893  0.42625600  1
  O  O16  1  0.97946624  0.01261228  0.18734040  1
  O  O17  1  0.74892609  0.65006061  0.57374389  1
  V  V18  1  0.51847495  0.51283863  0.50638752  1
  V  V19  1  0.01847457  0.48716221  0.49361283  1
  V  V20  1  0.24996396  0.91559236  0.69198112  1
  V  V21  1  0.74996266  0.08440718  0.30801876  1
  V  V22  1  0.25016282  0.51104113  0.81724326  1
  V  V23  1  0.75016319  0.48895971  0.18275710  1
  Ba  Ba24  1  0.25082656  0.20466850  0.09087236  1
  Ba  Ba25  1  0.75082527  0.79533105  0.90912753  1
  Ba  Ba26  1  0.24648537  0.79561416  0.26482179  1
  Ba  Ba27  1  0.74648575  0.20438668  0.73517856  1
