# generated using pymatgen
data_NaPWO6
_symmetry_space_group_name_H-M   'P 1'
_cell_length_a   6.45321457
_cell_length_b   12.16318870
_cell_length_c   12.25311282
_cell_angle_alpha   90.00000000
_cell_angle_beta   91.15296500
_cell_angle_gamma   90.00000000
_symmetry_Int_Tables_number   1
_chemical_formula_structural   NaPWO6
_chemical_formula_sum   'Na8 P8 W8 O48'
_cell_volume   961.57252444
_cell_formula_units_Z   8
loop_
 _symmetry_equiv_pos_site_id
 _symmetry_equiv_pos_as_xyz
  1  'x, y, z'
loop_
 _atom_site_type_symbol
 _atom_site_label
 _atom_site_symmetry_multiplicity
 _atom_site_fract_x
 _atom_site_fract_y
 _atom_site_fract_z
 _atom_site_occupancy
  O  O0  1  0.74132866  0.83110549  0.25777799  1
  O  O1  1  0.75867134  0.33110549  0.24222201  1
  O  O2  1  0.25867134  0.16889451  0.74222201  1
  O  O3  1  0.24132866  0.66889451  0.75777799  1
  O  O4  1  0.73788844  0.53837243  0.14267136  1
  O  O5  1  0.76211156  0.03837243  0.35732864  1
  O  O6  1  0.26211156  0.46162757  0.85732864  1
  O  O7  1  0.23788844  0.96162757  0.64267136  1
  O  O8  1  0.24748318  0.70646846  0.26746516  1
  O  O9  1  0.25251682  0.20646846  0.23253484  1
  O  O10  1  0.75251682  0.29353154  0.73253484  1
  O  O11  1  0.74748318  0.79353154  0.76746516  1
  O  O12  1  0.26927554  0.67600649  0.49561485  1
  O  O13  1  0.23072446  0.17600649  0.00438515  1
  O  O14  1  0.73072446  0.32399351  0.50438515  1
  O  O15  1  0.76927554  0.82399351  0.99561485  1
  O  O16  1  0.26549304  0.56978270  0.06147106  1
  O  O17  1  0.75711198  0.73740686  0.46895461  1
  O  O18  1  0.23450696  0.06978270  0.43852894  1
  O  O19  1  0.76549304  0.93021730  0.56147106  1
  O  O20  1  0.23633984  0.97728962  0.25312166  1
  O  O21  1  0.26366016  0.47728962  0.24687834  1
  O  O22  1  0.76366016  0.02271038  0.74687834  1
  O  O23  1  0.73633984  0.52271038  0.75312166  1
  O  O24  1  0.94679908  0.58189183  0.37165396  1
  O  O25  1  0.55320092  0.08189183  0.12834604  1
  O  O26  1  0.05320092  0.41810817  0.62834604  1
  O  O27  1  0.44679908  0.91810817  0.87165396  1
  O  O28  1  0.56493267  0.58510627  0.36214611  1
  O  O29  1  0.93506733  0.08510627  0.13785389  1
  O  O30  1  0.43506733  0.41489373  0.63785389  1
  O  O31  1  0.06493267  0.91489373  0.86214611  1
  O  O32  1  0.94210442  0.60578348  0.91092692  1
  O  O33  1  0.55789558  0.10578348  0.58907308  1
  O  O34  1  0.05789558  0.39421652  0.08907308  1
  O  O35  1  0.44210442  0.89421652  0.41092692  1
  O  O36  1  0.55925225  0.61635322  0.90974122  1
  O  O37  1  0.94074775  0.11635322  0.59025878  1
  O  O38  1  0.44074775  0.38364678  0.09025878  1
  O  O39  1  0.05925225  0.88364678  0.40974122  1
  O  O40  1  0.73971471  0.55169537  0.54551489  1
  O  O41  1  0.76028529  0.05169537  0.95448511  1
  O  O42  1  0.26028529  0.44830463  0.45448511  1
  O  O43  1  0.23971471  0.94830463  0.04551489  1
  O  O44  1  0.25711198  0.76259314  0.96895461  1
  O  O45  1  0.24288802  0.26259314  0.53104539  1
  O  O46  1  0.74288802  0.23740686  0.03104539  1
  O  O47  1  0.73450696  0.43021730  0.93852894  1
  Na  Na48  1  0.03973696  0.81773292  0.15224433  1
  Na  Na49  1  0.46026304  0.31773292  0.34775567  1
  Na  Na50  1  0.96026304  0.18226708  0.84775567  1
  Na  Na51  1  0.53973696  0.68226708  0.65224433  1
  Na  Na52  1  0.55358926  0.70793164  0.12204679  1
  Na  Na53  1  0.94641074  0.20793164  0.37795321  1
  Na  Na54  1  0.44641074  0.29206836  0.87795321  1
  Na  Na55  1  0.05358926  0.79206836  0.62204679  1
  P  P56  1  0.24317864  0.95946060  0.37724327  1
  P  P57  1  0.25682136  0.45946060  0.12275673  1
  P  P58  1  0.75682136  0.04053940  0.62275673  1
  P  P59  1  0.74317864  0.54053940  0.87724327  1
  P  P60  1  0.75362299  0.61444688  0.43729617  1
  P  P61  1  0.74637701  0.11444688  0.06270383  1
  P  P62  1  0.24637701  0.38555312  0.56270383  1
  P  P63  1  0.25362299  0.88555312  0.93729617  1
  W  W64  1  0.74645970  0.89701858  0.38835431  1
  W  W65  1  0.75354030  0.39701858  0.11164569  1
  W  W66  1  0.25354030  0.10298142  0.61164569  1
  W  W67  1  0.24645970  0.60298142  0.88835431  1
  W  W68  1  0.25446367  0.60285346  0.36982448  1
  W  W69  1  0.24553633  0.10285346  0.13017552  1
  W  W70  1  0.74553633  0.39714654  0.63017552  1
  W  W71  1  0.75446367  0.89714654  0.86982448  1
