# generated using pymatgen
data_LiCo2(PO4)3
_symmetry_space_group_name_H-M   'P 1'
_cell_length_a   8.39892000
_cell_length_b   8.39891960
_cell_length_c   8.39891950
_cell_angle_alpha   59.34610386
_cell_angle_beta   59.34610106
_cell_angle_gamma   59.34609958
_symmetry_Int_Tables_number   1
_chemical_formula_structural   LiCo2(PO4)3
_chemical_formula_sum   'Li2 Co4 P6 O24'
_cell_volume   412.70727682
_cell_formula_units_Z   2
loop_
 _symmetry_equiv_pos_site_id
 _symmetry_equiv_pos_as_xyz
  1  'x, y, z'
loop_
 _atom_site_type_symbol
 _atom_site_label
 _atom_site_symmetry_multiplicity
 _atom_site_fract_x
 _atom_site_fract_y
 _atom_site_fract_z
 _atom_site_occupancy
  Li  Li0  1  0.00000000  0.00000000  0.00000000  1
  Li  Li1  1  0.50000000  0.50000000  0.50000000  1
  Co  Co2  1  0.14029334  0.14029334  0.14029334  1
  Co  Co3  1  0.35970666  0.35970666  0.35970666  1
  Co  Co4  1  0.64029334  0.64029334  0.64029334  1
  Co  Co5  1  0.85970666  0.85970666  0.85970666  1
  P  P6  1  0.03434372  0.75000000  0.46565628  1
  P  P7  1  0.46565628  0.03434372  0.75000000  1
  P  P8  1  0.75000000  0.46565628  0.03434372  1
  P  P9  1  0.25000000  0.53434372  0.96565628  1
  P  P10  1  0.53434372  0.96565628  0.25000000  1
  P  P11  1  0.96565628  0.25000000  0.53434372  1
  O  O12  1  0.13193754  0.29326200  0.51438001  1
  O  O13  1  0.29326200  0.51438001  0.13193754  1
  O  O14  1  0.05552688  0.92202047  0.26546672  1
  O  O15  1  0.51438001  0.13193754  0.29326200  1
  O  O16  1  0.23453328  0.57797953  0.44447312  1
  O  O17  1  0.01438001  0.79326200  0.63193754  1
  O  O18  1  0.26546672  0.05552688  0.92202047  1
  O  O19  1  0.44447312  0.23453328  0.57797953  1
  O  O20  1  0.57797953  0.44447312  0.23453328  1
  O  O21  1  0.20673800  0.36806246  0.98561999  1
  O  O22  1  0.07797953  0.73453328  0.94447312  1
  O  O23  1  0.36806246  0.98561999  0.20673800  1
  O  O24  1  0.63193754  0.01438001  0.79326200  1
  O  O25  1  0.92202047  0.26546672  0.05552688  1
  O  O26  1  0.79326200  0.63193754  0.01438001  1
  O  O27  1  0.42202047  0.55552688  0.76546672  1
  O  O28  1  0.55552688  0.76546672  0.42202047  1
  O  O29  1  0.73453328  0.94447312  0.07797953  1
  O  O30  1  0.98561999  0.20673800  0.36806246  1
  O  O31  1  0.76546672  0.42202047  0.55552688  1
  O  O32  1  0.48561999  0.86806246  0.70673800  1
  O  O33  1  0.94447312  0.07797953  0.73453328  1
  O  O34  1  0.70673800  0.48561999  0.86806246  1
  O  O35  1  0.86806246  0.70673800  0.48561999  1
