# generated using pymatgen
data_Mn2P5O16
_symmetry_space_group_name_H-M   'P 1'
_cell_length_a   19.12246541
_cell_length_b   6.74798392
_cell_length_c   5.01569258
_cell_angle_alpha   90.00000000
_cell_angle_beta   90.66558171
_cell_angle_gamma   90.00000000
_symmetry_Int_Tables_number   1
_chemical_formula_structural   Mn2P5O16
_chemical_formula_sum   'Mn4 P10 O32'
_cell_volume   647.17171780
_cell_formula_units_Z   2
loop_
 _symmetry_equiv_pos_site_id
 _symmetry_equiv_pos_as_xyz
  1  'x, y, z'
loop_
 _atom_site_type_symbol
 _atom_site_label
 _atom_site_symmetry_multiplicity
 _atom_site_fract_x
 _atom_site_fract_y
 _atom_site_fract_z
 _atom_site_occupancy
  Mn  Mn0  1  0.09420658  0.82285932  0.25898351  1
  Mn  Mn1  1  0.90579342  0.17714068  0.74101649  1
  Mn  Mn2  1  0.59420658  0.17714068  0.25898351  1
  Mn  Mn3  1  0.40579342  0.82285932  0.74101649  1
  P  P4  1  0.42278397  0.12303321  0.23378576  1
  P  P5  1  0.07721603  0.12303321  0.76621424  1
  P  P6  1  0.87075288  0.45823213  0.25241512  1
  P  P7  1  0.57721603  0.87696679  0.76621424  1
  P  P8  1  0.92278397  0.87696679  0.23378576  1
  P  P9  1  0.12924712  0.54176787  0.74758488  1
  P  P10  1  0.37075288  0.54176787  0.25241512  1
  P  P11  1  0.62924712  0.45823213  0.74758488  1
  P  P12  1  0.25000000  0.74059793  0.00000000  1
  P  P13  1  0.75000000  0.25940207  0.00000000  1
  O  O14  1  0.86846065  0.69000326  0.21427985  1
  O  O15  1  0.28945835  0.58947143  0.19817333  1
  O  O16  1  0.80259329  0.14104937  0.84730475  1
  O  O17  1  0.61357818  0.41993350  0.45485789  1
  O  O18  1  0.78945835  0.41052857  0.19817333  1
  O  O19  1  0.13153935  0.30999674  0.78572015  1
  O  O20  1  0.19740671  0.85895063  0.15269525  1
  O  O21  1  0.61488985  0.02598271  0.58851785  1
  O  O22  1  0.11488985  0.97401729  0.58851785  1
  O  O23  1  0.21054165  0.58947143  0.80182667  1
  O  O24  1  0.88511015  0.02598271  0.41148215  1
  O  O25  1  0.30259329  0.85895063  0.84730475  1
  O  O26  1  0.63153935  0.69000326  0.78572015  1
  O  O27  1  0.58285792  0.35589078  0.94496438  1
  O  O28  1  0.08285792  0.64410922  0.94496438  1
  O  O29  1  0.38511015  0.97401729  0.41148215  1
  O  O30  1  0.11357818  0.58006650  0.45485789  1
  O  O31  1  0.57342682  0.94392727  0.05805393  1
  O  O32  1  0.88642182  0.41993350  0.54514211  1
  O  O33  1  0.36846065  0.30999674  0.21427985  1
  O  O34  1  0.71054165  0.41052857  0.80182667  1
  O  O35  1  0.41714208  0.64410922  0.05503562  1
  O  O36  1  0.38642182  0.58006650  0.54514211  1
  O  O37  1  0.49120081  0.20263656  0.34579067  1
  O  O38  1  0.91714208  0.35589078  0.05503562  1
  O  O39  1  0.42657318  0.05607273  0.94194607  1
  O  O40  1  0.69740671  0.14104937  0.15269525  1
  O  O41  1  0.07342682  0.05607273  0.05805393  1
  O  O42  1  0.00879919  0.20263656  0.65420933  1
  O  O43  1  0.50879919  0.79736344  0.65420933  1
  O  O44  1  0.99120081  0.79736344  0.34579067  1
  O  O45  1  0.92657318  0.94392727  0.94194607  1
