# generated using pymatgen
data_Li2MgCl4
_symmetry_space_group_name_H-M   'P 1'
_cell_length_a   7.43162847
_cell_length_b   7.43162845
_cell_length_c   7.41190160
_cell_angle_alpha   60.08776804
_cell_angle_beta   60.08776535
_cell_angle_gamma   60.50789610
_symmetry_Int_Tables_number   1
_chemical_formula_structural   Li2MgCl4
_chemical_formula_sum   'Li4 Mg2 Cl8'
_cell_volume   290.93854284
_cell_formula_units_Z   2
loop_
 _symmetry_equiv_pos_site_id
 _symmetry_equiv_pos_as_xyz
  1  'x, y, z'
loop_
 _atom_site_type_symbol
 _atom_site_label
 _atom_site_symmetry_multiplicity
 _atom_site_fract_x
 _atom_site_fract_y
 _atom_site_fract_z
 _atom_site_occupancy
  Cl  Cl0  1  0.25337903  0.25337903  0.26290254  1
  Cl  Cl1  1  0.25337903  0.25337903  0.73033940  1
  Cl  Cl2  1  0.25039955  0.72521754  0.26219145  1
  Cl  Cl3  1  0.72521754  0.25039955  0.26219145  1
  Cl  Cl4  1  0.27478246  0.74960045  0.73780855  1
  Cl  Cl5  1  0.74960045  0.27478246  0.73780855  1
  Cl  Cl6  1  0.74662097  0.74662097  0.26966060  1
  Cl  Cl7  1  0.74662097  0.74662097  0.73709746  1
  Li  Li8  1  0.11561966  0.11561966  0.13438034  1
  Li  Li9  1  0.50000000  0.50000000  0.00000000  1
  Li  Li10  1  0.50000000  0.50000000  0.50000000  1
  Li  Li11  1  0.88438034  0.88438034  0.86561966  1
  Mg  Mg12  1  0.00000000  0.50000000  0.50000000  1
  Mg  Mg13  1  0.50000000  0.00000000  0.50000000  1
