# generated using pymatgen
data_CeThO4
_symmetry_space_group_name_H-M   'P 1'
_cell_length_a   3.92040763
_cell_length_b   7.83929005
_cell_length_c   6.78865690
_cell_angle_alpha   30.00568002
_cell_angle_beta   54.72678113
_cell_angle_gamma   59.99485181
_symmetry_Int_Tables_number   1
_chemical_formula_structural   CeThO4
_chemical_formula_sum   'Ce1 Th1 O4'
_cell_volume   85.18113581
_cell_formula_units_Z   1
loop_
 _symmetry_equiv_pos_site_id
 _symmetry_equiv_pos_as_xyz
  1  'x, y, z'
loop_
 _atom_site_type_symbol
 _atom_site_label
 _atom_site_symmetry_multiplicity
 _atom_site_fract_x
 _atom_site_fract_y
 _atom_site_fract_z
 _atom_site_occupancy
  Ce  Ce0  1  0.00000000  0.50000000  0.00000000  1
  O  O1  1  0.25379789  0.50000060  0.24619724  1
  O  O2  1  0.24620774  0.99999795  0.25380047  1
  O  O3  1  0.74620211  0.49999940  0.75380276  1
  O  O4  1  0.75379226  0.00000205  0.74619953  1
  Th  Th5  1  0.00000000  0.00000000  0.00000000  1
