# generated using pymatgen
data_MgSiO3
_symmetry_space_group_name_H-M   'P 1'
_cell_length_a   5.38003178
_cell_length_b   8.85871013
_cell_length_c   9.36608092
_cell_angle_alpha   90.00000000
_cell_angle_beta   90.00000000
_cell_angle_gamma   90.00000000
_symmetry_Int_Tables_number   1
_chemical_formula_structural   MgSiO3
_chemical_formula_sum   'Mg8 Si8 O24'
_cell_volume   446.38874690
_cell_formula_units_Z   8
loop_
 _symmetry_equiv_pos_site_id
 _symmetry_equiv_pos_as_xyz
  1  'x, y, z'
loop_
 _atom_site_type_symbol
 _atom_site_label
 _atom_site_symmetry_multiplicity
 _atom_site_fract_x
 _atom_site_fract_y
 _atom_site_fract_z
 _atom_site_occupancy
  O  O0  1  0.71236794  0.52517532  0.84850897  1
  O  O1  1  0.21236794  0.97482468  0.65149103  1
  O  O2  1  0.78763206  0.52517532  0.15149103  1
  O  O3  1  0.28763206  0.97482468  0.34850897  1
  O  O4  1  0.28763206  0.47482468  0.15149103  1
  O  O5  1  0.78763206  0.02517532  0.34850897  1
  O  O6  1  0.21236794  0.47482468  0.84850897  1
  O  O7  1  0.71236794  0.02517532  0.65149103  1
  O  O8  1  0.93193879  0.25236709  0.87812030  1
  O  O9  1  0.43193879  0.24763291  0.62187970  1
  O  O10  1  0.56806121  0.25236709  0.12187970  1
  O  O11  1  0.06806121  0.24763291  0.37812030  1
  O  O12  1  0.06806121  0.74763291  0.12187970  1
  O  O13  1  0.56806121  0.75236709  0.37812030  1
  O  O14  1  0.43193879  0.74763291  0.87812030  1
  O  O15  1  0.93193879  0.75236709  0.62187970  1
  O  O16  1  0.92292258  0.90613342  0.88200196  1
  O  O17  1  0.42292258  0.59386658  0.61799804  1
  O  O18  1  0.57707742  0.90613342  0.11799804  1
  O  O19  1  0.07707742  0.59386658  0.38200196  1
  O  O20  1  0.07707742  0.09386658  0.11799804  1
  O  O21  1  0.57707742  0.40613342  0.38200196  1
  O  O22  1  0.42292258  0.09386658  0.88200196  1
  O  O23  1  0.92292258  0.40613342  0.61799804  1
  Mg  Mg24  1  0.25000000  0.90175263  0.00000000  1
  Mg  Mg25  1  0.75000000  0.59824737  0.50000000  1
  Mg  Mg26  1  0.75000000  0.09824737  0.00000000  1
  Mg  Mg27  1  0.25000000  0.40175263  0.50000000  1
  Mg  Mg28  1  0.75000000  0.73812422  0.00000000  1
  Mg  Mg29  1  0.25000000  0.76187578  0.50000000  1
  Mg  Mg30  1  0.25000000  0.26187578  0.00000000  1
  Mg  Mg31  1  0.75000000  0.23812422  0.50000000  1
  Si  Si32  1  0.93559698  0.90933377  0.70795994  1
  Si  Si33  1  0.43559698  0.59066623  0.79204006  1
  Si  Si34  1  0.56440302  0.90933377  0.29204006  1
  Si  Si35  1  0.06440302  0.59066623  0.20795994  1
  Si  Si36  1  0.06440302  0.09066623  0.29204006  1
  Si  Si37  1  0.56440302  0.40933377  0.20795994  1
  Si  Si38  1  0.43559698  0.09066623  0.70795994  1
  Si  Si39  1  0.93559698  0.40933377  0.79204006  1
