# generated using pymatgen
data_NaSr3LaTi5O15
_symmetry_space_group_name_H-M   'P 1'
_cell_length_a   5.53594669
_cell_length_b   5.53594669
_cell_length_c   27.78519960
_cell_angle_alpha   119.87449372
_cell_angle_beta   119.87449372
_cell_angle_gamma   90.00006103
_symmetry_Int_Tables_number   1
_chemical_formula_structural   NaSr3LaTi5O15
_chemical_formula_sum   'Na2 Sr6 La2 Ti10 O30'
_cell_volume   604.39593828
_cell_formula_units_Z   2
loop_
 _symmetry_equiv_pos_site_id
 _symmetry_equiv_pos_as_xyz
  1  'x, y, z'
loop_
 _atom_site_type_symbol
 _atom_site_label
 _atom_site_symmetry_multiplicity
 _atom_site_fract_x
 _atom_site_fract_y
 _atom_site_fract_z
 _atom_site_occupancy
  La  La0  1  0.74806190  0.24806190  0.89922131  1
  La  La1  1  0.75196938  0.25196938  0.70078184  1
  Na  Na2  1  0.24820477  0.74820477  0.89929223  1
  Na  Na3  1  0.25183375  0.75183375  0.70072044  1
  O  O4  1  0.24705650  0.24706660  0.89882804  1
  O  O5  1  0.19897326  0.69897326  0.79809183  1
  O  O6  1  0.30099455  0.20849775  0.80190471  1
  O  O7  1  0.25290556  0.25290474  0.70116748  1
  O  O8  1  0.74706660  0.74705650  0.89882804  1
  O  O9  1  0.22754044  0.72754044  0.60149545  1
  O  O10  1  0.70849775  0.80099455  0.80190471  1
  O  O11  1  0.29625371  0.22181271  0.60361474  1
  O  O12  1  0.79146683  0.29146683  0.79809056  1
  O  O13  1  0.25376329  0.25375451  0.50150461  1
  O  O14  1  0.75290474  0.75290556  0.70116748  1
  O  O15  1  0.23123857  0.73123857  0.40044061  1
  O  O16  1  0.72181271  0.79625371  0.60361474  1
  O  O17  1  0.27270397  0.23255189  0.40105102  1
  O  O18  1  0.77993218  0.27993218  0.60149475  1
  O  O19  1  0.24999218  0.24999218  0.29999672  1
  O  O20  1  0.75375451  0.75376329  0.50150461  1
  O  O21  1  0.22727806  0.72727806  0.19894312  1
  O  O22  1  0.73255189  0.77270397  0.40105102  1
  O  O23  1  0.26874993  0.22901459  0.19955291  1
  O  O24  1  0.77097964  0.27097964  0.40044443  1
  O  O25  1  0.24622472  0.24621911  0.09848875  1
  O  O26  1  0.74999218  0.74999218  0.29999672  1
  O  O27  1  0.20372662  0.70372662  0.99638144  1
  O  O28  1  0.72901459  0.76874993  0.19955291  1
  O  O29  1  0.27246163  0.22003891  0.99850012  1
  O  O30  1  0.76743973  0.26743973  0.19894531  1
  O  O31  1  0.74621911  0.74622472  0.09848875  1
  O  O32  1  0.72003891  0.77246163  0.99850012  1
  O  O33  1  0.77818690  0.27818690  0.99637869  1
  Sr  Sr34  1  0.25146952  0.75146952  0.50058770  1
  Sr  Sr35  1  0.25000604  0.75000604  0.30000156  1
  Sr  Sr36  1  0.75385441  0.25385441  0.50154143  1
  Sr  Sr37  1  0.24853422  0.74853422  0.09941596  1
  Sr  Sr38  1  0.74999834  0.24999834  0.30000185  1
  Sr  Sr39  1  0.74615944  0.24615944  0.09846403  1
  Ti  Ti40  1  1.00004428  0.00003347  0.80000429  1
  Ti  Ti41  1  0.50003347  0.50004428  0.80000429  1
  Ti  Ti42  1  0.00173297  0.00171001  0.40068927  1
  Ti  Ti43  1  0.50544163  0.50544111  0.60217372  1
  Ti  Ti44  1  0.99828596  0.99831118  0.19932071  1
  Ti  Ti45  1  0.50171001  0.50173297  0.40068927  1
  Ti  Ti46  1  0.00544111  0.00544163  0.60217372  1
  Ti  Ti47  1  0.99459823  0.99458809  0.99783563  1
  Ti  Ti48  1  0.49831118  0.49828596  0.19932071  1
  Ti  Ti49  1  0.49458809  0.49459823  0.99783563  1
