# generated using pymatgen
data_LiTi2P3O11
_symmetry_space_group_name_H-M   'P 1'
_cell_length_a   7.34190890
_cell_length_b   7.34190890
_cell_length_c   8.86025702
_cell_angle_alpha   69.68985237
_cell_angle_beta   110.31014763
_cell_angle_gamma   106.46665482
_symmetry_Int_Tables_number   1
_chemical_formula_structural   LiTi2P3O11
_chemical_formula_sum   'Li2 Ti4 P6 O22'
_cell_volume   412.78410633
_cell_formula_units_Z   2
loop_
 _symmetry_equiv_pos_site_id
 _symmetry_equiv_pos_as_xyz
  1  'x, y, z'
loop_
 _atom_site_type_symbol
 _atom_site_label
 _atom_site_symmetry_multiplicity
 _atom_site_fract_x
 _atom_site_fract_y
 _atom_site_fract_z
 _atom_site_occupancy
  Li  Li0  1  0.48467761  0.98688630  0.01101734  1
  Li  Li1  1  0.98688630  0.48467761  0.48898266  1
  Ti  Ti2  1  0.11019158  0.35919824  0.95599088  1
  Ti  Ti3  1  0.64082174  0.88871071  0.45728259  1
  Ti  Ti4  1  0.35919824  0.11019158  0.54400912  1
  Ti  Ti5  1  0.88871071  0.64082174  0.04271741  1
  P  P6  1  0.45153680  0.67410275  0.78699167  1
  P  P7  1  0.04587724  0.04587724  0.75000000  1
  P  P8  1  0.32360662  0.54826732  0.28579628  1
  P  P9  1  0.67410275  0.45153680  0.71300833  1
  P  P10  1  0.95473906  0.95473906  0.25000000  1
  P  P11  1  0.54826732  0.32360662  0.21420372  1
  O  O12  1  0.00818113  0.88030245  0.90711250  1
  O  O13  1  0.12050040  0.99348499  0.40639027  1
  O  O14  1  0.24540687  0.60817691  0.81185975  1
  O  O15  1  0.46272329  0.84416573  0.62437595  1
  O  O16  1  0.61130041  0.72668375  0.93830936  1
  O  O17  1  0.04011524  0.25408522  0.75305318  1
  O  O18  1  0.39180144  0.75730885  0.30534788  1
  O  O19  1  0.49103178  0.49103178  0.75000000  1
  O  O20  1  0.15368560  0.53642870  0.12330640  1
  O  O21  1  0.26988909  0.39067767  0.43730108  1
  O  O22  1  0.74673894  0.95949015  0.25466912  1
  O  O23  1  0.25408522  0.04011524  0.74694682  1
  O  O24  1  0.72668375  0.61130041  0.56169064  1
  O  O25  1  0.84416573  0.46272329  0.87562405  1
  O  O26  1  0.50623745  0.50623745  0.25000000  1
  O  O27  1  0.60817691  0.24540687  0.68814025  1
  O  O28  1  0.95949015  0.74673894  0.24533088  1
  O  O29  1  0.39067767  0.26988909  0.06269892  1
  O  O30  1  0.53642870  0.15368560  0.37669360  1
  O  O31  1  0.75730885  0.39180144  0.19465212  1
  O  O32  1  0.88030245  0.00818113  0.59288750  1
  O  O33  1  0.99348499  0.12050040  0.09360973  1
