# generated using pymatgen
data_Cs2RbZrOF5
_symmetry_space_group_name_H-M   'P 1'
_cell_length_a   6.83558255
_cell_length_b   6.81204708
_cell_length_c   6.83558198
_cell_angle_alpha   60.11383097
_cell_angle_beta   59.77233541
_cell_angle_gamma   60.11383079
_symmetry_Int_Tables_number   1
_chemical_formula_structural   Cs2RbZrOF5
_chemical_formula_sum   'Cs2 Rb1 Zr1 O1 F5'
_cell_volume   225.06263558
_cell_formula_units_Z   1
loop_
 _symmetry_equiv_pos_site_id
 _symmetry_equiv_pos_as_xyz
  1  'x, y, z'
loop_
 _atom_site_type_symbol
 _atom_site_label
 _atom_site_symmetry_multiplicity
 _atom_site_fract_x
 _atom_site_fract_y
 _atom_site_fract_z
 _atom_site_occupancy
  Cs  Cs0  1  0.25179336  0.24820664  0.25179336  1
  Cs  Cs1  1  0.75179336  0.74820664  0.75179336  1
  F  F2  1  0.21239646  0.22136545  0.77863455  1
  F  F3  1  0.77863455  0.22136545  0.21239646  1
  F  F4  1  0.21239646  0.78760354  0.77863455  1
  F  F5  1  0.78560645  0.21439355  0.78560645  1
  F  F6  1  0.77863455  0.78760354  0.21239646  1
  O  O7  1  0.21276708  0.78723292  0.21276708  1
  Rb  Rb8  1  0.49797205  0.50202795  0.49797205  1
  Zr  Zr9  1  0.01800568  0.98199432  0.01800568  1
