# generated using pymatgen
data_PW3O11
_symmetry_space_group_name_H-M   'P 1'
_cell_length_a   5.39658091
_cell_length_b   6.70262973
_cell_length_c   24.04863827
_cell_angle_alpha   90.00000000
_cell_angle_beta   90.00000000
_cell_angle_gamma   90.00000000
_symmetry_Int_Tables_number   1
_chemical_formula_structural   PW3O11
_chemical_formula_sum   'P4 W12 O44'
_cell_volume   869.87011621
_cell_formula_units_Z   4
loop_
 _symmetry_equiv_pos_site_id
 _symmetry_equiv_pos_as_xyz
  1  'x, y, z'
loop_
 _atom_site_type_symbol
 _atom_site_label
 _atom_site_symmetry_multiplicity
 _atom_site_fract_x
 _atom_site_fract_y
 _atom_site_fract_z
 _atom_site_occupancy
  O  O0  1  0.03396001  0.60032070  0.42988597  1
  O  O1  1  0.53396101  0.89968030  0.57011403  1
  O  O2  1  0.96603999  0.10032070  0.07011403  1
  O  O3  1  0.46603899  0.39968030  0.92988597  1
  O  O4  1  0.98285658  0.77701224  0.19786220  1
  O  O5  1  0.48285558  0.72298676  0.80213880  1
  O  O6  1  0.01714342  0.27701224  0.30213880  1
  O  O7  1  0.51714442  0.22298676  0.69786120  1
  O  O8  1  0.45087588  0.74289164  0.18956051  1
  O  O9  1  0.95087688  0.75710736  0.81043849  1
  O  O10  1  0.54912412  0.24289264  0.31043849  1
  O  O11  1  0.04912312  0.25710736  0.68956051  1
  O  O12  1  0.51993914  0.73142026  0.99664729  1
  O  O13  1  0.01993814  0.76857974  0.00335271  1
  O  O14  1  0.53284461  0.56538267  0.43655805  1
  O  O15  1  0.98006186  0.26857974  0.49664729  1
  O  O16  1  0.75433332  0.25786141  0.59828027  1
  O  O17  1  0.25433432  0.24213859  0.40171973  1
  O  O18  1  0.24566668  0.75786141  0.90171973  1
  O  O19  1  0.74566568  0.74213859  0.09828027  1
  O  O20  1  0.74216109  0.08534961  0.96500158  1
  O  O21  1  0.24216209  0.41465039  0.03499842  1
  O  O22  1  0.25783891  0.58534961  0.53499842  1
  O  O23  1  0.75783791  0.91465039  0.46500258  1
  O  O24  1  0.74228252  0.42850555  0.83269453  1
  O  O25  1  0.24228352  0.07149545  0.16730547  1
  O  O26  1  0.25771748  0.92850555  0.66730547  1
  O  O27  1  0.75771748  0.57149345  0.33269453  1
  O  O28  1  0.51489366  0.07206934  0.86183807  1
  O  O29  1  0.01489266  0.42793066  0.13816193  1
  O  O30  1  0.48510634  0.57207034  0.63816193  1
  O  O31  1  0.98510734  0.92793066  0.36183807  1
  O  O32  1  0.01762266  0.10375146  0.86841904  1
  O  O33  1  0.51762166  0.39624754  0.13157996  1
  O  O34  1  0.98237734  0.60375146  0.63158096  1
  O  O35  1  0.48237834  0.89624754  0.36842004  1
  O  O36  1  0.23533820  0.05438557  0.76516613  1
  O  O37  1  0.73533920  0.44561443  0.23483387  1
  O  O38  1  0.76466180  0.55438557  0.73483387  1
  O  O39  1  0.26466080  0.94561443  0.26516613  1
  O  O40  1  0.96715639  0.43461633  0.93655805  1
  O  O41  1  0.46715539  0.06538367  0.06344195  1
  O  O42  1  0.03284361  0.93461633  0.56344195  1
  O  O43  1  0.48006086  0.23142026  0.50335271  1
  P  P44  1  0.23483285  0.88362884  0.20389227  1
  P  P45  1  0.73483385  0.61637216  0.79610773  1
  P  P46  1  0.76516715  0.38362784  0.29610673  1
  P  P47  1  0.26516615  0.11637216  0.70389227  1
  W  W48  1  0.24111188  0.24336479  0.09724823  1
  W  W49  1  0.75642027  0.41906551  0.66056910  1
  W  W50  1  0.74357973  0.58093349  0.16056910  1
  W  W51  1  0.24357973  0.91906551  0.83943090  1
  W  W52  1  0.25641927  0.08093349  0.33943090  1
  W  W53  1  0.74111088  0.25663521  0.90275177  1
  W  W54  1  0.75888812  0.74336479  0.40275177  1
  W  W55  1  0.25888912  0.75663521  0.59724823  1
  W  W56  1  0.25625306  0.41660702  0.46896934  1
  W  W57  1  0.75625406  0.08339398  0.53103066  1
  W  W58  1  0.74374694  0.91660702  0.03103066  1
  W  W59  1  0.24374594  0.58339398  0.96896934  1
