# generated using pymatgen
data_V2Te2O9
_symmetry_space_group_name_H-M   'P 1'
_cell_length_a   7.36433758
_cell_length_b   9.75361641
_cell_length_c   10.25448455
_cell_angle_alpha   90.00000000
_cell_angle_beta   95.15976290
_cell_angle_gamma   90.00000000
_symmetry_Int_Tables_number   1
_chemical_formula_structural   V2Te2O9
_chemical_formula_sum   'V8 Te8 O36'
_cell_volume   733.58386795
_cell_formula_units_Z   4
loop_
 _symmetry_equiv_pos_site_id
 _symmetry_equiv_pos_as_xyz
  1  'x, y, z'
loop_
 _atom_site_type_symbol
 _atom_site_label
 _atom_site_symmetry_multiplicity
 _atom_site_fract_x
 _atom_site_fract_y
 _atom_site_fract_z
 _atom_site_occupancy
  O  O0  1  0.64931873  0.54883696  0.09715679  1
  O  O1  1  0.35068227  0.04883796  0.40284321  1
  O  O2  1  0.35068127  0.45116204  0.90284221  1
  O  O3  1  0.64931873  0.95116304  0.59715779  1
  O  O4  1  0.44440112  0.04538874  0.14804324  1
  O  O5  1  0.55559888  0.54538874  0.35195776  1
  O  O6  1  0.55559888  0.95461126  0.85195676  1
  O  O7  1  0.44440112  0.45461126  0.64804324  1
  O  O8  1  0.91901212  0.35921172  0.92523761  1
  O  O9  1  0.08098788  0.85921072  0.57476239  1
  O  O10  1  0.08098788  0.64078928  0.07476139  1
  O  O11  1  0.91901212  0.14078928  0.42523761  1
  O  O12  1  0.80517919  0.14125291  0.05273179  1
  O  O13  1  0.19482181  0.64125191  0.44726721  1
  O  O14  1  0.19482181  0.85874709  0.94726721  1
  O  O15  1  0.80517819  0.35874709  0.55273279  1
  O  O16  1  0.93479748  0.13478191  0.69117377  1
  O  O17  1  0.06520252  0.63478191  0.80882623  1
  O  O18  1  0.06520252  0.86521809  0.30882623  1
  O  O19  1  0.93479848  0.36521809  0.19117377  1
  O  O20  1  0.16568443  0.15146381  0.93075680  1
  O  O21  1  0.83431557  0.65146381  0.56924320  1
  O  O22  1  0.83431557  0.84853719  0.06924320  1
  O  O23  1  0.16568343  0.34853719  0.43075680  1
  O  O24  1  0.90527844  0.93830835  0.82662922  1
  O  O25  1  0.09472156  0.43830935  0.67337078  1
  O  O26  1  0.58733969  0.30328529  0.21740216  1
  O  O27  1  0.90527944  0.56169065  0.32663022  1
  O  O28  1  0.23782605  0.19444156  0.62590196  1
  O  O29  1  0.76217395  0.69444156  0.87409804  1
  O  O30  1  0.76217395  0.80555844  0.37409704  1
  O  O31  1  0.23782705  0.30555844  0.12590196  1
  O  O32  1  0.58733869  0.19671471  0.71740216  1
  O  O33  1  0.41266131  0.69671471  0.78259784  1
  O  O34  1  0.41266131  0.80328529  0.28259884  1
  O  O35  1  0.09472156  0.06169065  0.17336978  1
  V  V36  1  0.99487766  0.25176440  0.04070378  1
  V  V37  1  0.00512234  0.75176440  0.45929622  1
  V  V38  1  0.00512234  0.74823560  0.95929622  1
  V  V39  1  0.99487766  0.24823460  0.54070378  1
  V  V40  1  0.70785016  0.46675589  0.23192826  1
  V  V41  1  0.29214884  0.96675589  0.26807174  1
  V  V42  1  0.29214984  0.53324411  0.76807074  1
  V  V43  1  0.70785016  0.03324511  0.73192926  1
  Te  Te44  1  0.44750528  0.22172266  0.06306852  1
  Te  Te45  1  0.55249572  0.72172266  0.43693148  1
  Te  Te46  1  0.55249472  0.77827734  0.93693048  1
  Te  Te47  1  0.44750528  0.27827734  0.56306952  1
  Te  Te48  1  0.13630650  0.48134282  0.29089408  1
  Te  Te49  1  0.86369450  0.98134382  0.20910492  1
  Te  Te50  1  0.86369450  0.51865618  0.70910592  1
  Te  Te51  1  0.13630550  0.01865618  0.79089408  1
