# generated using pymatgen
data_Ce3CuSnS7
_symmetry_space_group_name_H-M   'P 1'
_cell_length_a   10.17014640
_cell_length_b   10.17014610
_cell_length_c   6.09067031
_cell_angle_alpha   90.00000000
_cell_angle_beta   90.00000000
_cell_angle_gamma   120.00000096
_symmetry_Int_Tables_number   1
_chemical_formula_structural   Ce3CuSnS7
_chemical_formula_sum   'Ce6 Cu2 Sn2 S14'
_cell_volume   545.56954068
_cell_formula_units_Z   2
loop_
 _symmetry_equiv_pos_site_id
 _symmetry_equiv_pos_as_xyz
  1  'x, y, z'
loop_
 _atom_site_type_symbol
 _atom_site_label
 _atom_site_symmetry_multiplicity
 _atom_site_fract_x
 _atom_site_fract_y
 _atom_site_fract_z
 _atom_site_occupancy
  Ce  Ce0  1  0.22307226  0.35823682  0.75846898  1
  Ce  Ce1  1  0.86483544  0.22307226  0.25846898  1
  Ce  Ce2  1  0.35823682  0.13516456  0.25846898  1
  Ce  Ce3  1  0.64176318  0.86483544  0.75846898  1
  Ce  Ce4  1  0.13516456  0.77692774  0.75846898  1
  Ce  Ce5  1  0.77692774  0.64176318  0.25846898  1
  Cu  Cu6  1  0.00000000  0.00000000  0.71487852  1
  Cu  Cu7  1  0.00000000  0.00000000  0.21487852  1
  Sn  Sn8  1  0.33333300  0.66666700  0.33079437  1
  Sn  Sn9  1  0.66666700  0.33333300  0.83079437  1
  S  S10  1  0.33333300  0.66666700  0.93673901  1
  S  S11  1  0.66666700  0.33333300  0.43673901  1
  S  S12  1  0.90266990  0.15529189  0.72919557  1
  S  S13  1  0.74737801  0.90266990  0.22919557  1
  S  S14  1  0.15529189  0.25262199  0.22919557  1
  S  S15  1  0.84470811  0.74737801  0.72919557  1
  S  S16  1  0.25262199  0.09733010  0.72919557  1
  S  S17  1  0.09733010  0.84470811  0.22919557  1
  S  S18  1  0.42761138  0.91416702  0.50416482  1
  S  S19  1  0.51344436  0.42761138  0.00416482  1
  S  S20  1  0.91416702  0.48655564  0.00416482  1
  S  S21  1  0.08583298  0.51344436  0.50416482  1
  S  S22  1  0.48655564  0.57238862  0.50416482  1
  S  S23  1  0.57238862  0.08583298  0.00416482  1
