# generated using pymatgen
data_Li6Fe7O15
_symmetry_space_group_name_H-M   'P 1'
_cell_length_a   8.98201394
_cell_length_b   7.93480311
_cell_length_c   3.94685187
_cell_angle_alpha   104.50503126
_cell_angle_beta   90.00268003
_cell_angle_gamma   101.52890556
_symmetry_Int_Tables_number   1
_chemical_formula_structural   Li6Fe7O15
_chemical_formula_sum   'Li6 Fe7 O15'
_cell_volume   266.46109873
_cell_formula_units_Z   1
loop_
 _symmetry_equiv_pos_site_id
 _symmetry_equiv_pos_as_xyz
  1  'x, y, z'
loop_
 _atom_site_type_symbol
 _atom_site_label
 _atom_site_symmetry_multiplicity
 _atom_site_fract_x
 _atom_site_fract_y
 _atom_site_fract_z
 _atom_site_occupancy
  Li  Li0  1  0.13182729  0.79403073  0.40039427  1
  Li  Li1  1  0.99955437  0.00868007  0.00656018  1
  Li  Li2  1  0.33952266  0.00442169  0.00435526  1
  Li  Li3  1  0.39860748  0.39832891  0.20103761  1
  Li  Li4  1  0.59720848  0.59888562  0.80193212  1
  Li  Li5  1  0.73336105  0.39287924  0.19832908  1
  Fe  Fe6  1  0.25871905  0.58830890  0.79651047  1
  Fe  Fe7  1  0.19780719  0.19384271  0.59849322  1
  Fe  Fe8  1  0.47415349  0.81393766  0.40878229  1
  Fe  Fe9  1  0.53960492  0.20562795  0.60423648  1
  Fe  Fe10  1  0.79511469  0.80845268  0.40688746  1
  Fe  Fe11  1  0.86441950  0.19932879  0.60069154  1
  Fe  Fe12  1  0.93707502  0.59101887  0.79873743  1
  O  O13  1  0.12893927  0.76313291  0.88386149  1
  O  O14  1  0.06449970  0.39428842  0.69877619  1
  O  O15  1  0.20161678  0.17936629  0.09163430  1
  O  O16  1  0.28705543  0.61575757  0.31022703  1
  O  O17  1  0.44680213  0.78478096  0.89461360  1
  O  O18  1  0.38219131  0.39120464  0.69792674  1
  O  O19  1  0.35268828  0.01750209  0.51114976  1
  O  O20  1  0.60593189  0.63864752  0.32177908  1
  O  O21  1  0.53305494  0.22050381  0.11225493  1
  O  O22  1  0.67274693  0.00163297  0.50263742  1
  O  O23  1  0.74108007  0.38747276  0.69530110  1
  O  O24  1  0.81654491  0.78422638  0.89490724  1
  O  O25  1  0.91501823  0.61831614  0.31215491  1
  O  O26  1  0.86474084  0.20032873  0.10181862  1
  O  O27  1  0.99187410  0.01336300  0.50861017  1
