# generated using pymatgen
data_PrZr3F15
_symmetry_space_group_name_H-M   'P 1'
_cell_length_a   8.34849255
_cell_length_b   8.34546783
_cell_length_c   16.68934353
_cell_angle_alpha   100.04760478
_cell_angle_beta   100.36127271
_cell_angle_gamma   100.07904218
_symmetry_Int_Tables_number   1
_chemical_formula_structural   PrZr3F15
_chemical_formula_sum   'Pr4 Zr12 F60'
_cell_volume   1100.41360095
_cell_formula_units_Z   4
loop_
 _symmetry_equiv_pos_site_id
 _symmetry_equiv_pos_as_xyz
  1  'x, y, z'
loop_
 _atom_site_type_symbol
 _atom_site_label
 _atom_site_symmetry_multiplicity
 _atom_site_fract_x
 _atom_site_fract_y
 _atom_site_fract_z
 _atom_site_occupancy
  F  F0  1  0.03471628  0.46444383  0.88222346  1
  F  F1  1  0.03235987  0.15218546  0.83923709  1
  F  F2  1  0.99952735  0.21508160  0.60944831  1
  F  F3  1  0.19173697  0.65290769  0.78129998  1
  F  F4  1  0.24164582  0.94872356  0.76112787  1
  F  F5  1  0.02071387  0.44938204  0.36253401  1
  F  F6  1  0.30661490  0.92791244  0.92418020  1
  F  F7  1  0.14809667  0.68919033  0.53741944  1
  F  F8  1  0.05565473  0.15524572  0.34370456  1
  F  F9  1  0.99796572  0.23178075  0.11411330  1
  F  F10  1  0.34267965  0.46802235  0.90697441  1
  F  F11  1  0.27448307  0.28037902  0.74738943  1
  F  F12  1  0.27388651  0.50504851  0.63984535  1
  F  F13  1  0.17429662  0.65647393  0.26329918  1
  F  F14  1  0.25362205  0.96768863  0.26794186  1
  F  F15  1  0.31640363  0.96760389  0.42125294  1
  F  F16  1  0.22457936  0.22834378  0.49599366  1
  F  F17  1  0.22474288  0.99600419  0.61271155  1
  F  F18  1  0.14791386  0.68823615  0.02659728  1
  F  F19  1  0.44575076  0.80916492  0.67489475  1
  F  F20  1  0.49915805  0.72667811  0.86058773  1
  F  F21  1  0.34977768  0.42956006  0.40407662  1
  F  F22  1  0.27410550  0.27210043  0.25313184  1
  F  F23  1  0.27408272  0.50269087  0.13607683  1
  F  F24  1  0.55458419  0.25637378  0.98870547  1
  F  F25  1  0.47664957  0.75684877  0.52714712  1
  F  F26  1  0.21740507  0.22129086  0.00149503  1
  F  F27  1  0.22210432  0.99631348  0.11284985  1
  F  F28  1  0.50062574  0.27529471  0.64053971  1
  F  F29  1  0.57375710  0.18654192  0.82421540  1
  F  F30  1  0.42624290  0.81345808  0.17578460  1
  F  F31  1  0.49937426  0.72470529  0.35946029  1
  F  F32  1  0.77789568  0.00368652  0.88715015  1
  F  F33  1  0.78259493  0.77870914  0.99850497  1
  F  F34  1  0.52335043  0.24315123  0.47285288  1
  F  F35  1  0.44541581  0.74362622  0.01129453  1
  F  F36  1  0.72591728  0.49730913  0.86392317  1
  F  F37  1  0.72589450  0.72789957  0.74686816  1
  F  F38  1  0.65022232  0.57043994  0.59592338  1
  F  F39  1  0.50084195  0.27332189  0.13941227  1
  F  F40  1  0.55424924  0.19083508  0.32510525  1
  F  F41  1  0.85208614  0.31176385  0.97340272  1
  F  F42  1  0.77525712  0.00399581  0.38728845  1
  F  F43  1  0.77542064  0.77165622  0.50400634  1
  F  F44  1  0.68359637  0.03239611  0.57874706  1
  F  F45  1  0.74637795  0.03231137  0.73205814  1
  F  F46  1  0.82570338  0.34352607  0.73670082  1
  F  F47  1  0.72611349  0.49495149  0.36015465  1
  F  F48  1  0.72551693  0.71962098  0.25261057  1
  F  F49  1  0.65732035  0.53197765  0.09302559  1
  F  F50  1  0.00203428  0.76821925  0.88588670  1
  F  F51  1  0.94434527  0.84475428  0.65629544  1
  F  F52  1  0.85190333  0.31080967  0.46258056  1
  F  F53  1  0.69338510  0.07208756  0.07581980  1
  F  F54  1  0.97928613  0.55061796  0.63746599  1
  F  F55  1  0.75835418  0.05127644  0.23887213  1
  F  F56  1  0.80826303  0.34709231  0.21870002  1
  F  F57  1  0.00047265  0.78491840  0.39055169  1
  F  F58  1  0.96764013  0.84781454  0.16076291  1
  F  F59  1  0.96528372  0.53555617  0.11777654  1
  Pr  Pr60  1  0.32569667  0.17870454  0.87484499  1
  Pr  Pr61  1  0.24920150  0.67765572  0.41174959  1
  Pr  Pr62  1  0.75079850  0.32234428  0.58825041  1
  Pr  Pr63  1  0.67430333  0.82129546  0.12515501  1
  Zr  Zr64  1  0.24078672  0.67539483  0.91215596  1
  Zr  Zr65  1  0.17943243  0.74753165  0.66425629  1
  Zr  Zr66  1  0.24947272  0.24777314  0.62190055  1
  Zr  Zr67  1  0.17335789  0.74918555  0.15831099  1
  Zr  Zr68  1  0.32029740  0.17599881  0.37121135  1
  Zr  Zr69  1  0.25299815  0.25094653  0.12651006  1
  Zr  Zr70  1  0.74700185  0.74905347  0.87348994  1
  Zr  Zr71  1  0.67970260  0.82400119  0.62878865  1
  Zr  Zr72  1  0.82664211  0.25081445  0.84168901  1
  Zr  Zr73  1  0.75052728  0.75222686  0.37809945  1
  Zr  Zr74  1  0.82056757  0.25246835  0.33574371  1
  Zr  Zr75  1  0.75921328  0.32460517  0.08784404  1
