# generated using pymatgen
data_La3Ru3O11
_symmetry_space_group_name_H-M   'P 1'
_cell_length_a   9.54353156
_cell_length_b   9.54353156
_cell_length_c   9.54353156
_cell_angle_alpha   90.00000000
_cell_angle_beta   90.00000000
_cell_angle_gamma   90.00000000
_symmetry_Int_Tables_number   1
_chemical_formula_structural   La3Ru3O11
_chemical_formula_sum   'La12 Ru12 O44'
_cell_volume   869.21525977
_cell_formula_units_Z   4
loop_
 _symmetry_equiv_pos_site_id
 _symmetry_equiv_pos_as_xyz
  1  'x, y, z'
loop_
 _atom_site_type_symbol
 _atom_site_label
 _atom_site_symmetry_multiplicity
 _atom_site_fract_x
 _atom_site_fract_y
 _atom_site_fract_z
 _atom_site_occupancy
  O  O0  1  0.08030182  0.75273462  0.46211037  1
  O  O1  1  0.08030182  0.74726538  0.03788963  1
  O  O2  1  0.41969818  0.75273462  0.03788963  1
  O  O3  1  0.74726538  0.03788963  0.08030182  1
  O  O4  1  0.03788963  0.41969818  0.75273462  1
  O  O5  1  0.03788963  0.08030182  0.74726538  1
  O  O6  1  0.75273462  0.46211037  0.08030182  1
  O  O7  1  0.46211037  0.08030182  0.75273462  1
  O  O8  1  0.75273462  0.03788963  0.41969818  1
  O  O9  1  0.74726538  0.46211037  0.41969818  1
  O  O10  1  0.46211037  0.41969818  0.74726538  1
  O  O11  1  0.41969818  0.74726538  0.46211037  1
  O  O12  1  0.91969818  0.24726538  0.53788963  1
  O  O13  1  0.91969818  0.25273462  0.96211037  1
  O  O14  1  0.58030182  0.24726538  0.96211037  1
  O  O15  1  0.25273462  0.96211037  0.91969818  1
  O  O16  1  0.64499065  0.85500935  0.64499065  1
  O  O17  1  0.96211037  0.58030182  0.24726538  1
  O  O18  1  0.24726538  0.53788963  0.91969818  1
  O  O19  1  0.53788963  0.91969818  0.24726538  1
  O  O20  1  0.24726538  0.96211037  0.58030182  1
  O  O21  1  0.25273462  0.53788963  0.58030182  1
  O  O22  1  0.53788963  0.58030182  0.25273462  1
  O  O23  1  0.58030182  0.25273462  0.53788963  1
  O  O24  1  0.62360684  0.25000000  0.25000000  1
  O  O25  1  0.25000000  0.62360684  0.25000000  1
  O  O26  1  0.25000000  0.25000000  0.62360684  1
  O  O27  1  0.25000000  0.87639316  0.25000000  1
  O  O28  1  0.25000000  0.25000000  0.87639316  1
  O  O29  1  0.87639316  0.25000000  0.25000000  1
  O  O30  1  0.37639316  0.75000000  0.75000000  1
  O  O31  1  0.75000000  0.37639316  0.75000000  1
  O  O32  1  0.75000000  0.75000000  0.37639316  1
  O  O33  1  0.75000000  0.12360684  0.75000000  1
  O  O34  1  0.75000000  0.75000000  0.12360684  1
  O  O35  1  0.12360684  0.75000000  0.75000000  1
  O  O36  1  0.14499065  0.14499065  0.14499065  1
  O  O37  1  0.35500935  0.35500935  0.14499065  1
  O  O38  1  0.14499065  0.35500935  0.35500935  1
  O  O39  1  0.35500935  0.14499065  0.35500935  1
  O  O40  1  0.85500935  0.85500935  0.85500935  1
  O  O41  1  0.64499065  0.64499065  0.85500935  1
  O  O42  1  0.85500935  0.64499065  0.64499065  1
  O  O43  1  0.96211037  0.91969818  0.25273462  1
  Ru  Ru44  1  0.91128568  0.25000000  0.75000000  1
  Ru  Ru45  1  0.25000000  0.75000000  0.91128568  1
  Ru  Ru46  1  0.75000000  0.91128568  0.25000000  1
  Ru  Ru47  1  0.25000000  0.75000000  0.58871432  1
  Ru  Ru48  1  0.75000000  0.58871432  0.25000000  1
  Ru  Ru49  1  0.58871432  0.25000000  0.75000000  1
  Ru  Ru50  1  0.08871432  0.75000000  0.25000000  1
  Ru  Ru51  1  0.75000000  0.25000000  0.08871432  1
  Ru  Ru52  1  0.25000000  0.08871432  0.75000000  1
  Ru  Ru53  1  0.75000000  0.25000000  0.41128568  1
  Ru  Ru54  1  0.25000000  0.41128568  0.75000000  1
  Ru  Ru55  1  0.41128568  0.75000000  0.25000000  1
  La  La56  1  0.88611849  0.61388151  0.88611849  1
  La  La57  1  0.61388151  0.88611849  0.88611849  1
  La  La58  1  0.88611849  0.88611849  0.61388151  1
  La  La59  1  0.61388151  0.61388151  0.61388151  1
  La  La60  1  0.11388151  0.38611849  0.11388151  1
  La  La61  1  0.38611849  0.11388151  0.11388151  1
  La  La62  1  0.11388151  0.11388151  0.38611849  1
  La  La63  1  0.38611849  0.38611849  0.38611849  1
  La  La64  1  0.50000000  0.00000000  0.50000000  1
  La  La65  1  0.00000000  0.50000000  0.50000000  1
  La  La66  1  0.50000000  0.50000000  0.00000000  1
  La  La67  1  0.00000000  0.00000000  0.00000000  1
