# generated using pymatgen
data_Li3Fe3(PO4)4
_symmetry_space_group_name_H-M   'P 1'
_cell_length_a   13.23359534
_cell_length_b   8.08883808
_cell_length_c   8.88007781
_cell_angle_alpha   90.21040266
_cell_angle_beta   84.81635032
_cell_angle_gamma   90.17370895
_symmetry_Int_Tables_number   1
_chemical_formula_structural   Li3Fe3(PO4)4
_chemical_formula_sum   'Li9 Fe9 P12 O48'
_cell_volume   946.66523686
_cell_formula_units_Z   3
loop_
 _symmetry_equiv_pos_site_id
 _symmetry_equiv_pos_as_xyz
  1  'x, y, z'
loop_
 _atom_site_type_symbol
 _atom_site_label
 _atom_site_symmetry_multiplicity
 _atom_site_fract_x
 _atom_site_fract_y
 _atom_site_fract_z
 _atom_site_occupancy
  Li  Li0  1  0.16369748  0.86356422  0.22948902  1
  Li  Li1  1  0.83817156  0.13457367  0.75868708  1
  Li  Li2  1  0.82803649  0.86351009  0.57753872  1
  Li  Li3  1  0.83577771  0.36216150  0.27261078  1
  Li  Li4  1  0.50364533  0.36257219  0.59340625  1
  Li  Li5  1  0.17354950  0.36706006  0.92260247  1
  Li  Li6  1  0.49192969  0.63186108  0.41121567  1
  Li  Li7  1  0.16291788  0.63612229  0.73997109  1
  Li  Li8  1  0.50527552  0.13657932  0.10413762  1
  O  O9  1  0.56831683  0.91854102  0.07468067  1
  O  O10  1  0.76206258  0.07147115  0.58942318  1
  O  O11  1  0.58232601  0.63847231  0.86031956  1
  O  O12  1  0.91525250  0.63641385  0.51733417  1
  O  O13  1  0.74879548  0.36079272  0.81100677  1
  O  O14  1  0.93455709  0.30848269  0.66530393  1
  O  O15  1  0.90364997  0.92808673  0.74556196  1
  O  O16  1  0.77234604  0.13362819  0.99488192  1
  O  O17  1  0.89892872  0.63454721  0.85431157  1
  O  O18  1  0.23530637  0.87193308  0.01122321  1
  O  O19  1  0.10411368  0.37577585  0.15913537  1
  O  O20  1  0.10005669  0.08067607  0.25797728  1
  O  O21  1  0.06173483  0.70044582  0.32275102  1
  O  O22  1  0.25487513  0.64261754  0.18748369  1
  O  O23  1  0.08505747  0.36170289  0.47349065  1
  O  O24  1  0.41197066  0.35562262  0.14504162  1
  O  O25  1  0.26854659  0.30175788  0.34443954  1
  O  O26  1  0.23226160  0.93480798  0.41626387  1
  O  O27  1  0.60596074  0.30121374  0.01269753  1
  O  O28  1  0.73112222  0.68847059  0.66525731  1
  O  O29  1  0.10195500  0.13694709  0.64579882  1
  O  O30  1  0.22942075  0.63791663  0.50384633  1
  O  O31  1  0.56238700  0.62294401  0.17369705  1
  O  O32  1  0.43248142  0.12664434  0.32147427  1
  O  O33  1  0.09546262  0.43027102  0.75583405  1
  O  O34  1  0.06540892  0.81012822  0.83403418  1
  O  O35  1  0.43007054  0.42325786  0.42392000  1
  O  O36  1  0.39508829  0.81121371  0.48863062  1
  O  O37  1  0.76737326  0.43114531  0.08523588  1
  O  O38  1  0.25134115  0.86387013  0.69029416  1
  O  O39  1  0.72844343  0.79608255  0.15276059  1
  O  O40  1  0.58475156  0.85975979  0.35139733  1
  O  O41  1  0.08394866  0.13861074  0.98122998  1
  O  O42  1  0.91461867  0.85952154  0.02713205  1
  O  O43  1  0.41503399  0.13473919  0.64302095  1
  O  O44  1  0.27221617  0.18861299  0.84495606  1
  O  O45  1  0.74769012  0.13807460  0.31051498  1
  O  O46  1  0.23730394  0.57477973  0.90840847  1
  O  O47  1  0.60081808  0.18747125  0.50492725  1
  O  O48  1  0.56813907  0.57006305  0.57881755  1
  O  O49  1  0.93923724  0.20200186  0.17784277  1
  O  O50  1  0.90037493  0.57912842  0.24032235  1
  O  O51  1  0.39865799  0.69668460  0.98858676  1
  O  O52  1  0.56474522  0.86320224  0.68793770  1
  O  O53  1  0.76356059  0.36667964  0.48951846  1
  O  O54  1  0.89696366  0.87366420  0.34075641  1
  O  O55  1  0.43535596  0.06506004  0.91719569  1
  O  O56  1  0.43814463  0.36116611  0.82865989  1
  P  P57  1  0.38901060  0.30582647  0.31385247  1
  P  P58  1  0.05138012  0.31653218  0.64589915  1
  P  P59  1  0.27854221  0.80960490  0.52442832  1
  P  P60  1  0.60955595  0.79562248  0.18906213  1
  P  P61  1  0.38849191  0.18958802  0.80881849  1
  P  P62  1  0.71836683  0.18767940  0.47911398  1
  P  P63  1  0.61431099  0.68289476  0.68701873  1
  P  P64  1  0.94468683  0.70052708  0.35536406  1
  P  P65  1  0.72270419  0.30440268  0.97588676  1
  P  P66  1  0.05644831  0.20259872  0.14400022  1
  P  P67  1  0.27784083  0.69223299  0.01863840  1
  P  P68  1  0.94883326  0.81521275  0.85404766  1
  Fe  Fe69  1  0.82786537  0.48986811  0.65262233  1
  Fe  Fe70  1  0.49881267  0.85535086  0.90076168  1
  Fe  Fe71  1  0.83823868  0.01644014  0.17075290  1
  Fe  Fe72  1  0.49526367  0.00544538  0.48729586  1
  Fe  Fe73  1  0.17201035  0.99391596  0.84640366  1
  Fe  Fe74  1  0.83272748  0.64055255  0.06638349  1
  Fe  Fe75  1  0.16764920  0.14399235  0.43254096  1
  Fe  Fe76  1  0.50043244  0.48189354  0.00244344  1
  Fe  Fe77  1  0.16559585  0.51671246  0.32966819  1
