# generated using pymatgen
data_ErGe3
_symmetry_space_group_name_H-M   'P 1'
_cell_length_a   3.93450187
_cell_length_b   4.02258509
_cell_length_c   10.57178226
_cell_angle_alpha   100.96743482
_cell_angle_beta   90.00000000
_cell_angle_gamma   90.00000000
_symmetry_Int_Tables_number   1
_chemical_formula_structural   ErGe3
_chemical_formula_sum   'Er2 Ge6'
_cell_volume   164.26222060
_cell_formula_units_Z   2
loop_
 _symmetry_equiv_pos_site_id
 _symmetry_equiv_pos_as_xyz
  1  'x, y, z'
loop_
 _atom_site_type_symbol
 _atom_site_label
 _atom_site_symmetry_multiplicity
 _atom_site_fract_x
 _atom_site_fract_y
 _atom_site_fract_z
 _atom_site_occupancy
  Ge  Ge0  1  0.25000000  0.18863660  0.37727320  1
  Ge  Ge1  1  0.75000000  0.81136340  0.62272680  1
  Ge  Ge2  1  0.75000000  0.04030313  0.08060626  1
  Ge  Ge3  1  0.25000000  0.95969687  0.91939374  1
  Ge  Ge4  1  0.75000000  0.69055224  0.38110449  1
  Ge  Ge5  1  0.25000000  0.30944776  0.61889551  1
  Er  Er6  1  0.25000000  0.58178765  0.16357529  1
  Er  Er7  1  0.75000000  0.41821235  0.83642471  1
