# generated using pymatgen
data_Ca10Ta3Ti4Al3(SiO5)10
_symmetry_space_group_name_H-M   'P 1'
_cell_length_a   5.47892995
_cell_length_b   27.58557147
_cell_length_c   7.12506082
_cell_angle_alpha   104.46353537
_cell_angle_beta   103.98667316
_cell_angle_gamma   105.53286400
_symmetry_Int_Tables_number   1
_chemical_formula_structural   Ca10Ta3Ti4Al3(SiO5)10
_chemical_formula_sum   'Ca10 Ta3 Ti4 Al3 Si10 O50'
_cell_volume   948.11557302
_cell_formula_units_Z   1
loop_
 _symmetry_equiv_pos_site_id
 _symmetry_equiv_pos_as_xyz
  1  'x, y, z'
loop_
 _atom_site_type_symbol
 _atom_site_label
 _atom_site_symmetry_multiplicity
 _atom_site_fract_x
 _atom_site_fract_y
 _atom_site_fract_z
 _atom_site_occupancy
  Al  Al0  1  0.50063047  0.90080830  0.00147270  1
  Al  Al1  1  0.50000000  0.70000000  0.00000000  1
  Al  Al2  1  0.49936953  0.49919170  0.99852730  1
  Ca  Ca3  1  0.17892519  0.96702556  0.77693254  1
  Ca  Ca4  1  0.18219388  0.76798541  0.77717350  1
  Ca  Ca5  1  0.18198097  0.56747421  0.77865101  1
  Ca  Ca6  1  0.17513379  0.36665134  0.75664883  1
  Ca  Ca7  1  0.81801903  0.83252579  0.22134899  1
  Ca  Ca8  1  0.16805514  0.16508218  0.74777733  1
  Ca  Ca9  1  0.81780612  0.63201459  0.22282650  1
  Ca  Ca10  1  0.82107481  0.43297444  0.22306746  1
  Ca  Ca11  1  0.83194486  0.23491782  0.25222267  1
  Ca  Ca12  1  0.82486621  0.03334866  0.24335117  1
  O  O13  1  0.12812943  0.85170741  0.91507942  1
  O  O14  1  0.18720510  0.92326494  0.38370463  1
  O  O15  1  0.42869831  0.91304143  0.75518033  1
  O  O16  1  0.12851454  0.65151003  0.91631998  1
  O  O17  1  0.24238806  0.82338660  0.39926834  1
  O  O18  1  0.38791620  0.96176967  0.11540490  1
  O  O19  1  0.18722544  0.72312815  0.38300605  1
  O  O20  1  0.61023522  0.83854438  0.88475648  1
  O  O21  1  0.75523410  0.97603701  0.59671460  1
  O  O22  1  0.42726618  0.71275153  0.75466365  1
  O  O23  1  0.12888372  0.45093368  0.91220738  1
  O  O24  1  0.56994205  0.88684024  0.24430935  1
  O  O25  1  0.24432645  0.62353014  0.39898614  1
  O  O26  1  0.38956199  0.76174817  0.11523423  1
  O  O27  1  0.18836405  0.52319021  0.38388904  1
  O  O28  1  0.81163595  0.87680979  0.61611096  1
  O  O29  1  0.61043801  0.63825183  0.88476577  1
  O  O30  1  0.75567355  0.77646986  0.60101386  1
  O  O31  1  0.43005795  0.51315976  0.75569065  1
  O  O32  1  0.11956196  0.24964111  0.90815125  1
  O  O33  1  0.87111628  0.94906632  0.08779262  1
  O  O34  1  0.57273382  0.68724847  0.24533635  1
  O  O35  1  0.24476590  0.42396299  0.40328540  1
  O  O36  1  0.38976478  0.56145562  0.11524352  1
  O  O37  1  0.18818329  0.32316299  0.38591587  1
  O  O38  1  0.81277456  0.67687185  0.61699395  1
  O  O39  1  0.61208380  0.43823033  0.88459510  1
  O  O40  1  0.75761194  0.57661340  0.60073166  1
  O  O41  1  0.43135205  0.31390589  0.75147143  1
  O  O42  1  0.12143457  0.05097425  0.91253538  1
  O  O43  1  0.87148546  0.74848997  0.08368002  1
  O  O44  1  0.57130169  0.48695857  0.24481967  1
  O  O45  1  0.24998838  0.22488661  0.41056616  1
  O  O46  1  0.38970529  0.36262853  0.11687689  1
  O  O47  1  0.18624318  0.12303937  0.38534684  1
  O  O48  1  0.81279490  0.47673506  0.61629537  1
  O  O49  1  0.60930310  0.23672497  0.88065557  1
  O  O50  1  0.75347454  0.37582086  0.59680135  1
  O  O51  1  0.43048591  0.11362743  0.74977831  1
  O  O52  1  0.87187057  0.54829259  0.08492058  1
  O  O53  1  0.56951409  0.28637257  0.25022169  1
  O  O54  1  0.24652546  0.02417914  0.40319865  1
  O  O55  1  0.39069690  0.16327503  0.11934443  1
  O  O56  1  0.81375682  0.27696063  0.61465316  1
  O  O57  1  0.61029471  0.03737147  0.88312311  1
  O  O58  1  0.75001162  0.17511339  0.58943384  1
  O  O59  1  0.87856543  0.34902575  0.08746462  1
  O  O60  1  0.56864795  0.08609411  0.24852857  1
  O  O61  1  0.81181671  0.07683701  0.61408413  1
  O  O62  1  0.88043804  0.15035889  0.09184875  1
  Si  Si63  1  0.17457635  0.96359805  0.24286382  1
  Si  Si64  1  0.17249816  0.76231439  0.23919917  1
  Si  Si65  1  0.17363032  0.56229252  0.23981184  1
  Si  Si66  1  0.82636968  0.83770748  0.76018816  1
  Si  Si67  1  0.17893580  0.36274460  0.24749008  1
  Si  Si68  1  0.82750184  0.63768561  0.76080083  1
  Si  Si69  1  0.18254934  0.16450501  0.25309799  1
  Si  Si70  1  0.82542365  0.43640195  0.75713618  1
  Si  Si71  1  0.81745066  0.23549499  0.74690201  1
  Si  Si72  1  0.82106420  0.03725540  0.75250992  1
  Ta  Ta73  1  0.49701159  0.89979265  0.49885108  1
  Ta  Ta74  1  0.50000000  0.70000000  0.50000000  1
  Ta  Ta75  1  0.50298841  0.50020735  0.50114892  1
  Ti  Ti76  1  0.50514240  0.30070683  0.50141802  1
  Ti  Ti77  1  0.49675866  0.29857812  0.99627837  1
  Ti  Ti78  1  0.49485760  0.09929317  0.49858198  1
  Ti  Ti79  1  0.50324134  0.10142188  0.00372163  1
