# generated using pymatgen
data_LiMnPO4
_symmetry_space_group_name_H-M   'P 1'
_cell_length_a   10.09348156
_cell_length_b   10.23785859
_cell_length_c   16.77392971
_cell_angle_alpha   82.09663709
_cell_angle_beta   90.00000000
_cell_angle_gamma   60.46541306
_symmetry_Int_Tables_number   1
_chemical_formula_structural   LiMnPO4
_chemical_formula_sum   'Li16 Mn16 P16 O64'
_cell_volume   1489.15842400
_cell_formula_units_Z   16
loop_
 _symmetry_equiv_pos_site_id
 _symmetry_equiv_pos_as_xyz
  1  'x, y, z'
loop_
 _atom_site_type_symbol
 _atom_site_label
 _atom_site_symmetry_multiplicity
 _atom_site_fract_x
 _atom_site_fract_y
 _atom_site_fract_z
 _atom_site_occupancy
  Li  Li0  1  0.81504320  0.98694775  0.99688777  1
  Li  Li1  1  0.19800906  0.98694775  0.49688777  1
  Li  Li2  1  0.57494942  0.72083865  0.74753352  1
  Li  Li3  1  0.07339442  0.66929482  0.74896108  1
  Li  Li4  1  0.31505212  0.54418637  0.99827368  1
  Li  Li5  1  0.70421193  0.72083865  0.24753352  1
  Li  Li6  1  0.81302001  0.48667924  0.99623885  1
  Li  Li7  1  0.25730976  0.66929482  0.24896108  1
  Li  Li8  1  0.14076151  0.54418637  0.49827368  1
  Li  Li9  1  0.70030075  0.48667924  0.49623885  1
  Li  Li10  1  0.56748269  0.22742797  0.74790262  1
  Li  Li11  1  0.07907010  0.16338957  0.74658866  1
  Li  Li12  1  0.31491357  0.04496180  0.99700616  1
  Li  Li13  1  0.20508934  0.22742797  0.24790262  1
  Li  Li14  1  0.75754033  0.16338957  0.24658866  1
  Li  Li15  1  0.64012563  0.04496180  0.49700616  1
  Mn  Mn16  1  0.26754978  0.84698881  0.87177691  1
  Mn  Mn17  1  0.76948314  0.78635581  0.87223135  1
  Mn  Mn18  1  0.88546142  0.84698881  0.37177691  1
  Mn  Mn19  1  0.44416005  0.78635581  0.37223135  1
  Mn  Mn20  1  0.32622461  0.66984747  0.62125079  1
  Mn  Mn21  1  0.88033694  0.60880906  0.62160111  1
  Mn  Mn22  1  0.00392692  0.66984747  0.12125079  1
  Mn  Mn23  1  0.51085400  0.60880906  0.12160111  1
  Mn  Mn24  1  0.27058262  0.34618611  0.87248500  1
  Mn  Mn25  1  0.76790902  0.28757984  0.87044085  1
  Mn  Mn26  1  0.38323127  0.34618611  0.37248500  1
  Mn  Mn27  1  0.94451114  0.28757984  0.37044085  1
  Mn  Mn28  1  0.82641403  0.16472195  0.62029563  1
  Mn  Mn29  1  0.38115384  0.11419297  0.62101287  1
  Mn  Mn30  1  0.00886402  0.16472195  0.12029563  1
  Mn  Mn31  1  0.50465319  0.11419297  0.12101287  1
  O  O32  1  0.07000522  0.97689009  0.79489522  1
  O  O33  1  0.56883941  0.89470179  0.79739362  1
  O  O34  1  0.74800287  0.83577799  0.98846657  1
  O  O35  1  0.55341175  0.93683331  0.56913100  1
  O  O36  1  0.93473620  0.82373391  0.81668870  1
  O  O37  1  0.95310469  0.97689009  0.29489522  1
  O  O38  1  0.24330833  0.76702455  0.98689668  1
  O  O39  1  0.12528698  0.86574051  0.57040643  1
  O  O40  1  0.53645880  0.89470179  0.29739362  1
  O  O41  1  0.41621813  0.83577799  0.48846657  1
  O  O42  1  0.50975593  0.93683331  0.06913100  1
  O  O43  1  0.47740925  0.75024689  0.63781767  1
  O  O44  1  0.98000504  0.74189702  0.63635586  1
  O  O45  1  0.24152989  0.82373391  0.31668870  1
  O  O46  1  0.44611877  0.66993615  0.82350875  1
  O  O47  1  0.98966713  0.76702455  0.48689668  1
  O  O48  1  0.00897352  0.86574051  0.07040643  1
  O  O49  1  0.69311133  0.66381513  0.54265896  1
  O  O50  1  0.84661708  0.55262471  0.88586918  1
  O  O51  1  0.29678947  0.59174140  0.73742536  1
  O  O52  1  0.80283697  0.58791108  0.73515035  1
  O  O53  1  0.77234385  0.75024689  0.13781767  1
  O  O54  1  0.27809794  0.74189702  0.13635586  1
  O  O55  1  0.88394607  0.66993615  0.32350875  1
  O  O56  1  0.34516011  0.49953521  0.88696707  1
  O  O57  1  0.07167753  0.47664190  0.79658028  1
  O  O58  1  0.64307454  0.66381513  0.04265896  1
  O  O59  1  0.33958237  0.51282918  0.54783989  1
  O  O60  1  0.60075720  0.55262471  0.38586918  1
  O  O61  1  0.11147013  0.59174140  0.23742536  1
  O  O62  1  0.60925196  0.58791108  0.23515035  1
  O  O63  1  0.56615871  0.39789025  0.79583792  1
  O  O64  1  0.74528425  0.33617342  0.98694985  1
  O  O65  1  0.15530568  0.49953521  0.38696707  1
  O  O66  1  0.05461128  0.43304345  0.57090981  1
  O  O67  1  0.24526649  0.26817388  0.98822672  1
  O  O68  1  0.45168058  0.47664190  0.29658028  1
  O  O69  1  0.94023354  0.31874340  0.81771741  1
  O  O70  1  0.62834202  0.36449110  0.56889776  1
  O  O71  1  0.14758846  0.51282918  0.04783989  1
  O  O72  1  0.03595104  0.39789025  0.29583792  1
  O  O73  1  0.91854333  0.33617342  0.48694985  1
  O  O74  1  0.51234527  0.43304345  0.07090981  1
  O  O75  1  0.47704529  0.25072070  0.63778794  1
  O  O76  1  0.97885726  0.24263432  0.63568238  1
  O  O77  1  0.48655963  0.26817388  0.48822672  1
  O  O78  1  0.44587599  0.16842243  0.82332325  1
  O  O79  1  0.74102306  0.31874340  0.31771741  1
  O  O80  1  0.00716689  0.36449110  0.06889776  1
  O  O81  1  0.19579468  0.16230229  0.54197367  1
  O  O82  1  0.85019443  0.05279984  0.88766934  1
  O  O83  1  0.79558043  0.09701716  0.73804222  1
  O  O84  1  0.30415584  0.08544788  0.73439221  1
  O  O85  1  0.27223501  0.25072070  0.13778794  1
  O  O86  1  0.77850841  0.24263432  0.13568238  1
  O  O87  1  0.38570058  0.16842243  0.32332325  1
  O  O88  1  0.34162009  0.00117528  0.88519430  1
  O  O89  1  0.64190302  0.16230229  0.04197367  1
  O  O90  1  0.83735954  0.00716361  0.54918713  1
  O  O91  1  0.09700573  0.05279984  0.38766934  1
  O  O92  1  0.10740241  0.09701716  0.23804222  1
  O  O93  1  0.61039628  0.08544788  0.23439221  1
  O  O94  1  0.65720463  0.00117528  0.38519430  1
  O  O95  1  0.15547585  0.00716361  0.04918713  1
  P  P96  1  0.91376450  0.98575439  0.80908687  1
  P  P97  1  0.10048111  0.98575439  0.30908687  1
  P  P98  1  0.98257136  0.84728024  0.56057520  1
  P  P99  1  0.53632445  0.79708707  0.55910260  1
  P  P100  1  0.17014940  0.84728024  0.06057520  1
  P  P101  1  0.66658848  0.79708707  0.05910260  1
  P  P102  1  0.41519997  0.53949848  0.81101890  1
  P  P103  1  0.91647174  0.48185904  0.80909482  1
  P  P104  1  0.04530156  0.53949848  0.31101890  1
  P  P105  1  0.60166922  0.48185904  0.30909482  1
  P  P106  1  0.48227378  0.35126250  0.56033739  1
  P  P107  1  0.03809430  0.29380349  0.55850349  1
  P  P108  1  0.16646472  0.35126250  0.06033739  1
  P  P109  1  0.66810220  0.29380349  0.05850349  1
  P  P110  1  0.41659931  0.03708476  0.81044438  1
  P  P111  1  0.54631593  0.03708476  0.31044438  1
