# generated using pymatgen
data_KAl11O17
_symmetry_space_group_name_H-M   'P 1'
_cell_length_a   23.88871663
_cell_length_b   23.20832449
_cell_length_c   23.22931014
_cell_angle_alpha   13.97506697
_cell_angle_beta   13.67912880
_cell_angle_gamma   13.70746791
_symmetry_Int_Tables_number   1
_chemical_formula_structural   KAl11O17
_chemical_formula_sum   'K2 Al22 O34'
_cell_volume   636.32646056
_cell_formula_units_Z   2
loop_
 _symmetry_equiv_pos_site_id
 _symmetry_equiv_pos_as_xyz
  1  'x, y, z'
loop_
 _atom_site_type_symbol
 _atom_site_label
 _atom_site_symmetry_multiplicity
 _atom_site_fract_x
 _atom_site_fract_y
 _atom_site_fract_z
 _atom_site_occupancy
  Al  Al0  1  0.00067427  0.00063232  0.99865146  1
  Al  Al1  1  0.19832350  0.09742075  0.09769559  1
  Al  Al2  1  0.49950818  0.99926314  0.00098364  1
  Al  Al3  1  0.20375253  0.59274322  0.09777628  1
  Al  Al4  1  0.20379206  0.09798731  0.59241589  1
  Al  Al5  1  0.69847120  0.09802455  0.09777628  1
  Al  Al6  1  0.32515152  0.35006802  0.34969696  1
  Al  Al7  1  0.27716251  0.45221327  0.44567497  1
  Al  Al8  1  0.22591127  0.55093824  0.54817745  1
  Al  Al9  1  0.70398092  0.59176333  0.09769559  1
  Al  Al10  1  0.70302949  0.09816316  0.59394103  1
  Al  Al11  1  0.17491321  0.64964059  0.65017359  1
  Al  Al12  1  0.82499125  0.34965174  0.35001750  1
  Al  Al13  1  0.29738873  0.90291615  0.40522254  1
  Al  Al14  1  0.29744382  0.40477170  0.90321178  1
  Al  Al15  1  0.77508045  0.45027491  0.44983910  1
  Al  Al16  1  0.72479481  0.54979282  0.55041039  1
  Al  Al17  1  0.67514703  0.65002758  0.64970595  1
  Al  Al18  1  0.30015149  0.90415602  0.90208878  1
  Al  Al19  1  0.79839351  0.90274910  0.40321298  1
  Al  Al20  1  0.79775974  0.40654777  0.90208878  1
  Al  Al21  1  0.79934440  0.90287112  0.90321178  1
  K  K22  1  0.08567205  0.83006594  0.82865591  1
  K  K23  1  0.66439882  0.91235208  0.67120237  1
  O  O24  1  0.16934715  0.18958176  0.19030456  1
  O  O25  1  0.45365530  0.09380404  0.09268940  1
  O  O26  1  0.05024704  0.40233703  0.40348995  1
  O  O27  1  0.35174404  0.29695531  0.29651193  1
  O  O28  1  0.14083747  0.19050381  0.71832506  1
  O  O29  1  0.14057049  0.71921783  0.18945442  1
  O  O30  1  0.66997509  0.18981322  0.18945442  1
  O  O31  1  0.45652712  0.09379427  0.59401753  1
  O  O32  1  0.45550728  0.60014054  0.08898545  1
  O  O33  1  0.95318883  0.09368022  0.09362234  1
  O  O34  1  0.24685431  0.49685656  0.50629139  1
  O  O35  1  0.04756205  0.40392339  0.90487589  1
  O  O36  1  0.04365846  0.90745174  0.40455892  1
  O  O37  1  0.55178262  0.39932759  0.40455892  1
  O  O38  1  0.36033153  0.28011182  0.81034196  1
  O  O39  1  0.35939569  0.80972798  0.28120862  1
  O  O40  1  0.85176031  0.29680349  0.29647937  1
  O  O41  1  0.14821929  0.70300148  0.70356142  1
  O  O42  1  0.64034829  0.71858062  0.19030456  1
  O  O43  1  0.64060908  0.18995718  0.71878184  1
  O  O44  1  0.44734274  0.59905583  0.59808219  1
  O  O45  1  0.95457506  0.09182351  0.59808219  1
  O  O46  1  0.95420452  0.59857512  0.09159095  1
  O  O47  1  0.75003487  0.50006047  0.49993027  1
  O  O48  1  0.04641728  0.90596257  0.90716544  1
  O  O49  1  0.54663108  0.40280603  0.90673784  1
  O  O50  1  0.54626300  0.90632107  0.40348995  1
  O  O51  1  0.32982953  0.81081053  0.81010118  1
  O  O52  1  0.86006929  0.28057078  0.81010118  1
  O  O53  1  0.85982564  0.81049324  0.28034872  1
  O  O54  1  0.64860617  0.70348492  0.70278767  1
  O  O55  1  0.94945535  0.60086603  0.59401753  1
  O  O56  1  0.54658081  0.90591833  0.90683837  1
  O  O57  1  0.82932651  0.81111684  0.81034196  1
