# generated using pymatgen
data_NiTe2O5
_symmetry_space_group_name_H-M   'P 1'
_cell_length_a   8.51573796
_cell_length_b   9.01926795
_cell_length_c   12.30252060
_cell_angle_alpha   90.00000000
_cell_angle_beta   90.00000000
_cell_angle_gamma   90.00000000
_symmetry_Int_Tables_number   1
_chemical_formula_structural   NiTe2O5
_chemical_formula_sum   'Ni8 Te16 O40'
_cell_volume   944.90398268
_cell_formula_units_Z   8
loop_
 _symmetry_equiv_pos_site_id
 _symmetry_equiv_pos_as_xyz
  1  'x, y, z'
loop_
 _atom_site_type_symbol
 _atom_site_label
 _atom_site_symmetry_multiplicity
 _atom_site_fract_x
 _atom_site_fract_y
 _atom_site_fract_z
 _atom_site_occupancy
  Te  Te0  1  0.15980713  0.84929244  0.48634464  1
  Te  Te1  1  0.65980713  0.65070756  0.51365536  1
  Te  Te2  1  0.34019287  0.34929244  0.01365536  1
  Te  Te3  1  0.84019287  0.15070756  0.98634464  1
  Te  Te4  1  0.84019287  0.15070756  0.51365536  1
  Te  Te5  1  0.34019287  0.34929244  0.48634464  1
  Te  Te6  1  0.65980713  0.65070756  0.98634464  1
  Te  Te7  1  0.15980713  0.84929244  0.01365536  1
  Te  Te8  1  0.19780851  0.10509210  0.25000000  1
  Te  Te9  1  0.69780851  0.39490790  0.75000000  1
  Te  Te10  1  0.30219149  0.60509210  0.25000000  1
  Te  Te11  1  0.80219149  0.89490790  0.75000000  1
  Te  Te12  1  0.68128295  0.33354670  0.25000000  1
  Te  Te13  1  0.18128295  0.16645330  0.75000000  1
  Te  Te14  1  0.81871705  0.83354670  0.25000000  1
  Te  Te15  1  0.31871705  0.66645330  0.75000000  1
  Ni  Ni16  1  0.98482955  0.51703690  0.12334728  1
  Ni  Ni17  1  0.48482955  0.98296310  0.87665272  1
  Ni  Ni18  1  0.51517045  0.01703690  0.37665272  1
  Ni  Ni19  1  0.01517045  0.48296310  0.62334728  1
  Ni  Ni20  1  0.01517045  0.48296310  0.87665272  1
  Ni  Ni21  1  0.51517045  0.01703690  0.12334728  1
  Ni  Ni22  1  0.48482955  0.98296310  0.62334728  1
  Ni  Ni23  1  0.98482955  0.51703690  0.37665272  1
  O  O24  1  0.65549225  0.12087295  0.25000000  1
  O  O25  1  0.15549225  0.37912705  0.75000000  1
  O  O26  1  0.84450775  0.62087295  0.25000000  1
  O  O27  1  0.34450775  0.87912705  0.75000000  1
  O  O28  1  0.13313163  0.46469964  0.25000000  1
  O  O29  1  0.63313163  0.03530036  0.75000000  1
  O  O30  1  0.36686837  0.96469964  0.25000000  1
  O  O31  1  0.86686837  0.53530036  0.75000000  1
  O  O32  1  0.40930258  0.49201288  0.12685101  1
  O  O33  1  0.90930258  0.00798712  0.87314899  1
  O  O34  1  0.09069742  0.99201288  0.37314899  1
  O  O35  1  0.59069742  0.50798712  0.62685101  1
  O  O36  1  0.59069742  0.50798712  0.87314899  1
  O  O37  1  0.09069742  0.99201288  0.12685101  1
  O  O38  1  0.90930258  0.00798712  0.62685101  1
  O  O39  1  0.40930258  0.49201288  0.37314899  1
  O  O40  1  0.14755033  0.69039356  0.11612598  1
  O  O41  1  0.64755033  0.80960644  0.88387402  1
  O  O42  1  0.35244967  0.19039356  0.38387402  1
  O  O43  1  0.85244967  0.30960644  0.61612598  1
  O  O44  1  0.85244967  0.30960644  0.88387402  1
  O  O45  1  0.35244967  0.19039356  0.11612598  1
  O  O46  1  0.64755033  0.80960644  0.61612598  1
  O  O47  1  0.14755033  0.69039356  0.38387402  1
  O  O48  1  0.11968758  0.38497403  0.48697360  1
  O  O49  1  0.61968758  0.11502597  0.51302640  1
  O  O50  1  0.38031242  0.88497403  0.01302640  1
  O  O51  1  0.88031242  0.61502597  0.98697360  1
  O  O52  1  0.88031242  0.61502597  0.51302640  1
  O  O53  1  0.38031242  0.88497403  0.48697360  1
  O  O54  1  0.61968758  0.11502597  0.98697360  1
  O  O55  1  0.11968758  0.38497403  0.01302640  1
  O  O56  1  0.82354523  0.34386703  0.13014908  1
  O  O57  1  0.32354523  0.15613297  0.86985092  1
  O  O58  1  0.67645477  0.84386703  0.36985092  1
  O  O59  1  0.17645477  0.65613297  0.63014908  1
  O  O60  1  0.17645477  0.65613297  0.86985092  1
  O  O61  1  0.67645477  0.84386703  0.13014908  1
  O  O62  1  0.32354523  0.15613297  0.63014908  1
  O  O63  1  0.82354523  0.34386703  0.36985092  1
