# generated using pymatgen
data_Li2Mn(PO3)4
_symmetry_space_group_name_H-M   'P 1'
_cell_length_a   9.57316436
_cell_length_b   10.34489676
_cell_length_c   9.39103396
_cell_angle_alpha   90.00000000
_cell_angle_beta   90.00000000
_cell_angle_gamma   90.00000000
_symmetry_Int_Tables_number   1
_chemical_formula_structural   Li2Mn(PO3)4
_chemical_formula_sum   'Li8 Mn4 P16 O48'
_cell_volume   930.02599413
_cell_formula_units_Z   4
loop_
 _symmetry_equiv_pos_site_id
 _symmetry_equiv_pos_as_xyz
  1  'x, y, z'
loop_
 _atom_site_type_symbol
 _atom_site_label
 _atom_site_symmetry_multiplicity
 _atom_site_fract_x
 _atom_site_fract_y
 _atom_site_fract_z
 _atom_site_occupancy
  Li  Li0  1  0.00596867  0.81816379  0.09929515  1
  Li  Li1  1  0.00596867  0.81816379  0.40070485  1
  Li  Li2  1  0.49403133  0.31816379  0.59929515  1
  Li  Li3  1  0.49403133  0.31816379  0.90070485  1
  Li  Li4  1  0.50596867  0.68183621  0.09929515  1
  Li  Li5  1  0.50596867  0.68183621  0.40070485  1
  Li  Li6  1  0.99403133  0.18183621  0.59929515  1
  Li  Li7  1  0.99403133  0.18183621  0.90070485  1
  Mn  Mn8  1  0.01121991  0.19921087  0.25000000  1
  Mn  Mn9  1  0.48878009  0.69921087  0.75000000  1
  Mn  Mn10  1  0.51121991  0.30078913  0.25000000  1
  Mn  Mn11  1  0.98878009  0.80078913  0.75000000  1
  O  O12  1  0.10070633  0.28114653  0.75000000  1
  O  O13  1  0.11527617  0.72309423  0.56947739  1
  O  O14  1  0.11527617  0.72309423  0.93052261  1
  O  O15  1  0.11475546  0.97361358  0.75000000  1
  O  O16  1  0.13467593  0.12456811  0.05929129  1
  O  O17  1  0.13467593  0.12456811  0.44070871  1
  O  O18  1  0.15257647  0.48319879  0.61608427  1
  O  O19  1  0.15257647  0.48319879  0.88391573  1
  O  O20  1  0.14709940  0.87301547  0.25000000  1
  O  O21  1  0.14297716  0.36180195  0.25000000  1
  O  O22  1  0.17564347  0.57558951  0.12425743  1
  O  O23  1  0.17564347  0.57558951  0.37574257  1
  O  O24  1  0.32435653  0.07558951  0.62425643  1
  O  O25  1  0.32435653  0.07558951  0.87574357  1
  O  O26  1  0.35702284  0.86180195  0.75000000  1
  O  O27  1  0.35290060  0.37301547  0.75000000  1
  O  O28  1  0.34742353  0.98319879  0.11608427  1
  O  O29  1  0.34742353  0.98319879  0.38391573  1
  O  O30  1  0.36532407  0.62456811  0.55929129  1
  O  O31  1  0.36532407  0.62456811  0.94070871  1
  O  O32  1  0.38524454  0.47361358  0.25000000  1
  O  O33  1  0.38472383  0.22309423  0.06947739  1
  O  O34  1  0.38472383  0.22309423  0.43052261  1
  O  O35  1  0.39929367  0.78114653  0.25000000  1
  O  O36  1  0.60070633  0.21885347  0.75000000  1
  O  O37  1  0.61527617  0.77690577  0.56947739  1
  O  O38  1  0.61527617  0.77690577  0.93052261  1
  O  O39  1  0.61475546  0.52638642  0.75000000  1
  O  O40  1  0.63467593  0.37543189  0.05929129  1
  O  O41  1  0.63467593  0.37543189  0.44070871  1
  O  O42  1  0.65257647  0.01680121  0.61608427  1
  O  O43  1  0.65257647  0.01680121  0.88391573  1
  O  O44  1  0.64709940  0.62698453  0.25000000  1
  O  O45  1  0.64297716  0.13819805  0.25000000  1
  O  O46  1  0.67564347  0.92441049  0.12425743  1
  O  O47  1  0.67564347  0.92441049  0.37574257  1
  O  O48  1  0.82435653  0.42441049  0.62425643  1
  O  O49  1  0.82435653  0.42441049  0.87574357  1
  O  O50  1  0.85702284  0.63819805  0.75000000  1
  O  O51  1  0.85290060  0.12698453  0.75000000  1
  O  O52  1  0.84742353  0.51680121  0.11608427  1
  O  O53  1  0.84742353  0.51680121  0.38391573  1
  O  O54  1  0.86532407  0.87543189  0.55929129  1
  O  O55  1  0.86532407  0.87543189  0.94070871  1
  O  O56  1  0.88524454  0.02638642  0.25000000  1
  O  O57  1  0.88472383  0.27690577  0.06947739  1
  O  O58  1  0.88472383  0.27690577  0.43052261  1
  O  O59  1  0.89929367  0.71885347  0.25000000  1
  P  P60  1  0.19806676  0.39453256  0.75000000  1
  P  P61  1  0.20992583  0.61055984  0.53652674  1
  P  P62  1  0.20992583  0.61055984  0.96347326  1
  P  P63  1  0.22829384  0.48170640  0.25000000  1
  P  P64  1  0.27170616  0.98170640  0.75000000  1
  P  P65  1  0.29007417  0.11055984  0.03652674  1
  P  P66  1  0.29007417  0.11055984  0.46347326  1
  P  P67  1  0.30193324  0.89453256  0.25000000  1
  P  P68  1  0.69806676  0.10546744  0.75000000  1
  P  P69  1  0.70992583  0.88944016  0.53652674  1
  P  P70  1  0.70992583  0.88944016  0.96347326  1
  P  P71  1  0.72829384  0.01829360  0.25000000  1
  P  P72  1  0.77170616  0.51829360  0.75000000  1
  P  P73  1  0.79007417  0.38944016  0.03652674  1
  P  P74  1  0.79007417  0.38944016  0.46347326  1
  P  P75  1  0.80193324  0.60546744  0.25000000  1
