# generated using pymatgen
data_NaZnMoHO5
_symmetry_space_group_name_H-M   'P 1'
_cell_length_a   6.25979103
_cell_length_b   7.95020924
_cell_length_c   9.39838835
_cell_angle_alpha   90.00000000
_cell_angle_beta   90.00000000
_cell_angle_gamma   90.00000000
_symmetry_Int_Tables_number   1
_chemical_formula_structural   NaZnMoHO5
_chemical_formula_sum   'Na4 Zn4 Mo4 H4 O20'
_cell_volume   467.72628936
_cell_formula_units_Z   4
loop_
 _symmetry_equiv_pos_site_id
 _symmetry_equiv_pos_as_xyz
  1  'x, y, z'
loop_
 _atom_site_type_symbol
 _atom_site_label
 _atom_site_symmetry_multiplicity
 _atom_site_fract_x
 _atom_site_fract_y
 _atom_site_fract_z
 _atom_site_occupancy
  Na  Na0  1  0.75000000  0.35198393  0.30626616  1
  Na  Na1  1  0.25000000  0.64801607  0.69373384  1
  Na  Na2  1  0.75000000  0.85198393  0.19373384  1
  Na  Na3  1  0.25000000  0.14801607  0.80626616  1
  Zn  Zn4  1  0.50000000  0.50000000  0.00000000  1
  Zn  Zn5  1  0.00000000  0.50000000  0.00000000  1
  Zn  Zn6  1  0.00000000  0.00000000  0.50000000  1
  Zn  Zn7  1  0.50000000  0.00000000  0.50000000  1
  Mo  Mo8  1  0.25000000  0.11728821  0.16435615  1
  Mo  Mo9  1  0.75000000  0.88271179  0.83564385  1
  Mo  Mo10  1  0.25000000  0.61728821  0.33564385  1
  Mo  Mo11  1  0.75000000  0.38271179  0.66435615  1
  O  O12  1  0.01541848  0.10573429  0.27456341  1
  O  O13  1  0.51541848  0.89426571  0.72543659  1
  O  O14  1  0.48458152  0.60573429  0.22543659  1
  O  O15  1  0.98458152  0.39426571  0.77456341  1
  O  O16  1  0.98458152  0.89426571  0.72543659  1
  O  O17  1  0.48458152  0.10573429  0.27456341  1
  O  O18  1  0.51541848  0.39426571  0.77456341  1
  O  O19  1  0.01541848  0.60573429  0.22543659  1
  O  O20  1  0.25000000  0.44722817  0.45844594  1
  O  O21  1  0.75000000  0.55277183  0.54155406  1
  O  O22  1  0.25000000  0.94722817  0.04155406  1
  O  O23  1  0.75000000  0.05277183  0.95844594  1
  O  O24  1  0.75000000  0.86928617  0.43917113  1
  O  O25  1  0.25000000  0.13071383  0.56082887  1
  O  O26  1  0.75000000  0.36928617  0.06082887  1
  O  O27  1  0.25000000  0.63071383  0.93917113  1
  O  O28  1  0.25000000  0.30926051  0.05662435  1
  O  O29  1  0.75000000  0.69073949  0.94337565  1
  O  O30  1  0.25000000  0.80926051  0.44337565  1
  O  O31  1  0.75000000  0.19073949  0.55662435  1
  H  H32  1  0.75000000  0.75506150  0.48163822  1
  H  H33  1  0.25000000  0.24493850  0.51836178  1
  H  H34  1  0.75000000  0.25506150  0.01836178  1
  H  H35  1  0.25000000  0.74493850  0.98163822  1
