# generated using pymatgen
data_Li3Cr2(PO4)3
_symmetry_space_group_name_H-M   'P 1'
_cell_length_a   8.67199700
_cell_length_b   12.20580200
_cell_length_c   8.72764945
_cell_angle_alpha   90.00000000
_cell_angle_beta   90.00000000
_cell_angle_gamma   89.94945845
_symmetry_Int_Tables_number   1
_chemical_formula_structural   Li3Cr2(PO4)3
_chemical_formula_sum   'Li12 Cr8 P12 O48'
_cell_volume   923.80980018
_cell_formula_units_Z   4
loop_
 _symmetry_equiv_pos_site_id
 _symmetry_equiv_pos_as_xyz
  1  'x, y, z'
loop_
 _atom_site_type_symbol
 _atom_site_label
 _atom_site_symmetry_multiplicity
 _atom_site_fract_x
 _atom_site_fract_y
 _atom_site_fract_z
 _atom_site_occupancy
  Cr  Cr0  1  0.24307937  0.61110171  0.53736954  1
  Cr  Cr1  1  0.24703770  0.11307095  0.45911508  1
  Cr  Cr2  1  0.25296230  0.38692905  0.95911508  1
  Cr  Cr3  1  0.25692063  0.88889829  0.03736954  1
  Cr  Cr4  1  0.74307937  0.11110171  0.96263046  1
  Cr  Cr5  1  0.74703770  0.61307095  0.04088492  1
  Cr  Cr6  1  0.75296230  0.88692905  0.54088492  1
  Cr  Cr7  1  0.75692063  0.38889829  0.46263046  1
  Li  Li8  1  0.05449057  0.71277662  0.07146557  1
  Li  Li9  1  0.19310145  0.81426005  0.73131461  1
  Li  Li10  1  0.22562311  0.18094340  0.77211817  1
  Li  Li11  1  0.27437689  0.31905660  0.27211817  1
  Li  Li12  1  0.30689855  0.68573995  0.23131461  1
  Li  Li13  1  0.44550943  0.78722338  0.57146557  1
  Li  Li14  1  0.55449057  0.21277662  0.42853443  1
  Li  Li15  1  0.69310145  0.31426005  0.76868539  1
  Li  Li16  1  0.72562311  0.68094340  0.72788183  1
  Li  Li17  1  0.77437689  0.81905660  0.22788183  1
  Li  Li18  1  0.80689855  0.18573995  0.26868539  1
  Li  Li19  1  0.94550943  0.28722338  0.92853443  1
  O  O20  1  0.04955287  0.42130685  0.85920500  1
  O  O21  1  0.05465569  0.56896380  0.64575329  1
  O  O22  1  0.07203266  0.16117764  0.60063596  1
  O  O23  1  0.07029608  0.83807621  0.90874050  1
  O  O24  1  0.14702332  0.42127771  0.15683663  1
  O  O25  1  0.15438057  0.97031341  0.42456744  1
  O  O26  1  0.15431045  0.58146966  0.33353561  1
  O  O27  1  0.15787809  0.03139625  0.05531270  1
  O  O28  1  0.16024523  0.17913161  0.26275123  1
  O  O29  1  0.15727535  0.81605991  0.22801366  1
  O  O30  1  0.16939995  0.22936781  0.97768725  1
  O  O31  1  0.18655839  0.77787508  0.51385207  1
  O  O32  1  0.31344161  0.72212492  0.01385207  1
  O  O33  1  0.33060005  0.27063219  0.47768725  1
  O  O34  1  0.34272465  0.68394009  0.72801366  1
  O  O35  1  0.33975477  0.32086839  0.76275123  1
  O  O36  1  0.34212191  0.46860375  0.55531270  1
  O  O37  1  0.34568955  0.91853034  0.83353561  1
  O  O38  1  0.34561943  0.52968659  0.92456744  1
  O  O39  1  0.35297668  0.07872229  0.65683663  1
  O  O40  1  0.42796734  0.33882236  0.10063596  1
  O  O41  1  0.42970392  0.66192379  0.40874050  1
  O  O42  1  0.45044713  0.07869315  0.35920500  1
  O  O43  1  0.44534431  0.93103620  0.14575329  1
  O  O44  1  0.55465569  0.06896380  0.85424671  1
  O  O45  1  0.54955287  0.92130685  0.64079500  1
  O  O46  1  0.57029608  0.33807621  0.59125950  1
  O  O47  1  0.57203266  0.66117764  0.89936404  1
  O  O48  1  0.64702332  0.92127771  0.34316337  1
  O  O49  1  0.65438057  0.47031341  0.07543256  1
  O  O50  1  0.65431045  0.08146966  0.16646439  1
  O  O51  1  0.65787809  0.53139625  0.44468730  1
  O  O52  1  0.66024523  0.67913161  0.23724877  1
  O  O53  1  0.65727535  0.31605991  0.27198634  1
  O  O54  1  0.66939995  0.72936781  0.52231275  1
  O  O55  1  0.68655839  0.27787508  0.98614793  1
  O  O56  1  0.81344161  0.22212492  0.48614793  1
  O  O57  1  0.83060005  0.77063219  0.02231275  1
  O  O58  1  0.84272465  0.18394009  0.77198634  1
  O  O59  1  0.83975477  0.82086839  0.73724877  1
  O  O60  1  0.84212191  0.96860375  0.94468730  1
  O  O61  1  0.84568955  0.41853034  0.66646439  1
  O  O62  1  0.84561943  0.02968659  0.57543256  1
  O  O63  1  0.85297668  0.57872229  0.84316337  1
  O  O64  1  0.92970392  0.16192379  0.09125950  1
  O  O65  1  0.92796734  0.83882236  0.39936404  1
  O  O66  1  0.94534431  0.43103620  0.35424671  1
  O  O67  1  0.95044713  0.57869315  0.14079500  1
  P  P68  1  0.04310914  0.50186311  0.24830614  1
  P  P69  1  0.10880898  0.14560731  0.10017030  1
  P  P70  1  0.10506442  0.85344086  0.39242779  1
  P  P71  1  0.39119102  0.35439269  0.60017030  1
  P  P72  1  0.39493558  0.64655914  0.89242779  1
  P  P73  1  0.45689086  0.99813689  0.74830614  1
  P  P74  1  0.54310914  0.00186311  0.25169386  1
  P  P75  1  0.60506442  0.35344086  0.10757221  1
  P  P76  1  0.60880898  0.64560731  0.39982970  1
  P  P77  1  0.89493558  0.14655914  0.60757221  1
  P  P78  1  0.89119102  0.85439269  0.89982970  1
  P  P79  1  0.95689086  0.49813689  0.75169386  1
