# generated using pymatgen
data_Li3Ti2Co3O10
_symmetry_space_group_name_H-M   'P 1'
_cell_length_a   5.23650092
_cell_length_b   5.02551232
_cell_length_c   7.71184984
_cell_angle_alpha   74.70369153
_cell_angle_beta   106.12387109
_cell_angle_gamma   98.82805631
_symmetry_Int_Tables_number   1
_chemical_formula_structural   Li3Ti2Co3O10
_chemical_formula_sum   'Li3 Ti2 Co3 O10'
_cell_volume   187.35019794
_cell_formula_units_Z   1
loop_
 _symmetry_equiv_pos_site_id
 _symmetry_equiv_pos_as_xyz
  1  'x, y, z'
loop_
 _atom_site_type_symbol
 _atom_site_label
 _atom_site_symmetry_multiplicity
 _atom_site_fract_x
 _atom_site_fract_y
 _atom_site_fract_z
 _atom_site_occupancy
  Li  Li0  1  0.22459422  0.51170868  0.39814159  1
  Li  Li1  1  0.50000000  0.00000000  0.50000000  1
  Li  Li2  1  0.77540578  0.48829132  0.60185841  1
  Ti  Ti3  1  0.12504428  0.02659427  0.68838055  1
  Ti  Ti4  1  0.87495572  0.97340573  0.31161945  1
  Co  Co5  1  0.00000000  0.50000000  0.00000000  1
  Co  Co6  1  0.69010895  0.98549585  0.89290308  1
  Co  Co7  1  0.30989105  0.01450415  0.10709692  1
  O  O8  1  0.02553486  0.24382448  0.84899225  1
  O  O9  1  0.11993012  0.78390437  0.52845119  1
  O  O10  1  0.32024682  0.79720576  0.93540120  1
  O  O11  1  0.20525377  0.24527266  0.22547855  1
  O  O12  1  0.44605781  0.21662714  0.65941627  1
  O  O13  1  0.55394219  0.78337286  0.34058373  1
  O  O14  1  0.79474623  0.75472734  0.77452145  1
  O  O15  1  0.67975318  0.20279424  0.06459880  1
  O  O16  1  0.88006988  0.21609563  0.47154881  1
  O  O17  1  0.97446514  0.75617552  0.15100775  1
