# generated using pymatgen
data_LiMn6PO12
_symmetry_space_group_name_H-M   'P 1'
_cell_length_a   9.53275307
_cell_length_b   9.53275285
_cell_length_c   11.65993369
_cell_angle_alpha   65.87162818
_cell_angle_beta   65.87162883
_cell_angle_gamma   89.99999606
_symmetry_Int_Tables_number   1
_chemical_formula_structural   LiMn6PO12
_chemical_formula_sum   'Li4 Mn24 P4 O48'
_cell_volume   864.57496966
_cell_formula_units_Z   4
loop_
 _symmetry_equiv_pos_site_id
 _symmetry_equiv_pos_as_xyz
  1  'x, y, z'
loop_
 _atom_site_type_symbol
 _atom_site_label
 _atom_site_symmetry_multiplicity
 _atom_site_fract_x
 _atom_site_fract_y
 _atom_site_fract_z
 _atom_site_occupancy
  Li  Li0  1  0.12500000  0.37500000  0.25000000  1
  Li  Li1  1  0.37500000  0.12500000  0.75000000  1
  Li  Li2  1  0.62500000  0.87500000  0.25000000  1
  Li  Li3  1  0.87500000  0.62500000  0.75000000  1
  Mn  Mn4  1  0.00000000  0.00000000  0.00000000  1
  Mn  Mn5  1  0.50000000  0.00000000  0.00000000  1
  Mn  Mn6  1  0.85845091  0.10845091  0.25000000  1
  Mn  Mn7  1  0.22509628  0.25000000  0.00000000  1
  Mn  Mn8  1  0.00000000  0.00000000  0.50000000  1
  Mn  Mn9  1  0.72509628  0.25000000  0.00000000  1
  Mn  Mn10  1  0.50000000  0.00000000  0.50000000  1
  Mn  Mn11  1  0.35845091  0.14154909  0.25000000  1
  Mn  Mn12  1  0.75000000  0.22509628  0.50000000  1
  Mn  Mn13  1  0.00000000  0.50000000  0.00000000  1
  Mn  Mn14  1  0.50000000  0.50000000  0.00000000  1
  Mn  Mn15  1  0.25000000  0.27490372  0.50000000  1
  Mn  Mn16  1  0.60845091  0.35845091  0.75000000  1
  Mn  Mn17  1  0.89154909  0.60845091  0.25000000  1
  Mn  Mn18  1  0.00000000  0.50000000  0.50000000  1
  Mn  Mn19  1  0.27490372  0.75000000  1.00000000  1
  Mn  Mn20  1  0.50000000  0.50000000  0.50000000  1
  Mn  Mn21  1  0.77490372  0.75000000  1.00000000  1
  Mn  Mn22  1  0.10845091  0.39154909  0.75000000  1
  Mn  Mn23  1  0.39154909  0.64154909  0.25000000  1
  Mn  Mn24  1  0.75000000  0.72509628  0.50000000  1
  Mn  Mn25  1  0.25000000  0.77490372  0.50000000  1
  Mn  Mn26  1  0.64154909  0.85845091  0.75000000  1
  Mn  Mn27  1  0.14154909  0.89154909  0.75000000  1
  O  O28  1  0.07026624  0.00642839  0.15716250  1
  O  O29  1  0.81620581  0.08865758  0.10291869  1
  O  O30  1  0.52355292  0.09126990  0.11172127  1
  O  O31  1  0.59126990  0.02355292  0.61172127  1
  O  O32  1  0.90873010  0.13527418  0.38827873  1
  O  O33  1  0.02355292  0.29700883  0.11172127  1
  O  O34  1  0.31620581  0.30842272  0.10291869  1
  O  O35  1  0.19157728  0.18379419  0.39708131  1
  O  O36  1  0.30842272  0.08087550  0.60291869  1
  O  O37  1  0.66359189  0.22742873  0.34283750  1
  O  O38  1  0.83640811  0.07026624  0.65716250  1
  O  O39  1  0.57026624  0.33640811  0.15716250  1
  O  O40  1  0.77257127  0.50642839  0.15716250  1
  O  O41  1  0.72742873  0.16359189  0.84283750  1
  O  O42  1  0.00642839  0.27257127  0.65716250  1
  O  O43  1  0.49357161  0.42973376  0.34283750  1
  O  O44  1  0.58865758  0.31620581  0.60291869  1
  O  O45  1  0.91134242  0.41912450  0.39708131  1
  O  O46  1  0.41912450  0.19157728  0.89708131  1
  O  O47  1  0.08087550  0.58865758  0.10291869  1
  O  O48  1  0.36472582  0.59126990  0.11172127  1
  O  O49  1  0.13527418  0.20299117  0.88827873  1
  O  O50  1  0.20299117  0.47644708  0.38827873  1
  O  O51  1  0.29700883  0.36472582  0.61172127  1
  O  O52  1  0.79700883  0.52355292  0.61172127  1
  O  O53  1  0.70299117  0.63527418  0.38827873  1
  O  O54  1  0.86472582  0.79700883  0.11172127  1
  O  O55  1  0.63527418  0.40873010  0.88827873  1
  O  O56  1  0.58087550  0.80842272  0.10291869  1
  O  O57  1  0.91912450  0.41134242  0.89708131  1
  O  O58  1  0.08865758  0.58087550  0.60291869  1
  O  O59  1  0.41134242  0.68379419  0.39708131  1
  O  O60  1  0.50642839  0.57026624  0.65716250  1
  O  O61  1  0.99357161  0.72742873  0.34283750  1
  O  O62  1  0.27257127  0.83640811  0.15716250  1
  O  O63  1  0.22742873  0.49357161  0.84283750  1
  O  O64  1  0.42973376  0.66359189  0.84283750  1
  O  O65  1  0.16359189  0.92973376  0.34283750  1
  O  O66  1  0.33640811  0.77257127  0.65716250  1
  O  O67  1  0.80842272  0.81620581  0.60291869  1
  O  O68  1  0.69157728  0.91912450  0.39708131  1
  O  O69  1  0.68379419  0.69157728  0.89708131  1
  O  O70  1  0.97644708  0.70299117  0.88827873  1
  O  O71  1  0.09126990  0.86472582  0.61172127  1
  O  O72  1  0.40873010  0.97644708  0.38827873  1
  O  O73  1  0.47644708  0.90873010  0.88827873  1
  O  O74  1  0.18379419  0.91134242  0.89708131  1
  O  O75  1  0.92973376  0.99357161  0.84283750  1
  P  P76  1  0.62500000  0.37500000  0.25000000  1
  P  P77  1  0.87500000  0.12500000  0.75000000  1
  P  P78  1  0.12500000  0.87500000  0.25000000  1
  P  P79  1  0.37500000  0.62500000  0.75000000  1
