# generated using pymatgen
data_NaCo3P3(HO6)2
_symmetry_space_group_name_H-M   'P 1'
_cell_length_a   6.61969587
_cell_length_b   8.55053533
_cell_length_c   8.55053515
_cell_angle_alpha   91.05282030
_cell_angle_beta   106.74539334
_cell_angle_gamma   106.74539555
_symmetry_Int_Tables_number   1
_chemical_formula_structural   NaCo3P3(HO6)2
_chemical_formula_sum   'Na2 Co6 P6 H4 O24'
_cell_volume   441.07966538
_cell_formula_units_Z   2
loop_
 _symmetry_equiv_pos_site_id
 _symmetry_equiv_pos_as_xyz
  1  'x, y, z'
loop_
 _atom_site_type_symbol
 _atom_site_label
 _atom_site_symmetry_multiplicity
 _atom_site_fract_x
 _atom_site_fract_y
 _atom_site_fract_z
 _atom_site_occupancy
  Na  Na0  1  0.25000000  0.95658095  0.04341905  1
  Na  Na1  1  0.75000000  0.04341905  0.95658095  1
  Co  Co2  1  0.75000000  0.72384942  0.27615058  1
  Co  Co3  1  0.25000000  0.27615058  0.72384942  1
  Co  Co4  1  0.62565808  0.04960031  0.37401326  1
  Co  Co5  1  0.87434192  0.62598674  0.95039969  1
  Co  Co6  1  0.37434192  0.95039969  0.62598674  1
  Co  Co7  1  0.12565808  0.37401326  0.04960031  1
  P  P8  1  0.75000000  0.31742640  0.68257360  1
  P  P9  1  0.25000000  0.68257360  0.31742640  1
  P  P10  1  0.88953815  0.89389821  0.67185988  1
  P  P11  1  0.61046185  0.32814012  0.10610179  1
  P  P12  1  0.11046185  0.10610179  0.32814012  1
  P  P13  1  0.38953815  0.67185988  0.89389821  1
  O  O14  1  0.46073346  0.79251337  0.27911581  1
  O  O15  1  0.03926654  0.72088419  0.20748663  1
  O  O16  1  0.53926654  0.20748663  0.72088419  1
  O  O17  1  0.96073346  0.27911581  0.79251337  1
  O  O18  1  0.73187295  0.28454610  0.49902418  1
  O  O19  1  0.76812705  0.50097582  0.71545390  1
  O  O20  1  0.26812705  0.71545390  0.50097582  1
  O  O21  1  0.23187295  0.49902418  0.28454610  1
  O  O22  1  0.88752511  0.98191577  0.32830197  1
  O  O23  1  0.61247489  0.67169803  0.01808423  1
  O  O24  1  0.11247489  0.01808423  0.67169803  1
  O  O25  1  0.38752511  0.32830197  0.98191577  1
  O  O26  1  0.65557888  0.44897021  0.26687063  1
  O  O27  1  0.84442112  0.73312937  0.55102979  1
  O  O28  1  0.34442112  0.55102979  0.73312937  1
  O  O29  1  0.15557888  0.26687063  0.44897021  1
  O  O30  1  0.69651915  0.96493597  0.60696917  1
  O  O31  1  0.80348085  0.39303083  0.03506403  1
  O  O32  1  0.30348085  0.03506403  0.39303083  1
  O  O33  1  0.19651915  0.60696917  0.96493597  1
  O  O34  1  0.59565086  0.15361176  0.15433172  1
  O  O35  1  0.90434914  0.84566828  0.84638824  1
  O  O36  1  0.40434914  0.84638824  0.84566828  1
  O  O37  1  0.09565086  0.15433172  0.15361176  1
  H  H38  1  0.81088729  0.62408685  0.61217871  1
  H  H39  1  0.68911271  0.38782129  0.37591315  1
  H  H40  1  0.18911271  0.37591315  0.38782129  1
  H  H41  1  0.31088729  0.61217871  0.62408685  1
