# generated using pymatgen
data_AsSe
_symmetry_space_group_name_H-M   'P 1'
_cell_length_a   7.09931170
_cell_length_b   10.01460480
_cell_length_c   14.58899764
_cell_angle_alpha   90.00000000
_cell_angle_beta   90.00000000
_cell_angle_gamma   106.05205323
_symmetry_Int_Tables_number   1
_chemical_formula_structural   AsSe
_chemical_formula_sum   'As16 Se16'
_cell_volume   996.79033822
_cell_formula_units_Z   16
loop_
 _symmetry_equiv_pos_site_id
 _symmetry_equiv_pos_as_xyz
  1  'x, y, z'
loop_
 _atom_site_type_symbol
 _atom_site_label
 _atom_site_symmetry_multiplicity
 _atom_site_fract_x
 _atom_site_fract_y
 _atom_site_fract_z
 _atom_site_occupancy
  As  As0  1  0.23624328  0.88052270  0.01325828  1
  As  As1  1  0.26375672  0.61947730  0.51325828  1
  As  As2  1  0.76375672  0.11947730  0.98674172  1
  As  As3  1  0.73624328  0.38052270  0.48674172  1
  As  As4  1  0.13606255  0.57871763  0.86078153  1
  As  As5  1  0.36393745  0.92128237  0.36078153  1
  As  As6  1  0.86393745  0.42128237  0.13921847  1
  As  As7  1  0.63606255  0.07871763  0.63921847  1
  As  As8  1  0.83508065  0.68065311  0.86959170  1
  As  As9  1  0.66491935  0.81934689  0.36959170  1
  As  As10  1  0.16491935  0.31934689  0.13040830  1
  As  As11  1  0.33508065  0.18065311  0.63040830  1
  As  As12  1  0.28941098  0.95610807  0.84045263  1
  As  As13  1  0.21058902  0.54389193  0.34045263  1
  As  As14  1  0.71058902  0.04389193  0.15954737  1
  As  As15  1  0.78941098  0.45610807  0.65954737  1
  Se  Se16  1  0.29431601  0.65431785  0.00547540  1
  Se  Se17  1  0.20568399  0.84568215  0.50547540  1
  Se  Se18  1  0.70568399  0.34568215  0.99452460  1
  Se  Se19  1  0.79431601  0.15431785  0.49452460  1
  Se  Se20  1  0.88462651  0.78880829  0.01878858  1
  Se  Se21  1  0.61537349  0.71119171  0.51878858  1
  Se  Se22  1  0.11537349  0.21119171  0.98121142  1
  Se  Se23  1  0.38462651  0.28880829  0.48121142  1
  Se  Se24  1  0.36305408  0.75700765  0.77347332  1
  Se  Se25  1  0.13694592  0.74299235  0.27347332  1
  Se  Se26  1  0.63694592  0.24299235  0.22652668  1
  Se  Se27  1  0.86305408  0.25700765  0.72652668  1
  Se  Se28  1  0.95706995  0.89502097  0.78623718  1
  Se  Se29  1  0.54293005  0.60497903  0.28623718  1
  Se  Se30  1  0.04293005  0.10497903  0.21376282  1
  Se  Se31  1  0.45706995  0.39502097  0.71376282  1
