# generated using pymatgen
data_Fe4O7F
_symmetry_space_group_name_H-M   'P 1'
_cell_length_a   4.62045809
_cell_length_b   4.61929106
_cell_length_c   12.00803459
_cell_angle_alpha   90.00000000
_cell_angle_beta   89.96766287
_cell_angle_gamma   90.00000000
_symmetry_Int_Tables_number   1
_chemical_formula_structural   Fe4O7F
_chemical_formula_sum   'Fe8 O14 F2'
_cell_volume   256.29033240
_cell_formula_units_Z   2
loop_
 _symmetry_equiv_pos_site_id
 _symmetry_equiv_pos_as_xyz
  1  'x, y, z'
loop_
 _atom_site_type_symbol
 _atom_site_label
 _atom_site_symmetry_multiplicity
 _atom_site_fract_x
 _atom_site_fract_y
 _atom_site_fract_z
 _atom_site_occupancy
  Fe  Fe0  1  0.00487571  0.99204555  0.00520887  1
  Fe  Fe1  1  0.99858376  0.99538943  0.25065489  1
  Fe  Fe2  1  0.02238062  0.01838968  0.49883488  1
  Fe  Fe3  1  0.00353487  0.99019910  0.74527245  1
  Fe  Fe4  1  0.50141624  0.49538943  0.12434511  1
  Fe  Fe5  1  0.49646513  0.49019910  0.62972755  1
  Fe  Fe6  1  0.47761938  0.51838968  0.87616512  1
  Fe  Fe7  1  0.49512429  0.49204555  0.36979113  1
  O  O8  1  0.19366419  0.80139161  0.12935341  1
  O  O9  1  0.20081266  0.80548672  0.61986185  1
  O  O10  1  0.17692417  0.81646105  0.87613463  1
  O  O11  1  0.19547300  0.80917760  0.37496157  1
  O  O12  1  0.30452700  0.30917760  0.00003843  1
  O  O13  1  0.30633581  0.30139161  0.24564659  1
  O  O14  1  0.32307583  0.31646105  0.49886537  1
  O  O15  1  0.29918734  0.30548672  0.75513815  1
  O  O16  1  0.68666424  0.69143899  0.00026528  1
  O  O17  1  0.69250792  0.68790962  0.24841974  1
  O  O18  1  0.68792731  0.69276787  0.75231269  1
  O  O19  1  0.80749208  0.18790962  0.12658026  1
  O  O20  1  0.81333576  0.19143899  0.37473472  1
  O  O21  1  0.81207269  0.19276787  0.62268731  1
  F  F22  1  0.70488385  0.69934279  0.49896693  1
  F  F23  1  0.79511615  0.19934279  0.87603307  1
