# generated using pymatgen
data_La3Re2O9
_symmetry_space_group_name_H-M   'P 1'
_cell_length_a   5.70562032
_cell_length_b   6.92185461
_cell_length_c   11.22883630
_cell_angle_alpha   77.45230424
_cell_angle_beta   75.63723369
_cell_angle_gamma   69.23018824
_symmetry_Int_Tables_number   1
_chemical_formula_structural   La3Re2O9
_chemical_formula_sum   'La6 Re4 O18'
_cell_volume   397.57334052
_cell_formula_units_Z   2
loop_
 _symmetry_equiv_pos_site_id
 _symmetry_equiv_pos_as_xyz
  1  'x, y, z'
loop_
 _atom_site_type_symbol
 _atom_site_label
 _atom_site_symmetry_multiplicity
 _atom_site_fract_x
 _atom_site_fract_y
 _atom_site_fract_z
 _atom_site_occupancy
  Re  Re0  1  0.49028012  0.11137234  0.90877508  1
  Re  Re1  1  0.50971988  0.88862766  0.09122492  1
  Re  Re2  1  0.35640595  0.62268452  0.57047818  1
  Re  Re3  1  0.64359405  0.37731548  0.42952182  1
  La  La4  1  0.71685356  0.90528877  0.61957544  1
  La  La5  1  0.28314644  0.09471123  0.38042456  1
  La  La6  1  0.00351445  0.72262847  0.26936944  1
  La  La7  1  0.99648555  0.27737153  0.73063056  1
  La  La8  1  0.22430863  0.66171815  0.88245873  1
  La  La9  1  0.77569137  0.33828185  0.11754127  1
  O  O10  1  0.37277538  0.32128248  0.57764214  1
  O  O11  1  0.62722462  0.67871752  0.42235786  1
  O  O12  1  0.85366378  0.68811002  0.06409264  1
  O  O13  1  0.14633622  0.31188998  0.93590736  1
  O  O14  1  0.30551880  0.91693498  0.58886482  1
  O  O15  1  0.69448120  0.08306502  0.41113518  1
  O  O16  1  0.64119027  0.02117059  0.18407600  1
  O  O17  1  0.35880973  0.97882941  0.81592400  1
  O  O18  1  0.06504263  0.61520579  0.71124097  1
  O  O19  1  0.93495737  0.38479421  0.28875903  1
  O  O20  1  0.41527898  0.44031055  0.31316928  1
  O  O21  1  0.58472102  0.55968945  0.68683072  1
  O  O22  1  0.82124487  0.99132062  0.81017403  1
  O  O23  1  0.17875513  0.00867938  0.18982597  1
  O  O24  1  0.11331090  0.75123914  0.46094692  1
  O  O25  1  0.88668910  0.24876086  0.53905308  1
  O  O26  1  0.61368880  0.32806052  0.92796566  1
  O  O27  1  0.38631120  0.67193948  0.07203434  1
