# generated using pymatgen
data_CeTmS3
_symmetry_space_group_name_H-M   'P 1'
_cell_length_a   3.92729890
_cell_length_b   10.95439890
_cell_length_c   21.45927396
_cell_angle_alpha   101.56839416
_cell_angle_beta   90.00000000
_cell_angle_gamma   90.00000000
_symmetry_Int_Tables_number   1
_chemical_formula_structural   CeTmS3
_chemical_formula_sum   'Ce8 Tm8 S24'
_cell_volume   904.44974936
_cell_formula_units_Z   8
loop_
 _symmetry_equiv_pos_site_id
 _symmetry_equiv_pos_as_xyz
  1  'x, y, z'
loop_
 _atom_site_type_symbol
 _atom_site_label
 _atom_site_symmetry_multiplicity
 _atom_site_fract_x
 _atom_site_fract_y
 _atom_site_fract_z
 _atom_site_occupancy
  Ce  Ce0  1  0.25000000  0.70052427  0.53789378  1
  Ce  Ce1  1  0.25000000  0.80665558  0.73225518  1
  Ce  Ce2  1  0.75000000  0.40790713  0.13657275  1
  Ce  Ce3  1  0.75000000  0.19334442  0.26774482  1
  Ce  Ce4  1  0.75000000  0.29947573  0.46210622  1
  Ce  Ce5  1  0.25000000  0.19573777  0.76633951  1
  Ce  Ce6  1  0.75000000  0.80426223  0.23366049  1
  Ce  Ce7  1  0.25000000  0.59209287  0.86342725  1
  Tm  Tm8  1  0.25000000  0.67789655  0.04640262  1
  Tm  Tm9  1  0.75000000  0.05382479  0.58225039  1
  Tm  Tm10  1  0.25000000  0.52991865  0.35222804  1
  Tm  Tm11  1  0.75000000  0.97755585  0.91176898  1
  Tm  Tm12  1  0.75000000  0.32210345  0.95359738  1
  Tm  Tm13  1  0.75000000  0.47008135  0.64777196  1
  Tm  Tm14  1  0.25000000  0.02244415  0.08823102  1
  Tm  Tm15  1  0.25000000  0.94617521  0.41774961  1
  S  S16  1  0.75000000  0.70640106  0.63520020  1
  S  S17  1  0.25000000  0.53821436  0.72946345  1
  S  S18  1  0.25000000  0.95233580  0.63423749  1
  S  S19  1  0.25000000  0.86286017  0.96421032  1
  S  S20  1  0.25000000  0.62480166  0.16433565  1
  S  S21  1  0.25000000  0.44208798  0.55562347  1
  S  S22  1  0.25000000  0.99432907  0.22190025  1
  S  S23  1  0.25000000  0.15751874  0.90040188  1
  S  S24  1  0.25000000  0.14554809  0.51437721  1
  S  S25  1  0.75000000  0.58569628  0.96225960  1
  S  S26  1  0.75000000  0.37519834  0.83566435  1
  S  S27  1  0.75000000  0.04766420  0.36576251  1
  S  S28  1  0.75000000  0.13713983  0.03578968  1
  S  S29  1  0.75000000  0.55791202  0.44437653  1
  S  S30  1  0.75000000  0.84248126  0.09959812  1
  S  S31  1  0.75000000  0.85445191  0.48562279  1
  S  S32  1  0.75000000  0.00567093  0.77809975  1
  S  S33  1  0.75000000  0.46178564  0.27053655  1
  S  S34  1  0.25000000  0.24803584  0.17476730  1
  S  S35  1  0.25000000  0.29359894  0.36479980  1
  S  S36  1  0.75000000  0.75196416  0.82523270  1
  S  S37  1  0.25000000  0.41430372  0.03774040  1
  S  S38  1  0.25000000  0.75438037  0.32299682  1
  S  S39  1  0.75000000  0.24561963  0.67700318  1
