# generated using pymatgen
data_Ni3(AsO4)2
_symmetry_space_group_name_H-M   'P 1'
_cell_length_a   6.00688260
_cell_length_b   6.43636306
_cell_length_c   8.28572615
_cell_angle_alpha   90.00000000
_cell_angle_beta   90.00000000
_cell_angle_gamma   117.81617364
_symmetry_Int_Tables_number   1
_chemical_formula_structural   Ni3(AsO4)2
_chemical_formula_sum   'Ni6 As4 O16'
_cell_volume   283.33040952
_cell_formula_units_Z   2
loop_
 _symmetry_equiv_pos_site_id
 _symmetry_equiv_pos_as_xyz
  1  'x, y, z'
loop_
 _atom_site_type_symbol
 _atom_site_label
 _atom_site_symmetry_multiplicity
 _atom_site_fract_x
 _atom_site_fract_y
 _atom_site_fract_z
 _atom_site_occupancy
  Ni  Ni0  1  0.00000000  0.00000000  0.00000000  1
  Ni  Ni1  1  0.50000000  0.00000000  0.50000000  1
  Ni  Ni2  1  0.88322914  0.26645828  0.75000000  1
  Ni  Ni3  1  0.61677086  0.73354172  0.25000000  1
  Ni  Ni4  1  0.11677086  0.73354172  0.25000000  1
  Ni  Ni5  1  0.38322914  0.26645828  0.75000000  1
  As  As6  1  0.37630412  0.75260825  0.88496018  1
  As  As7  1  0.62369588  0.24739175  0.11503982  1
  As  As8  1  0.12369588  0.24739175  0.38496018  1
  As  As9  1  0.87630412  0.75260825  0.61503982  1
  O  O10  1  0.25250821  0.50501542  0.76646066  1
  O  O11  1  0.74749179  0.49498458  0.23353934  1
  O  O12  1  0.24749179  0.49498458  0.26646066  1
  O  O13  1  0.75250821  0.50501542  0.73353934  1
  O  O14  1  0.99884381  0.99768763  0.74980421  1
  O  O15  1  0.00115619  0.00231237  0.25019579  1
  O  O16  1  0.50115619  0.00231237  0.24980421  1
  O  O17  1  0.49884381  0.99768763  0.75019579  1
  O  O18  1  0.85859431  0.24161192  0.99911463  1
  O  O19  1  0.61698239  0.75838808  0.00088537  1
  O  O20  1  0.64140569  0.75838808  0.49911463  1
  O  O21  1  0.88301761  0.24161192  0.50088537  1
  O  O22  1  0.14140569  0.75838808  0.00088537  1
  O  O23  1  0.38301761  0.24161192  0.99911463  1
  O  O24  1  0.35859431  0.24161192  0.50088537  1
  O  O25  1  0.11698239  0.75838808  0.49911463  1
