# generated using pymatgen
data_FeMoO4
_symmetry_space_group_name_H-M   'P 1'
_cell_length_a   7.10579435
_cell_length_b   7.10579435
_cell_length_c   7.22045382
_cell_angle_alpha   78.30493975
_cell_angle_beta   101.69506025
_cell_angle_gamma   95.29944526
_symmetry_Int_Tables_number   1
_chemical_formula_structural   FeMoO4
_chemical_formula_sum   'Fe4 Mo4 O16'
_cell_volume   349.09738978
_cell_formula_units_Z   4
loop_
 _symmetry_equiv_pos_site_id
 _symmetry_equiv_pos_as_xyz
  1  'x, y, z'
loop_
 _atom_site_type_symbol
 _atom_site_label
 _atom_site_symmetry_multiplicity
 _atom_site_fract_x
 _atom_site_fract_y
 _atom_site_fract_z
 _atom_site_occupancy
  Fe  Fe0  1  0.18271532  0.18271532  0.50000000  1
  Fe  Fe1  1  0.81728468  0.81728468  0.50000000  1
  Fe  Fe2  1  0.20445052  0.79554948  0.86131459  1
  Fe  Fe3  1  0.79554948  0.20445052  0.13868541  1
  Mo  Mo4  1  0.25125866  0.25125866  -0.00000000  1
  Mo  Mo5  1  0.74874134  0.74874134  -0.00000000  1
  Mo  Mo6  1  0.73013899  0.26986101  0.59447937  1
  Mo  Mo7  1  0.26986101  0.73013899  0.40552063  1
  O  O8  1  0.13918750  0.86081250  0.53862510  1
  O  O9  1  0.86081250  0.13918750  0.46137490  1
  O  O10  1  0.79766140  0.20233860  0.85020856  1
  O  O11  1  0.20233860  0.79766140  0.14979144  1
  O  O12  1  0.21821009  0.49574340  0.89215826  1
  O  O13  1  0.50425660  0.78178991  0.89215826  1
  O  O14  1  0.78178991  0.50425660  0.10784174  1
  O  O15  1  0.49574340  0.21821009  0.10784174  1
  O  O16  1  0.89102328  0.80340798  0.80733586  1
  O  O17  1  0.19659202  0.10897672  0.80733586  1
  O  O18  1  0.10897672  0.19659202  0.19266414  1
  O  O19  1  0.80340798  0.89102328  0.19266414  1
  O  O20  1  0.78643899  0.51939359  0.52998829  1
  O  O21  1  0.48060641  0.21356101  0.52998829  1
  O  O22  1  0.21356101  0.48060641  0.47001171  1
  O  O23  1  0.51939359  0.78643899  0.47001171  1
