# generated using pymatgen
data_LaSiO3F
_symmetry_space_group_name_H-M   'P 1'
_cell_length_a   7.12670130
_cell_length_b   7.12670118
_cell_length_c   10.98489786
_cell_angle_alpha   90.00000000
_cell_angle_beta   90.00000000
_cell_angle_gamma   120.00000057
_symmetry_Int_Tables_number   1
_chemical_formula_structural   LaSiO3F
_chemical_formula_sum   'La6 Si6 O18 F6'
_cell_volume   483.17422446
_cell_formula_units_Z   6
loop_
 _symmetry_equiv_pos_site_id
 _symmetry_equiv_pos_as_xyz
  1  'x, y, z'
loop_
 _atom_site_type_symbol
 _atom_site_label
 _atom_site_symmetry_multiplicity
 _atom_site_fract_x
 _atom_site_fract_y
 _atom_site_fract_z
 _atom_site_occupancy
  La  La0  1  0.64335040  0.00000000  0.00000000  1
  La  La1  1  0.35664960  0.35664960  0.50000000  1
  La  La2  1  0.00000000  0.64335040  0.50000000  1
  La  La3  1  0.00000000  0.64335040  0.00000000  1
  La  La4  1  0.35664960  0.35664960  0.00000000  1
  La  La5  1  0.64335040  0.00000000  0.50000000  1
  F  F6  1  0.00000000  0.00000000  0.00000000  1
  F  F7  1  0.00000000  0.00000000  0.50000000  1
  F  F8  1  0.33333300  0.66666700  0.07332231  1
  F  F9  1  0.33333300  0.66666700  0.42667769  1
  F  F10  1  0.66666700  0.33333300  0.92667769  1
  F  F11  1  0.66666700  0.33333300  0.57332231  1
  Si  Si12  1  0.27211403  0.04687093  0.25000000  1
  Si  Si13  1  0.77475690  0.72788597  0.25000000  1
  Si  Si14  1  0.95312907  0.22524310  0.25000000  1
  Si  Si15  1  0.22524310  0.95312907  0.75000000  1
  Si  Si16  1  0.72788597  0.77475690  0.75000000  1
  Si  Si17  1  0.04687093  0.27211403  0.75000000  1
  O  O18  1  0.19482868  0.23643797  0.25000000  1
  O  O19  1  0.04160929  0.80517132  0.25000000  1
  O  O20  1  0.76356203  0.95839071  0.25000000  1
  O  O21  1  0.95839071  0.76356203  0.75000000  1
  O  O22  1  0.80517132  0.04160929  0.75000000  1
  O  O23  1  0.23643797  0.19482868  0.75000000  1
  O  O24  1  0.39642504  0.07752521  0.12296191  1
  O  O25  1  0.68110017  0.60357496  0.37703809  1
  O  O26  1  0.92247479  0.31889983  0.37703809  1
  O  O27  1  0.92247479  0.31889983  0.12296191  1
  O  O28  1  0.68110017  0.60357496  0.12296191  1
  O  O29  1  0.31889983  0.92247479  0.87703809  1
  O  O30  1  0.60357496  0.68110017  0.87703809  1
  O  O31  1  0.07752521  0.39642504  0.87703809  1
  O  O32  1  0.39642504  0.07752521  0.37703809  1
  O  O33  1  0.07752521  0.39642504  0.62296191  1
  O  O34  1  0.31889983  0.92247479  0.62296191  1
  O  O35  1  0.60357496  0.68110017  0.62296191  1
