# generated using pymatgen
data_K2CuH12(SeO7)2
_symmetry_space_group_name_H-M   'P 1'
_cell_length_a   6.46851348
_cell_length_b   9.21998162
_cell_length_c   12.44379731
_cell_angle_alpha   90.00000000
_cell_angle_beta   90.00000000
_cell_angle_gamma   102.77518220
_symmetry_Int_Tables_number   1
_chemical_formula_structural   K2CuH12(SeO7)2
_chemical_formula_sum   'K4 Cu2 H24 Se4 O28'
_cell_volume   723.77121111
_cell_formula_units_Z   2
loop_
 _symmetry_equiv_pos_site_id
 _symmetry_equiv_pos_as_xyz
  1  'x, y, z'
loop_
 _atom_site_type_symbol
 _atom_site_label
 _atom_site_symmetry_multiplicity
 _atom_site_fract_x
 _atom_site_fract_y
 _atom_site_fract_z
 _atom_site_occupancy
  K  K0  1  0.34807628  0.64328436  0.16182211  1
  K  K1  1  0.65192372  0.85671564  0.66182211  1
  K  K2  1  0.65192372  0.35671564  0.83817789  1
  K  K3  1  0.34807628  0.14328436  0.33817789  1
  Cu  Cu4  1  -0.00000000  0.50000000  0.50000000  1
  Cu  Cu5  1  -0.00000000  0.00000000  0.00000000  1
  H  H6  1  0.32837268  0.72119196  0.40928328  1
  H  H7  1  0.67162732  0.77880804  0.90928328  1
  H  H8  1  0.67162732  0.27880804  0.59071672  1
  H  H9  1  0.32837268  0.22119196  0.09071672  1
  H  H10  1  0.11556514  0.76005537  0.36859878  1
  H  H11  1  0.88443486  0.73994463  0.86859878  1
  H  H12  1  0.88443486  0.23994463  0.63140122  1
  H  H13  1  0.11556514  0.26005537  0.13140122  1
  H  H14  1  0.92382874  0.24280582  0.40325141  1
  H  H15  1  0.07617126  0.25719418  0.90325141  1
  H  H16  1  0.07617126  0.75719418  0.59674859  1
  H  H17  1  0.92382874  0.74280582  0.09674859  1
  H  H18  1  0.00520358  0.37091972  0.31667742  1
  H  H19  1  0.99479642  0.12908028  0.81667742  1
  H  H20  1  0.99479642  0.62908028  0.68332258  1
  H  H21  1  0.00520358  0.87091972  0.18332258  1
  H  H22  1  0.30355156  0.38376016  0.55612904  1
  H  H23  1  0.69644844  0.11623984  0.05612904  1
  H  H24  1  0.69644844  0.61623984  0.44387096  1
  H  H25  1  0.30355156  0.88376016  0.94387096  1
  H  H26  1  0.31245512  0.52008084  0.63651345  1
  H  H27  1  0.68754488  0.97991916  0.13651345  1
  H  H28  1  0.68754488  0.47991916  0.36348655  1
  H  H29  1  0.31245512  0.02008084  0.86348655  1
  Se  Se30  1  0.73901183  0.92309894  0.35918090  1
  Se  Se31  1  0.26098817  0.57690106  0.85918090  1
  Se  Se32  1  0.26098817  0.07690106  0.64081910  1
  Se  Se33  1  0.73901183  0.42309894  0.14081910  1
  O  O34  1  0.57950020  0.91606218  0.25164773  1
  O  O35  1  0.42049980  0.58393782  0.75164773  1
  O  O36  1  0.42049980  0.08393782  0.74835227  1
  O  O37  1  0.57950020  0.41606218  0.24835227  1
  O  O38  1  0.75130846  0.08411332  0.42315375  1
  O  O39  1  0.24869154  0.41588668  0.92315375  1
  O  O40  1  0.24869154  0.91588668  0.57684625  1
  O  O41  1  0.75130846  0.58411332  0.07684625  1
  O  O42  1  0.63048227  0.78405142  0.44251185  1
  O  O43  1  0.36951773  0.71594858  0.94251185  1
  O  O44  1  0.36951773  0.21594858  0.55748815  1
  O  O45  1  0.63048227  0.28405142  0.05748815  1
  O  O46  1  0.98129000  0.90684183  0.31843941  1
  O  O47  1  0.01871000  0.59315817  0.81843941  1
  O  O48  1  0.01871000  0.09315817  0.68156059  1
  O  O49  1  0.98129000  0.40684183  0.18156059  1
  O  O50  1  0.19048741  0.67810590  0.37534322  1
  O  O51  1  0.80951259  0.82189410  0.87534322  1
  O  O52  1  0.80951259  0.32189410  0.62465678  1
  O  O53  1  0.19048741  0.17810590  0.12465678  1
  O  O54  1  0.03054079  0.33900528  0.39151655  1
  O  O55  1  0.96945921  0.16099472  0.89151655  1
  O  O56  1  0.96945921  0.66099472  0.60848345  1
  O  O57  1  0.03054079  0.83900528  0.10848345  1
  O  O58  1  0.27436234  0.48571810  0.56115755  1
  O  O59  1  0.72563766  0.01428190  0.06115755  1
  O  O60  1  0.72563766  0.51428190  0.43884245  1
  O  O61  1  0.27436234  0.98571810  0.93884245  1
