# generated using pymatgen
data_Fe4O7F
_symmetry_space_group_name_H-M   'P 1'
_cell_length_a   4.64560350
_cell_length_b   7.54737513
_cell_length_c   7.59231027
_cell_angle_alpha   75.75270737
_cell_angle_beta   91.58467769
_cell_angle_gamma   89.08634999
_symmetry_Int_Tables_number   1
_chemical_formula_structural   Fe4O7F
_chemical_formula_sum   'Fe8 O14 F2'
_cell_volume   257.84492565
_cell_formula_units_Z   2
loop_
 _symmetry_equiv_pos_site_id
 _symmetry_equiv_pos_as_xyz
  1  'x, y, z'
loop_
 _atom_site_type_symbol
 _atom_site_label
 _atom_site_symmetry_multiplicity
 _atom_site_fract_x
 _atom_site_fract_y
 _atom_site_fract_z
 _atom_site_occupancy
  Fe  Fe0  1  0.49663491  0.12340813  0.62917077  1
  Fe  Fe1  1  0.52426139  0.38671079  0.86531173  1
  Fe  Fe2  1  0.50336509  0.87659187  0.37082923  1
  Fe  Fe3  1  0.47573861  0.61328921  0.13468827  1
  Fe  Fe4  1  0.01768381  0.75452226  0.73593374  1
  Fe  Fe5  1  0.00000000  0.50000000  0.50000000  1
  Fe  Fe6  1  0.98231619  0.24547774  0.26406626  1
  Fe  Fe7  1  0.00000000  0.00000000  0.00000000  1
  O  O8  1  0.80347348  0.28441043  0.48154929  1
  O  O9  1  0.81995014  0.53323265  0.71236081  1
  O  O10  1  0.81219128  0.03048596  0.21907576  1
  O  O11  1  0.69328195  0.90477451  0.59551929  1
  O  O12  1  0.69270078  0.15345112  0.85058172  1
  O  O13  1  0.69072147  0.40301508  0.09678876  1
  O  O14  1  0.69079026  0.65484584  0.34102399  1
  O  O15  1  0.30927853  0.59698492  0.90321124  1
  O  O16  1  0.30920974  0.34515416  0.65897701  1
  O  O17  1  0.30729922  0.84654888  0.14941828  1
  O  O18  1  0.30671805  0.09522549  0.40448071  1
  O  O19  1  0.19652652  0.71558957  0.51845071  1
  O  O20  1  0.18780872  0.96951404  0.78092424  1
  O  O21  1  0.18004986  0.46676735  0.28763919  1
  F  F22  1  0.80030283  0.77125607  0.97130917  1
  F  F23  1  0.19969717  0.22874393  0.02869083  1
