# generated using pymatgen
data_KEr(PO3)4
_symmetry_space_group_name_H-M   'P 1'
_cell_length_a   7.90384101
_cell_length_b   7.90384192
_cell_length_c   17.43929650
_cell_angle_alpha   90.00000000
_cell_angle_beta   90.00000000
_cell_angle_gamma   97.59094720
_symmetry_Int_Tables_number   1
_chemical_formula_structural   KEr(PO3)4
_chemical_formula_sum   'K4 Er4 P16 O48'
_cell_volume   1079.89779582
_cell_formula_units_Z   4
loop_
 _symmetry_equiv_pos_site_id
 _symmetry_equiv_pos_as_xyz
  1  'x, y, z'
loop_
 _atom_site_type_symbol
 _atom_site_label
 _atom_site_symmetry_multiplicity
 _atom_site_fract_x
 _atom_site_fract_y
 _atom_site_fract_z
 _atom_site_occupancy
  K  K0  1  0.02813623  0.76376717  0.61808078  1
  K  K1  1  0.97186377  0.23623283  0.11808078  1
  K  K2  1  0.23623283  0.97186377  0.38191922  1
  K  K3  1  0.76376717  0.02813623  0.88191922  1
  Er  Er4  1  0.02882934  0.40266619  0.39226820  1
  Er  Er5  1  0.97117066  0.59733381  0.89226820  1
  Er  Er6  1  0.59733381  0.97117066  0.60773180  1
  Er  Er7  1  0.40266619  0.02882934  0.10773180  1
  P  P8  1  0.22038814  0.68067936  0.23522432  1
  P  P9  1  0.96372497  0.26419831  0.59210730  1
  P  P10  1  0.36679950  0.63320050  0.50000000  1
  P  P11  1  0.67982319  0.71718992  0.05575371  1
  P  P12  1  0.64871807  0.64871807  0.75000000  1
  P  P13  1  0.68067936  0.22038814  0.26477568  1
  P  P14  1  0.63320050  0.36679950  0.00000000  1
  P  P15  1  0.32017681  0.28281008  0.55575371  1
  P  P16  1  0.71718992  0.67982319  0.44424629  1
  P  P17  1  0.35128193  0.35128193  0.25000000  1
  P  P18  1  0.73580169  0.03627503  0.40789270  1
  P  P19  1  0.77961186  0.31932064  0.73522432  1
  P  P20  1  0.28281008  0.32017681  0.94424629  1
  P  P21  1  0.31932064  0.77961186  0.76477568  1
  P  P22  1  0.26419831  0.96372497  0.90789270  1
  P  P23  1  0.03627503  0.73580169  0.09210730  1
  O  O24  1  0.36726712  0.94732023  0.97855251  1
  O  O25  1  0.83844347  0.73533370  0.11573648  1
  O  O26  1  0.63273288  0.05267977  0.47855251  1
  O  O27  1  0.87967723  0.08190977  0.59769506  1
  O  O28  1  0.37512536  0.90251096  0.83765626  1
  O  O29  1  0.16155653  0.26466630  0.61573648  1
  O  O30  1  0.39504500  0.80052007  0.54177564  1
  O  O31  1  0.14258475  0.68711145  0.77589090  1
  O  O32  1  0.05267977  0.63273288  0.02144749  1
  O  O33  1  0.60495500  0.19947993  0.04177564  1
  O  O34  1  0.80627532  0.54619310  0.40686211  1
  O  O35  1  0.68711145  0.14258475  0.72410910  1
  O  O36  1  0.91809023  0.12032277  0.40230494  1
  O  O37  1  0.80052007  0.39504500  0.95822436  1
  O  O38  1  0.23663018  0.31109505  0.31834791  1
  O  O39  1  0.11929470  0.64051166  0.30729836  1
  O  O40  1  0.51292518  0.61382899  0.43781190  1
  O  O41  1  0.48707482  0.38617101  0.93781190  1
  O  O42  1  0.45380690  0.19372468  0.59313789  1
  O  O43  1  0.61382899  0.51292518  0.06218810  1
  O  O44  1  0.64051166  0.11929470  0.19270164  1
  O  O45  1  0.19947993  0.60495500  0.45822436  1
  O  O46  1  0.73533370  0.83844347  0.38426352  1
  O  O47  1  0.26466630  0.16155653  0.88426352  1
  O  O48  1  0.08190977  0.87967723  0.90230494  1
  O  O49  1  0.54619310  0.80627532  0.09313789  1
  O  O50  1  0.38617101  0.48707482  0.56218810  1
  O  O51  1  0.68890495  0.76336982  0.68165209  1
  O  O52  1  0.75921835  0.74300883  0.52377888  1
  O  O53  1  0.24078165  0.25699117  0.02377888  1
  O  O54  1  0.35753765  0.54715198  0.22503505  1
  O  O55  1  0.12032277  0.91809023  0.09769506  1
  O  O56  1  0.54715198  0.35753765  0.27496495  1
  O  O57  1  0.35948834  0.88070530  0.69270164  1
  O  O58  1  0.19372468  0.45380690  0.90686211  1
  O  O59  1  0.31288855  0.85741525  0.22410910  1
  O  O60  1  0.31109505  0.23663018  0.18165209  1
  O  O61  1  0.62487464  0.09748904  0.33765626  1
  O  O62  1  0.88070530  0.35948834  0.80729836  1
  O  O63  1  0.94732023  0.36726712  0.52144749  1
  O  O64  1  0.85741525  0.31288855  0.27589090  1
  O  O65  1  0.45284802  0.64246235  0.77496495  1
  O  O66  1  0.64246235  0.45284802  0.72503505  1
  O  O67  1  0.74300883  0.75921835  0.97622112  1
  O  O68  1  0.25699117  0.24078165  0.47622112  1
  O  O69  1  0.90251096  0.37512536  0.66234374  1
  O  O70  1  0.76336982  0.68890495  0.81834791  1
  O  O71  1  0.09748904  0.62487464  0.16234374  1
