# generated using pymatgen
data_CuSeO4
_symmetry_space_group_name_H-M   'P 1'
_cell_length_a   4.92751796
_cell_length_b   4.92751797
_cell_length_c   6.67532806
_cell_angle_alpha   90.00000000
_cell_angle_beta   90.00000000
_cell_angle_gamma   111.06268944
_symmetry_Int_Tables_number   1
_chemical_formula_structural   CuSeO4
_chemical_formula_sum   'Cu2 Se2 O8'
_cell_volume   151.25094017
_cell_formula_units_Z   2
loop_
 _symmetry_equiv_pos_site_id
 _symmetry_equiv_pos_as_xyz
  1  'x, y, z'
loop_
 _atom_site_type_symbol
 _atom_site_label
 _atom_site_symmetry_multiplicity
 _atom_site_fract_x
 _atom_site_fract_y
 _atom_site_fract_z
 _atom_site_occupancy
  Cu  Cu0  1  0.00000000  0.00000000  0.00000000  1
  Cu  Cu1  1  0.00000000  0.00000000  0.50000000  1
  Se  Se2  1  0.65193048  0.34806952  0.25000000  1
  Se  Se3  1  0.34806952  0.65193048  0.75000000  1
  O  O4  1  0.76142830  0.23857170  0.46223938  1
  O  O5  1  0.23857170  0.76142830  0.53776062  1
  O  O6  1  0.22313896  0.28079728  0.75000000  1
  O  O7  1  0.77686104  0.71920272  0.25000000  1
  O  O8  1  0.76142830  0.23857170  0.03776062  1
  O  O9  1  0.23857170  0.76142830  0.96223938  1
  O  O10  1  0.71920272  0.77686104  0.75000000  1
  O  O11  1  0.28079728  0.22313896  0.25000000  1
