# generated using pymatgen
data_Ba2Fe3F10
_symmetry_space_group_name_H-M   'P 1'
_cell_length_a   6.31583522
_cell_length_b   8.09136814
_cell_length_c   17.61094924
_cell_angle_alpha   93.90358935
_cell_angle_beta   90.00000000
_cell_angle_gamma   90.00000000
_symmetry_Int_Tables_number   1
_chemical_formula_structural   Ba2Fe3F10
_chemical_formula_sum   'Ba8 Fe12 F40'
_cell_volume   897.89755791
_cell_formula_units_Z   4
loop_
 _symmetry_equiv_pos_site_id
 _symmetry_equiv_pos_as_xyz
  1  'x, y, z'
loop_
 _atom_site_type_symbol
 _atom_site_label
 _atom_site_symmetry_multiplicity
 _atom_site_fract_x
 _atom_site_fract_y
 _atom_site_fract_z
 _atom_site_occupancy
  F  F0  1  0.25002105  0.20360909  0.75854460  1
  F  F1  1  0.75002105  0.29639091  0.74145540  1
  F  F2  1  0.74997895  0.79639091  0.24145540  1
  F  F3  1  0.24997895  0.70360909  0.25854460  1
  F  F4  1  0.22077955  0.50696737  0.49319739  1
  F  F5  1  0.72077955  0.99303263  0.00680261  1
  F  F6  1  0.77922045  0.49303263  0.50680261  1
  F  F7  1  0.27922045  0.00696737  0.99319739  1
  F  F8  1  0.42843317  0.53189776  0.76233531  1
  F  F9  1  0.92843317  0.96810224  0.73766469  1
  F  F10  1  0.57156683  0.46810224  0.23766469  1
  F  F11  1  0.07156683  0.03189776  0.26233531  1
  F  F12  1  0.50685204  0.82713956  0.51656887  1
  F  F13  1  0.00685204  0.67286044  0.98343113  1
  F  F14  1  0.49298396  0.65871821  0.97596737  1
  F  F15  1  0.49314796  0.17286044  0.48343113  1
  F  F16  1  0.55299252  0.10991640  0.86199806  1
  F  F17  1  0.05299252  0.39008360  0.63800194  1
  F  F18  1  0.44700748  0.89008360  0.13800194  1
  F  F19  1  0.94700748  0.60991640  0.36199806  1
  F  F20  1  0.23842904  0.58028986  0.11300061  1
  F  F21  1  0.73842904  0.91971014  0.38699939  1
  F  F22  1  0.76157096  0.41971014  0.88699939  1
  F  F23  1  0.26157096  0.08028986  0.61300061  1
  F  F24  1  0.77330108  0.59952307  0.11039345  1
  F  F25  1  0.27330108  0.90047693  0.38960655  1
  F  F26  1  0.22669892  0.40047693  0.88960655  1
  F  F27  1  0.72669892  0.09952307  0.61039345  1
  F  F28  1  0.77163615  0.30642647  0.35015171  1
  F  F29  1  0.27163615  0.19357353  0.14984829  1
  F  F30  1  0.22836385  0.69357353  0.64984829  1
  F  F31  1  0.72836385  0.80642647  0.85015171  1
  F  F32  1  0.24760521  0.34750602  0.34127333  1
  F  F33  1  0.74760521  0.15249398  0.15872667  1
  F  F34  1  0.75239479  0.65249398  0.65872667  1
  F  F35  1  0.25239479  0.84750602  0.84127333  1
  F  F36  1  0.00701604  0.15871821  0.47596737  1
  F  F37  1  0.50701604  0.34128179  0.02403263  1
  F  F38  1  0.99298396  0.84128179  0.52403263  1
  F  F39  1  0.99314796  0.32713956  0.01656887  1
  Fe  Fe40  1  0.74375849  0.00581448  0.49920312  1
  Fe  Fe41  1  0.24375849  0.49418552  0.00079688  1
  Fe  Fe42  1  0.25624151  0.99418552  0.50079688  1
  Fe  Fe43  1  0.75624151  0.50581448  0.99920312  1
  Fe  Fe44  1  0.49591516  0.33669485  0.82185624  1
  Fe  Fe45  1  0.99591516  0.16330515  0.67814376  1
  Fe  Fe46  1  0.50408484  0.66330515  0.17814376  1
  Fe  Fe47  1  0.00408484  0.83669485  0.32185624  1
  Fe  Fe48  1  0.49631052  0.88051638  0.92266019  1
  Fe  Fe49  1  0.99631052  0.61948362  0.57733981  1
  Fe  Fe50  1  0.50368948  0.11948362  0.07733981  1
  Fe  Fe51  1  0.00368948  0.38051638  0.42266019  1
  Ba  Ba52  1  0.50547453  0.90355353  0.71504002  1
  Ba  Ba53  1  0.00547453  0.59644647  0.78495998  1
  Ba  Ba54  1  0.49452547  0.09644647  0.28495998  1
  Ba  Ba55  1  0.99452547  0.40355353  0.21504002  1
  Ba  Ba56  1  0.48636021  0.39582390  0.61331176  1
  Ba  Ba57  1  0.98636021  0.10417610  0.88668824  1
  Ba  Ba58  1  0.51363979  0.60417610  0.38668824  1
  Ba  Ba59  1  0.01363979  0.89582390  0.11331176  1
