# generated using pymatgen
data_SrVZnP2O9
_symmetry_space_group_name_H-M   'P 1'
_cell_length_a   9.14686751
_cell_length_b   9.26147549
_cell_length_c   17.72525053
_cell_angle_alpha   90.00000000
_cell_angle_beta   90.00000000
_cell_angle_gamma   90.00000000
_symmetry_Int_Tables_number   1
_chemical_formula_structural   SrVZnP2O9
_chemical_formula_sum   'Sr8 V8 Zn8 P16 O72'
_cell_volume   1501.56782030
_cell_formula_units_Z   8
loop_
 _symmetry_equiv_pos_site_id
 _symmetry_equiv_pos_as_xyz
  1  'x, y, z'
loop_
 _atom_site_type_symbol
 _atom_site_label
 _atom_site_symmetry_multiplicity
 _atom_site_fract_x
 _atom_site_fract_y
 _atom_site_fract_z
 _atom_site_occupancy
  Sr  Sr0  1  0.06775217  0.36198882  0.89983361  1
  Sr  Sr1  1  0.56775217  0.63801118  0.60016639  1
  Sr  Sr2  1  0.43224783  0.86198882  0.10016639  1
  Sr  Sr3  1  0.93224783  0.13801118  0.39983361  1
  Sr  Sr4  1  0.93224783  0.63801118  0.10016639  1
  Sr  Sr5  1  0.43224783  0.36198882  0.39983361  1
  Sr  Sr6  1  0.56775217  0.13801118  0.89983361  1
  Sr  Sr7  1  0.06775217  0.86198882  0.60016639  1
  V  V8  1  0.75481101  0.49438259  0.78893485  1
  V  V9  1  0.25481101  0.50561741  0.71106515  1
  V  V10  1  0.74518899  0.99438259  0.21106515  1
  V  V11  1  0.24518899  0.00561741  0.28893485  1
  V  V12  1  0.24518899  0.50561741  0.21106515  1
  V  V13  1  0.74518899  0.49438259  0.28893485  1
  V  V14  1  0.25481101  0.00561741  0.78893485  1
  V  V15  1  0.75481101  0.99438259  0.71106515  1
  Zn  Zn16  1  0.07191544  0.30550221  0.56376156  1
  Zn  Zn17  1  0.57191544  0.69449779  0.93623844  1
  Zn  Zn18  1  0.42808456  0.80550221  0.43623844  1
  Zn  Zn19  1  0.92808456  0.19449779  0.06376156  1
  Zn  Zn20  1  0.92808456  0.69449779  0.43623844  1
  Zn  Zn21  1  0.42808456  0.30550221  0.06376156  1
  Zn  Zn22  1  0.57191544  0.19449779  0.56376156  1
  Zn  Zn23  1  0.07191544  0.80550221  0.93623844  1
  P  P24  1  0.23405669  0.07021064  0.98808156  1
  P  P25  1  0.73405669  0.92978936  0.51191844  1
  P  P26  1  0.26594331  0.57021064  0.01191844  1
  P  P27  1  0.76594331  0.42978936  0.48808156  1
  P  P28  1  0.76594331  0.92978936  0.01191844  1
  P  P29  1  0.26594331  0.07021064  0.48808156  1
  P  P30  1  0.73405669  0.42978936  0.98808156  1
  P  P31  1  0.23405669  0.57021064  0.51191844  1
  P  P32  1  0.50434600  0.25575883  0.72806193  1
  P  P33  1  0.00434600  0.74424117  0.77193807  1
  P  P34  1  0.99565400  0.75575883  0.27193807  1
  P  P35  1  0.49565400  0.24424117  0.22806193  1
  P  P36  1  0.49565400  0.74424117  0.27193807  1
  P  P37  1  0.99565400  0.25575883  0.22806193  1
  P  P38  1  0.00434600  0.24424117  0.72806193  1
  P  P39  1  0.50434600  0.75575883  0.77193807  1
  O  O40  1  0.41558754  0.36013908  0.67827605  1
  O  O41  1  0.91558754  0.63986092  0.82172395  1
  O  O42  1  0.08441246  0.86013908  0.32172395  1
  O  O43  1  0.58441246  0.13986092  0.17827605  1
  O  O44  1  0.58441246  0.63986092  0.32172395  1
  O  O45  1  0.08441246  0.36013908  0.17827605  1
  O  O46  1  0.91558754  0.13986092  0.67827605  1
  O  O47  1  0.41558754  0.86013908  0.82172395  1
  O  O48  1  0.60195069  0.33415440  0.78636387  1
  O  O49  1  0.10195069  0.66584560  0.71363613  1
  O  O50  1  0.89804931  0.83415440  0.21363613  1
  O  O51  1  0.39804931  0.16584560  0.28636387  1
  O  O52  1  0.39804931  0.66584560  0.21363613  1
  O  O53  1  0.89804931  0.33415440  0.28636387  1
  O  O54  1  0.10195069  0.16584560  0.78636387  1
  O  O55  1  0.60195069  0.83415440  0.71363613  1
  O  O56  1  0.19027728  0.91542285  0.01087280  1
  O  O57  1  0.69027728  0.08457715  0.48912720  1
  O  O58  1  0.30972272  0.41542285  0.98912720  1
  O  O59  1  0.80972272  0.58457715  0.51087280  1
  O  O60  1  0.80972272  0.08457715  0.98912720  1
  O  O61  1  0.30972272  0.91542285  0.51087280  1
  O  O62  1  0.69027728  0.58457715  0.01087280  1
  O  O63  1  0.19027728  0.41542285  0.48912720  1
  O  O64  1  0.59864674  0.15820390  0.67204169  1
  O  O65  1  0.09864674  0.84179610  0.82795831  1
  O  O66  1  0.90135326  0.65820390  0.32795831  1
  O  O67  1  0.73649236  0.54383531  0.69986583  1
  O  O68  1  0.40135326  0.34179610  0.17204169  1
  O  O69  1  0.90135326  0.15820390  0.17204169  1
  O  O70  1  0.09864674  0.34179610  0.67204169  1
  O  O71  1  0.59864674  0.65820390  0.82795831  1
  O  O72  1  0.37740501  0.10494268  0.03310197  1
  O  O73  1  0.87740501  0.89505732  0.46689803  1
  O  O74  1  0.12259499  0.60494268  0.96689803  1
  O  O75  1  0.62259499  0.39505732  0.53310197  1
  O  O76  1  0.62259499  0.89505732  0.96689803  1
  O  O77  1  0.12259499  0.10494268  0.53310197  1
  O  O78  1  0.87740501  0.39505732  0.03310197  1
  O  O79  1  0.37740501  0.60494268  0.46689803  1
  O  O80  1  0.22762065  0.08080087  0.40310260  1
  O  O81  1  0.72762065  0.91919913  0.09689740  1
  O  O82  1  0.27237935  0.58080087  0.59689740  1
  O  O83  1  0.77237935  0.41919913  0.90310260  1
  O  O84  1  0.77237935  0.91919913  0.59689740  1
  O  O85  1  0.27237935  0.08080087  0.90310260  1
  O  O86  1  0.72762065  0.41919913  0.40310260  1
  O  O87  1  0.22762065  0.58080087  0.09689740  1
  O  O88  1  0.91227901  0.84656215  0.72228646  1
  O  O89  1  0.41227901  0.15343785  0.77771354  1
  O  O90  1  0.58772099  0.34656215  0.27771354  1
  O  O91  1  0.08772099  0.65343785  0.22228646  1
  O  O92  1  0.08772099  0.15343785  0.27771354  1
  O  O93  1  0.58772099  0.84656215  0.22228646  1
  O  O94  1  0.41227901  0.65343785  0.72228646  1
  O  O95  1  0.91227901  0.34656215  0.77771354  1
  O  O96  1  0.11199863  0.68042073  0.49428847  1
  O  O97  1  0.61199863  0.31957927  0.00571153  1
  O  O98  1  0.38800137  0.18042073  0.50571153  1
  O  O99  1  0.88800137  0.81957927  0.99428847  1
  O  O100  1  0.88800137  0.31957927  0.50571153  1
  O  O101  1  0.38800137  0.68042073  0.99428847  1
  O  O102  1  0.61199863  0.81957927  0.49428847  1
  O  O103  1  0.11199863  0.18042073  0.00571153  1
  O  O104  1  0.73649236  0.04383531  0.80013417  1
  O  O105  1  0.23649236  0.95616469  0.69986583  1
  O  O106  1  0.76350764  0.54383531  0.19986583  1
  O  O107  1  0.26350764  0.45616469  0.30013417  1
  O  O108  1  0.26350764  0.95616469  0.19986583  1
  O  O109  1  0.76350764  0.04383531  0.30013417  1
  O  O110  1  0.23649236  0.45616469  0.80013417  1
  O  O111  1  0.40135326  0.84179610  0.32795831  1
