# generated using pymatgen
data_Sr2YCoCu2O7
_symmetry_space_group_name_H-M   'P 1'
_cell_length_a   5.42658229
_cell_length_b   5.48891939
_cell_length_c   12.20327916
_cell_angle_alpha   102.98903038
_cell_angle_beta   102.84083198
_cell_angle_gamma   90.01637702
_symmetry_Int_Tables_number   1
_chemical_formula_structural   Sr2YCoCu2O7
_chemical_formula_sum   'Sr4 Y2 Co2 Cu4 O14'
_cell_volume   344.84629273
_cell_formula_units_Z   2
loop_
 _symmetry_equiv_pos_site_id
 _symmetry_equiv_pos_as_xyz
  1  'x, y, z'
loop_
 _atom_site_type_symbol
 _atom_site_label
 _atom_site_symmetry_multiplicity
 _atom_site_fract_x
 _atom_site_fract_y
 _atom_site_fract_z
 _atom_site_occupancy
  Sr  Sr0  1  0.33475123  0.33572844  0.69562461  1
  Sr  Sr1  1  0.63907776  0.66419520  0.30414006  1
  Sr  Sr2  1  0.83481306  0.85984857  0.69565196  1
  Sr  Sr3  1  0.13909748  0.13996703  0.30418069  1
  Y  Y4  1  0.98705579  0.99993336  0.00027167  1
  Y  Y5  1  0.48681158  0.50026555  0.00027398  1
  Co  Co6  1  0.26999076  0.68526809  0.49984820  1
  Co  Co7  1  0.77038875  0.31527565  0.50010379  1
  Cu  Cu8  1  0.91318135  0.42910055  0.85645318  1
  Cu  Cu9  1  0.05718219  0.57100777  0.14287626  1
  Cu  Cu10  1  0.41346696  0.92766992  0.85700719  1
  Cu  Cu11  1  0.55689661  0.07266400  0.14368494  1
  O  O12  1  0.12929322  0.36219842  0.50006273  1
  O  O13  1  0.62994400  0.63764113  0.50006331  1
  O  O14  1  0.17840260  0.19340998  0.87645490  1
  O  O15  1  0.30346619  0.80781420  0.12320948  1
  O  O16  1  0.67948847  0.18397620  0.87671432  1
  O  O17  1  0.80062271  0.81792972  0.12339586  1
  O  O18  1  0.66809215  0.68098953  0.87133450  1
  O  O19  1  0.79416828  0.31665178  0.12839222  1
  O  O20  1  0.16729924  0.68961501  0.87158683  1
  O  O21  1  0.29762635  0.30883042  0.12856153  1
  O  O22  1  0.28938605  0.85918498  0.64829063  1
  O  O23  1  0.64087867  0.14074460  0.35141599  1
  O  O24  1  0.78934462  0.28928331  0.64836569  1
  O  O25  1  0.14127393  0.71080659  0.35203446  1
