# generated using pymatgen
data_Er4Si3O11F2
_symmetry_space_group_name_H-M   'P 1'
_cell_length_a   6.49085738
_cell_length_b   6.62077996
_cell_length_c   13.28613729
_cell_angle_alpha   87.65828390
_cell_angle_beta   85.89311050
_cell_angle_gamma   60.85988046
_symmetry_Int_Tables_number   1
_chemical_formula_structural   Er4Si3O11F2
_chemical_formula_sum   'Er8 Si6 O22 F4'
_cell_volume   497.40702780
_cell_formula_units_Z   2
loop_
 _symmetry_equiv_pos_site_id
 _symmetry_equiv_pos_as_xyz
  1  'x, y, z'
loop_
 _atom_site_type_symbol
 _atom_site_label
 _atom_site_symmetry_multiplicity
 _atom_site_fract_x
 _atom_site_fract_y
 _atom_site_fract_z
 _atom_site_occupancy
  Er  Er0  1  0.78098009  0.78693389  0.47135217  1
  Er  Er1  1  0.82177257  0.30764471  0.32897202  1
  Er  Er2  1  0.93912265  0.27449831  0.02632471  1
  Er  Er3  1  0.06087735  0.72550169  0.97367529  1
  Er  Er4  1  0.67504560  0.62090278  0.79669545  1
  Er  Er5  1  0.17822743  0.69235529  0.67102798  1
  Er  Er6  1  0.21901991  0.21306611  0.52864783  1
  Er  Er7  1  0.32495440  0.37909722  0.20330455  1
  Si  Si8  1  0.49244022  0.25153352  0.93506071  1
  Si  Si9  1  0.23184420  0.15319261  0.78306815  1
  Si  Si10  1  0.50755978  0.74846648  0.06493929  1
  Si  Si11  1  0.76815580  0.84680739  0.21693185  1
  Si  Si12  1  0.73272231  0.26924624  0.57913629  1
  Si  Si13  1  0.26727769  0.73075376  0.42086371  1
  O  O14  1  0.79662623  0.67618093  0.31380758  1
  O  O15  1  0.73539913  0.66259625  0.97940441  1
  O  O16  1  0.01230535  0.93995706  0.38784702  1
  O  O17  1  0.98924203  0.28595599  0.85514630  1
  O  O18  1  0.40736979  0.84124696  0.47904238  1
  O  O19  1  0.20337377  0.32381907  0.68619242  1
  O  O20  1  0.53314655  0.90375969  0.15249268  1
  O  O21  1  0.98769465  0.06004294  0.61215298  1
  O  O22  1  0.46685345  0.09624031  0.84750732  1
  O  O23  1  0.42277863  0.54577956  0.33163800  1
  O  O24  1  0.01075797  0.71404401  0.14485370  1
  O  O25  1  0.68782764  0.11351012  0.24651627  1
  O  O26  1  0.26460087  0.33740375  0.02059559  1
  O  O27  1  0.82700780  0.40636155  0.49205524  1
  O  O28  1  0.17299220  0.59363845  0.50794476  1
  O  O29  1  0.31217236  0.88648988  0.75348373  1
  O  O30  1  0.59263021  0.15875304  0.52095762  1
  O  O31  1  0.24890055  0.90593051  0.01887722  1
  O  O32  1  0.55591366  0.49778868  0.11263337  1
  O  O33  1  0.57722137  0.45422044  0.66836200  1
  O  O34  1  0.44408634  0.50221132  0.88736663  1
  O  O35  1  0.75109945  0.09406949  0.98112278  1
  F  F36  1  0.03554097  0.26931185  0.18509286  1
  F  F37  1  0.79494129  0.74113936  0.64562479  1
  F  F38  1  0.96445903  0.73068815  0.81490714  1
  F  F39  1  0.20505871  0.25886064  0.35437521  1
