# generated using pymatgen
data_BaY6Si3B6(O12F)2
_symmetry_space_group_name_H-M   'P 1'
_cell_length_a   10.73728750
_cell_length_b   10.73728744
_cell_length_c   4.74986805
_cell_angle_alpha   90.00000000
_cell_angle_beta   90.00000000
_cell_angle_gamma   120.00000016
_symmetry_Int_Tables_number   1
_chemical_formula_structural   BaY6Si3B6(O12F)2
_chemical_formula_sum   'Ba1 Y6 Si3 B6 O24 F2'
_cell_volume   474.24344603
_cell_formula_units_Z   1
loop_
 _symmetry_equiv_pos_site_id
 _symmetry_equiv_pos_as_xyz
  1  'x, y, z'
loop_
 _atom_site_type_symbol
 _atom_site_label
 _atom_site_symmetry_multiplicity
 _atom_site_fract_x
 _atom_site_fract_y
 _atom_site_fract_z
 _atom_site_occupancy
  Ba  Ba0  1  0.00000000  0.00000000  0.00480476  1
  Y  Y1  1  0.56997734  0.78497847  0.95508776  1
  Y  Y2  1  0.21502153  0.78499888  0.95508776  1
  Y  Y3  1  0.21500112  0.43002266  0.95508776  1
  Y  Y4  1  0.78434781  0.21555921  1.00091499  1
  Y  Y5  1  0.78444079  0.56878860  1.00091499  1
  Y  Y6  1  0.43121140  0.21565219  1.00091499  1
  Si  Si7  1  0.49300981  0.50702848  0.40073278  1
  Si  Si8  1  0.01401867  0.50699019  0.40073278  1
  Si  Si9  1  0.49297152  0.98598133  0.40073278  1
  B  B10  1  0.74935833  0.74921695  0.48256635  1
  B  B11  1  -0.00014138  0.25064167  0.48256635  1
  B  B12  1  0.25079703  0.25074155  0.48260663  1
  B  B13  1  0.74925845  0.00005548  0.48260663  1
  B  B14  1  0.25078305  1.00014138  0.48256635  1
  B  B15  1  0.99994452  0.74920297  0.48260663  1
  O  O16  1  0.42606126  0.85219879  0.18249479  1
  O  O17  1  0.02538748  0.63341459  0.62287272  1
  O  O18  1  0.28674398  0.14341617  0.59823066  1
  O  O19  1  0.56938943  0.13884807  0.23026834  1
  O  O20  1  0.11152486  0.88850488  0.60445114  1
  O  O21  1  0.73712068  0.99810355  0.18204169  1
  O  O22  1  0.36658541  0.39197289  0.62287272  1
  O  O23  1  0.86115193  0.43054137  0.23026834  1
  O  O24  1  0.42613754  0.57393874  0.18249479  1
  O  O25  1  0.00189645  0.73901713  0.18204169  1
  O  O26  1  0.60802711  0.97461252  0.62287272  1
  O  O27  1  0.02530875  0.39186973  0.62281906  1
  O  O28  1  0.77698002  0.88847514  0.60445114  1
  O  O29  1  0.00178767  0.26269202  0.18197684  1
  O  O30  1  0.36656098  0.97469125  0.62281906  1
  O  O31  1  0.26098287  0.26287932  0.18204169  1
  O  O32  1  0.60813027  0.63343902  0.62281906  1
  O  O33  1  0.85667220  0.71325602  0.59823066  1
  O  O34  1  0.11149512  0.22301998  0.60445114  1
  O  O35  1  0.26090435  0.99821233  0.18197684  1
  O  O36  1  0.73730798  0.73909565  0.18197684  1
  O  O37  1  0.14780121  0.57386246  0.18249479  1
  O  O38  1  0.56945863  0.43061057  0.23026834  1
  O  O39  1  0.85658383  0.14332780  0.59823066  1
  F  F40  1  0.33333300  0.66666700  0.74892354  1
  F  F41  1  0.66666700  0.33333300  0.79798044  1
