# generated using pymatgen
data_MnAlF5
_symmetry_space_group_name_H-M   'P 1'
_cell_length_a   3.63438046
_cell_length_b   5.33933988
_cell_length_c   9.70182619
_cell_angle_alpha   90.00000000
_cell_angle_beta   90.00000000
_cell_angle_gamma   109.89758201
_symmetry_Int_Tables_number   1
_chemical_formula_structural   MnAlF5
_chemical_formula_sum   'Mn2 Al2 F10'
_cell_volume   177.02680553
_cell_formula_units_Z   2
loop_
 _symmetry_equiv_pos_site_id
 _symmetry_equiv_pos_as_xyz
  1  'x, y, z'
loop_
 _atom_site_type_symbol
 _atom_site_label
 _atom_site_symmetry_multiplicity
 _atom_site_fract_x
 _atom_site_fract_y
 _atom_site_fract_z
 _atom_site_occupancy
  Mn  Mn0  1  0.50000000  0.00000000  0.50000000  1
  Mn  Mn1  1  0.50000000  0.00000000  0.00000000  1
  Al  Al2  1  0.79326652  0.58653304  0.25000000  1
  Al  Al3  1  0.20673348  0.41346696  0.75000000  1
  F  F4  1  0.30572423  0.61144747  0.25000000  1
  F  F5  1  0.69427577  0.38855253  0.75000000  1
  F  F6  1  0.07427877  0.14855753  0.61540732  1
  F  F7  1  0.92572123  0.85144247  0.38459268  1
  F  F8  1  0.33068047  0.66136094  0.88199727  1
  F  F9  1  0.66931953  0.33863906  0.11800273  1
  F  F10  1  0.66931953  0.33863906  0.38199727  1
  F  F11  1  0.33068047  0.66136094  0.61800273  1
  F  F12  1  0.07427877  0.14855753  0.88459268  1
  F  F13  1  0.92572123  0.85144247  0.11540732  1
