# generated using pymatgen
data_PNF2
_symmetry_space_group_name_H-M   'P 1'
_cell_length_a   5.09691666
_cell_length_b   15.56126104
_cell_length_c   16.26488333
_cell_angle_alpha   90.00000000
_cell_angle_beta   98.28613594
_cell_angle_gamma   90.00000000
_symmetry_Int_Tables_number   1
_chemical_formula_structural   PNF2
_chemical_formula_sum   'P20 N20 F40'
_cell_volume   1276.57315594
_cell_formula_units_Z   20
loop_
 _symmetry_equiv_pos_site_id
 _symmetry_equiv_pos_as_xyz
  1  'x, y, z'
loop_
 _atom_site_type_symbol
 _atom_site_label
 _atom_site_symmetry_multiplicity
 _atom_site_fract_x
 _atom_site_fract_y
 _atom_site_fract_z
 _atom_site_occupancy
  P  P0  1  0.81501245  0.66283154  0.00872056  1
  P  P1  1  0.18498755  0.33716846  0.99127944  1
  P  P2  1  0.00842212  0.34663911  0.47223968  1
  P  P3  1  0.18498755  0.16283154  0.49127944  1
  P  P4  1  0.33310586  0.39144449  0.63002025  1
  P  P5  1  0.00842212  0.15336089  0.97223968  1
  P  P6  1  0.66689414  0.60855551  0.36997975  1
  P  P7  1  0.30759732  0.40917079  0.15788808  1
  P  P8  1  0.41081018  0.74290138  0.77826055  1
  P  P9  1  0.99157788  0.84663911  0.02776032  1
  P  P10  1  0.58918982  0.25709862  0.22173945  1
  P  P11  1  0.81501245  0.83716846  0.50872056  1
  P  P12  1  0.69240268  0.59082921  0.84211192  1
  P  P13  1  0.33310586  0.10855551  0.13002025  1
  P  P14  1  0.66689414  0.89144449  0.86997975  1
  P  P15  1  0.41081018  0.75709862  0.27826055  1
  P  P16  1  0.30759732  0.09082921  0.65788808  1
  P  P17  1  0.58918982  0.24290138  0.72173945  1
  P  P18  1  0.69240268  0.90917079  0.34211192  1
  P  P19  1  0.99157788  0.65336089  0.52776032  1
  N  N20  1  0.48180908  0.30435440  0.64881891  1
  N  N21  1  0.86058873  0.87010782  0.42120022  1
  N  N22  1  0.92898743  0.75060333  0.04126529  1
  N  N23  1  0.48966822  0.85391465  0.28276618  1
  N  N24  1  0.07101257  0.25060333  0.45873471  1
  N  N25  1  0.13941127  0.37010782  0.07879978  1
  N  N26  1  0.48180908  0.19564560  0.14881891  1
  N  N27  1  0.87010832  0.59994953  0.45049976  1
  N  N28  1  0.12989168  0.09994953  0.04950024  1
  N  N29  1  0.51819092  0.69564560  0.35118109  1
  N  N30  1  0.07101257  0.24939667  0.95873471  1
  N  N31  1  0.51819092  0.80435440  0.85118109  1
  N  N32  1  0.13941127  0.12989218  0.57879978  1
  N  N33  1  0.12989168  0.40005047  0.54950024  1
  N  N34  1  0.48966822  0.64608535  0.78276618  1
  N  N35  1  0.86058873  0.62989218  0.92120022  1
  N  N36  1  0.51033178  0.35391465  0.21723382  1
  N  N37  1  0.87010832  0.90005047  0.95049976  1
  N  N38  1  0.51033178  0.14608535  0.71723382  1
  N  N39  1  0.92898743  0.74939667  0.54126529  1
  F  F40  1  0.48640036  0.34291197  0.98129224  1
  F  F41  1  0.46202709  0.96611674  0.86929406  1
  F  F42  1  0.29966662  0.85755385  0.03674046  1
  F  F43  1  0.70033338  0.14244615  0.96325954  1
  F  F44  1  0.54144020  0.99185899  0.36371075  1
  F  F45  1  0.10866222  0.45034310  0.21037264  1
  F  F46  1  0.92762130  0.90544736  0.57497957  1
  F  F47  1  0.45855980  0.49185899  0.13628925  1
  F  F48  1  0.29966662  0.64244615  0.53674046  1
  F  F49  1  0.51359964  0.65708803  0.01870776  1
  F  F50  1  0.92762130  0.59455264  0.07497957  1
  F  F51  1  0.05863915  0.39641624  0.39282037  1
  F  F52  1  0.89133778  0.95034310  0.28962736  1
  F  F53  1  0.10866222  0.04965690  0.71037264  1
  F  F54  1  0.80529313  0.57996658  0.29468334  1
  F  F55  1  0.07237870  0.09455264  0.42502043  1
  F  F56  1  0.54144020  0.50814101  0.86371075  1
  F  F57  1  0.53704554  0.27982302  0.80737362  1
  F  F58  1  0.19470687  0.42003342  0.70531666  1
  F  F59  1  0.46295446  0.77982302  0.69262638  1
  F  F60  1  0.53797291  0.03388326  0.13070594  1
  F  F61  1  0.89133778  0.54965690  0.78962736  1
  F  F62  1  0.53704554  0.22017698  0.30737362  1
  F  F63  1  0.70033338  0.35755385  0.46325954  1
  F  F64  1  0.94136085  0.60358376  0.60717963  1
  F  F65  1  0.05863915  0.10358376  0.89282037  1
  F  F66  1  0.53797291  0.46611674  0.63070594  1
  F  F67  1  0.80529313  0.92003342  0.79468334  1
  F  F68  1  0.46202709  0.53388326  0.36929406  1
  F  F69  1  0.10049011  0.75316924  0.26438885  1
  F  F70  1  0.89950989  0.24683076  0.73561115  1
  F  F71  1  0.07237870  0.40544736  0.92502043  1
  F  F72  1  0.45855980  0.00814101  0.63628925  1
  F  F73  1  0.46295446  0.72017698  0.19262638  1
  F  F74  1  0.10049011  0.74683076  0.76438885  1
  F  F75  1  0.51359964  0.84291197  0.51870776  1
  F  F76  1  0.19470687  0.07996658  0.20531666  1
  F  F77  1  0.48640036  0.15708803  0.48129224  1
  F  F78  1  0.89950989  0.25316924  0.23561115  1
  F  F79  1  0.94136085  0.89641624  0.10717963  1
