# generated using pymatgen
data_Ba2LaSbO6
_symmetry_space_group_name_H-M   'P 1'
_cell_length_a   6.17272456
_cell_length_b   6.18182344
_cell_length_c   8.74967452
_cell_angle_alpha   90.00000000
_cell_angle_beta   90.10731278
_cell_angle_gamma   90.00000000
_symmetry_Int_Tables_number   1
_chemical_formula_structural   Ba2LaSbO6
_chemical_formula_sum   'Ba4 La2 Sb2 O12'
_cell_volume   333.87556113
_cell_formula_units_Z   2
loop_
 _symmetry_equiv_pos_site_id
 _symmetry_equiv_pos_as_xyz
  1  'x, y, z'
loop_
 _atom_site_type_symbol
 _atom_site_label
 _atom_site_symmetry_multiplicity
 _atom_site_fract_x
 _atom_site_fract_y
 _atom_site_fract_z
 _atom_site_occupancy
  Ba  Ba0  1  0.99897582  0.00518775  0.74943843  1
  Ba  Ba1  1  0.50102418  0.50518775  0.75056157  1
  Ba  Ba2  1  0.49897582  0.49481225  0.24943843  1
  Ba  Ba3  1  0.00102418  0.99481225  0.25056157  1
  La  La4  1  0.50000000  0.00000000  0.00000000  1
  La  La5  1  0.00000000  0.50000000  0.50000000  1
  Sb  Sb6  1  0.00000000  0.50000000  0.00000000  1
  Sb  Sb7  1  0.50000000  0.00000000  0.50000000  1
  O  O8  1  0.99802039  0.50793058  0.23081674  1
  O  O9  1  0.74537761  0.78388135  0.49842010  1
  O  O10  1  0.21660898  0.25520487  0.00486194  1
  O  O11  1  0.28339102  0.75520487  0.49513806  1
  O  O12  1  0.25462239  0.21611865  0.50157990  1
  O  O13  1  0.71660898  0.24479513  0.50486194  1
  O  O14  1  0.75462239  0.28388135  0.00157990  1
  O  O15  1  0.78339102  0.74479513  0.99513806  1
  O  O16  1  0.49802039  0.99206942  0.73081674  1
  O  O17  1  0.50197961  0.00793058  0.26918326  1
  O  O18  1  0.24537761  0.71611865  0.99842010  1
  O  O19  1  0.00197961  0.49206942  0.76918326  1
