# generated using pymatgen
data_As4S3
_symmetry_space_group_name_H-M   'P 1'
_cell_length_a   7.07680393
_cell_length_b   10.78810056
_cell_length_c   12.12424387
_cell_angle_alpha   90.00000000
_cell_angle_beta   90.00000000
_cell_angle_gamma   90.00000000
_symmetry_Int_Tables_number   1
_chemical_formula_structural   As4S3
_chemical_formula_sum   'As16 S12'
_cell_volume   925.62870139
_cell_formula_units_Z   4
loop_
 _symmetry_equiv_pos_site_id
 _symmetry_equiv_pos_as_xyz
  1  'x, y, z'
loop_
 _atom_site_type_symbol
 _atom_site_label
 _atom_site_symmetry_multiplicity
 _atom_site_fract_x
 _atom_site_fract_y
 _atom_site_fract_z
 _atom_site_occupancy
  As  As0  1  0.66045289  0.75000000  0.82042269  1
  As  As1  1  0.83954711  0.75000000  0.32042269  1
  As  As2  1  0.33954711  0.25000000  0.17957731  1
  As  As3  1  0.16045289  0.25000000  0.67957731  1
  As  As4  1  0.39936132  0.75000000  0.07461254  1
  As  As5  1  0.10063868  0.75000000  0.57461254  1
  As  As6  1  0.60063868  0.25000000  0.92538746  1
  As  As7  1  0.89936132  0.25000000  0.42538746  1
  As  As8  1  0.22370092  0.86733018  0.92756112  1
  As  As9  1  0.27629908  0.63266982  0.42756112  1
  As  As10  1  0.77629908  0.36733018  0.07243888  1
  As  As11  1  0.72370092  0.13266982  0.57243888  1
  As  As12  1  0.77629908  0.13266982  0.07243888  1
  As  As13  1  0.72370092  0.36733018  0.57243888  1
  As  As14  1  0.22370092  0.63266982  0.92756112  1
  As  As15  1  0.27629908  0.86733018  0.42756112  1
  S  S16  1  0.45222485  0.90845535  0.80617594  1
  S  S17  1  0.04777515  0.59154465  0.30617594  1
  S  S18  1  0.54777515  0.40845535  0.19382406  1
  S  S19  1  0.95222485  0.09154465  0.69382406  1
  S  S20  1  0.54777515  0.09154465  0.19382406  1
  S  S21  1  0.95222485  0.40845535  0.69382406  1
  S  S22  1  0.45222485  0.59154465  0.80617594  1
  S  S23  1  0.04777515  0.90845535  0.30617594  1
  S  S24  1  0.69273843  0.75000000  0.00646224  1
  S  S25  1  0.80726157  0.75000000  0.50646224  1
  S  S26  1  0.30726157  0.25000000  0.99353776  1
  S  S27  1  0.19273843  0.25000000  0.49353776  1
