# generated using pymatgen
data_Cr2CoNi3(PO4)6
_symmetry_space_group_name_H-M   'P 1'
_cell_length_a   8.34544514
_cell_length_b   8.59136724
_cell_length_c   8.59136745
_cell_angle_alpha   60.00000011
_cell_angle_beta   59.02033065
_cell_angle_gamma   59.02032814
_symmetry_Int_Tables_number   1
_chemical_formula_structural   Cr2CoNi3(PO4)6
_chemical_formula_sum   'Cr2 Co1 Ni3 P6 O24'
_cell_volume   429.00948428
_cell_formula_units_Z   1
loop_
 _symmetry_equiv_pos_site_id
 _symmetry_equiv_pos_as_xyz
  1  'x, y, z'
loop_
 _atom_site_type_symbol
 _atom_site_label
 _atom_site_symmetry_multiplicity
 _atom_site_fract_x
 _atom_site_fract_y
 _atom_site_fract_z
 _atom_site_occupancy
  Cr  Cr0  1  0.00165534  0.99944855  0.99944855  1
  Cr  Cr1  1  0.50082498  0.49972467  0.49972467  1
  Co  Co2  1  0.58085293  0.13971536  0.13971536  1
  Ni  Ni3  1  0.07325007  0.64225031  0.64225031  1
  Ni  Ni4  1  0.42595147  0.85801618  0.85801618  1
  Ni  Ni5  1  0.92545105  0.35818332  0.35818332  1
  P  P6  1  0.25381610  0.24978506  0.54127076  1
  P  P7  1  0.25381610  0.95512908  0.24978506  1
  P  P8  1  0.25381610  0.54127076  0.95512908  1
  P  P9  1  0.74557345  0.45290270  0.04958356  1
  P  P10  1  0.74557345  0.04958356  0.75194030  1
  P  P11  1  0.74557345  0.75194030  0.45290270  1
  O  O12  1  0.06313080  0.10217610  0.33311389  1
  O  O13  1  0.06313080  0.50157920  0.10217610  1
  O  O14  1  0.06313080  0.33311389  0.50157920  1
  O  O15  1  0.21265913  0.09559002  0.74626048  1
  O  O16  1  0.44287431  0.17532599  0.38413844  1
  O  O17  1  0.29441932  0.39730246  0.56036047  1
  O  O18  1  0.21265913  0.94549037  0.09559002  1
  O  O19  1  0.29441932  0.74791775  0.39730246  1
  O  O20  1  0.55834362  0.60392762  0.00916764  1
  O  O21  1  0.29441932  0.56036047  0.74791775  1
  O  O22  1  0.77930475  0.24524917  0.06279523  1
  O  O23  1  0.55834362  0.00916764  0.82856012  1
  O  O24  1  0.44287431  0.99766027  0.17532599  1
  O  O25  1  0.21265913  0.74626048  0.94549037  1
  O  O26  1  0.71008208  0.43213806  0.25549214  1
  O  O27  1  0.44287431  0.38413844  0.99766027  1
  O  O28  1  0.71008208  0.25549214  0.60228772  1
  O  O29  1  0.77930475  0.06279523  0.91265086  1
  O  O30  1  0.71008208  0.60228772  0.43213806  1
  O  O31  1  0.55834362  0.82856012  0.60392762  1
  O  O32  1  0.77930475  0.91265086  0.24524917  1
  O  O33  1  0.93713385  0.67798318  0.48620263  1
  O  O34  1  0.93713385  0.48620263  0.89867935  1
  O  O35  1  0.93713385  0.89867935  0.67798318  1
