# generated using pymatgen
data_AlPO4
_symmetry_space_group_name_H-M   'P 1'
_cell_length_a   5.25407596
_cell_length_b   8.79361231
_cell_length_c   13.86345303
_cell_angle_alpha   91.27490137
_cell_angle_beta   90.00000000
_cell_angle_gamma   107.38217408
_symmetry_Int_Tables_number   1
_chemical_formula_structural   AlPO4
_chemical_formula_sum   'Al6 P6 O24'
_cell_volume   611.10678109
_cell_formula_units_Z   6
loop_
 _symmetry_equiv_pos_site_id
 _symmetry_equiv_pos_as_xyz
  1  'x, y, z'
loop_
 _atom_site_type_symbol
 _atom_site_label
 _atom_site_symmetry_multiplicity
 _atom_site_fract_x
 _atom_site_fract_y
 _atom_site_fract_z
 _atom_site_occupancy
  Al  Al0  1  0.50312818  0.90346627  0.76923406  1
  Al  Al1  1  0.23878697  0.33681830  0.91499032  1
  Al  Al2  1  0.90196867  0.66318170  0.08500968  1
  Al  Al3  1  0.59966191  0.09653373  0.23076594  1
  Al  Al4  1  0.96630841  0.70270205  0.46118161  1
  Al  Al5  1  0.26360636  0.29729795  0.53881839  1
  P  P6  1  0.42563064  0.70866369  0.96040250  1
  P  P7  1  0.45001081  0.67140030  0.58683438  1
  P  P8  1  0.10632781  0.10910942  0.73303937  1
  P  P9  1  0.99721839  0.89089058  0.26696063  1
  P  P10  1  0.71696695  0.29133631  0.03959750  1
  P  P11  1  0.77861051  0.32859970  0.41316562  1
  O  O12  1  0.75073317  0.94851505  0.25423665  1
  O  O13  1  0.45331077  0.74024265  0.68937877  1
  O  O14  1  0.22719750  0.97606585  0.75940478  1
  O  O15  1  0.52723923  0.83974357  0.88664996  1
  O  O16  1  0.97073525  0.74249858  0.20198634  1
  O  O17  1  0.44511287  0.26936354  0.99114253  1
  O  O18  1  0.22823666  0.25750142  0.79801366  1
  O  O19  1  0.01433155  0.84613876  0.37264670  1
  O  O20  1  0.85552425  0.51137040  0.40797685  1
  O  O21  1  0.71306812  0.25975735  0.31062123  1
  O  O22  1  0.68749565  0.16025643  0.11335004  1
  O  O23  1  0.27111514  0.73429516  0.52066502  1
  O  O24  1  0.73499087  0.72402207  0.54693985  1
  O  O25  1  0.17574933  0.73063646  0.00885747  1
  O  O26  1  0.53681998  0.26570484  0.47933498  1
  O  O27  1  0.80221812  0.05148495  0.74576335  1
  O  O28  1  0.01096880  0.27597793  0.45306015  1
  O  O29  1  0.64033299  0.72396663  0.03818625  1
  O  O30  1  0.36050728  0.54466508  0.90826280  1
  O  O31  1  0.91636636  0.27603337  0.96181375  1
  O  O32  1  0.25113165  0.02393415  0.24059522  1
  O  O33  1  0.34415385  0.48862960  0.59202315  1
  O  O34  1  0.81584220  0.45533492  0.09173720  1
  O  O35  1  0.16819279  0.15386124  0.62735330  1
