# generated using pymatgen
data_TaP4S6Cl5
_symmetry_space_group_name_H-M   'P 1'
_cell_length_a   7.25330089
_cell_length_b   11.55703502
_cell_length_c   12.22439792
_cell_angle_alpha   102.17445115
_cell_angle_beta   95.84897459
_cell_angle_gamma   104.01633485
_symmetry_Int_Tables_number   1
_chemical_formula_structural   TaP4S6Cl5
_chemical_formula_sum   'Ta2 P8 S12 Cl10'
_cell_volume   959.13371020
_cell_formula_units_Z   2
loop_
 _symmetry_equiv_pos_site_id
 _symmetry_equiv_pos_as_xyz
  1  'x, y, z'
loop_
 _atom_site_type_symbol
 _atom_site_label
 _atom_site_symmetry_multiplicity
 _atom_site_fract_x
 _atom_site_fract_y
 _atom_site_fract_z
 _atom_site_occupancy
  Ta  Ta0  1  0.48326052  0.73583028  0.85178525  1
  Ta  Ta1  1  0.51673948  0.26416972  0.14821475  1
  P  P2  1  0.95557555  0.57549404  0.28694042  1
  P  P3  1  0.25183030  0.82606818  0.44731296  1
  P  P4  1  0.94378684  0.80058192  0.49619115  1
  P  P5  1  0.04442445  0.42450596  0.71305958  1
  P  P6  1  0.05621316  0.19941808  0.50380885  1
  P  P7  1  0.74816970  0.17393182  0.55268704  1
  P  P8  1  0.05271470  0.13551243  0.76360289  1
  P  P9  1  0.94728530  0.86448757  0.23639711  1
  S  S10  1  0.11120047  0.33242179  0.83538948  1
  S  S11  1  0.23623418  0.92406619  0.31964251  1
  S  S12  1  0.18300538  0.39144774  0.57140102  1
  S  S13  1  0.75331924  0.35594472  0.63910160  1
  S  S14  1  0.24668076  0.64405528  0.36089840  1
  S  S15  1  0.76376582  0.07593381  0.68035749  1
  S  S16  1  0.90488458  0.39831692  0.21418873  1
  S  S17  1  0.81699462  0.60855226  0.42859898  1
  S  S18  1  0.09511542  0.60168308  0.78581127  1
  S  S19  1  0.19073648  0.11721119  0.61863416  1
  S  S20  1  0.80926352  0.88278881  0.38136584  1
  S  S21  1  0.88879953  0.66757821  0.16461052  1
  Cl  Cl22  1  0.44477815  0.44710644  0.13722644  1
  Cl  Cl23  1  0.21063041  0.13777208  0.09294617  1
  Cl  Cl24  1  0.55522185  0.55289356  0.86277356  1
  Cl  Cl25  1  0.67249660  0.11484012  0.17792368  1
  Cl  Cl26  1  0.50905826  0.69206842  0.65729112  1
  Cl  Cl27  1  0.40577506  0.75941223  0.03450221  1
  Cl  Cl28  1  0.49094174  0.30793158  0.34270888  1
  Cl  Cl29  1  0.59422494  0.24058777  0.96549779  1
  Cl  Cl30  1  0.32750340  0.88515988  0.82207632  1
  Cl  Cl31  1  0.78936959  0.86222792  0.90705383  1
