# generated using pymatgen
data_ClF3
_symmetry_space_group_name_H-M   'P 1'
_cell_length_a   4.69880465
_cell_length_b   6.27202910
_cell_length_c   9.20902728
_cell_angle_alpha   90.00000000
_cell_angle_beta   90.00000000
_cell_angle_gamma   90.00000000
_symmetry_Int_Tables_number   1
_chemical_formula_structural   ClF3
_chemical_formula_sum   'Cl4 F12'
_cell_volume   271.39960673
_cell_formula_units_Z   4
loop_
 _symmetry_equiv_pos_site_id
 _symmetry_equiv_pos_as_xyz
  1  'x, y, z'
loop_
 _atom_site_type_symbol
 _atom_site_label
 _atom_site_symmetry_multiplicity
 _atom_site_fract_x
 _atom_site_fract_y
 _atom_site_fract_z
 _atom_site_occupancy
  Cl  Cl0  1  0.62625439  0.75000000  0.84394096  1
  Cl  Cl1  1  0.37374561  0.25000000  0.15605904  1
  Cl  Cl2  1  0.87374561  0.75000000  0.34394096  1
  Cl  Cl3  1  0.12625439  0.25000000  0.65605904  1
  F  F4  1  0.89634330  0.75000000  0.95588748  1
  F  F5  1  0.36420664  0.97139026  0.15181296  1
  F  F6  1  0.13579336  0.97139026  0.65181296  1
  F  F7  1  0.60365670  0.75000000  0.45588748  1
  F  F8  1  0.13579336  0.52860974  0.65181296  1
  F  F9  1  0.10365670  0.25000000  0.04411252  1
  F  F10  1  0.36420664  0.52860974  0.15181296  1
  F  F11  1  0.63579336  0.47139026  0.84818704  1
  F  F12  1  0.86420664  0.47139026  0.34818704  1
  F  F13  1  0.63579336  0.02860974  0.84818704  1
  F  F14  1  0.86420664  0.02860974  0.34818704  1
  F  F15  1  0.39634330  0.25000000  0.54411252  1
