# generated using pymatgen
data_K2Cu3(AsO3)4
_symmetry_space_group_name_H-M   'P 1'
_cell_length_a   5.44857624
_cell_length_b   5.97887259
_cell_length_c   11.20775090
_cell_angle_alpha   78.96945414
_cell_angle_beta   75.95202115
_cell_angle_gamma   62.87077243
_symmetry_Int_Tables_number   1
_chemical_formula_structural   K2Cu3(AsO3)4
_chemical_formula_sum   'K2 Cu3 As4 O12'
_cell_volume   313.84232713
_cell_formula_units_Z   1
loop_
 _symmetry_equiv_pos_site_id
 _symmetry_equiv_pos_as_xyz
  1  'x, y, z'
loop_
 _atom_site_type_symbol
 _atom_site_label
 _atom_site_symmetry_multiplicity
 _atom_site_fract_x
 _atom_site_fract_y
 _atom_site_fract_z
 _atom_site_occupancy
  K  K0  1  0.36178170  0.85221812  0.42428769  1
  K  K1  1  0.63821830  0.14778188  0.57571231  1
  Cu  Cu2  1  0.23594767  0.76767791  0.75954378  1
  Cu  Cu3  1  0.00000000  0.00000000  0.00000000  1
  Cu  Cu4  1  0.76405233  0.23232209  0.24045622  1
  As  As5  1  0.08329420  0.52737546  0.30694226  1
  As  As6  1  0.91670580  0.47262454  0.69305774  1
  As  As7  1  0.32864687  0.29826414  0.04487678  1
  As  As8  1  0.67135313  0.70173586  0.95512322  1
  O  O9  1  0.89065980  0.35361293  0.35302352  1
  O  O10  1  0.88241877  0.87121791  0.88432232  1
  O  O11  1  0.40367800  0.35340818  0.35306026  1
  O  O12  1  0.14540662  0.56858051  0.14108598  1
  O  O13  1  0.10934020  0.64638707  0.64697648  1
  O  O14  1  0.91256041  0.81818858  0.35735753  1
  O  O15  1  0.59632200  0.64659182  0.64693974  1
  O  O16  1  0.63835631  0.12864395  0.11579594  1
  O  O17  1  0.11758123  0.12878209  0.11567768  1
  O  O18  1  0.36164369  0.87135605  0.88420406  1
  O  O19  1  0.08743959  0.18181142  0.64264247  1
  O  O20  1  0.85459338  0.43141949  0.85891402  1
