# generated using pymatgen
data_Ba3Sc(BO2)9
_symmetry_space_group_name_H-M   'P 1'
_cell_length_a   7.24018726
_cell_length_b   7.24018701
_cell_length_c   16.91403357
_cell_angle_alpha   90.00000000
_cell_angle_beta   90.00000000
_cell_angle_gamma   120.00000116
_symmetry_Int_Tables_number   1
_chemical_formula_structural   Ba3Sc(BO2)9
_chemical_formula_sum   'Ba6 Sc2 B18 O36'
_cell_volume   767.85178404
_cell_formula_units_Z   2
loop_
 _symmetry_equiv_pos_site_id
 _symmetry_equiv_pos_as_xyz
  1  'x, y, z'
loop_
 _atom_site_type_symbol
 _atom_site_label
 _atom_site_symmetry_multiplicity
 _atom_site_fract_x
 _atom_site_fract_y
 _atom_site_fract_z
 _atom_site_occupancy
  Ba  Ba0  1  0.66666700  0.33333300  0.62860457  1
  Ba  Ba1  1  0.33333300  0.66666700  0.12860457  1
  Ba  Ba2  1  0.00000000  0.00000000  0.25000000  1
  Ba  Ba3  1  0.66666700  0.33333300  0.87139543  1
  Ba  Ba4  1  0.33333300  0.66666700  0.37139543  1
  Ba  Ba5  1  0.00000000  0.00000000  0.75000000  1
  Sc  Sc6  1  0.00000000  0.00000000  0.50000000  1
  Sc  Sc7  1  0.00000000  0.00000000  0.00000000  1
  B  B8  1  0.50416415  0.88421765  0.75000000  1
  B  B9  1  0.44504706  0.27395600  0.07854145  1
  B  B10  1  0.17109106  0.44504706  0.92145855  1
  B  B11  1  0.38005350  0.49583585  0.75000000  1
  B  B12  1  0.82890894  0.55495294  0.07854145  1
  B  B13  1  0.11578235  0.61994650  0.75000000  1
  B  B14  1  0.55495294  0.72604400  0.57854145  1
  B  B15  1  0.55495294  0.72604400  0.92145855  1
  B  B16  1  0.82890894  0.55495294  0.42145855  1
  B  B17  1  0.88421765  0.38005350  0.25000000  1
  B  B18  1  0.61994650  0.50416415  0.25000000  1
  B  B19  1  0.44504706  0.27395600  0.42145855  1
  B  B20  1  0.72604400  0.17109106  0.07854145  1
  B  B21  1  0.17109106  0.44504706  0.57854145  1
  B  B22  1  0.72604400  0.17109106  0.42145855  1
  B  B23  1  0.27395600  0.82890894  0.57854145  1
  B  B24  1  0.49583585  0.11578235  0.25000000  1
  B  B25  1  0.27395600  0.82890894  0.92145855  1
  O  O26  1  0.60994832  0.49018311  0.07906195  1
  O  O27  1  0.22666978  0.98459411  0.92309212  1
  O  O28  1  0.11976521  0.60994832  0.92093805  1
  O  O29  1  0.83234075  0.54330518  0.25000000  1
  O  O30  1  0.54330518  0.71096442  0.75000000  1
  O  O31  1  0.49018311  0.88023479  0.57906195  1
  O  O32  1  0.88023479  0.39005168  0.42093805  1
  O  O33  1  0.91685948  0.58346038  0.75000000  1
  O  O34  1  0.01540589  0.24207568  0.57690788  1
  O  O35  1  0.58346038  0.66660091  0.25000000  1
  O  O36  1  0.41653962  0.33339909  0.75000000  1
  O  O37  1  0.98459411  0.75792432  0.42309212  1
  O  O38  1  0.50981689  0.11976521  0.07906195  1
  O  O39  1  0.33339909  0.91685948  0.25000000  1
  O  O40  1  0.88023479  0.39005168  0.07906195  1
  O  O41  1  0.75792432  0.77333022  0.92309212  1
  O  O42  1  0.71096442  0.16765925  0.25000000  1
  O  O43  1  0.60994832  0.49018311  0.42093805  1
  O  O44  1  0.08314052  0.41653962  0.25000000  1
  O  O45  1  0.45669482  0.28903558  0.25000000  1
  O  O46  1  0.50981689  0.11976521  0.42093805  1
  O  O47  1  0.98459411  0.75792432  0.07690788  1
  O  O48  1  0.77333022  0.01540589  0.42309212  1
  O  O49  1  0.39005168  0.50981689  0.92093805  1
  O  O50  1  0.01540589  0.24207568  0.92309212  1
  O  O51  1  0.75792432  0.77333022  0.57690788  1
  O  O52  1  0.24207568  0.22666978  0.42309212  1
  O  O53  1  0.77333022  0.01540589  0.07690788  1
  O  O54  1  0.28903558  0.83234075  0.75000000  1
  O  O55  1  0.49018311  0.88023479  0.92093805  1
  O  O56  1  0.16765925  0.45669482  0.75000000  1
  O  O57  1  0.39005168  0.50981689  0.57906195  1
  O  O58  1  0.24207568  0.22666978  0.07690788  1
  O  O59  1  0.11976521  0.60994832  0.57906195  1
  O  O60  1  0.66660091  0.08314052  0.75000000  1
  O  O61  1  0.22666978  0.98459411  0.57690788  1
