# generated using pymatgen
data_AgBi2S3Cl
_symmetry_space_group_name_H-M   'P 1'
_cell_length_a   4.02846261
_cell_length_b   7.85124215
_cell_length_c   10.91463800
_cell_angle_alpha   102.88083976
_cell_angle_beta   90.00000000
_cell_angle_gamma   90.00000000
_symmetry_Int_Tables_number   1
_chemical_formula_structural   AgBi2S3Cl
_chemical_formula_sum   'Ag2 Bi4 S6 Cl2'
_cell_volume   336.52591507
_cell_formula_units_Z   2
loop_
 _symmetry_equiv_pos_site_id
 _symmetry_equiv_pos_as_xyz
  1  'x, y, z'
loop_
 _atom_site_type_symbol
 _atom_site_label
 _atom_site_symmetry_multiplicity
 _atom_site_fract_x
 _atom_site_fract_y
 _atom_site_fract_z
 _atom_site_occupancy
  Ag  Ag0  1  0.25000000  0.05885594  0.40631017  1
  Ag  Ag1  1  0.75000000  0.94114406  0.59368983  1
  Bi  Bi2  1  0.25000000  0.54082382  0.34589377  1
  Bi  Bi3  1  0.75000000  0.45917618  0.65410623  1
  Bi  Bi4  1  0.75000000  0.81299631  0.07288672  1
  Bi  Bi5  1  0.25000000  0.18700369  0.92711328  1
  S  S6  1  0.25000000  0.04049213  0.14583467  1
  S  S7  1  0.75000000  0.31775336  0.41359031  1
  S  S8  1  0.25000000  0.68224664  0.58640969  1
  S  S9  1  0.75000000  0.95950787  0.85416533  1
  S  S10  1  0.75000000  0.80004678  0.33819049  1
  S  S11  1  0.25000000  0.19995322  0.66180951  1
  Cl  Cl12  1  0.25000000  0.59569711  0.89794400  1
  Cl  Cl13  1  0.75000000  0.40430289  0.10205600  1
