# generated using pymatgen
data_NaMo2(PO4)3
_symmetry_space_group_name_H-M   'P 1'
_cell_length_a   9.06579579
_cell_length_b   9.06579473
_cell_length_c   9.06579455
_cell_angle_alpha   58.22501103
_cell_angle_beta   58.22501522
_cell_angle_gamma   58.22501118
_symmetry_Int_Tables_number   1
_chemical_formula_structural   NaMo2(PO4)3
_chemical_formula_sum   'Na2 Mo4 P6 O24'
_cell_volume   505.44319049
_cell_formula_units_Z   2
loop_
 _symmetry_equiv_pos_site_id
 _symmetry_equiv_pos_as_xyz
  1  'x, y, z'
loop_
 _atom_site_type_symbol
 _atom_site_label
 _atom_site_symmetry_multiplicity
 _atom_site_fract_x
 _atom_site_fract_y
 _atom_site_fract_z
 _atom_site_occupancy
  Na  Na0  1  0.00000000  0.00000000  0.00000000  1
  Na  Na1  1  0.50000000  0.50000000  0.50000000  1
  Mo  Mo2  1  0.14433931  0.14433931  0.14433931  1
  Mo  Mo3  1  0.35566069  0.35566069  0.35566069  1
  Mo  Mo4  1  0.85566069  0.85566069  0.85566069  1
  Mo  Mo5  1  0.64433931  0.64433931  0.64433931  1
  P  P6  1  0.53940015  0.25000000  0.96059985  1
  P  P7  1  0.96059985  0.53940015  0.25000000  1
  P  P8  1  0.25000000  0.96059985  0.53940015  1
  P  P9  1  0.46059985  0.75000000  0.03940015  1
  P  P10  1  0.03940015  0.46059985  0.75000000  1
  P  P11  1  0.75000000  0.03940015  0.46059985  1
  O  O12  1  0.27934186  0.91742688  0.06215411  1
  O  O13  1  0.06215411  0.27934186  0.91742688  1
  O  O14  1  0.91742688  0.06215411  0.27934186  1
  O  O15  1  0.58257312  0.22065814  0.43784589  1
  O  O16  1  0.43784589  0.58257312  0.22065814  1
  O  O17  1  0.22065814  0.43784589  0.58257312  1
  O  O18  1  0.72065814  0.08257312  0.93784589  1
  O  O19  1  0.93784589  0.72065814  0.08257312  1
  O  O20  1  0.08257312  0.93784589  0.72065814  1
  O  O21  1  0.41742688  0.77934186  0.56215411  1
  O  O22  1  0.56215411  0.41742688  0.77934186  1
  O  O23  1  0.77934186  0.56215411  0.41742688  1
  O  O24  1  0.21215951  0.99094779  0.37709987  1
  O  O25  1  0.37709987  0.21215951  0.99094779  1
  O  O26  1  0.99094779  0.37709987  0.21215951  1
  O  O27  1  0.50905221  0.28784049  0.12290013  1
  O  O28  1  0.12290013  0.50905221  0.28784049  1
  O  O29  1  0.28784049  0.12290013  0.50905221  1
  O  O30  1  0.78784049  0.00905221  0.62290013  1
  O  O31  1  0.62290013  0.78784049  0.00905221  1
  O  O32  1  0.00905221  0.62290013  0.78784049  1
  O  O33  1  0.49094779  0.71215951  0.87709987  1
  O  O34  1  0.87709987  0.49094779  0.71215951  1
  O  O35  1  0.71215951  0.87709987  0.49094779  1
