# generated using pymatgen
data_Cu3Se2(ClO3)2
_symmetry_space_group_name_H-M   'P 1'
_cell_length_a   6.17100781
_cell_length_b   8.05440633
_cell_length_c   8.67900849
_cell_angle_alpha   91.08256128
_cell_angle_beta   94.85878241
_cell_angle_gamma   91.84454225
_symmetry_Int_Tables_number   1
_chemical_formula_structural   Cu3Se2(ClO3)2
_chemical_formula_sum   'Cu6 Se4 Cl4 O12'
_cell_volume   429.50560853
_cell_formula_units_Z   2
loop_
 _symmetry_equiv_pos_site_id
 _symmetry_equiv_pos_as_xyz
  1  'x, y, z'
loop_
 _atom_site_type_symbol
 _atom_site_label
 _atom_site_symmetry_multiplicity
 _atom_site_fract_x
 _atom_site_fract_y
 _atom_site_fract_z
 _atom_site_occupancy
  Cu  Cu0  1  0.60569651  0.82213807  0.92482876  1
  Cu  Cu1  1  0.90226891  0.59712643  0.12880181  1
  Cu  Cu2  1  0.39430349  0.17786193  0.07517124  1
  Cu  Cu3  1  0.69492386  0.40290672  0.43193233  1
  Cu  Cu4  1  0.09773109  0.40287357  0.87119819  1
  Cu  Cu5  1  0.30507614  0.59709328  0.56806767  1
  Se  Se6  1  0.10087504  0.81838617  0.82117447  1
  Se  Se7  1  0.89912496  0.18161383  0.17882553  1
  Se  Se8  1  0.38090507  0.69755639  0.22421679  1
  Se  Se9  1  0.61909493  0.30244361  0.77578321  1
  Cl  Cl10  1  0.96570967  0.27256539  0.56658460  1
  Cl  Cl11  1  0.03429033  0.72743461  0.43341540  1
  Cl  Cl12  1  0.58747315  0.87540514  0.67521590  1
  Cl  Cl13  1  0.41252685  0.12459486  0.32478410  1
  O  O14  1  0.31336989  0.88283273  0.95564087  1
  O  O15  1  0.52848496  0.42814638  0.61729241  1
  O  O16  1  0.20826492  0.55564078  0.11996705  1
  O  O17  1  0.68663011  0.11716727  0.04435913  1
  O  O18  1  0.82216921  0.38395822  0.23152153  1
  O  O19  1  0.08609521  0.22179193  0.04020162  1
  O  O20  1  0.47151504  0.57185362  0.38270759  1
  O  O21  1  0.61547694  0.69074206  0.11859504  1
  O  O22  1  0.79173508  0.44435922  0.88003295  1
  O  O23  1  0.17783079  0.61604178  0.76847847  1
  O  O24  1  0.38452306  0.30925794  0.88140496  1
  O  O25  1  0.91390479  0.77820807  0.95979838  1
