# generated using pymatgen
data_Ba9Sc2(SiO4)6
_symmetry_space_group_name_H-M   'P 1'
_cell_length_a   9.39499586
_cell_length_b   9.39499598
_cell_length_c   9.39499563
_cell_angle_alpha   64.30745493
_cell_angle_beta   64.30745457
_cell_angle_gamma   64.30745537
_symmetry_Int_Tables_number   1
_chemical_formula_structural   Ba9Sc2(SiO4)6
_chemical_formula_sum   'Ba9 Sc2 Si6 O24'
_cell_volume   641.85880544
_cell_formula_units_Z   1
loop_
 _symmetry_equiv_pos_site_id
 _symmetry_equiv_pos_as_xyz
  1  'x, y, z'
loop_
 _atom_site_type_symbol
 _atom_site_label
 _atom_site_symmetry_multiplicity
 _atom_site_fract_x
 _atom_site_fract_y
 _atom_site_fract_z
 _atom_site_occupancy
  Ba  Ba0  1  0.43738076  0.13598690  0.75245140  1
  Ba  Ba1  1  0.33657407  0.33657407  0.33657407  1
  Ba  Ba2  1  0.24754860  0.56261924  0.86401310  1
  Ba  Ba3  1  0.13598690  0.75245140  0.43738076  1
  Ba  Ba4  1  0.00000000  0.00000000  0.00000000  1
  Ba  Ba5  1  0.86401310  0.24754860  0.56261924  1
  Ba  Ba6  1  0.56261924  0.86401310  0.24754860  1
  Ba  Ba7  1  0.66342593  0.66342593  0.66342593  1
  Ba  Ba8  1  0.75245140  0.43738076  0.13598690  1
  Sc  Sc9  1  0.16478894  0.16478894  0.16478894  1
  Sc  Sc10  1  0.83521106  0.83521106  0.83521106  1
  Si  Si11  1  0.58480495  0.23639055  0.94969472  1
  Si  Si12  1  0.94969472  0.58480495  0.23639055  1
  Si  Si13  1  0.23639055  0.94969472  0.58480495  1
  Si  Si14  1  0.05030528  0.41519505  0.76360945  1
  Si  Si15  1  0.76360945  0.05030528  0.41519505  1
  Si  Si16  1  0.41519505  0.76360945  0.05030528  1
  O  O17  1  0.63607041  0.27396694  0.07067779  1
  O  O18  1  0.09568301  0.28277293  0.93918001  1
  O  O19  1  0.90431699  0.71722707  0.06081999  1
  O  O20  1  0.07067779  0.63607041  0.27396694  1
  O  O21  1  0.22717401  0.43122488  0.62058974  1
  O  O22  1  0.62058974  0.22717401  0.43122488  1
  O  O23  1  0.28277293  0.93918001  0.09568301  1
  O  O24  1  0.93918001  0.09568301  0.28277293  1
  O  O25  1  0.36392959  0.72603306  0.92932221  1
  O  O26  1  0.94895930  0.60424170  0.79040873  1
  O  O27  1  0.05104070  0.39575830  0.20959127  1
  O  O28  1  0.43122488  0.62058974  0.22717401  1
  O  O29  1  0.60424170  0.79040873  0.94895930  1
  O  O30  1  0.72603306  0.92932221  0.36392959  1
  O  O31  1  0.20959127  0.05104070  0.39575830  1
  O  O32  1  0.37941026  0.77282599  0.56877512  1
  O  O33  1  0.92932221  0.36392959  0.72603306  1
  O  O34  1  0.56877512  0.37941026  0.77282599  1
  O  O35  1  0.39575830  0.20959127  0.05104070  1
  O  O36  1  0.06081999  0.90431699  0.71722707  1
  O  O37  1  0.27396694  0.07067779  0.63607041  1
  O  O38  1  0.77282599  0.56877512  0.37941026  1
  O  O39  1  0.71722707  0.06081999  0.90431699  1
  O  O40  1  0.79040873  0.94895930  0.60424170  1
