# generated using pymatgen
data_NaAsH4O5
_symmetry_space_group_name_H-M   'P 1'
_cell_length_a   5.31001672
_cell_length_b   8.59267295
_cell_length_c   10.53027610
_cell_angle_alpha   90.00000000
_cell_angle_beta   90.00000000
_cell_angle_gamma   89.99637841
_symmetry_Int_Tables_number   1
_chemical_formula_structural   NaAsH4O5
_chemical_formula_sum   'Na4 As4 H16 O20'
_cell_volume   480.46740284
_cell_formula_units_Z   4
loop_
 _symmetry_equiv_pos_site_id
 _symmetry_equiv_pos_as_xyz
  1  'x, y, z'
loop_
 _atom_site_type_symbol
 _atom_site_label
 _atom_site_symmetry_multiplicity
 _atom_site_fract_x
 _atom_site_fract_y
 _atom_site_fract_z
 _atom_site_occupancy
  Na  Na0  1  0.67391559  0.59253103  0.15501345  1
  Na  Na1  1  0.82618355  0.09313205  0.84145527  1
  Na  Na2  1  0.17381645  0.90686795  0.34145527  1
  Na  Na3  1  0.32608441  0.40746897  0.65501345  1
  As  As4  1  0.33218377  0.19436930  0.09047820  1
  As  As5  1  0.16830093  0.69473748  0.90740519  1
  As  As6  1  0.66781623  0.80563070  0.59047820  1
  As  As7  1  0.83169907  0.30526252  0.40740519  1
  H  H8  1  0.21182932  0.48900123  0.04517416  1
  H  H9  1  0.71178832  0.01064160  0.45211451  1
  H  H10  1  0.69591253  0.94509914  0.19896173  1
  H  H11  1  0.43706756  0.23270020  0.35354529  1
  H  H12  1  0.89200491  0.88171351  0.10074533  1
  H  H13  1  0.60600842  0.38181983  0.89630752  1
  H  H14  1  0.28821168  0.98935840  0.95211451  1
  H  H15  1  0.10799509  0.11828649  0.60074533  1
  H  H16  1  0.80233616  0.44576326  0.79837269  1
  H  H17  1  0.39399158  0.61818017  0.39630752  1
  H  H18  1  0.06225440  0.73370051  0.64582687  1
  H  H19  1  0.56293244  0.76729980  0.85354529  1
  H  H20  1  0.93774560  0.26629949  0.14582687  1
  H  H21  1  0.30408747  0.05490086  0.69896173  1
  H  H22  1  0.78817068  0.51099877  0.54517416  1
  H  H23  1  0.19766384  0.55423674  0.29837269  1
  O  O24  1  0.92111663  0.42405235  0.53523088  1
  O  O25  1  0.42250526  0.11023727  0.22874766  1
  O  O26  1  -0.00021715  0.19591330  0.07473608  1
  O  O27  1  0.42102319  0.07620643  0.96211061  1
  O  O28  1  0.82196611  0.86298962  0.18630581  1
  O  O29  1  0.67617373  0.36365704  0.81071540  1
  O  O30  1  0.49941620  0.30273409  0.42459187  1
  O  O31  1  0.05762136  0.87592972  0.93875024  1
  O  O32  1  0.44143495  0.37577166  0.05860303  1
  O  O33  1  0.00021715  0.80408670  0.57473608  1
  O  O34  1  0.94237864  0.12407028  0.43875024  1
  O  O35  1  0.17803389  0.13701038  0.68630581  1
  O  O36  1  0.07888337  0.57594765  0.03523088  1
  O  O37  1  0.08020296  0.61058861  0.76881024  1
  O  O38  1  0.50058380  0.69726591  0.92459187  1
  O  O39  1  0.91979704  0.38941139  0.26881024  1
  O  O40  1  0.32382627  0.63634296  0.31071540  1
  O  O41  1  0.57897681  0.92379357  0.46211061  1
  O  O42  1  0.55856505  0.62422834  0.55860303  1
  O  O43  1  0.57749474  0.88976273  0.72874766  1
