# generated using pymatgen
data_TlSb3(AsS4)2
_symmetry_space_group_name_H-M   'P 1'
_cell_length_a   8.32894563
_cell_length_b   8.93584322
_cell_length_c   39.39363253
_cell_angle_alpha   90.00000000
_cell_angle_beta   90.00000000
_cell_angle_gamma   90.00000000
_symmetry_Int_Tables_number   1
_chemical_formula_structural   TlSb3(AsS4)2
_chemical_formula_sum   'Tl8 Sb24 As16 S64'
_cell_volume   2931.91649581
_cell_formula_units_Z   8
loop_
 _symmetry_equiv_pos_site_id
 _symmetry_equiv_pos_as_xyz
  1  'x, y, z'
loop_
 _atom_site_type_symbol
 _atom_site_label
 _atom_site_symmetry_multiplicity
 _atom_site_fract_x
 _atom_site_fract_y
 _atom_site_fract_z
 _atom_site_occupancy
  Tl  Tl0  1  0.44203678  -0.00238639  0.53120088  1
  Tl  Tl1  1  0.94203678  0.49761361  0.96879912  1
  Tl  Tl2  1  0.36305410  0.25413836  0.71882134  1
  Tl  Tl3  1  0.36305410  0.24586164  0.21882134  1
  Tl  Tl4  1  0.86305410  0.74586164  0.28117866  1
  Tl  Tl5  1  0.94203678  1.00238639  0.46879912  1
  Tl  Tl6  1  0.44203678  0.50238639  0.03120088  1
  Tl  Tl7  1  0.86305410  0.75413836  0.78117866  1
  Sb  Sb8  1  0.94443363  0.20303368  0.57049488  1
  Sb  Sb9  1  0.46639099  0.55205178  0.51155559  1
  Sb  Sb10  1  0.87201448  0.76569466  0.06271719  1
  Sb  Sb11  1  0.13732048  0.19432677  0.86031702  1
  Sb  Sb12  1  0.93875389  0.51769865  0.17719296  1
  Sb  Sb13  1  0.13732048  0.30567323  0.36031702  1
  Sb  Sb14  1  0.96639099  0.44794822  0.48844441  1
  Sb  Sb15  1  0.94443363  0.29696632  0.07049488  1
  Sb  Sb16  1  0.63732048  0.80567323  0.13968298  1
  Sb  Sb17  1  0.44443363  0.70303368  0.92950512  1
  Sb  Sb18  1  0.33707384  0.69537493  0.22764905  1
  Sb  Sb19  1  0.46639099  0.94794822  0.01155559  1
  Sb  Sb20  1  0.33707384  0.80462507  0.72764905  1
  Sb  Sb21  1  0.83707384  0.19537493  0.27235095  1
  Sb  Sb22  1  0.63732048  0.69432677  0.63968298  1
  Sb  Sb23  1  0.87201448  0.73430534  0.56271719  1
  Sb  Sb24  1  0.37201448  0.26569466  0.43728281  1
  Sb  Sb25  1  0.83707384  0.30462507  0.77235095  1
  Sb  Sb26  1  0.44443363  0.79696632  0.42950512  1
  Sb  Sb27  1  0.37201448  0.23430534  0.93728281  1
  Sb  Sb28  1  0.43875389  0.48230135  0.82280704  1
  Sb  Sb29  1  0.96639099  0.05205178  0.98844441  1
  Sb  Sb30  1  0.93875389  0.98230135  0.67719296  1
  Sb  Sb31  1  0.43875389  0.01769865  0.32280704  1
  As  As32  1  0.09912875  0.76902515  0.87182449  1
  As  As33  1  0.77171360  0.45884699  0.87426787  1
  As  As34  1  0.78305279  0.48642649  0.39064171  1
  As  As35  1  0.28305279  0.98642649  0.10935829  1
  As  As36  1  0.93904127  0.03141930  0.19212180  1
  As  As37  1  0.93904127  0.46858070  0.69212180  1
  As  As38  1  0.59912875  0.26902515  0.62817551  1
  As  As39  1  0.59912875  0.23097485  0.12817551  1
  As  As40  1  0.09912875  0.73097485  0.37182449  1
  As  As41  1  0.78305279  0.01357351  0.89064171  1
  As  As42  1  0.77171360  0.04115301  0.37426787  1
  As  As43  1  0.27171360  0.95884699  0.62573213  1
  As  As44  1  0.43904127  0.53141930  0.30787820  1
  As  As45  1  0.28305279  0.51357351  0.60935829  1
  As  As46  1  0.27171360  0.54115301  0.12573213  1
  As  As47  1  0.43904127  0.96858070  0.80787820  1
  S  S48  1  0.54648507  0.97613029  0.75228745  1
  S  S49  1  0.07463379  0.54546275  0.54510803  1
  S  S50  1  0.09661494  0.97151567  0.73170211  1
  S  S51  1  0.09661494  0.52848433  0.23170211  1
  S  S52  1  0.71533351  0.77516750  0.00753210  1
  S  S53  1  0.54648507  0.52386971  0.25228745  1
  S  S54  1  0.96403044  0.43351047  0.83132587  1
  S  S55  1  0.04648507  0.02386971  0.24771255  1
  S  S56  1  0.78488056  0.23600391  0.01748131  1
  S  S57  1  0.42776302  0.69825204  0.58428712  1
  S  S58  1  0.58780753  0.28407773  0.85736031  1
  S  S59  1  0.12726040  0.33989919  0.14777952  1
  S  S60  1  0.28488056  0.73600391  0.48251869  1
  S  S61  1  0.42776302  0.80174796  0.08428712  1
  S  S62  1  0.29178093  0.55931323  0.38403331  1
  S  S63  1  0.41050770  0.19480483  0.08556967  1
  S  S64  1  0.42546996  0.51993180  0.66064468  1
  S  S65  1  0.22135846  0.56747676  0.90123840  1
  S  S66  1  0.79178093  0.44068677  0.61596669  1
  S  S67  1  0.58780753  0.21592227  0.35736031  1
  S  S68  1  0.77294084  0.82894136  0.20023070  1
  S  S69  1  0.46403044  0.56648953  0.16867413  1
  S  S70  1  0.07463379  0.95453725  0.04510803  1
  S  S71  1  0.27294084  0.32894136  0.29976930  1
  S  S72  1  0.79178093  0.05931323  0.11596669  1
  S  S73  1  0.04602608  0.54971358  0.04658615  1
  S  S74  1  0.28029216  0.76806525  0.79542597  1
  S  S75  1  0.72135846  0.43252324  0.09876160  1
  S  S76  1  0.92546996  0.01993180  0.83935532  1
  S  S77  1  0.71533351  0.72483250  0.50753210  1
  S  S78  1  0.77294084  0.67105864  0.70023070  1
  S  S79  1  0.54602608  0.04971358  0.45341385  1
  S  S80  1  0.41050770  0.30519517  0.58556967  1
  S  S81  1  0.42546996  0.98006820  0.16064468  1
  S  S82  1  0.46403044  0.93351047  0.66867413  1
  S  S83  1  0.27294084  0.17105864  0.79976930  1
  S  S84  1  0.04602608  0.95028642  0.54658615  1
  S  S85  1  0.92776302  0.30174796  0.41571288  1
  S  S86  1  0.28488056  0.76399609  0.98251869  1
  S  S87  1  0.59661494  0.47151567  0.76829789  1
  S  S88  1  0.57463379  0.04546275  0.95489197  1
  S  S89  1  0.78488056  0.26399609  0.51748131  1
  S  S90  1  0.54602608  0.45028642  0.95341385  1
  S  S91  1  0.04648507  0.47613029  0.74771255  1
  S  S92  1  0.28029216  0.73193475  0.29542597  1
  S  S93  1  0.72135846  0.06747676  0.59876160  1
  S  S94  1  0.62726040  0.66010081  0.85222048  1
  S  S95  1  0.59661494  0.02848433  0.26829789  1
  S  S96  1  0.12726040  0.16010081  0.64777952  1
  S  S97  1  0.62726040  0.83989919  0.35222048  1
  S  S98  1  0.91050770  0.80519517  0.91443033  1
  S  S99  1  0.57463379  0.45453725  0.45489197  1
  S  S100  1  0.21533351  0.27516750  0.49246790  1
  S  S101  1  0.78029216  0.23193475  0.20457403  1
  S  S102  1  0.08780753  0.71592227  0.14263969  1
  S  S103  1  0.91050770  0.69480483  0.41443033  1
  S  S104  1  0.29178093  0.94068677  0.88403331  1
  S  S105  1  0.08780753  0.78407773  0.64263969  1
  S  S106  1  0.92776302  0.19825204  0.91571288  1
  S  S107  1  0.22135846  0.93252324  0.40123840  1
  S  S108  1  0.78029216  0.26806525  0.70457403  1
  S  S109  1  0.92546996  0.48006820  0.33935532  1
  S  S110  1  0.96403044  0.06648953  0.33132587  1
  S  S111  1  0.21533351  0.22483250  0.99246790  1
