# generated using pymatgen
data_Na2CrCuF7
_symmetry_space_group_name_H-M   'P 1'
_cell_length_a   7.28463486
_cell_length_b   7.64456433
_cell_length_c   10.36487853
_cell_angle_alpha   90.00000000
_cell_angle_beta   90.00000000
_cell_angle_gamma   90.00000000
_symmetry_Int_Tables_number   1
_chemical_formula_structural   Na2CrCuF7
_chemical_formula_sum   'Na8 Cr4 Cu4 F28'
_cell_volume   577.19790250
_cell_formula_units_Z   4
loop_
 _symmetry_equiv_pos_site_id
 _symmetry_equiv_pos_as_xyz
  1  'x, y, z'
loop_
 _atom_site_type_symbol
 _atom_site_label
 _atom_site_symmetry_multiplicity
 _atom_site_fract_x
 _atom_site_fract_y
 _atom_site_fract_z
 _atom_site_occupancy
  Na  Na0  1  0.00000000  0.50000000  0.00000000  1
  Na  Na1  1  0.50000000  0.50000000  0.00000000  1
  Na  Na2  1  -0.00000000  0.00000000  0.50000000  1
  Na  Na3  1  0.50000000  0.00000000  0.50000000  1
  Na  Na4  1  0.25000000  0.22484867  0.75458122  1
  Na  Na5  1  0.25000000  0.27515133  0.25458122  1
  Na  Na6  1  0.75000000  0.72484867  0.74541878  1
  Na  Na7  1  0.75000000  0.77515133  0.24541878  1
  Cr  Cr8  1  0.25000000  0.72322323  0.76104189  1
  Cr  Cr9  1  0.75000000  0.22322323  0.73895811  1
  Cr  Cr10  1  0.75000000  0.27677677  0.23895811  1
  Cr  Cr11  1  0.25000000  0.77677677  0.26104189  1
  Cu  Cu12  1  0.50000000  0.50000000  0.50000000  1
  Cu  Cu13  1  -0.00000000  0.50000000  0.50000000  1
  Cu  Cu14  1  0.50000000  0.00000000  0.00000000  1
  Cu  Cu15  1  0.00000000  0.00000000  0.00000000  1
  F  F16  1  0.54699335  0.27623018  0.62174082  1
  F  F17  1  0.04699335  0.72376982  0.37825918  1
  F  F18  1  0.45300665  0.77623018  0.87825918  1
  F  F19  1  0.95300665  0.22376982  0.12174082  1
  F  F20  1  0.45300665  0.72376982  0.37825918  1
  F  F21  1  0.95300665  0.27623018  0.62174082  1
  F  F22  1  0.54699335  0.22376982  0.12174082  1
  F  F23  1  0.04699335  0.77623018  0.87825918  1
  F  F24  1  0.45387315  0.66026748  0.64640869  1
  F  F25  1  0.95387315  0.33973252  0.35359131  1
  F  F26  1  0.54612685  0.16026748  0.85359131  1
  F  F27  1  0.04612685  0.83973252  0.14640869  1
  F  F28  1  0.54612685  0.33973252  0.35359131  1
  F  F29  1  0.04612685  0.66026748  0.64640869  1
  F  F30  1  0.45387315  0.83973252  0.14640869  1
  F  F31  1  0.95387315  0.16026748  0.85359131  1
  F  F32  1  0.25000000  0.07829230  0.99150573  1
  F  F33  1  0.75000000  0.92170770  0.00849427  1
  F  F34  1  0.75000000  0.57829230  0.50849427  1
  F  F35  1  0.25000000  0.42170770  0.49150573  1
  F  F36  1  0.25000000  0.94988941  0.67158667  1
  F  F37  1  0.75000000  0.05011059  0.32841333  1
  F  F38  1  0.75000000  0.44988941  0.82841333  1
  F  F39  1  0.25000000  0.55011059  0.17158667  1
  F  F40  1  0.25000000  0.49297316  0.84724969  1
  F  F41  1  0.75000000  0.50702684  0.15275031  1
  F  F42  1  0.75000000  0.99297316  0.65275031  1
  F  F43  1  0.25000000  0.00702684  0.34724969  1
