# generated using pymatgen
data_Fe4O7F
_symmetry_space_group_name_H-M   'P 1'
_cell_length_a   4.64245415
_cell_length_b   7.58780410
_cell_length_c   7.57072282
_cell_angle_alpha   75.64486038
_cell_angle_beta   90.00000000
_cell_angle_gamma   90.00000000
_symmetry_Int_Tables_number   1
_chemical_formula_structural   Fe4O7F
_chemical_formula_sum   'Fe8 O14 F2'
_cell_volume   258.35992985
_cell_formula_units_Z   2
loop_
 _symmetry_equiv_pos_site_id
 _symmetry_equiv_pos_as_xyz
  1  'x, y, z'
loop_
 _atom_site_type_symbol
 _atom_site_label
 _atom_site_symmetry_multiplicity
 _atom_site_fract_x
 _atom_site_fract_y
 _atom_site_fract_z
 _atom_site_occupancy
  Fe  Fe0  1  0.48439158  0.13561529  0.62507347  1
  Fe  Fe1  1  0.52338943  0.38015489  0.86954013  1
  Fe  Fe2  1  0.48996552  0.87882496  0.36094797  1
  Fe  Fe3  1  0.50075664  0.61992147  0.12717821  1
  Fe  Fe4  1  0.02338943  0.74484511  0.75545987  1
  Fe  Fe5  1  0.00075664  0.50507853  0.49782179  1
  Fe  Fe6  1  0.98996552  0.24617504  0.26405203  1
  Fe  Fe7  1  0.98439158  0.98938471  0.99992653  1
  O  O8  1  0.80544610  0.77008583  0.96146681  1
  O  O9  1  0.80172785  0.28383224  0.48105424  1
  O  O10  1  0.81618370  0.53788601  0.71590545  1
  O  O11  1  0.80858249  0.02819005  0.22164804  1
  O  O12  1  0.69314779  0.15584538  0.84961507  1
  O  O13  1  0.69250340  0.39871633  0.09749507  1
  O  O14  1  0.68793116  0.65591248  0.33915643  1
  O  O15  1  0.31618370  0.58711399  0.90909455  1
  O  O16  1  0.30544610  0.35491417  0.66353319  1
  O  O17  1  0.30172785  0.84116776  0.14394576  1
  O  O18  1  0.30858249  0.09680995  0.40335196  1
  O  O19  1  0.19250340  0.72628367  0.52750493  1
  O  O20  1  0.19314779  0.96915462  0.77538493  1
  O  O21  1  0.18793116  0.46908752  0.28584357  1
  F  F22  1  0.69597434  0.90584338  0.59427850  1
  F  F23  1  0.19597434  0.21915662  0.03072150  1
