# generated using pymatgen
data_Nb4Te9I4O
_symmetry_space_group_name_H-M   'P 1'
_cell_length_a   6.30845655
_cell_length_b   11.98197448
_cell_length_c   17.90153718
_cell_angle_alpha   86.30584547
_cell_angle_beta   79.85157402
_cell_angle_gamma   74.73713458
_symmetry_Int_Tables_number   1
_chemical_formula_structural   Nb4Te9I4O
_chemical_formula_sum   'Nb8 Te18 I8 O2'
_cell_volume   1284.75396373
_cell_formula_units_Z   2
loop_
 _symmetry_equiv_pos_site_id
 _symmetry_equiv_pos_as_xyz
  1  'x, y, z'
loop_
 _atom_site_type_symbol
 _atom_site_label
 _atom_site_symmetry_multiplicity
 _atom_site_fract_x
 _atom_site_fract_y
 _atom_site_fract_z
 _atom_site_occupancy
  Nb  Nb0  1  0.99534043  0.76779618  0.35368297  1
  Nb  Nb1  1  0.11681957  0.73220382  0.14631703  1
  Nb  Nb2  1  0.88318043  0.26779618  0.85368297  1
  Nb  Nb3  1  0.21956170  0.91935206  0.23622848  1
  Nb  Nb4  1  0.62485776  0.41935206  0.73622848  1
  Nb  Nb5  1  0.78043830  0.08064794  0.76377152  1
  Nb  Nb6  1  0.37514224  0.58064794  0.26377152  1
  Nb  Nb7  1  0.00465957  0.23220382  0.64631703  1
  Te  Te8  1  0.93942500  0.98181812  0.12699450  1
  Te  Te9  1  0.62157497  0.12098333  0.92696362  1
  Te  Te10  1  0.47668868  0.43402422  0.90119394  1
  Te  Te11  1  0.06057500  0.01818188  0.87300550  1
  Te  Te12  1  0.33047808  0.62098333  0.42696362  1
  Te  Te13  1  0.37842503  0.87901667  0.07303638  1
  Te  Te14  1  0.30425170  0.25000000  0.75000000  1
  Te  Te15  1  0.52331132  0.56597578  0.09880606  1
  Te  Te16  1  0.69574830  0.75000000  0.25000000  1
  Te  Te17  1  0.95176239  0.48181812  0.62699450  1
  Te  Te18  1  0.81971956  0.01675887  0.33268351  1
  Te  Te19  1  0.16916195  0.48324113  0.16731649  1
  Te  Te20  1  0.66952192  0.37901667  0.57303638  1
  Te  Te21  1  0.18809316  0.93402422  0.40119394  1
  Te  Te22  1  0.18028044  0.98324113  0.66731649  1
  Te  Te23  1  0.83083805  0.51675887  0.83268351  1
  Te  Te24  1  0.81190684  0.06597578  0.59880606  1
  Te  Te25  1  0.04823761  0.51818188  0.37300550  1
  I  I26  1  0.66470995  0.78814216  0.48630181  1
  I  I27  1  0.93915393  0.71185784  0.01369819  1
  I  I28  1  0.60783065  0.88347448  0.78026850  1
  I  I29  1  0.06084607  0.28814216  0.98630181  1
  I  I30  1  0.33529005  0.21185784  0.51369819  1
  I  I31  1  0.72842637  0.38347448  0.28026850  1
  I  I32  1  0.39216935  0.11652552  0.21973150  1
  I  I33  1  0.27157363  0.61652552  0.71973150  1
  O  O34  1  0.24035237  0.75000000  0.25000000  1
  O  O35  1  0.75964763  0.25000000  0.75000000  1
