# generated using pymatgen
data_K3Sb7(SO3)3
_symmetry_space_group_name_H-M   'P 1'
_cell_length_a   14.60086196
_cell_length_b   14.60086182
_cell_length_c   5.72134595
_cell_angle_alpha   90.00000000
_cell_angle_beta   90.00000000
_cell_angle_gamma   120.00000032
_symmetry_Int_Tables_number   1
_chemical_formula_structural   K3Sb7(SO3)3
_chemical_formula_sum   'K6 Sb14 S6 O18'
_cell_volume   1056.29646166
_cell_formula_units_Z   2
loop_
 _symmetry_equiv_pos_site_id
 _symmetry_equiv_pos_as_xyz
  1  'x, y, z'
loop_
 _atom_site_type_symbol
 _atom_site_label
 _atom_site_symmetry_multiplicity
 _atom_site_fract_x
 _atom_site_fract_y
 _atom_site_fract_z
 _atom_site_occupancy
  K  K0  1  0.70485608  0.89666170  0.64007595  1
  K  K1  1  0.19180563  0.29514392  0.64007595  1
  K  K2  1  0.29514392  0.10333830  0.14007595  1
  K  K3  1  0.89666170  0.19180563  0.14007595  1
  K  K4  1  0.80819437  0.70485608  0.14007595  1
  K  K5  1  0.10333830  0.80819437  0.64007595  1
  Sb  Sb6  1  0.55416463  0.72008288  0.14629250  1
  Sb  Sb7  1  0.83408175  0.55416463  0.64629250  1
  Sb  Sb8  1  0.59956968  0.98540714  0.13581936  1
  Sb  Sb9  1  0.01459286  0.61416254  0.13581936  1
  Sb  Sb10  1  0.40043032  0.01459286  0.63581936  1
  Sb  Sb11  1  0.38583746  0.40043032  0.13581936  1
  Sb  Sb12  1  0.27991712  0.83408175  0.14629250  1
  Sb  Sb13  1  0.98540714  0.38583746  0.63581936  1
  Sb  Sb14  1  0.61416254  0.59956968  0.63581936  1
  Sb  Sb15  1  0.44583537  0.27991712  0.64629250  1
  Sb  Sb16  1  0.16591825  0.44583537  0.14629250  1
  Sb  Sb17  1  0.72008288  0.16591825  0.64629250  1
  Sb  Sb18  1  0.66666700  0.33333300  0.24611965  1
  Sb  Sb19  1  0.33333300  0.66666700  0.74611965  1
  S  S20  1  0.62682014  0.46225995  0.06944742  1
  S  S21  1  0.46225995  0.83543982  0.56944742  1
  S  S22  1  0.37317986  0.53774005  0.56944742  1
  S  S23  1  0.53774005  0.16456018  0.06944742  1
  S  S24  1  0.16456018  0.62682014  0.56944742  1
  S  S25  1  0.83543982  0.37317986  0.06944742  1
  O  O26  1  0.87707152  0.22732238  0.62722617  1
  O  O27  1  0.06317439  0.35780346  0.88965565  1
  O  O28  1  0.35025086  0.12292848  0.62722617  1
  O  O29  1  0.64974914  0.87707152  0.12722617  1
  O  O30  1  0.64841615  0.71285754  0.39047639  1
  O  O31  1  0.64219654  0.70537093  0.88965565  1
  O  O32  1  0.35780346  0.29462907  0.38965565  1
  O  O33  1  0.35158385  0.28714246  0.89047639  1
  O  O34  1  0.28714246  0.93555861  0.39047639  1
  O  O35  1  0.06444139  0.35158385  0.39047639  1
  O  O36  1  0.77267762  0.64974914  0.62722617  1
  O  O37  1  0.12292848  0.77267762  0.12722617  1
  O  O38  1  0.70537093  0.06317439  0.38965565  1
  O  O39  1  0.22732238  0.35025086  0.12722617  1
  O  O40  1  0.71285754  0.06444139  0.89047639  1
  O  O41  1  0.93682561  0.64219654  0.38965565  1
  O  O42  1  0.93555861  0.64841615  0.89047639  1
  O  O43  1  0.29462907  0.93682561  0.88965565  1
