# generated using pymatgen
data_KLiMnO2
_symmetry_space_group_name_H-M   'P 1'
_cell_length_a   3.48971090
_cell_length_b   5.86529441
_cell_length_c   7.68021180
_cell_angle_alpha   76.87505554
_cell_angle_beta   76.87201809
_cell_angle_gamma   72.70511523
_symmetry_Int_Tables_number   1
_chemical_formula_structural   KLiMnO2
_chemical_formula_sum   'K2 Li2 Mn2 O4'
_cell_volume   144.00190146
_cell_formula_units_Z   2
loop_
 _symmetry_equiv_pos_site_id
 _symmetry_equiv_pos_as_xyz
  1  'x, y, z'
loop_
 _atom_site_type_symbol
 _atom_site_label
 _atom_site_symmetry_multiplicity
 _atom_site_fract_x
 _atom_site_fract_y
 _atom_site_fract_z
 _atom_site_occupancy
  K  K0  1  0.16157221  0.31138121  0.36669702  1
  K  K1  1  0.83841964  0.68861603  0.63330086  1
  Li  Li2  1  0.33823821  0.37665540  0.94682871  1
  Li  Li3  1  0.66176337  0.62334545  0.05317041  1
  Mn  Mn4  1  0.95454063  0.90380374  0.18716159  1
  Mn  Mn5  1  0.04546303  0.09619774  0.81283889  1
  O  O6  1  0.53329687  0.24044232  0.69299032  1
  O  O7  1  0.16083520  0.73501104  0.94330887  1
  O  O8  1  0.83916609  0.26498894  0.05669234  1
  O  O9  1  0.46670476  0.75955614  0.30701099  1
