# generated using pymatgen
data_K2Nd(PO3)5
_symmetry_space_group_name_H-M   'P 1'
_cell_length_a   7.25722265
_cell_length_b   7.25722321
_cell_length_c   13.40959957
_cell_angle_alpha   90.40402407
_cell_angle_beta   90.40402410
_cell_angle_gamma   108.10139785
_symmetry_Int_Tables_number   1
_chemical_formula_structural   K2Nd(PO3)5
_chemical_formula_sum   'K4 Nd2 P10 O30'
_cell_volume   671.24529194
_cell_formula_units_Z   2
loop_
 _symmetry_equiv_pos_site_id
 _symmetry_equiv_pos_as_xyz
  1  'x, y, z'
loop_
 _atom_site_type_symbol
 _atom_site_label
 _atom_site_symmetry_multiplicity
 _atom_site_fract_x
 _atom_site_fract_y
 _atom_site_fract_z
 _atom_site_occupancy
  K  K0  1  0.44101104  0.20496642  0.94332329  1
  K  K1  1  0.29930397  0.68779003  0.74586118  1
  K  K2  1  0.20496642  0.44101104  0.44332329  1
  K  K3  1  0.68779003  0.29930397  0.24586118  1
  Nd  Nd4  1  0.90417178  0.09600827  0.74960475  1
  Nd  Nd5  1  0.09600827  0.90417178  0.24960475  1
  P  P6  1  0.39070415  0.99687119  0.49009726  1
  P  P7  1  0.61357179  0.76384625  0.94103200  1
  P  P8  1  0.43776047  0.22925933  0.67402528  1
  P  P9  1  0.81477541  0.03507600  0.47013490  1
  P  P10  1  0.76384625  0.61357179  0.44103200  1
  P  P11  1  0.80364064  0.55511370  0.65866602  1
  P  P12  1  0.55511370  0.80364064  0.15866602  1
  P  P13  1  0.03507600  0.81477541  0.97013490  1
  P  P14  1  0.22925933  0.43776047  0.17402528  1
  P  P15  1  0.99687119  0.39070415  0.99009726  1
  O  O16  1  0.76277242  0.84247077  0.18939233  1
  O  O17  1  0.91756074  0.08784583  0.37241798  1
  O  O18  1  0.08784583  0.91756074  0.87241798  1
  O  O19  1  0.56934954  0.45565499  0.66604152  1
  O  O20  1  0.17438970  0.37024105  0.06035720  1
  O  O21  1  0.80563403  0.72880837  0.98349799  1
  O  O22  1  0.34594351  0.81257920  0.54674941  1
  O  O23  1  0.81257920  0.34594351  0.04674941  1
  O  O24  1  0.84247077  0.76277242  0.68939233  1
  O  O25  1  0.23252847  0.25931551  0.22948828  1
  O  O26  1  0.65905554  0.93119274  0.86958641  1
  O  O27  1  0.43824310  0.91204182  0.21162457  1
  O  O28  1  0.45565499  0.56934954  0.16604152  1
  O  O29  1  0.27918582  0.00748070  0.39710881  1
  O  O30  1  0.57491926  0.47709239  0.40715208  1
  O  O31  1  0.84424004  0.53595625  0.54126627  1
  O  O32  1  0.47709239  0.57491926  0.90715208  1
  O  O33  1  0.55958087  0.11106396  0.71263099  1
  O  O34  1  0.91204182  0.43824310  0.71162457  1
  O  O35  1  0.12376242  0.91963571  0.06459630  1
  O  O36  1  0.08751393  0.61667087  0.96014520  1
  O  O37  1  0.37024105  0.17438970  0.56035720  1
  O  O38  1  0.00748070  0.27918582  0.89710881  1
  O  O39  1  0.72880837  0.80563403  0.48349799  1
  O  O40  1  0.53595625  0.84424004  0.04126627  1
  O  O41  1  0.61667087  0.08751393  0.46014520  1
  O  O42  1  0.91963571  0.12376242  0.56459630  1
  O  O43  1  0.93119274  0.65905554  0.36958641  1
  O  O44  1  0.11106396  0.55958087  0.21263099  1
  O  O45  1  0.25931551  0.23252847  0.72948828  1
