# generated using pymatgen
data_GePb3O5
_symmetry_space_group_name_H-M   'P 1'
_cell_length_a   5.39641620
_cell_length_b   5.61798325
_cell_length_c   10.63445887
_cell_angle_alpha   90.00000000
_cell_angle_beta   90.00000000
_cell_angle_gamma   93.28053123
_symmetry_Int_Tables_number   1
_chemical_formula_structural   GePb3O5
_chemical_formula_sum   'Ge2 Pb6 O10'
_cell_volume   321.87631397
_cell_formula_units_Z   2
loop_
 _symmetry_equiv_pos_site_id
 _symmetry_equiv_pos_as_xyz
  1  'x, y, z'
loop_
 _atom_site_type_symbol
 _atom_site_label
 _atom_site_symmetry_multiplicity
 _atom_site_fract_x
 _atom_site_fract_y
 _atom_site_fract_z
 _atom_site_occupancy
  Ge  Ge0  1  0.02385323  0.45250935  0.24334816  1
  Ge  Ge1  1  0.97614677  0.54749065  0.74334816  1
  Pb  Pb2  1  0.02454924  0.95214035  0.00138933  1
  Pb  Pb3  1  0.97545076  0.04785965  0.50138933  1
  Pb  Pb4  1  0.50459327  0.01264715  0.74739320  1
  Pb  Pb5  1  0.48364731  0.49881663  0.51652840  1
  Pb  Pb6  1  0.51635269  0.50118337  0.01652840  1
  Pb  Pb7  1  0.49540673  0.98735285  0.24739320  1
  O  O8  1  0.07176358  0.47164474  0.40782259  1
  O  O9  1  0.62066787  0.90437431  0.04991547  1
  O  O10  1  0.17211649  0.70013318  0.16147488  1
  O  O11  1  0.82788351  0.29986682  0.66147488  1
  O  O12  1  0.92823642  0.52835526  0.90782259  1
  O  O13  1  0.37933213  0.09562569  0.54991547  1
  O  O14  1  0.69946056  0.41480731  0.20948861  1
  O  O15  1  0.16280160  0.19410595  0.18153937  1
  O  O16  1  0.30053944  0.58519269  0.70948861  1
  O  O17  1  0.83719840  0.80589405  0.68153937  1
