# generated using pymatgen
data_NaYbP2O7
_symmetry_space_group_name_H-M   'P 1'
_cell_length_a   5.49439927
_cell_length_b   9.29718612
_cell_length_c   13.16832252
_cell_angle_alpha   103.24495466
_cell_angle_beta   90.00000000
_cell_angle_gamma   90.00000000
_symmetry_Int_Tables_number   1
_chemical_formula_structural   NaYbP2O7
_chemical_formula_sum   'Na4 Yb4 P8 O28'
_cell_volume   654.77680542
_cell_formula_units_Z   4
loop_
 _symmetry_equiv_pos_site_id
 _symmetry_equiv_pos_as_xyz
  1  'x, y, z'
loop_
 _atom_site_type_symbol
 _atom_site_label
 _atom_site_symmetry_multiplicity
 _atom_site_fract_x
 _atom_site_fract_y
 _atom_site_fract_z
 _atom_site_occupancy
  Na  Na0  1  0.27305088  0.13679779  0.69360450  1
  Na  Na1  1  0.72694912  0.86320221  0.30639550  1
  Na  Na2  1  0.77305088  0.36320221  0.80639550  1
  Na  Na3  1  0.22694912  0.63679779  0.19360450  1
  Yb  Yb4  1  0.73904951  0.26976360  0.52246903  1
  Yb  Yb5  1  0.23904951  0.23023640  0.97753097  1
  Yb  Yb6  1  0.26095049  0.73023640  0.47753097  1
  Yb  Yb7  1  0.76095049  0.76976360  0.02246903  1
  P  P8  1  0.24880450  0.47179102  0.65610906  1
  P  P9  1  0.78378834  0.93265960  0.61980553  1
  P  P10  1  0.28378834  0.56734040  0.88019447  1
  P  P11  1  0.71621166  0.43265960  0.11980553  1
  P  P12  1  0.21621166  0.06734040  0.38019447  1
  P  P13  1  0.75119550  0.52820898  0.34389094  1
  P  P14  1  0.74880450  0.02820898  0.84389094  1
  P  P15  1  0.25119550  0.97179102  0.15610906  1
  O  O16  1  0.51060622  0.61055296  0.33808403  1
  O  O17  1  0.70554067  0.09242029  0.62234416  1
  O  O18  1  0.55655078  0.58957855  0.89976330  1
  O  O19  1  0.29445933  0.90757971  0.37765584  1
  O  O20  1  0.74078066  0.94376416  0.92915428  1
  O  O21  1  0.27881810  0.09502964  0.26541968  1
  O  O22  1  0.12837259  0.67693983  0.95677215  1
  O  O23  1  0.01060622  0.88944704  0.16191597  1
  O  O24  1  0.72118190  0.90497036  0.73458032  1
  O  O25  1  0.25921934  0.05623584  0.07084572  1
  O  O26  1  0.53564632  0.13753712  0.85055205  1
  O  O27  1  0.96435368  0.63753712  0.35055205  1
  O  O28  1  0.46435368  0.86246288  0.14944795  1
  O  O29  1  0.05655078  0.91042145  0.60023670  1
  O  O30  1  0.24078066  0.55623584  0.57084572  1
  O  O31  1  0.98939378  0.11055296  0.83808403  1
  O  O32  1  0.75921934  0.44376416  0.42915428  1
  O  O33  1  0.22118190  0.59502964  0.76541968  1
  O  O34  1  0.37162741  0.17693983  0.45677215  1
  O  O35  1  0.77881810  0.40497036  0.23458032  1
  O  O36  1  0.79445933  0.59242029  0.12234416  1
  O  O37  1  0.48939378  0.38944704  0.66191597  1
  O  O38  1  0.03564632  0.36246288  0.64944795  1
  O  O39  1  0.20554067  0.40757971  0.87765584  1
  O  O40  1  0.87162741  0.32306017  0.04322785  1
  O  O41  1  0.62837259  0.82306017  0.54322785  1
  O  O42  1  0.94344922  0.08957855  0.39976330  1
  O  O43  1  0.44344922  0.41042145  0.10023670  1
