# generated using pymatgen
data_ErCuTe2BrO6
_symmetry_space_group_name_H-M   'P 1'
_cell_length_a   5.42640207
_cell_length_b   9.46809362
_cell_length_c   14.98411043
_cell_angle_alpha   90.00000000
_cell_angle_beta   90.00000000
_cell_angle_gamma   98.55440257
_symmetry_Int_Tables_number   1
_chemical_formula_structural   ErCuTe2BrO6
_chemical_formula_sum   'Er4 Cu4 Te8 Br4 O24'
_cell_volume   761.28435945
_cell_formula_units_Z   4
loop_
 _symmetry_equiv_pos_site_id
 _symmetry_equiv_pos_as_xyz
  1  'x, y, z'
loop_
 _atom_site_type_symbol
 _atom_site_label
 _atom_site_symmetry_multiplicity
 _atom_site_fract_x
 _atom_site_fract_y
 _atom_site_fract_z
 _atom_site_occupancy
  Er  Er0  1  0.74733872  0.98140605  0.58752296  1
  Er  Er1  1  0.25266128  0.01859395  0.41247704  1
  Er  Er2  1  0.25266128  0.51859395  0.08752296  1
  Er  Er3  1  0.74733872  0.48140605  0.91247704  1
  Cu  Cu4  1  0.26480691  0.80392977  0.23152705  1
  Cu  Cu5  1  0.73519309  0.69607023  0.73152705  1
  Cu  Cu6  1  0.73519309  0.19607023  0.76847295  1
  Cu  Cu7  1  0.26480691  0.30392977  0.26847295  1
  Te  Te8  1  0.23088775  0.21927162  0.90380026  1
  Te  Te9  1  0.25222738  0.22577732  0.64416890  1
  Te  Te10  1  0.23088775  0.71927162  0.59619974  1
  Te  Te11  1  0.76911225  0.78072838  0.09619974  1
  Te  Te12  1  0.76911225  0.28072838  0.40380026  1
  Te  Te13  1  0.74777262  0.77422268  0.35583110  1
  Te  Te14  1  0.25222738  0.72577732  0.85583110  1
  Te  Te15  1  0.74777262  0.27422268  0.14416890  1
  Br  Br16  1  0.74304928  0.95406792  0.90014631  1
  Br  Br17  1  0.74304928  0.45406792  0.59985369  1
  Br  Br18  1  0.25695072  0.54593208  0.40014631  1
  Br  Br19  1  0.25695072  0.04593208  0.09985369  1
  O  O20  1  0.47683218  0.79505097  0.68474377  1
  O  O21  1  0.62326887  0.12936765  0.47861663  1
  O  O22  1  0.96739640  0.30981974  0.85524258  1
  O  O23  1  0.37673113  0.37063235  0.97861663  1
  O  O24  1  0.03260360  0.69018026  0.14475742  1
  O  O25  1  0.03260360  0.19018026  0.35524258  1
  O  O26  1  0.11964484  0.62504912  0.95988395  1
  O  O27  1  0.98954942  0.10904375  0.70932885  1
  O  O28  1  0.01045058  0.89095625  0.29067115  1
  O  O29  1  0.62326887  0.62936765  0.02138337  1
  O  O30  1  0.52316782  0.70494903  0.18474377  1
  O  O31  1  0.98954942  0.60904375  0.79067115  1
  O  O32  1  0.49417949  0.38832162  0.17152005  1
  O  O33  1  0.47683218  0.29505097  0.81525623  1
  O  O34  1  0.52316782  0.20494903  0.31525623  1
  O  O35  1  0.11964484  0.12504912  0.54011605  1
  O  O36  1  0.01045058  0.39095625  0.20932885  1
  O  O37  1  0.88035516  0.87495088  0.45988395  1
  O  O38  1  0.37673113  0.87063235  0.52138337  1
  O  O39  1  0.50582051  0.11167838  0.67152005  1
  O  O40  1  0.96739640  0.80981974  0.64475742  1
  O  O41  1  0.49417949  0.88832162  0.32847995  1
  O  O42  1  0.50582051  0.61167838  0.82847995  1
  O  O43  1  0.88035516  0.37495088  0.04011605  1
