# generated using pymatgen
data_KLi(PO3)2
_symmetry_space_group_name_H-M   'P 1'
_cell_length_a   5.61707417
_cell_length_b   13.99033350
_cell_length_c   15.68796081
_cell_angle_alpha   108.38596274
_cell_angle_beta   90.00000000
_cell_angle_gamma   90.00000000
_symmetry_Int_Tables_number   1
_chemical_formula_structural   KLi(PO3)2
_chemical_formula_sum   'K8 Li8 P16 O48'
_cell_volume   1169.90223159
_cell_formula_units_Z   8
loop_
 _symmetry_equiv_pos_site_id
 _symmetry_equiv_pos_as_xyz
  1  'x, y, z'
loop_
 _atom_site_type_symbol
 _atom_site_label
 _atom_site_symmetry_multiplicity
 _atom_site_fract_x
 _atom_site_fract_y
 _atom_site_fract_z
 _atom_site_occupancy
  K  K0  1  0.67516767  0.37505169  0.63265217  1
  K  K1  1  0.82483233  0.37505169  0.13265217  1
  K  K2  1  0.33279855  0.87601408  0.64021999  1
  K  K3  1  0.32483233  0.62494831  0.36734783  1
  K  K4  1  0.83279855  0.12398592  0.85978001  1
  K  K5  1  0.66720145  0.12398592  0.35978001  1
  K  K6  1  0.17516767  0.62494831  0.86734783  1
  K  K7  1  0.16720145  0.87601408  0.14021999  1
  Li  Li8  1  0.30486127  0.93019087  0.88986547  1
  Li  Li9  1  0.31617760  0.57293108  0.13724388  1
  Li  Li10  1  0.81617760  0.42706892  0.36275612  1
  Li  Li11  1  0.18382240  0.57293108  0.63724388  1
  Li  Li12  1  0.19513873  0.93019087  0.38986547  1
  Li  Li13  1  0.68382240  0.42706892  0.86275612  1
  Li  Li14  1  0.80486127  0.06980913  0.61013453  1
  Li  Li15  1  0.69513873  0.06980913  0.11013453  1
  P  P16  1  0.15075868  0.35803735  0.48501593  1
  P  P17  1  0.31647479  0.35432698  0.30701450  1
  P  P18  1  0.81647479  0.64567302  0.19298550  1
  P  P19  1  0.66800606  0.83960489  0.97953615  1
  P  P20  1  0.69151261  0.85588923  0.30727067  1
  P  P21  1  0.19151261  0.14411077  0.19272933  1
  P  P22  1  0.83199394  0.83960489  0.47953615  1
  P  P23  1  0.33199394  0.16039511  0.02046385  1
  P  P24  1  0.16800606  0.16039511  0.52046385  1
  P  P25  1  0.18352521  0.35432698  0.80701450  1
  P  P26  1  0.68352521  0.64567302  0.69298550  1
  P  P27  1  0.65075868  0.64196265  0.01498407  1
  P  P28  1  0.30848739  0.14411077  0.69272933  1
  P  P29  1  0.80848739  0.85588923  0.80727067  1
  P  P30  1  0.84924132  0.64196265  0.51498407  1
  P  P31  1  0.34924132  0.35803735  0.98501593  1
  O  O32  1  0.21950954  0.06551828  0.96199478  1
  O  O33  1  0.55759894  0.37581601  0.27712170  1
  O  O34  1  0.75434264  0.75333640  0.02156341  1
  O  O35  1  0.33733042  0.38290669  0.41598421  1
  O  O36  1  0.22223074  0.23328906  0.78152939  1
  O  O37  1  0.94051650  0.11557137  0.20634448  1
  O  O38  1  0.90441751  0.16600035  0.53868747  1
  O  O39  1  0.60028511  0.59619079  0.21599478  1
  O  O40  1  0.59558249  0.16600035  0.03868747  1
  O  O41  1  0.05759894  0.62418399  0.22287830  1
  O  O42  1  0.88367479  0.93470076  0.32712220  1
  O  O43  1  0.59844266  0.34933825  0.94853682  1
  O  O44  1  0.66266958  0.61709331  0.58401579  1
  O  O45  1  0.39971489  0.40380921  0.78400522  1
  O  O46  1  0.05948350  0.88442863  0.79365552  1
  O  O47  1  0.25434264  0.24666360  0.47843659  1
  O  O48  1  0.20453340  0.42807248  0.57693293  1
  O  O49  1  0.79546660  0.57192752  0.42306707  1
  O  O50  1  0.24565736  0.24666360  0.97843659  1
  O  O51  1  0.44240106  0.62418399  0.72287830  1
  O  O52  1  0.89971489  0.59619079  0.71599478  1
  O  O53  1  0.11632521  0.06529924  0.67287780  1
  O  O54  1  0.61632521  0.93470076  0.82712220  1
  O  O55  1  0.68873100  0.79906596  0.38350554  1
  O  O56  1  0.16266958  0.38290669  0.91598421  1
  O  O57  1  0.90155734  0.34933825  0.44853682  1
  O  O58  1  0.31126900  0.20093404  0.61649446  1
  O  O59  1  0.18873100  0.20093404  0.11649446  1
  O  O60  1  0.44051650  0.88442863  0.29365552  1
  O  O61  1  0.72223074  0.76671094  0.71847061  1
  O  O62  1  0.71950954  0.93448172  0.53800522  1
  O  O63  1  0.28049046  0.06551828  0.46199478  1
  O  O64  1  0.40155734  0.65066175  0.05146318  1
  O  O65  1  0.38367479  0.06529924  0.17287780  1
  O  O66  1  0.83733042  0.61709331  0.08401579  1
  O  O67  1  0.10028511  0.40380921  0.28400522  1
  O  O68  1  0.29546660  0.42807248  0.07693293  1
  O  O69  1  0.94240106  0.37581601  0.77712170  1
  O  O70  1  0.40441751  0.83399965  0.96131253  1
  O  O71  1  0.74565736  0.75333640  0.52156341  1
  O  O72  1  0.09844266  0.65066175  0.55146318  1
  O  O73  1  0.27776926  0.23328906  0.28152939  1
  O  O74  1  0.09558249  0.83399965  0.46131253  1
  O  O75  1  0.81126900  0.79906596  0.88350554  1
  O  O76  1  0.70453340  0.57192752  0.92306707  1
  O  O77  1  0.55948350  0.11557137  0.70634448  1
  O  O78  1  0.78049046  0.93448172  0.03800522  1
  O  O79  1  0.77776926  0.76671094  0.21847061  1
