# generated using pymatgen
data_Zr(PO3)4
_symmetry_space_group_name_H-M   'P 1'
_cell_length_a   8.81719695
_cell_length_b   13.69200417
_cell_length_c   16.17687090
_cell_angle_alpha   64.96341172
_cell_angle_beta   89.98544498
_cell_angle_gamma   89.96561904
_symmetry_Int_Tables_number   1
_chemical_formula_structural   Zr(PO3)4
_chemical_formula_sum   'Zr8 P32 O96'
_cell_volume   1769.44996484
_cell_formula_units_Z   8
loop_
 _symmetry_equiv_pos_site_id
 _symmetry_equiv_pos_as_xyz
  1  'x, y, z'
loop_
 _atom_site_type_symbol
 _atom_site_label
 _atom_site_symmetry_multiplicity
 _atom_site_fract_x
 _atom_site_fract_y
 _atom_site_fract_z
 _atom_site_occupancy
  Zr  Zr0  1  0.99667480  0.05757879  0.36412799  1
  Zr  Zr1  1  0.99544219  0.59151576  0.36371874  1
  Zr  Zr2  1  0.99488609  0.57328620  0.86485767  1
  Zr  Zr3  1  0.99498795  0.07539133  0.86194474  1
  Zr  Zr4  1  0.49488609  0.43814388  0.13514233  1
  Zr  Zr5  1  0.49667480  0.42170778  0.63587201  1
  Zr  Zr6  1  0.49498795  0.93733507  0.13805526  1
  Zr  Zr7  1  0.49544219  0.95523549  0.63628126  1
  P  P8  1  0.75024482  0.85307262  0.52188278  1
  P  P9  1  0.88017703  0.48845976  0.20161284  1
  P  P10  1  0.77116287  0.63403219  0.02430092  1
  P  P11  1  0.77312531  0.35946390  0.51461840  1
  P  P12  1  0.37430214  0.52718974  0.30510774  1
  P  P13  1  0.73526294  0.86981779  0.98662150  1
  P  P14  1  0.27312531  0.87408230  0.48538160  1
  P  P15  1  0.11787166  0.48465732  0.69475022  1
  P  P16  1  0.10985080  0.99183921  0.69140458  1
  P  P17  1  0.61787166  0.17940754  0.30524978  1
  P  P18  1  0.87430214  0.83229748  0.69489226  1
  P  P19  1  0.24204462  0.63839009  0.52214308  1
  P  P20  1  0.38017703  0.69007260  0.79838716  1
  P  P21  1  0.11195296  0.32142102  0.20196941  1
  P  P22  1  0.74204462  0.16053317  0.47785692  1
  P  P23  1  0.21856326  0.35391806  0.02434302  1
  P  P24  1  0.61195296  0.52339043  0.79803059  1
  P  P25  1  0.75522033  0.14268334  0.01447463  1
  P  P26  1  0.21897504  0.13910265  0.51501458  1
  P  P27  1  0.61465973  0.02405314  0.81503747  1
  P  P28  1  0.88118868  0.32965692  0.69119829  1
  P  P29  1  0.25522033  0.15715797  0.98552537  1
  P  P30  1  0.25024482  0.37495540  0.47811722  1
  P  P31  1  0.27116287  0.65833411  0.97569908  1
  P  P32  1  0.71897504  0.65411722  0.48498542  1
  P  P33  1  0.23526294  0.85643929  0.01337850  1
  P  P34  1  0.11465973  0.83909060  0.18496253  1
  P  P35  1  0.87553130  0.98813785  0.18604234  1
  P  P36  1  0.71856326  0.37826108  0.97565698  1
  P  P37  1  0.38118868  0.02085521  0.30880171  1
  P  P38  1  0.37553130  0.17417919  0.81395766  1
  P  P39  1  0.60985080  0.68324379  0.30859542  1
  O  O40  1  0.99743995  0.42056072  0.17178896  1
  O  O41  1  0.87762448  0.41250654  0.94236811  1
  O  O42  1  0.83928113  0.16291174  0.92902453  1
  O  O43  1  0.62475305  0.90749302  0.89900654  1
  O  O44  1  0.98322535  0.43555990  0.65789383  1
  O  O45  1  0.73042275  0.88210549  0.70719524  1
  O  O46  1  0.79905692  0.27284483  0.47438546  1
  O  O47  1  0.61397530  0.35651353  0.54979964  1
  O  O48  1  0.60520548  0.41287233  0.89009900  1
  O  O49  1  0.03853160  0.74860837  0.26280538  1
  O  O50  1  0.65111129  0.85017485  0.07198790  1
  O  O51  1  0.72514574  0.44003026  0.21486056  1
  O  O52  1  0.95390726  0.51155368  0.27538566  1
  O  O53  1  0.65879643  0.41178021  0.04691772  1
  O  O54  1  0.32672806  0.90898411  0.55634436  1
  O  O55  1  0.15879643  0.45869693  0.95308228  1
  O  O56  1  0.22514574  0.65489082  0.78513944  1
  O  O57  1  0.26796465  0.35514595  0.21523698  1
  O  O58  1  0.36443159  0.41266507  0.39273335  1
  O  O59  1  0.37762448  0.35487465  0.05763189  1
  O  O60  1  0.86443159  0.80539741  0.60726665  1
  O  O61  1  0.29466194  0.74602174  0.01472862  1
  O  O62  1  0.11648324  0.45052250  0.45416423  1
  O  O63  1  0.82672806  0.46532946  0.44365564  1
  O  O64  1  0.61648324  0.90468772  0.54583577  1
  O  O65  1  0.66710627  0.54844289  0.55698024  1
  O  O66  1  0.62163732  0.06673416  0.03815944  1
  O  O67  1  0.62756745  0.20693889  0.39253142  1
  O  O68  1  0.12756745  0.59947031  0.60746858  1
  O  O69  1  0.26192303  0.42279059  0.70672270  1
  O  O70  1  0.53853160  0.01141374  0.73719462  1
  O  O71  1  0.11252829  0.65804622  0.94156572  1
  O  O72  1  0.82956277  0.60223762  0.95169037  1
  O  O73  1  0.00954587  0.91770267  0.65882984  1
  O  O74  1  0.61252829  0.59961293  0.05843428  1
  O  O75  1  0.87785452  0.65818876  0.44899212  1
  O  O76  1  0.88703959  0.30929455  0.60027950  1
  O  O77  1  0.37658526  0.56349348  0.54580641  1
  O  O78  1  0.12163732  0.10489460  0.96184056  1
  O  O79  1  0.82873880  0.92014544  0.43448696  1
  O  O80  1  0.10334267  0.10233148  0.59991878  1
  O  O81  1  0.72296612  0.35529606  0.70862310  1
  O  O82  1  0.05603322  0.50288429  0.77381514  1
  O  O83  1  0.15111129  0.92216275  0.92801210  1
  O  O84  1  0.11397530  0.90631316  0.45020036  1
  O  O85  1  0.53650008  0.50158058  0.72415359  1
  O  O86  1  0.45448450  0.26359380  0.73666314  1
  O  O87  1  0.38629524  0.70746072  0.89090623  1
  O  O88  1  0.69537226  0.25153528  0.01631333  1
  O  O89  1  0.79466194  0.76075036  0.98527138  1
  O  O90  1  0.88629524  0.59836695  0.10909377  1
  O  O91  1  0.76326291  0.08155198  0.79913106  1
  O  O92  1  0.52164779  0.77379521  0.23717187  1
  O  O93  1  0.99387058  0.93437462  0.14286116  1
  O  O94  1  0.03650008  0.22573518  0.27584641  1
  O  O95  1  0.45390726  0.78693934  0.72461434  1
  O  O96  1  0.43584402  0.50775679  0.22658263  1
  O  O97  1  0.48322535  0.09345373  0.34210617  1
  O  O98  1  0.93584402  0.73433942  0.77341737  1
  O  O99  1  0.23042275  0.58929973  0.29280476  1
  O  O100  1  0.16710627  0.10542313  0.44301976  1
  O  O101  1  0.38703959  0.90957405  0.39972050  1
  O  O102  1  0.19186929  0.26586204  0.47601067  1
  O  O103  1  0.76843698  0.65893433  0.29062740  1
  O  O104  1  0.26326291  0.88068304  0.20086894  1
  O  O105  1  0.66401519  0.09384344  0.56556232  1
  O  O106  1  0.36548818  0.20702572  0.89783653  1
  O  O107  1  0.69186929  0.74187172  0.52398933  1
  O  O108  1  0.55603322  0.27669942  0.22618486  1
  O  O109  1  0.49387058  0.07723578  0.85713884  1
  O  O110  1  0.87658526  0.10929989  0.45419359  1
  O  O111  1  0.76796465  0.57038293  0.78476302  1
  O  O112  1  0.29905692  0.74722929  0.52561554  1
  O  O113  1  0.46772073  0.00251703  0.23652022  1
  O  O114  1  0.33928113  0.09193627  0.07097547  1
  O  O115  1  0.72627069  0.93138638  0.20259143  1
  O  O116  1  0.22627069  0.13397781  0.79740857  1
  O  O117  1  0.96772073  0.23903625  0.76347978  1
  O  O118  1  0.32873880  0.35463240  0.56551304  1
  O  O119  1  0.26843698  0.94956273  0.70937260  1
  O  O120  1  0.19537226  0.26784861  0.98368667  1
  O  O121  1  0.16401519  0.65940576  0.43443768  1
  O  O122  1  0.50954587  0.57653251  0.34117016  1
  O  O123  1  0.86548818  0.10486225  0.10216347  1
  O  O124  1  0.02164779  0.01096708  0.76282813  1
  O  O125  1  0.37785452  0.10718188  0.55100788  1
  O  O126  1  0.86882064  0.94579392  0.96263983  1
  O  O127  1  0.60334267  0.70225026  0.40008122  1
  O  O128  1  0.32956277  0.55392800  0.04830963  1
  O  O129  1  0.10520548  0.30297233  0.10990100  1
  O  O130  1  0.95448450  0.00025694  0.26333686  1
  O  O131  1  0.12475305  0.80649956  0.10099346  1
  O  O132  1  0.49743995  0.59234968  0.82821104  1
  O  O133  1  0.36882064  0.90843375  0.03736017  1
  O  O134  1  0.22296612  0.06391916  0.29137690  1
  O  O135  1  0.76192303  0.12951328  0.29327730  1
