# generated using pymatgen
data_RbIn3F10
_symmetry_space_group_name_H-M   'P 1'
_cell_length_a   6.94652434
_cell_length_b   7.90996135
_cell_length_c   8.42010646
_cell_angle_alpha   90.00000000
_cell_angle_beta   90.00000000
_cell_angle_gamma   90.00000000
_symmetry_Int_Tables_number   1
_chemical_formula_structural   RbIn3F10
_chemical_formula_sum   'Rb2 In6 F20'
_cell_volume   462.65739240
_cell_formula_units_Z   2
loop_
 _symmetry_equiv_pos_site_id
 _symmetry_equiv_pos_as_xyz
  1  'x, y, z'
loop_
 _atom_site_type_symbol
 _atom_site_label
 _atom_site_symmetry_multiplicity
 _atom_site_fract_x
 _atom_site_fract_y
 _atom_site_fract_z
 _atom_site_occupancy
  Rb  Rb0  1  0.99068116  0.50000000  0.75000000  1
  Rb  Rb1  1  0.00931884  0.50000000  0.25000000  1
  In  In2  1  0.50000000  0.27650474  0.00000000  1
  In  In3  1  0.50000000  0.73543162  0.00000000  1
  In  In4  1  0.50000000  0.72349526  0.50000000  1
  In  In5  1  0.50000000  0.26456838  0.50000000  1
  In  In6  1  0.00000000  0.00500122  0.00000000  1
  In  In7  1  0.00000000  0.99499878  0.50000000  1
  F  F8  1  0.19571869  0.80434485  0.01885126  1
  F  F9  1  0.19412707  0.20767902  0.00941465  1
  F  F10  1  0.97134313  0.00000000  0.25000000  1
  F  F11  1  0.80428131  0.80434485  0.98114874  1
  F  F12  1  0.80428131  0.19565515  0.51885126  1
  F  F13  1  0.50000000  0.00549620  0.00000000  1
  F  F14  1  0.67896056  0.50556069  0.01082460  1
  F  F15  1  0.80587293  0.79232098  0.50941465  1
  F  F16  1  0.49951854  0.27802437  0.75007200  1
  F  F17  1  0.50048146  0.72197563  0.25007200  1
  F  F18  1  0.19412707  0.79232098  0.49058535  1
  F  F19  1  0.49951854  0.72197563  0.74992800  1
  F  F20  1  0.80587293  0.20767902  0.99058535  1
  F  F21  1  0.19571869  0.19565515  0.48114874  1
  F  F22  1  0.32103944  0.50556069  0.98917540  1
  F  F23  1  0.50048146  0.27802437  0.24992800  1
  F  F24  1  0.50000000  0.99450380  0.50000000  1
  F  F25  1  0.67896056  0.49443931  0.48917540  1
  F  F26  1  0.32103944  0.49443931  0.51082460  1
  F  F27  1  0.02865687  0.00000000  0.75000000  1
