# generated using pymatgen
data_TaP4(SCl)5
_symmetry_space_group_name_H-M   'P 1'
_cell_length_a   6.93104300
_cell_length_b   10.61689444
_cell_length_c   13.65953408
_cell_angle_alpha   98.04229528
_cell_angle_beta   104.51261871
_cell_angle_gamma   106.94355443
_symmetry_Int_Tables_number   1
_chemical_formula_structural   TaP4(SCl)5
_chemical_formula_sum   'Ta2 P8 S10 Cl10'
_cell_volume   905.90084249
_cell_formula_units_Z   2
loop_
 _symmetry_equiv_pos_site_id
 _symmetry_equiv_pos_as_xyz
  1  'x, y, z'
loop_
 _atom_site_type_symbol
 _atom_site_label
 _atom_site_symmetry_multiplicity
 _atom_site_fract_x
 _atom_site_fract_y
 _atom_site_fract_z
 _atom_site_occupancy
  Ta  Ta0  1  0.39348840  0.26573410  0.15583332  1
  Ta  Ta1  1  0.60651160  0.73426590  0.84416668  1
  P  P2  1  0.08291821  0.42439275  0.69015034  1
  P  P3  1  0.96477978  0.87792119  0.25829846  1
  P  P4  1  0.91708179  0.57560725  0.30984966  1
  P  P5  1  0.77197875  0.69005032  0.40606524  1
  P  P6  1  0.03522022  0.12207881  0.74170154  1
  P  P7  1  0.12185034  0.80751482  0.49689010  1
  P  P8  1  0.22802125  0.30994968  0.59393476  1
  P  P9  1  0.87814966  0.19248518  0.50310990  1
  S  S10  1  0.79552133  0.05031278  0.59443325  1
  S  S11  1  0.30697503  0.18352802  0.68670301  1
  S  S12  1  0.17985712  0.62354336  0.74696959  1
  S  S13  1  0.20447867  0.94968722  0.40556675  1
  S  S14  1  0.80934953  0.36992612  0.56209934  1
  S  S15  1  0.02709987  0.31641616  0.80417394  1
  S  S16  1  0.82014288  0.37645664  0.25303041  1
  S  S17  1  0.19065047  0.63007388  0.43790066  1
  S  S18  1  0.97290013  0.68358384  0.19582606  1
  S  S19  1  0.69302497  0.81647198  0.31329699  1
  Cl  Cl20  1  0.51769682  0.75897421  -0.00207974  1
  Cl  Cl21  1  0.48230318  0.24102579  1.00207974  1
  Cl  Cl22  1  0.39603056  0.48427756  0.14786261  1
  Cl  Cl23  1  0.60396944  0.51572244  0.85213739  1
  Cl  Cl24  1  0.48024755  0.07357940  0.18705614  1
  Cl  Cl25  1  0.63953022  0.69726781  0.67461889  1
  Cl  Cl26  1  0.51975245  0.92642060  0.81294386  1
  Cl  Cl27  1  0.96300441  0.83917356  0.92234779  1
  Cl  Cl28  1  0.03699559  0.16082644  0.07765221  1
  Cl  Cl29  1  0.36046978  0.30273219  0.32538111  1
