# generated using pymatgen
data_Li2FeSiO5
_symmetry_space_group_name_H-M   'P 1'
_cell_length_a   9.07396943
_cell_length_b   4.54982912
_cell_length_c   9.15523211
_cell_angle_alpha   90.00000000
_cell_angle_beta   90.00000000
_cell_angle_gamma   90.00000000
_symmetry_Int_Tables_number   1
_chemical_formula_structural   Li2FeSiO5
_chemical_formula_sum   'Li8 Fe4 Si4 O20'
_cell_volume   377.97385239
_cell_formula_units_Z   4
loop_
 _symmetry_equiv_pos_site_id
 _symmetry_equiv_pos_as_xyz
  1  'x, y, z'
loop_
 _atom_site_type_symbol
 _atom_site_label
 _atom_site_symmetry_multiplicity
 _atom_site_fract_x
 _atom_site_fract_y
 _atom_site_fract_z
 _atom_site_occupancy
  Li  Li0  1  0.00000000  0.60782950  0.00036789  1
  Li  Li1  1  0.00000000  0.39217050  0.50036789  1
  Li  Li2  1  0.23782522  0.00252045  0.00110554  1
  Li  Li3  1  0.23782522  0.99747955  0.50110554  1
  Li  Li4  1  0.50000000  0.01331179  0.25728715  1
  Li  Li5  1  0.50000000  0.98668821  0.75728715  1
  Li  Li6  1  0.76217478  0.00252045  0.00110554  1
  Li  Li7  1  0.76217478  0.99747955  0.50110554  1
  Fe  Fe8  1  0.00000000  0.96649115  0.28065751  1
  Fe  Fe9  1  0.00000000  0.03350885  0.78065751  1
  Fe  Fe10  1  0.50000000  0.39953206  0.99802955  1
  Fe  Fe11  1  0.50000000  0.60046794  0.49802955  1
  Si  Si12  1  0.25068145  0.50121853  0.24898928  1
  Si  Si13  1  0.25068145  0.49878147  0.74898928  1
  Si  Si14  1  0.74931855  0.50121853  0.24898928  1
  Si  Si15  1  0.74931855  0.49878147  0.74898928  1
  O  O16  1  0.00000000  0.81243763  0.46417244  1
  O  O17  1  0.00000000  0.18756237  0.96417244  1
  O  O18  1  0.14907229  0.73825316  0.16046796  1
  O  O19  1  0.14907229  0.26174684  0.66046796  1
  O  O20  1  0.15344275  0.26235917  0.34064315  1
  O  O21  1  0.15344275  0.73764083  0.84064315  1
  O  O22  1  0.35372029  0.29320226  0.14201111  1
  O  O23  1  0.35372029  0.70679774  0.64201111  1
  O  O24  1  0.35446016  0.71105889  0.35433025  1
  O  O25  1  0.35446016  0.28894111  0.85433025  1
  O  O26  1  0.50000000  0.21450533  0.49345285  1
  O  O27  1  0.50000000  0.78549467  0.99345285  1
  O  O28  1  0.64553984  0.71105889  0.35433025  1
  O  O29  1  0.64553984  0.28894111  0.85433025  1
  O  O30  1  0.64627971  0.29320226  0.14201111  1
  O  O31  1  0.64627971  0.70679774  0.64201111  1
  O  O32  1  0.84655725  0.26235917  0.34064315  1
  O  O33  1  0.84655725  0.73764083  0.84064315  1
  O  O34  1  0.85092771  0.26174684  0.66046796  1
  O  O35  1  0.85092771  0.73825316  0.16046796  1
