# generated using pymatgen
data_KPrPdO3
_symmetry_space_group_name_H-M   'P 1'
_cell_length_a   3.98975386
_cell_length_b   7.01153977
_cell_length_c   7.59068120
_cell_angle_alpha   104.47345332
_cell_angle_beta   90.00000000
_cell_angle_gamma   106.52976361
_symmetry_Int_Tables_number   1
_chemical_formula_structural   KPrPdO3
_chemical_formula_sum   'K2 Pr2 Pd2 O6'
_cell_volume   196.52864078
_cell_formula_units_Z   2
loop_
 _symmetry_equiv_pos_site_id
 _symmetry_equiv_pos_as_xyz
  1  'x, y, z'
loop_
 _atom_site_type_symbol
 _atom_site_label
 _atom_site_symmetry_multiplicity
 _atom_site_fract_x
 _atom_site_fract_y
 _atom_site_fract_z
 _atom_site_occupancy
  K  K0  1  0.64331898  0.28663795  0.56542931  1
  K  K1  1  0.35668102  0.71336205  0.43457069  1
  Pr  Pr2  1  0.35044197  0.70088393  0.92042339  1
  Pr  Pr3  1  0.64955803  0.29911607  0.07957661  1
  Pd  Pd4  1  0.99346411  0.98692822  0.22754779  1
  Pd  Pd5  1  0.00653589  0.01307178  0.77245221  1
  O  O6  1  0.16816476  0.33632951  0.86601880  1
  O  O7  1  0.15208818  0.30417635  0.28063628  1
  O  O8  1  0.50674154  0.01348307  0.80965672  1
  O  O9  1  0.84791182  0.69582365  0.71936372  1
  O  O10  1  0.83183524  0.66367049  0.13398120  1
  O  O11  1  0.49325846  0.98651693  0.19034328  1
