# generated using pymatgen
data_RbIn(MoO4)2
_symmetry_space_group_name_H-M   'P 1'
_cell_length_a   5.95956136
_cell_length_b   9.12396235
_cell_length_c   15.63512240
_cell_angle_alpha   90.00000000
_cell_angle_beta   90.00000000
_cell_angle_gamma   90.00000000
_symmetry_Int_Tables_number   1
_chemical_formula_structural   RbIn(MoO4)2
_chemical_formula_sum   'Rb4 In4 Mo8 O32'
_cell_volume   850.15686410
_cell_formula_units_Z   4
loop_
 _symmetry_equiv_pos_site_id
 _symmetry_equiv_pos_as_xyz
  1  'x, y, z'
loop_
 _atom_site_type_symbol
 _atom_site_label
 _atom_site_symmetry_multiplicity
 _atom_site_fract_x
 _atom_site_fract_y
 _atom_site_fract_z
 _atom_site_occupancy
  Rb  Rb0  1  0.75000000  0.44998953  0.87575516  1
  Rb  Rb1  1  0.25000000  0.55001047  0.12424484  1
  Rb  Rb2  1  0.25000000  0.94998953  0.62424484  1
  Rb  Rb3  1  0.75000000  0.05001047  0.37575516  1
  In  In4  1  0.25000000  0.81212641  0.88604254  1
  In  In5  1  0.75000000  0.18787359  0.11395746  1
  In  In6  1  0.75000000  0.31212641  0.61395746  1
  In  In7  1  0.25000000  0.68787359  0.38604254  1
  Mo  Mo8  1  0.25000000  0.50871892  0.71629044  1
  Mo  Mo9  1  0.75000000  0.49128108  0.28370956  1
  Mo  Mo10  1  0.75000000  0.00871892  0.78370956  1
  Mo  Mo11  1  0.25000000  0.99128108  0.21629044  1
  Mo  Mo12  1  0.25000000  0.21156487  0.96895708  1
  Mo  Mo13  1  0.75000000  0.78843513  0.03104292  1
  Mo  Mo14  1  0.75000000  0.71156487  0.53104292  1
  Mo  Mo15  1  0.25000000  0.28843513  0.46895708  1
  O  O16  1  0.75000000  0.14002170  0.86427967  1
  O  O17  1  0.25000000  0.85997830  0.13572033  1
  O  O18  1  0.25000000  0.64002170  0.63572033  1
  O  O19  1  0.75000000  0.35997830  0.36427967  1
  O  O20  1  0.00211304  0.89898378  0.79717774  1
  O  O21  1  0.50211304  0.10101622  0.20282226  1
  O  O22  1  0.99788696  0.39898378  0.70282226  1
  O  O23  1  0.49788696  0.60101622  0.29717774  1
  O  O24  1  0.99788696  0.10101622  0.20282226  1
  O  O25  1  0.49788696  0.89898378  0.79717774  1
  O  O26  1  0.00211304  0.60101622  0.29717774  1
  O  O27  1  0.50211304  0.39898378  0.70282226  1
  O  O28  1  0.25000000  0.60463939  0.81854219  1
  O  O29  1  0.75000000  0.39536061  0.18145781  1
  O  O30  1  0.75000000  0.10463939  0.68145781  1
  O  O31  1  0.25000000  0.89536061  0.31854219  1
  O  O32  1  0.25000000  0.29927262  0.86969081  1
  O  O33  1  0.75000000  0.70072738  0.13030919  1
  O  O34  1  0.75000000  0.79927262  0.63030919  1
  O  O35  1  0.25000000  0.20072738  0.36969081  1
  O  O36  1  0.25000000  0.01624693  0.95674882  1
  O  O37  1  0.75000000  0.98375307  0.04325118  1
  O  O38  1  0.75000000  0.51624693  0.54325118  1
  O  O39  1  0.25000000  0.48375307  0.45674882  1
  O  O40  1  0.50594845  0.72303324  0.97122266  1
  O  O41  1  0.00594845  0.27696676  0.02877734  1
  O  O42  1  0.49405155  0.22303324  0.52877734  1
  O  O43  1  0.99405155  0.77696676  0.47122266  1
  O  O44  1  0.49405155  0.27696676  0.02877734  1
  O  O45  1  0.99405155  0.72303324  0.97122266  1
  O  O46  1  0.50594845  0.77696676  0.47122266  1
  O  O47  1  0.00594845  0.22303324  0.52877734  1
