# generated using pymatgen
data_Ca2NbInO6
_symmetry_space_group_name_H-M   'P 1'
_cell_length_a   5.57716993
_cell_length_b   5.79387720
_cell_length_c   8.02661982
_cell_angle_alpha   90.00000000
_cell_angle_beta   89.88845670
_cell_angle_gamma   90.00000000
_symmetry_Int_Tables_number   1
_chemical_formula_structural   Ca2NbInO6
_chemical_formula_sum   'Ca4 Nb2 In2 O12'
_cell_volume   259.36718791
_cell_formula_units_Z   2
loop_
 _symmetry_equiv_pos_site_id
 _symmetry_equiv_pos_as_xyz
  1  'x, y, z'
loop_
 _atom_site_type_symbol
 _atom_site_label
 _atom_site_symmetry_multiplicity
 _atom_site_fract_x
 _atom_site_fract_y
 _atom_site_fract_z
 _atom_site_occupancy
  Ca  Ca0  1  0.98586503  0.44479494  0.24750902  1
  Ca  Ca1  1  0.01413497  0.55520506  0.75249098  1
  Ca  Ca2  1  0.48586503  0.05520506  0.74750902  1
  Ca  Ca3  1  0.51413497  0.94479494  0.25249098  1
  Nb  Nb4  1  0.00000000  0.00000000  0.50000000  1
  Nb  Nb5  1  0.50000000  0.50000000  0.00000000  1
  In  In6  1  0.50000000  0.50000000  0.50000000  1
  In  In7  1  0.00000000  0.00000000  0.00000000  1
  O  O8  1  0.89192451  0.95766092  0.73920365  1
  O  O9  1  0.18456388  0.28908865  0.56089836  1
  O  O10  1  0.20627537  0.31116295  0.94727756  1
  O  O11  1  0.68456388  0.21091135  0.06089836  1
  O  O12  1  0.10807549  0.04233908  0.26079635  1
  O  O13  1  0.39192451  0.54233908  0.23920365  1
  O  O14  1  0.70627537  0.18883705  0.44727756  1
  O  O15  1  0.29372463  0.81116295  0.55272244  1
  O  O16  1  0.31543612  0.78908865  0.93910164  1
  O  O17  1  0.81543612  0.71091135  0.43910164  1
  O  O18  1  0.79372463  0.68883705  0.05272244  1
  O  O19  1  0.60807549  0.45766092  0.76079635  1
