# generated using pymatgen
data_BaMnO3
_symmetry_space_group_name_H-M   'P 1'
_cell_length_a   5.77248937
_cell_length_b   5.77248941
_cell_length_c   19.26893214
_cell_angle_alpha   90.00000000
_cell_angle_beta   90.00000000
_cell_angle_gamma   119.99999983
_symmetry_Int_Tables_number   1
_chemical_formula_structural   BaMnO3
_chemical_formula_sum   'Ba8 Mn8 O24'
_cell_volume   556.05092346
_cell_formula_units_Z   8
loop_
 _symmetry_equiv_pos_site_id
 _symmetry_equiv_pos_as_xyz
  1  'x, y, z'
loop_
 _atom_site_type_symbol
 _atom_site_label
 _atom_site_symmetry_multiplicity
 _atom_site_fract_x
 _atom_site_fract_y
 _atom_site_fract_z
 _atom_site_occupancy
  Ba  Ba0  1  0.33333300  0.66666700  0.12719652  1
  Ba  Ba1  1  0.66666700  0.33333300  0.62719652  1
  Ba  Ba2  1  0.00000000  0.00000000  0.25000000  1
  Ba  Ba3  1  0.00000000  0.00000000  0.00000000  1
  Ba  Ba4  1  0.33333300  0.66666700  0.37280348  1
  Ba  Ba5  1  0.00000000  0.00000000  0.75000000  1
  Ba  Ba6  1  0.66666700  0.33333300  0.87280348  1
  Ba  Ba7  1  0.00000000  0.00000000  0.50000000  1
  Mn  Mn8  1  0.33333300  0.66666700  0.81531568  1
  Mn  Mn9  1  0.66666700  0.33333300  0.05272251  1
  Mn  Mn10  1  0.33333300  0.66666700  0.94727749  1
  Mn  Mn11  1  0.33333300  0.66666700  0.55272251  1
  Mn  Mn12  1  0.66666700  0.33333300  0.18468432  1
  Mn  Mn13  1  0.33333300  0.66666700  0.68468432  1
  Mn  Mn14  1  0.66666700  0.33333300  0.31531568  1
  Mn  Mn15  1  0.66666700  0.33333300  0.44727749  1
  O  O16  1  0.96392509  0.48196255  0.25000000  1
  O  O17  1  0.50000000  0.50000000  0.50000000  1
  O  O18  1  0.37255394  0.18627697  0.12053041  1
  O  O19  1  0.03607491  0.51803745  0.75000000  1
  O  O20  1  0.81372303  0.62744606  0.12053041  1
  O  O21  1  0.18627697  0.37255394  0.87946959  1
  O  O22  1  0.18627697  0.81372303  0.87946959  1
  O  O23  1  0.62744606  0.81372303  0.87946959  1
  O  O24  1  0.62744606  0.81372303  0.62053041  1
  O  O25  1  0.50000000  0.00000000  0.50000000  1
  O  O26  1  0.48196255  0.96392509  0.75000000  1
  O  O27  1  0.51803745  0.03607491  0.25000000  1
  O  O28  1  0.18627697  0.81372303  0.62053041  1
  O  O29  1  0.18627697  0.37255394  0.62053041  1
  O  O30  1  0.50000000  0.00000000  0.00000000  1
  O  O31  1  0.37255394  0.18627697  0.37946959  1
  O  O32  1  0.48196255  0.51803745  0.75000000  1
  O  O33  1  0.81372303  0.18627697  0.37946959  1
  O  O34  1  0.51803745  0.48196255  0.25000000  1
  O  O35  1  0.00000000  0.50000000  0.50000000  1
  O  O36  1  0.00000000  0.50000000  0.00000000  1
  O  O37  1  0.81372303  0.18627697  0.12053041  1
  O  O38  1  0.81372303  0.62744606  0.37946959  1
  O  O39  1  0.50000000  0.50000000  0.00000000  1
