# generated using pymatgen
data_NaMg3Al(MoO4)5
_symmetry_space_group_name_H-M   'P 1'
_cell_length_a   6.95782944
_cell_length_b   7.03199535
_cell_length_c   17.95398102
_cell_angle_alpha   87.74375041
_cell_angle_beta   87.80394821
_cell_angle_gamma   78.91831954
_symmetry_Int_Tables_number   1
_chemical_formula_structural   NaMg3Al(MoO4)5
_chemical_formula_sum   'Na2 Mg6 Al2 Mo10 O40'
_cell_volume   860.97076199
_cell_formula_units_Z   2
loop_
 _symmetry_equiv_pos_site_id
 _symmetry_equiv_pos_as_xyz
  1  'x, y, z'
loop_
 _atom_site_type_symbol
 _atom_site_label
 _atom_site_symmetry_multiplicity
 _atom_site_fract_x
 _atom_site_fract_y
 _atom_site_fract_z
 _atom_site_occupancy
  Na  Na0  1  0.88950396  0.66764833  0.69097603  1
  Na  Na1  1  0.11049604  0.33235167  0.30902397  1
  Mg  Mg2  1  0.81451025  0.17132030  0.50747262  1
  Mg  Mg3  1  0.18548975  0.82867970  0.49252738  1
  Mg  Mg4  1  0.22076260  0.57265599  0.87377767  1
  Mg  Mg5  1  0.77923740  0.42734401  0.12622233  1
  Mg  Mg6  1  0.83057665  0.91685977  0.88698888  1
  Mg  Mg7  1  0.16942335  0.08314023  0.11301112  1
  Al  Al8  1  0.25030909  0.30226143  0.73508404  1
  Al  Al9  1  0.74969091  0.69773857  0.26491596  1
  Mo  Mo10  1  0.27259283  0.06182002  0.90216384  1
  Mo  Mo11  1  0.72740717  0.93817998  0.09783616  1
  Mo  Mo12  1  0.78314434  0.17774062  0.71698260  1
  Mo  Mo13  1  0.21685566  0.82225938  0.28301740  1
  Mo  Mo14  1  0.26994770  0.30710119  0.53169478  1
  Mo  Mo15  1  0.73005230  0.69289881  0.46830622  1
  Mo  Mo16  1  0.75241320  0.45400040  0.91437866  1
  Mo  Mo17  1  0.24758680  0.54599960  0.08562134  1
  Mo  Mo18  1  0.31835417  0.78285358  0.69258123  1
  Mo  Mo19  1  0.68164583  0.21714642  0.30741877  1
  O  O20  1  0.14463372  0.87154088  0.87948111  1
  O  O21  1  0.85536628  0.12845912  0.12051889  1
  O  O22  1  0.51652206  0.21003884  0.50875644  1
  O  O23  1  0.48347794  0.78996116  0.49124356  1
  O  O24  1  0.24611147  0.34492458  0.63139381  1
  O  O25  1  0.75388853  0.65507542  0.36860619  1
  O  O26  1  0.18210497  0.80055088  0.61034271  1
  O  O27  1  0.81789503  0.19944912  0.38965729  1
  O  O28  1  0.80679293  0.12178383  0.62202682  1
  O  O29  1  0.19320707  0.87821617  0.37797318  1
  O  O30  1  0.51938659  0.53953563  0.87597631  1
  O  O31  1  0.48061341  0.46046437  0.12402369  1
  O  O32  1  0.74832302  0.46662773  0.01273123  1
  O  O33  1  0.25167698  0.53337227  0.98726877  1
  O  O34  1  0.12321232  0.13408728  0.50434801  1
  O  O35  1  0.87678768  0.86591272  0.49565199  1
  O  O36  1  0.20117322  0.53231644  0.48192770  1
  O  O37  1  0.79882678  0.46768356  0.51807230  1
  O  O38  1  0.52971447  0.28500713  0.73574839  1
  O  O39  1  0.47028553  0.71499287  0.26425161  1
  O  O40  1  0.96110444  0.33487254  0.73237757  1
  O  O41  1  0.03889556  0.66512746  0.26762243  1
  O  O42  1  0.22655410  0.59031567  0.75132748  1
  O  O43  1  0.77344590  0.40968433  0.24867252  1
  O  O44  1  0.28248609  0.02345897  0.73138229  1
  O  O45  1  0.71751391  0.97654103  0.26861771  1
  O  O46  1  0.23346203  0.28659017  0.84106706  1
  O  O47  1  0.76653797  0.71340983  0.15893294  1
  O  O48  1  0.20628458  0.11997541  0.99533907  1
  O  O49  1  0.79371542  0.88002459  0.00466093  1
  O  O50  1  0.83957465  0.94940507  0.76725899  1
  O  O51  1  0.16042535  0.05059493  0.23274101  1
  O  O52  1  0.52509833  0.96442549  0.89441355  1
  O  O53  1  0.47490167  0.03557451  0.10558645  1
  O  O54  1  0.91249292  0.61542339  0.87666402  1
  O  O55  1  0.08750708  0.38457661  0.12333598  1
  O  O56  1  0.83898759  0.20597031  0.88979343  1
  O  O57  1  0.16101241  0.79402969  0.11020657  1
  O  O58  1  0.56594057  0.70888905  0.66845414  1
  O  O59  1  0.43405943  0.29111095  0.33154586  1
