# generated using pymatgen
data_Na5Cr3F14
_symmetry_space_group_name_H-M   'P 1'
_cell_length_a   7.35487496
_cell_length_b   7.40403836
_cell_length_c   10.67950626
_cell_angle_alpha   90.82319295
_cell_angle_beta   90.00000000
_cell_angle_gamma   90.00000000
_symmetry_Int_Tables_number   1
_chemical_formula_structural   Na5Cr3F14
_chemical_formula_sum   'Na10 Cr6 F28'
_cell_volume   581.50078152
_cell_formula_units_Z   2
loop_
 _symmetry_equiv_pos_site_id
 _symmetry_equiv_pos_as_xyz
  1  'x, y, z'
loop_
 _atom_site_type_symbol
 _atom_site_label
 _atom_site_symmetry_multiplicity
 _atom_site_fract_x
 _atom_site_fract_y
 _atom_site_fract_z
 _atom_site_occupancy
  Na  Na0  1  0.20199159  0.26462646  0.25174089  1
  Na  Na1  1  0.50000000  0.50000000  0.00000000  1
  Na  Na2  1  0.76391301  0.72043127  0.24275059  1
  Na  Na3  1  0.29800841  0.76462646  0.75174089  1
  Na  Na4  1  0.23608699  0.27956873  0.75724941  1
  Na  Na5  1  0.79800841  0.73537354  0.74825911  1
  Na  Na6  1  0.26391301  0.77956873  0.25724941  1
  Na  Na7  1  0.00000000  0.00000000  0.50000000  1
  Na  Na8  1  0.73608699  0.22043127  0.74275059  1
  Na  Na9  1  0.70199159  0.23537354  0.24825911  1
  Cr  Cr10  1  0.00000000  0.00000000  0.00000000  1
  Cr  Cr11  1  0.00000000  0.50000000  0.50000000  1
  Cr  Cr12  1  0.50000000  0.50000000  0.50000000  1
  Cr  Cr13  1  0.00000000  0.50000000  0.00000000  1
  Cr  Cr14  1  0.50000000  0.00000000  0.50000000  1
  Cr  Cr15  1  0.50000000  0.00000000  0.00000000  1
  F  F16  1  0.93976747  0.32237724  0.37115819  1
  F  F17  1  0.48992425  0.19750411  0.88154125  1
  F  F18  1  0.74792398  0.57291368  0.53992612  1
  F  F19  1  0.91784889  0.75173791  0.00269616  1
  F  F20  1  0.25207602  0.42708632  0.46007388  1
  F  F21  1  0.33204408  0.03475093  0.63837698  1
  F  F22  1  0.08215111  0.24826209  0.99730384  1
  F  F23  1  0.66795592  0.96524907  0.36162302  1
  F  F24  1  0.98992425  0.30249589  0.61845875  1
  F  F25  1  0.24792398  0.92708632  0.96007388  1
  F  F26  1  0.75207602  0.07291368  0.03992612  1
  F  F27  1  0.29590589  0.03921045  0.38796775  1
  F  F28  1  0.83204408  0.46524907  0.86162302  1
  F  F29  1  0.54442108  0.50865288  0.32277565  1
  F  F30  1  0.06023253  0.67762276  0.62884181  1
  F  F31  1  0.51007575  0.80249589  0.11845875  1
  F  F32  1  0.79590589  0.46078955  0.11203225  1
  F  F33  1  0.45557892  0.49134712  0.67722435  1
  F  F34  1  0.16795592  0.53475093  0.13837698  1
  F  F35  1  0.58215111  0.25173791  0.50269616  1
  F  F36  1  0.01007575  0.69750411  0.38154125  1
  F  F37  1  0.56023253  0.82237724  0.87115819  1
  F  F38  1  0.04442108  0.99134712  0.17722435  1
  F  F39  1  0.70409411  0.96078955  0.61203225  1
  F  F40  1  0.95557892  0.00865288  0.82277565  1
  F  F41  1  0.20409411  0.53921045  0.88796775  1
  F  F42  1  0.43976747  0.17762276  0.12884181  1
  F  F43  1  0.41784889  0.74826209  0.49730384  1
