# generated using pymatgen
data_Rb2Cr2O7
_symmetry_space_group_name_H-M   'P 1'
_cell_length_a   7.61719801
_cell_length_b   7.81542080
_cell_length_c   8.05204458
_cell_angle_alpha   108.97420504
_cell_angle_beta   90.88108055
_cell_angle_gamma   110.19136362
_symmetry_Int_Tables_number   1
_chemical_formula_structural   Rb2Cr2O7
_chemical_formula_sum   'Rb4 Cr4 O14'
_cell_volume   421.02789573
_cell_formula_units_Z   2
loop_
 _symmetry_equiv_pos_site_id
 _symmetry_equiv_pos_as_xyz
  1  'x, y, z'
loop_
 _atom_site_type_symbol
 _atom_site_label
 _atom_site_symmetry_multiplicity
 _atom_site_fract_x
 _atom_site_fract_y
 _atom_site_fract_z
 _atom_site_occupancy
  Rb  Rb0  1  0.37883631  0.99253029  0.74763276  1
  Rb  Rb1  1  0.62116369  0.00746971  0.25236724  1
  Rb  Rb2  1  0.18830547  0.41622616  0.25267452  1
  Rb  Rb3  1  0.81169453  0.58377384  0.74732548  1
  Cr  Cr4  1  0.29891611  0.47707250  0.75546413  1
  Cr  Cr5  1  0.91613127  0.12062439  0.77656656  1
  Cr  Cr6  1  0.08386873  0.87937561  0.22343344  1
  Cr  Cr7  1  0.70108389  0.52292750  0.24453587  1
  O  O8  1  0.23495964  0.84872599  0.34762072  1
  O  O9  1  0.80614759  0.43879227  0.36053944  1
  O  O10  1  0.17679680  0.91692916  0.05081835  1
  O  O11  1  0.82320320  0.08307084  0.94918165  1
  O  O12  1  0.02768002  0.06339215  0.33401225  1
  O  O13  1  0.59887906  0.65773266  0.37278619  1
  O  O14  1  0.54075959  0.34049053  0.08995126  1
  O  O15  1  0.97231998  0.93660785  0.66598775  1
  O  O16  1  0.19385241  0.56120773  0.63946056  1
  O  O17  1  0.76504036  0.15127401  0.65237928  1
  O  O18  1  0.87256633  0.66273978  0.14090243  1
  O  O19  1  0.45924041  0.65950947  0.91004874  1
  O  O20  1  0.12743367  0.33726022  0.85909757  1
  O  O21  1  0.40112094  0.34226734  0.62721381  1
