# generated using pymatgen
data_Na2ZrGeO5
_symmetry_space_group_name_H-M   'P 1'
_cell_length_a   5.62409200
_cell_length_b   14.06172823
_cell_length_c   14.38367049
_cell_angle_alpha   119.64386163
_cell_angle_beta   90.00000000
_cell_angle_gamma   90.00000000
_symmetry_Int_Tables_number   1
_chemical_formula_structural   Na2ZrGeO5
_chemical_formula_sum   'Na16 Zr8 Ge8 O40'
_cell_volume   988.64155447
_cell_formula_units_Z   8
loop_
 _symmetry_equiv_pos_site_id
 _symmetry_equiv_pos_as_xyz
  1  'x, y, z'
loop_
 _atom_site_type_symbol
 _atom_site_label
 _atom_site_symmetry_multiplicity
 _atom_site_fract_x
 _atom_site_fract_y
 _atom_site_fract_z
 _atom_site_occupancy
  Na  Na0  1  0.73911600  0.82963880  0.67954111  1
  Na  Na1  1  0.27112249  0.14825251  0.82036141  1
  Na  Na2  1  0.76970756  0.35184693  0.42217152  1
  Na  Na3  1  0.26579335  0.92873979  0.07590485  1
  Na  Na4  1  0.77112249  0.35174749  0.17963859  1
  Na  Na5  1  0.76579335  0.57126021  0.92409515  1
  Na  Na6  1  0.23911600  0.67036120  0.32045889  1
  Na  Na7  1  0.73029244  0.85184693  0.42217152  1
  Na  Na8  1  0.76088400  0.32963880  0.67954111  1
  Na  Na9  1  0.73420665  0.07126021  0.92409515  1
  Na  Na10  1  0.26088400  0.17036120  0.32045889  1
  Na  Na11  1  0.72887751  0.85174749  0.17963859  1
  Na  Na12  1  0.26970756  0.14815307  0.57782848  1
  Na  Na13  1  0.22887751  0.64825251  0.82036141  1
  Na  Na14  1  0.23029244  0.64815307  0.57782848  1
  Na  Na15  1  0.23420665  0.42873979  0.07590485  1
  Zr  Zr16  1  0.26240344  0.86837319  0.56288025  1
  Zr  Zr17  1  0.23759656  0.36837319  0.56288025  1
  Zr  Zr18  1  0.23333704  0.69471986  0.06337041  1
  Zr  Zr19  1  0.73759656  0.13162681  0.43711975  1
  Zr  Zr20  1  0.73333704  0.80528014  0.93662959  1
  Zr  Zr21  1  0.76240344  0.63162681  0.43711975  1
  Zr  Zr22  1  0.26666296  0.19471986  0.06337041  1
  Zr  Zr23  1  0.76666296  0.30528014  0.93662959  1
  Ge  Ge24  1  0.78096777  0.06735786  0.65964910  1
  Ge  Ge25  1  0.78307809  0.09338046  0.15916431  1
  Ge  Ge26  1  0.21692191  0.90661954  0.84083569  1
  Ge  Ge27  1  0.71692191  0.59338046  0.15916431  1
  Ge  Ge28  1  0.28096777  0.43264214  0.34035090  1
  Ge  Ge29  1  0.21903223  0.93264214  0.34035090  1
  Ge  Ge30  1  0.71903223  0.56735786  0.65964910  1
  Ge  Ge31  1  0.28307809  0.40661954  0.84083569  1
  O  O32  1  0.70815883  0.13710281  0.58936849  1
  O  O33  1  0.21660375  0.34927002  0.20237348  1
  O  O34  1  0.09735595  0.54834150  0.38648348  1
  O  O35  1  0.74981681  0.14817777  0.29861698  1
  O  O36  1  0.08884639  0.03103732  0.64132502  1
  O  O37  1  0.97449314  0.23063203  0.00234707  1
  O  O38  1  0.53455846  0.27388105  0.50770809  1
  O  O39  1  0.69165171  0.95460587  0.08811571  1
  O  O40  1  0.40264405  0.04834150  0.38648348  1
  O  O41  1  0.90264405  0.45165850  0.61351652  1
  O  O42  1  0.47449314  0.26936797  0.99765293  1
  O  O43  1  0.41115361  0.53103732  0.64132502  1
  O  O44  1  0.30834829  0.04539413  0.91188429  1
  O  O45  1  0.96544154  0.77388105  0.50770809  1
  O  O46  1  0.25018319  0.85182223  0.70138302  1
  O  O47  1  0.59025613  0.39490164  0.86559947  1
  O  O48  1  0.91115361  0.96896268  0.35867498  1
  O  O49  1  0.09950839  0.32979627  0.87820646  1
  O  O50  1  0.09025613  0.10509836  0.13440053  1
  O  O51  1  0.03455846  0.22611895  0.49229191  1
  O  O52  1  0.59950839  0.17020373  0.12179354  1
  O  O53  1  0.90049161  0.67020373  0.12179354  1
  O  O54  1  0.46544154  0.72611895  0.49229191  1
  O  O55  1  0.79184117  0.63710281  0.58936849  1
  O  O56  1  0.20815883  0.36289719  0.41063151  1
  O  O57  1  0.75018319  0.64817777  0.29861698  1
  O  O58  1  0.24981681  0.35182223  0.70138302  1
  O  O59  1  0.58884639  0.46896268  0.35867498  1
  O  O60  1  0.59735595  0.95165850  0.61351652  1
  O  O61  1  0.71660375  0.15072998  0.79762652  1
  O  O62  1  0.40049161  0.82979627  0.87820646  1
  O  O63  1  0.02550686  0.76936797  0.99765293  1
  O  O64  1  0.40974387  0.60509836  0.13440053  1
  O  O65  1  0.90974387  0.89490164  0.86559947  1
  O  O66  1  0.19165171  0.54539413  0.91188429  1
  O  O67  1  0.78339625  0.65072998  0.79762652  1
  O  O68  1  0.28339625  0.84927002  0.20237348  1
  O  O69  1  0.52550686  0.73063203  0.00234707  1
  O  O70  1  0.29184117  0.86289719  0.41063151  1
  O  O71  1  0.80834829  0.45460587  0.08811571  1
