# generated using pymatgen
data_NaSb(PS3)2
_symmetry_space_group_name_H-M   'P 1'
_cell_length_a   6.64295212
_cell_length_b   7.70283993
_cell_length_c   9.60378430
_cell_angle_alpha   90.00000000
_cell_angle_beta   93.38807873
_cell_angle_gamma   90.00000000
_symmetry_Int_Tables_number   1
_chemical_formula_structural   NaSb(PS3)2
_chemical_formula_sum   'Na2 Sb2 P4 S12'
_cell_volume   490.56283717
_cell_formula_units_Z   2
loop_
 _symmetry_equiv_pos_site_id
 _symmetry_equiv_pos_as_xyz
  1  'x, y, z'
loop_
 _atom_site_type_symbol
 _atom_site_label
 _atom_site_symmetry_multiplicity
 _atom_site_fract_x
 _atom_site_fract_y
 _atom_site_fract_z
 _atom_site_occupancy
  Na  Na0  1  0.69728390  0.46519244  0.50727777  1
  Na  Na1  1  0.30271610  0.96519244  0.49272223  1
  Sb  Sb2  1  0.81232071  0.74764362  0.98380605  1
  Sb  Sb3  1  0.18767929  0.24764362  0.01619395  1
  P  P4  1  0.68986300  0.16453438  0.81868235  1
  P  P5  1  0.80574908  0.94902831  0.68583518  1
  P  P6  1  0.19425092  0.44902831  0.31416482  1
  P  P7  1  0.31013700  0.66453438  0.18131765  1
  S  S8  1  0.65769815  0.05009743  0.01349938  1
  S  S9  1  0.05488038  0.87156022  0.81152457  1
  S  S10  1  0.86532800  0.04812131  0.50370031  1
  S  S11  1  0.13467200  0.54812131  0.49629969  1
  S  S12  1  0.59233954  0.76290073  0.70001010  1
  S  S13  1  0.94511962  0.37156022  0.18847543  1
  S  S14  1  0.90881165  0.35605523  0.82697233  1
  S  S15  1  0.43211993  0.25816633  0.73086705  1
  S  S16  1  0.09118835  0.85605523  0.17302767  1
  S  S17  1  0.56788007  0.75816633  0.26913295  1
  S  S18  1  0.34230185  0.55009743  0.98650062  1
  S  S19  1  0.40766046  0.26290073  0.29998990  1
