# generated using pymatgen
data_NaV2Bi3O10
_symmetry_space_group_name_H-M   'P 1'
_cell_length_a   5.66659854
_cell_length_b   7.22332330
_cell_length_c   7.11509910
_cell_angle_alpha   111.17295169
_cell_angle_beta   111.33984254
_cell_angle_gamma   85.45152308
_symmetry_Int_Tables_number   1
_chemical_formula_structural   NaV2Bi3O10
_chemical_formula_sum   'Na1 V2 Bi3 O10'
_cell_volume   252.49753055
_cell_formula_units_Z   1
loop_
 _symmetry_equiv_pos_site_id
 _symmetry_equiv_pos_as_xyz
  1  'x, y, z'
loop_
 _atom_site_type_symbol
 _atom_site_label
 _atom_site_symmetry_multiplicity
 _atom_site_fract_x
 _atom_site_fract_y
 _atom_site_fract_z
 _atom_site_occupancy
  Na  Na0  1  0.91130102  0.52417271  0.04421635  1
  V  V1  1  0.25753688  0.61804433  0.68421782  1
  V  V2  1  0.67358422  0.92777204  0.39502218  1
  Bi  Bi3  1  0.02355725  0.02415240  0.02986019  1
  Bi  Bi4  1  0.56478835  0.40515183  0.33824689  1
  Bi  Bi5  1  0.38873401  0.15674513  0.76505042  1
  O  O6  1  0.41194156  0.07520911  0.33227773  1
  O  O7  1  0.22464365  0.58203963  0.41943275  1
  O  O8  1  0.91530382  0.01380312  0.35462366  1
  O  O9  1  0.72306736  0.24600258  0.06385783  1
  O  O10  1  0.98490673  0.54920515  0.69879428  1
  O  O11  1  0.74657724  0.98482070  0.67515021  1
  O  O12  1  0.33207597  0.87492487  0.84726321  1
  O  O13  1  0.60936771  0.67208719  0.25247637  1
  O  O14  1  0.49839679  0.46219633  0.76228232  1
  O  O15  1  0.21761745  0.27677288  0.02882779  1
