# generated using pymatgen
data_SrFeP(O2F)2
_symmetry_space_group_name_H-M   'P 1'
_cell_length_a   5.26642379
_cell_length_b   7.14007812
_cell_length_c   12.44168429
_cell_angle_alpha   90.00000000
_cell_angle_beta   90.00000000
_cell_angle_gamma   103.27630002
_symmetry_Int_Tables_number   1
_chemical_formula_structural   SrFeP(O2F)2
_chemical_formula_sum   'Sr4 Fe4 P4 O16 F8'
_cell_volume   455.33710550
_cell_formula_units_Z   4
loop_
 _symmetry_equiv_pos_site_id
 _symmetry_equiv_pos_as_xyz
  1  'x, y, z'
loop_
 _atom_site_type_symbol
 _atom_site_label
 _atom_site_symmetry_multiplicity
 _atom_site_fract_x
 _atom_site_fract_y
 _atom_site_fract_z
 _atom_site_occupancy
  Sr  Sr0  1  0.45796065  0.31247051  0.20622795  1
  Sr  Sr1  1  0.54203935  0.68752949  0.79377205  1
  Sr  Sr2  1  0.04203935  0.18752949  0.70622795  1
  Sr  Sr3  1  0.95796065  0.81247051  0.29377205  1
  Fe  Fe4  1  0.00000000  0.00000000  0.00000000  1
  Fe  Fe5  1  0.50000000  0.50000000  0.50000000  1
  Fe  Fe6  1  0.50000000  0.00000000  0.50000000  1
  Fe  Fe7  1  0.00000000  0.50000000  0.00000000  1
  P  P8  1  0.93431520  0.30475440  0.38522689  1
  P  P9  1  0.56568480  0.19524560  0.88522689  1
  P  P10  1  0.06568480  0.69524560  0.61477311  1
  P  P11  1  0.43431520  0.80475440  0.11477311  1
  O  O12  1  0.23805889  0.94222693  0.12275949  1
  O  O13  1  0.92594173  0.18864334  0.28163917  1
  O  O14  1  0.07405827  0.81135666  0.71836083  1
  O  O15  1  0.73805889  0.44222693  0.37724051  1
  O  O16  1  0.78859370  0.56466861  0.60064438  1
  O  O17  1  0.85374864  0.17178286  0.48490889  1
  O  O18  1  0.64625136  0.32821714  0.98490889  1
  O  O19  1  0.28859370  0.06466861  0.89935562  1
  O  O20  1  0.42594173  0.68864334  0.21836083  1
  O  O21  1  0.76194111  0.05777307  0.87724051  1
  O  O22  1  0.35374864  0.67178286  0.01509111  1
  O  O23  1  0.21140630  0.43533139  0.39935562  1
  O  O24  1  0.14625136  0.82821714  0.51509111  1
  O  O25  1  0.26194111  0.55777307  0.62275949  1
  O  O26  1  0.57405827  0.31135666  0.78163917  1
  O  O27  1  0.71140630  0.93533139  0.10064438  1
  F  F28  1  0.88178005  0.55082473  0.14473530  1
  F  F29  1  0.61821995  0.94917527  0.64473530  1
  F  F30  1  0.38826521  0.22823819  0.55936547  1
  F  F31  1  0.38178005  0.05082473  0.35526470  1
  F  F32  1  0.11821995  0.44917527  0.85526470  1
  F  F33  1  0.88826521  0.72823819  0.94063453  1
  F  F34  1  0.11173479  0.27176181  0.05936547  1
  F  F35  1  0.61173479  0.77176181  0.44063453  1
