# generated using pymatgen
data_Na5Fe3F14
_symmetry_space_group_name_H-M   'P 1'
_cell_length_a   7.42880821
_cell_length_b   7.52872719
_cell_length_c   10.57976834
_cell_angle_alpha   90.99045282
_cell_angle_beta   90.00000000
_cell_angle_gamma   90.00000000
_symmetry_Int_Tables_number   1
_chemical_formula_structural   Na5Fe3F14
_chemical_formula_sum   'Na10 Fe6 F28'
_cell_volume   591.63243054
_cell_formula_units_Z   2
loop_
 _symmetry_equiv_pos_site_id
 _symmetry_equiv_pos_as_xyz
  1  'x, y, z'
loop_
 _atom_site_type_symbol
 _atom_site_label
 _atom_site_symmetry_multiplicity
 _atom_site_fract_x
 _atom_site_fract_y
 _atom_site_fract_z
 _atom_site_occupancy
  Na  Na0  1  0.30154805  0.75813051  0.75251967  1
  Na  Na1  1  0.19845195  0.25813051  0.25251967  1
  Na  Na2  1  0.69845195  0.24186949  0.24748033  1
  Na  Na3  1  0.74570806  0.22757315  0.73834789  1
  Na  Na4  1  0.24570806  0.27242685  0.76165211  1
  Na  Na5  1  0.75429194  0.72757315  0.23834789  1
  Na  Na6  1  0.00000000  0.00000000  0.50000000  1
  Na  Na7  1  0.50000000  0.50000000  0.00000000  1
  Na  Na8  1  0.25429194  0.77242685  0.26165211  1
  Na  Na9  1  0.80154805  0.74186949  0.74748033  1
  Fe  Fe10  1  0.00000000  0.50000000  0.50000000  1
  Fe  Fe11  1  0.50000000  0.50000000  0.50000000  1
  Fe  Fe12  1  0.50000000  0.00000000  0.00000000  1
  Fe  Fe13  1  0.00000000  0.50000000  0.00000000  1
  Fe  Fe14  1  0.00000000  0.00000000  0.00000000  1
  Fe  Fe15  1  0.50000000  0.00000000  0.50000000  1
  F  F16  1  0.70869113  0.96492524  0.60905021  1
  F  F17  1  0.42654481  0.74781945  0.49724090  1
  F  F18  1  0.66247584  0.97103354  0.35716831  1
  F  F19  1  0.94041710  0.01158276  0.82407255  1
  F  F20  1  0.79130887  0.46492524  0.10905021  1
  F  F21  1  0.56395250  0.82296946  0.87172597  1
  F  F22  1  0.16247584  0.52896646  0.14283169  1
  F  F23  1  0.93604750  0.32296946  0.37172597  1
  F  F24  1  0.20869113  0.53507476  0.89094979  1
  F  F25  1  0.75271695  0.06040395  0.05375345  1
  F  F26  1  0.06395250  0.67703054  0.62827403  1
  F  F27  1  0.33752416  0.02896646  0.64283169  1
  F  F28  1  0.00582100  0.30303828  0.61838337  1
  F  F29  1  0.99417900  0.69696172  0.38161663  1
  F  F30  1  0.92654481  0.75218055  0.00275910  1
  F  F31  1  0.49417900  0.80303828  0.11838337  1
  F  F32  1  0.44041710  0.48841724  0.67592745  1
  F  F33  1  0.29130887  0.03507476  0.39094979  1
  F  F34  1  0.55958290  0.51158276  0.32407255  1
  F  F35  1  0.57345519  0.25218055  0.50275910  1
  F  F36  1  0.24728305  0.93959605  0.94624655  1
  F  F37  1  0.74728305  0.56040395  0.55375345  1
  F  F38  1  0.50582100  0.19696172  0.88161663  1
  F  F39  1  0.05958290  0.98841724  0.17592745  1
  F  F40  1  0.07345519  0.24781945  0.99724090  1
  F  F41  1  0.83752416  0.47103354  0.85716831  1
  F  F42  1  0.43604750  0.17703054  0.12827403  1
  F  F43  1  0.25271695  0.43959605  0.44624655  1
