# generated using pymatgen
data_K4V5CuClO15
_symmetry_space_group_name_H-M   'P 1'
_cell_length_a   5.66323722
_cell_length_b   8.97799465
_cell_length_c   8.97799465
_cell_angle_alpha   90.00000000
_cell_angle_beta   90.00000000
_cell_angle_gamma   90.00000000
_symmetry_Int_Tables_number   1
_chemical_formula_structural   K4V5CuClO15
_chemical_formula_sum   'K4 V5 Cu1 Cl1 O15'
_cell_volume   456.48176985
_cell_formula_units_Z   1
loop_
 _symmetry_equiv_pos_site_id
 _symmetry_equiv_pos_as_xyz
  1  'x, y, z'
loop_
 _atom_site_type_symbol
 _atom_site_label
 _atom_site_symmetry_multiplicity
 _atom_site_fract_x
 _atom_site_fract_y
 _atom_site_fract_z
 _atom_site_occupancy
  K  K0  1  0.42505740  0.68726396  0.15422789  1
  K  K1  1  0.42505740  0.84577211  0.68726396  1
  K  K2  1  0.42505740  0.15422789  0.31273604  1
  K  K3  1  0.42505740  0.31273604  0.84577211  1
  V  V4  1  0.89661318  0.63030087  0.86184741  1
  V  V5  1  0.89661318  0.86184741  0.36969913  1
  V  V6  1  0.89661318  0.13815259  0.63030087  1
  V  V7  1  0.86043335  0.50000000  0.50000000  1
  V  V8  1  0.89661318  0.36969913  0.13815259  1
  Cu  Cu9  1  0.84446891  0.00000000  0.00000000  1
  Cl  Cl10  1  0.29596218  0.00000000  0.00000000  1
  O  O11  1  0.79804671  0.80446855  0.90696849  1
  O  O12  1  0.77782581  0.50000000  0.00000000  1
  O  O13  1  0.77782581  0.00000000  0.50000000  1
  O  O14  1  0.77088111  0.68567426  0.41626136  1
  O  O15  1  0.19070786  0.14118003  0.62040217  1
  O  O16  1  0.77088111  0.41626136  0.31432574  1
  O  O17  1  0.19070786  0.37959783  0.14118003  1
  O  O18  1  0.79804671  0.90696849  0.19553145  1
  O  O19  1  0.79804671  0.19553145  0.09303151  1
  O  O20  1  0.77088111  0.58373864  0.68567426  1
  O  O21  1  0.19070786  0.62040217  0.85881997  1
  O  O22  1  0.77088111  0.31432574  0.58373864  1
  O  O23  1  0.14646892  0.50000000  0.50000000  1
  O  O24  1  0.19070786  0.85881997  0.37959783  1
  O  O25  1  0.79804671  0.09303151  0.80446855  1
