# generated using pymatgen
data_Hg2MoO4
_symmetry_space_group_name_H-M   'P 1'
_cell_length_a   5.05743500
_cell_length_b   7.49797150
_cell_length_c   7.49797096
_cell_angle_alpha   106.83005763
_cell_angle_beta   104.98246522
_cell_angle_gamma   104.98246313
_symmetry_Int_Tables_number   1
_chemical_formula_structural   Hg2MoO4
_chemical_formula_sum   'Hg4 Mo2 O8'
_cell_volume   245.21433963
_cell_formula_units_Z   2
loop_
 _symmetry_equiv_pos_site_id
 _symmetry_equiv_pos_as_xyz
  1  'x, y, z'
loop_
 _atom_site_type_symbol
 _atom_site_label
 _atom_site_symmetry_multiplicity
 _atom_site_fract_x
 _atom_site_fract_y
 _atom_site_fract_z
 _atom_site_occupancy
  Hg  Hg0  1  0.52089679  0.24626922  0.46646197  1
  Hg  Hg1  1  0.97910321  0.53353803  0.75373078  1
  Hg  Hg2  1  0.47910321  0.75373078  0.53353803  1
  Hg  Hg3  1  0.02089679  0.46646197  0.24626922  1
  Mo  Mo4  1  0.25000000  0.09850525  0.90149475  1
  Mo  Mo5  1  0.75000000  0.90149475  0.09850525  1
  O  O6  1  0.69907052  0.94822887  0.33052819  1
  O  O7  1  0.30092948  0.05177113  0.66947181  1
  O  O8  1  0.85494314  0.91136461  0.81719314  1
  O  O9  1  0.35494314  0.81719314  0.91136461  1
  O  O10  1  0.19907052  0.33052819  0.94822887  1
  O  O11  1  0.64505686  0.18280686  0.08863539  1
  O  O12  1  0.14505686  0.08863539  0.18280686  1
  O  O13  1  0.80092948  0.66947181  0.05177113  1
