# generated using pymatgen
data_CaCr2(PO4)2
_symmetry_space_group_name_H-M   'P 1'
_cell_length_a   5.09306740
_cell_length_b   9.18332052
_cell_length_c   15.13881103
_cell_angle_alpha   85.28693308
_cell_angle_beta   80.31610713
_cell_angle_gamma   73.90087752
_symmetry_Int_Tables_number   1
_chemical_formula_structural   CaCr2(PO4)2
_chemical_formula_sum   'Ca4 Cr8 P8 O32'
_cell_volume   670.12821776
_cell_formula_units_Z   4
loop_
 _symmetry_equiv_pos_site_id
 _symmetry_equiv_pos_as_xyz
  1  'x, y, z'
loop_
 _atom_site_type_symbol
 _atom_site_label
 _atom_site_symmetry_multiplicity
 _atom_site_fract_x
 _atom_site_fract_y
 _atom_site_fract_z
 _atom_site_occupancy
  Ca  Ca0  1  0.47005232  0.83653256  0.86212338  1
  Ca  Ca1  1  0.16870826  0.66346744  0.63787662  1
  Ca  Ca2  1  0.83129174  0.33653256  0.36212338  1
  Ca  Ca3  1  0.52994768  0.16346744  0.13787662  1
  Cr  Cr4  1  0.15890193  0.23272966  0.96317463  1
  Cr  Cr5  1  0.35480621  0.26727034  0.53682537  1
  Cr  Cr6  1  0.84109807  0.76727034  0.03682537  1
  Cr  Cr7  1  0.50000000  0.50000000  0.00000000  1
  Cr  Cr8  1  0.64519379  0.73272966  0.46317463  1
  Cr  Cr9  1  0.69216040  0.75000000  0.25000000  1
  Cr  Cr10  1  0.30783960  0.25000000  0.75000000  1
  Cr  Cr11  1  0.00000000  0.00000000  0.50000000  1
  P  P12  1  0.05248973  0.56625993  0.86703077  1
  P  P13  1  0.76857219  0.42509489  0.60763760  1
  P  P14  1  0.94751027  0.43374007  0.13296923  1
  P  P15  1  0.19869531  0.92509489  0.10763760  1
  P  P16  1  0.51421957  0.06625993  0.36703077  1
  P  P17  1  0.48578043  0.93374007  0.63296923  1
  P  P18  1  0.23142781  0.57490511  0.39236240  1
  P  P19  1  0.80130469  0.07490511  0.89236240  1
  O  O20  1  0.69809450  0.39163753  0.10541109  1
  O  O21  1  0.82519650  0.90674326  0.92597551  1
  O  O22  1  0.80485688  0.89163753  0.60541109  1
  O  O23  1  0.80616298  0.31379920  0.53164942  1
  O  O24  1  0.19264192  0.39464446  0.05155752  1
  O  O25  1  0.55805809  0.40208634  0.68866166  1
  O  O26  1  0.65161161  0.18620080  0.96835058  1
  O  O27  1  0.89289071  0.90956309  0.13179160  1
  O  O28  1  0.19383702  0.68620080  0.46835058  1
  O  O29  1  0.65791527  0.59325674  0.57402449  1
  O  O30  1  0.87263049  0.60925356  0.14348897  1
  O  O31  1  0.60735859  0.15575179  0.28459535  1
  O  O32  1  0.17480350  0.09325674  0.07402449  1
  O  O33  1  0.06575460  0.40956309  0.63179160  1
  O  O34  1  0.30190550  0.60836247  0.89458891  1
  O  O35  1  0.12736951  0.39074644  0.85651103  1
  O  O36  1  0.95229427  0.65575179  0.78459535  1
  O  O37  1  0.34838839  0.81379920  0.03164942  1
  O  O38  1  0.37462698  0.10925356  0.64348897  1
  O  O39  1  0.39264141  0.84424821  0.71540465  1
  O  O40  1  0.93424540  0.59043691  0.36820840  1
  O  O41  1  0.36115611  0.89464446  0.55155752  1
  O  O42  1  0.10710929  0.09043691  0.86820840  1
  O  O43  1  0.35119390  0.90208634  0.18866166  1
  O  O44  1  0.34208473  0.40674326  0.42597551  1
  O  O45  1  0.19514312  0.10836247  0.39458891  1
  O  O46  1  0.04770573  0.34424821  0.21540465  1
  O  O47  1  0.63884389  0.10535554  0.44844248  1
  O  O48  1  0.80735808  0.60535554  0.94844248  1
  O  O49  1  0.64880610  0.09791366  0.81133834  1
  O  O50  1  0.44194191  0.59791366  0.31133834  1
  O  O51  1  0.62537302  0.89074644  0.35651103  1
