# generated using pymatgen
data_LuMoClO4
_symmetry_space_group_name_H-M   'P 1'
_cell_length_a   5.93998109
_cell_length_b   6.50067135
_cell_length_c   6.94009230
_cell_angle_alpha   73.47456426
_cell_angle_beta   77.85245210
_cell_angle_gamma   71.09816775
_symmetry_Int_Tables_number   1
_chemical_formula_structural   LuMoClO4
_chemical_formula_sum   'Lu2 Mo2 Cl2 O8'
_cell_volume   240.98436508
_cell_formula_units_Z   2
loop_
 _symmetry_equiv_pos_site_id
 _symmetry_equiv_pos_as_xyz
  1  'x, y, z'
loop_
 _atom_site_type_symbol
 _atom_site_label
 _atom_site_symmetry_multiplicity
 _atom_site_fract_x
 _atom_site_fract_y
 _atom_site_fract_z
 _atom_site_occupancy
  Lu  Lu0  1  0.75758342  0.80162273  0.13119404  1
  Lu  Lu1  1  0.24241658  0.19837727  0.86880596  1
  Mo  Mo2  1  0.62376995  0.64416394  0.73255137  1
  Mo  Mo3  1  0.37623005  0.35583606  0.26744863  1
  Cl  Cl4  1  0.01007033  0.02501504  0.22551218  1
  Cl  Cl5  1  0.98992967  0.97498496  0.77448782  1
  O  O6  1  0.09119425  0.52292088  0.19023017  1
  O  O7  1  0.90880575  0.47707912  0.80976983  1
  O  O8  1  0.34410130  0.25007052  0.53421071  1
  O  O9  1  0.57673232  0.52558016  0.20171346  1
  O  O10  1  0.65589870  0.74992948  0.46578929  1
  O  O11  1  0.47766383  0.12969710  0.12938286  1
  O  O12  1  0.52233617  0.87030290  0.87061714  1
  O  O13  1  0.42326768  0.47441984  0.79828654  1
