# generated using pymatgen
data_Na2U(MoO5)2
_symmetry_space_group_name_H-M   'P 1'
_cell_length_a   7.32983390
_cell_length_b   11.65246066
_cell_length_c   12.15502684
_cell_angle_alpha   90.00000000
_cell_angle_beta   90.00000000
_cell_angle_gamma   90.00000000
_symmetry_Int_Tables_number   1
_chemical_formula_structural   Na2U(MoO5)2
_chemical_formula_sum   'Na8 U4 Mo8 O40'
_cell_volume   1038.16814957
_cell_formula_units_Z   4
loop_
 _symmetry_equiv_pos_site_id
 _symmetry_equiv_pos_as_xyz
  1  'x, y, z'
loop_
 _atom_site_type_symbol
 _atom_site_label
 _atom_site_symmetry_multiplicity
 _atom_site_fract_x
 _atom_site_fract_y
 _atom_site_fract_z
 _atom_site_occupancy
  Na  Na0  1  0.58594644  0.44224560  0.19157672  1
  Na  Na1  1  0.91405356  0.55775440  0.69157672  1
  Na  Na2  1  0.08201990  0.55070538  0.42872258  1
  Na  Na3  1  0.41405356  0.94224560  0.30842328  1
  Na  Na4  1  0.91798010  0.05070538  0.07127742  1
  Na  Na5  1  0.41798010  0.44929462  0.92872258  1
  Na  Na6  1  0.08594644  0.05775440  0.80842328  1
  Na  Na7  1  0.58201990  0.94929462  0.57127742  1
  U  U8  1  0.82108589  0.75829663  0.23100391  1
  U  U9  1  0.32108589  0.74170337  0.76899609  1
  U  U10  1  0.17891411  0.25829663  0.26899609  1
  U  U11  1  0.67891411  0.24170337  0.73100391  1
  Mo  Mo12  1  0.33424277  0.71271780  0.09946998  1
  Mo  Mo13  1  0.08027840  0.83127781  0.51324940  1
  Mo  Mo14  1  0.83424277  0.78728220  0.90053002  1
  Mo  Mo15  1  0.16575723  0.28728220  0.59946998  1
  Mo  Mo16  1  0.91972160  0.33127781  0.98675060  1
  Mo  Mo17  1  0.41972160  0.16872219  0.01324940  1
  Mo  Mo18  1  0.66575723  0.21271780  0.40053002  1
  Mo  Mo19  1  0.58027840  0.66872219  0.48675060  1
  O  O20  1  0.30790151  0.76582538  0.96092580  1
  O  O21  1  0.36642285  0.28273967  0.11330369  1
  O  O22  1  0.90206123  0.91636087  0.56511848  1
  O  O23  1  0.10209758  0.43283737  0.59325415  1
  O  O24  1  0.60209758  0.06716263  0.40674585  1
  O  O25  1  0.85552523  0.91240558  0.21273968  1
  O  O26  1  0.00572822  0.70666308  0.82524781  1
  O  O27  1  0.87960750  0.22804489  0.32916819  1
  O  O28  1  0.72388133  0.41602968  0.01484982  1
  O  O29  1  0.89790242  0.93283737  0.90674585  1
  O  O30  1  0.21834636  0.10359493  0.25126617  1
  O  O31  1  0.49427178  0.29333692  0.32524781  1
  O  O32  1  0.22388133  0.08397032  0.98515018  1
  O  O33  1  0.78165364  0.60359493  0.24873383  1
  O  O34  1  0.51248739  0.74069125  0.61433195  1
  O  O35  1  0.14447477  0.41240558  0.28726032  1
  O  O36  1  0.71834636  0.39640507  0.74873383  1
  O  O37  1  0.59793877  0.08363913  0.06511848  1
  O  O38  1  0.09793877  0.41636087  0.93488152  1
  O  O39  1  0.37960750  0.27195511  0.67083181  1
  O  O40  1  0.39790242  0.56716263  0.09325415  1
  O  O41  1  0.63357715  0.78273967  0.38669631  1
  O  O42  1  0.27611867  0.91602968  0.48515018  1
  O  O43  1  0.50572822  0.79333692  0.17475219  1
  O  O44  1  0.01248739  0.75930875  0.38566805  1
  O  O45  1  0.13357715  0.71726033  0.61330369  1
  O  O46  1  0.62039250  0.77195511  0.82916819  1
  O  O47  1  0.40206123  0.58363913  0.43488152  1
  O  O48  1  0.12039250  0.72804489  0.17083181  1
  O  O49  1  0.77611867  0.58397032  0.51484982  1
  O  O50  1  0.35552523  0.58759442  0.78726032  1
  O  O51  1  0.86642285  0.21726033  0.88669631  1
  O  O52  1  0.19209849  0.23417462  0.46092580  1
  O  O53  1  0.99427178  0.20666308  0.67475219  1
  O  O54  1  0.80790151  0.73417462  0.03907420  1
  O  O55  1  0.69209849  0.26582538  0.53907420  1
  O  O56  1  0.64447477  0.08759442  0.71273968  1
  O  O57  1  0.98751261  0.25930875  0.11433195  1
  O  O58  1  0.28165364  0.89640507  0.75126617  1
  O  O59  1  0.48751261  0.24069125  0.88566805  1
