# generated using pymatgen
data_BaZnFeF7
_symmetry_space_group_name_H-M   'P 1'
_cell_length_a   5.69930605
_cell_length_b   9.72661415
_cell_length_c   10.11361837
_cell_angle_alpha   90.00000000
_cell_angle_beta   90.00000000
_cell_angle_gamma   93.12432883
_symmetry_Int_Tables_number   1
_chemical_formula_structural   BaZnFeF7
_chemical_formula_sum   'Ba4 Zn4 Fe4 F28'
_cell_volume   559.81460034
_cell_formula_units_Z   4
loop_
 _symmetry_equiv_pos_site_id
 _symmetry_equiv_pos_as_xyz
  1  'x, y, z'
loop_
 _atom_site_type_symbol
 _atom_site_label
 _atom_site_symmetry_multiplicity
 _atom_site_fract_x
 _atom_site_fract_y
 _atom_site_fract_z
 _atom_site_occupancy
  Ba  Ba0  1  0.26198973  0.49875743  0.32144057  1
  Ba  Ba1  1  0.73801027  0.00124257  0.82144057  1
  Ba  Ba2  1  0.73801027  0.50124257  0.67855943  1
  Ba  Ba3  1  0.26198973  0.99875743  0.17855943  1
  Zn  Zn4  1  0.70054331  0.81058017  0.39811549  1
  Zn  Zn5  1  0.29945669  0.68941983  0.89811549  1
  Zn  Zn6  1  0.70054331  0.31058017  0.10188451  1
  Zn  Zn7  1  0.29945669  0.18941983  0.60188451  1
  Fe  Fe8  1  0.19693082  0.81186922  0.60965914  1
  Fe  Fe9  1  0.80306918  0.18813078  0.39034086  1
  Fe  Fe10  1  0.19693082  0.31186922  0.89034086  1
  Fe  Fe11  1  0.80306918  0.68813078  0.10965914  1
  F  F12  1  0.11016501  0.12347790  0.44251655  1
  F  F13  1  0.36547839  0.36937062  0.04953719  1
  F  F14  1  0.47308265  0.75290221  0.70894025  1
  F  F15  1  0.52691735  0.24709779  0.29105975  1
  F  F16  1  0.89007659  0.36695605  0.45873255  1
  F  F17  1  0.25927474  0.49797015  0.81092849  1
  F  F18  1  0.02459636  0.75265069  0.77647830  1
  F  F19  1  0.10992341  0.13304395  0.95873255  1
  F  F20  1  0.36547839  0.86937062  0.45046281  1
  F  F21  1  0.52691735  0.74709779  0.20894025  1
  F  F22  1  0.11016501  0.62347790  0.05748345  1
  F  F23  1  0.88983499  0.87652210  0.55748345  1
  F  F24  1  0.97540364  0.74734931  0.27647830  1
  F  F25  1  0.38931942  0.87500206  0.95831019  1
  F  F26  1  0.10992341  0.63304395  0.54126745  1
  F  F27  1  0.89007659  0.86695605  0.04126745  1
  F  F28  1  0.97540364  0.24734931  0.22352170  1
  F  F29  1  0.88983499  0.37652210  0.94251655  1
  F  F30  1  0.61068058  0.62499794  0.45831019  1
  F  F31  1  0.63452161  0.63062938  0.95046281  1
  F  F32  1  0.61068058  0.12499794  0.04168981  1
  F  F33  1  0.02459636  0.25265069  0.72352170  1
  F  F34  1  0.38931942  0.37500206  0.54168981  1
  F  F35  1  0.74072526  0.00202985  0.31092849  1
  F  F36  1  0.74072526  0.50202985  0.18907151  1
  F  F37  1  0.25927474  0.99797015  0.68907151  1
  F  F38  1  0.63452161  0.13062938  0.54953719  1
  F  F39  1  0.47308265  0.25290221  0.79105975  1
