# generated using pymatgen
data_Co6O7F5
_symmetry_space_group_name_H-M   'P 1'
_cell_length_a   7.50769470
_cell_length_b   5.47300533
_cell_length_c   5.47300533
_cell_angle_alpha   69.14945372
_cell_angle_beta   70.08125424
_cell_angle_gamma   70.08125424
_symmetry_Int_Tables_number   1
_chemical_formula_structural   Co6O7F5
_chemical_formula_sum   'Co6 O7 F5'
_cell_volume   191.32341006
_cell_formula_units_Z   1
loop_
 _symmetry_equiv_pos_site_id
 _symmetry_equiv_pos_as_xyz
  1  'x, y, z'
loop_
 _atom_site_type_symbol
 _atom_site_label
 _atom_site_symmetry_multiplicity
 _atom_site_fract_x
 _atom_site_fract_y
 _atom_site_fract_z
 _atom_site_occupancy
  Co  Co0  1  0.85458133  0.67930688  0.69629944  1
  Co  Co1  1  0.32780319  0.65827289  0.66966065  1
  Co  Co2  1  0.67219681  0.33033935  0.34172711  1
  Co  Co3  1  0.14541867  0.30370056  0.32069312  1
  Co  Co4  1  0.50000000  0.99634044  0.00365956  1
  Co  Co5  1  0.00000000  0.01978728  0.98021272  1
  O  O6  1  0.33045108  0.35373725  0.96424799  1
  O  O7  1  0.66954892  0.03575201  0.64626275  1
  O  O8  1  0.96491784  0.22845107  0.21611261  1
  O  O9  1  0.03508216  0.78388739  0.77154893  1
  O  O10  1  0.33259092  0.95693659  0.36136877  1
  O  O11  1  0.66740908  0.63863123  0.04306341  1
  O  O12  1  0.00000000  0.31707472  0.68292528  1
  F  F13  1  0.62863393  0.57136474  0.57390183  1
  F  F14  1  0.29905916  0.89252251  0.89645514  1
  F  F15  1  0.37136607  0.42609817  0.42863526  1
  F  F16  1  0.70094084  0.10354486  0.10747749  1
  F  F17  1  0.00000000  0.70425204  0.29574896  1
