# generated using pymatgen
data_Lu7Sb3
_symmetry_space_group_name_H-M   'P 1'
_cell_length_a   8.86741697
_cell_length_b   11.97513684
_cell_length_c   11.97513746
_cell_angle_alpha   82.13608966
_cell_angle_beta   68.27522441
_cell_angle_gamma   68.27522280
_symmetry_Int_Tables_number   1
_chemical_formula_structural   Lu7Sb3
_chemical_formula_sum   'Lu28 Sb12'
_cell_volume   1097.39737552
_cell_formula_units_Z   4
loop_
 _symmetry_equiv_pos_site_id
 _symmetry_equiv_pos_as_xyz
  1  'x, y, z'
loop_
 _atom_site_type_symbol
 _atom_site_label
 _atom_site_symmetry_multiplicity
 _atom_site_fract_x
 _atom_site_fract_y
 _atom_site_fract_z
 _atom_site_occupancy
  Lu  Lu0  1  0.52932617  0.82949000  0.49998907  1
  Lu  Lu1  1  0.75000000  0.00006581  0.99993419  1
  Lu  Lu2  1  0.98260595  0.68158746  0.35317380  1
  Lu  Lu3  1  0.12335743  0.99318001  0.75999628  1
  Lu  Lu4  1  0.14119396  0.82939672  0.50000537  1
  Lu  Lu5  1  0.62335743  0.75999628  0.99318001  1
  Lu  Lu6  1  0.33579130  0.64683815  0.68155370  1
  Lu  Lu7  1  0.48260595  0.35317380  0.68158746  1
  Lu  Lu8  1  0.35880604  0.49999463  0.17060328  1
  Lu  Lu9  1  0.38341871  0.99315414  0.24000729  1
  Lu  Lu10  1  0.97067383  0.50001093  0.17051000  1
  Lu  Lu11  1  0.61658129  0.00684586  0.75999271  1
  Lu  Lu12  1  0.01739405  0.31841254  0.64682620  1
  Lu  Lu13  1  0.11658129  0.75999271  0.00684586  1
  Lu  Lu14  1  0.02932617  0.49998907  0.82949000  1
  Lu  Lu15  1  0.83579130  0.68155370  0.64683815  1
  Lu  Lu16  1  0.85880604  0.17060328  0.49999463  1
  Lu  Lu17  1  0.64119396  0.50000537  0.82939672  1
  Lu  Lu18  1  0.87664257  0.00681999  0.24000372  1
  Lu  Lu19  1  0.25000000  0.99993419  0.00006581  1
  Lu  Lu20  1  0.51739405  0.64682620  0.31841254  1
  Lu  Lu21  1  0.37664257  0.24000372  0.00681999  1
  Lu  Lu22  1  0.47067383  0.17051000  0.50001093  1
  Lu  Lu23  1  0.66420870  0.35316185  0.31844630  1
  Lu  Lu24  1  0.25000000  0.49999847  0.50000153  1
  Lu  Lu25  1  0.88341871  0.24000729  0.99315414  1
  Lu  Lu26  1  0.16420870  0.31844630  0.35316185  1
  Lu  Lu27  1  0.75000000  0.50000153  0.49999847  1
  Sb  Sb28  1  0.55290352  0.19717657  0.19712586  1
  Sb  Sb29  1  0.71964812  0.49996936  0.06066999  1
  Sb  Sb30  1  0.44709648  0.80282343  0.80287414  1
  Sb  Sb31  1  0.28035188  0.50003064  0.93933001  1
  Sb  Sb32  1  0.21964812  0.06066999  0.49996936  1
  Sb  Sb33  1  0.75000000  0.80279657  0.19720343  1
  Sb  Sb34  1  0.78035188  0.93933001  0.50003064  1
  Sb  Sb35  1  0.25000000  0.80282599  0.19717401  1
  Sb  Sb36  1  0.05290352  0.19712586  0.19717657  1
  Sb  Sb37  1  0.75000000  0.19717401  0.80282599  1
  Sb  Sb38  1  0.94709648  0.80287414  0.80282343  1
  Sb  Sb39  1  0.25000000  0.19720343  0.80279657  1
