# generated using pymatgen
data_MnSbSe2Br
_symmetry_space_group_name_H-M   'P 1'
_cell_length_a   3.98378134
_cell_length_b   10.10298476
_cell_length_c   13.01489310
_cell_angle_alpha   90.00000000
_cell_angle_beta   90.00000000
_cell_angle_gamma   90.00000000
_symmetry_Int_Tables_number   1
_chemical_formula_structural   MnSbSe2Br
_chemical_formula_sum   'Mn4 Sb4 Se8 Br4'
_cell_volume   523.82448686
_cell_formula_units_Z   4
loop_
 _symmetry_equiv_pos_site_id
 _symmetry_equiv_pos_as_xyz
  1  'x, y, z'
loop_
 _atom_site_type_symbol
 _atom_site_label
 _atom_site_symmetry_multiplicity
 _atom_site_fract_x
 _atom_site_fract_y
 _atom_site_fract_z
 _atom_site_occupancy
  Mn  Mn0  1  0.75000000  0.49265419  0.76284355  1
  Mn  Mn1  1  0.75000000  0.99265419  0.73715645  1
  Mn  Mn2  1  0.25000000  0.00734581  0.26284355  1
  Mn  Mn3  1  0.25000000  0.50734581  0.23715645  1
  Sb  Sb4  1  0.25000000  0.81467942  0.96206128  1
  Sb  Sb5  1  0.75000000  0.68532058  0.46206128  1
  Sb  Sb6  1  0.25000000  0.31467942  0.53793872  1
  Sb  Sb7  1  0.75000000  0.18532058  0.03793872  1
  Se  Se8  1  0.25000000  0.55402392  0.61931942  1
  Se  Se9  1  0.75000000  0.25166585  0.67652358  1
  Se  Se10  1  0.75000000  0.75166585  0.82347642  1
  Se  Se11  1  0.25000000  0.24833415  0.17652358  1
  Se  Se12  1  0.75000000  0.94597608  0.11931942  1
  Se  Se13  1  0.25000000  0.74833415  0.32347642  1
  Se  Se14  1  0.25000000  0.05402392  0.88068058  1
  Se  Se15  1  0.75000000  0.44597608  0.38068058  1
  Br  Br16  1  0.25000000  0.43094612  0.88728607  1
  Br  Br17  1  0.75000000  0.06905388  0.38728607  1
  Br  Br18  1  0.25000000  0.93094612  0.61271393  1
  Br  Br19  1  0.75000000  0.56905388  0.11271393  1
