# generated using pymatgen
data_Li5VP2(O4F)2
_symmetry_space_group_name_H-M   'P 1'
_cell_length_a   6.45686188
_cell_length_b   10.52020965
_cell_length_c   10.93660380
_cell_angle_alpha   90.00000000
_cell_angle_beta   90.00000000
_cell_angle_gamma   90.01846413
_symmetry_Int_Tables_number   1
_chemical_formula_structural   Li5VP2(O4F)2
_chemical_formula_sum   'Li20 V4 P8 O32 F8'
_cell_volume   742.89656101
_cell_formula_units_Z   4
loop_
 _symmetry_equiv_pos_site_id
 _symmetry_equiv_pos_as_xyz
  1  'x, y, z'
loop_
 _atom_site_type_symbol
 _atom_site_label
 _atom_site_symmetry_multiplicity
 _atom_site_fract_x
 _atom_site_fract_y
 _atom_site_fract_z
 _atom_site_occupancy
  Li  Li0  1  0.96784878  0.75419787  0.33661090  1
  Li  Li1  1  0.03215122  0.74580213  0.83661090  1
  Li  Li2  1  0.50860209  0.26821941  0.66555204  1
  Li  Li3  1  0.25887934  0.72747574  0.08350026  1
  Li  Li4  1  0.25501602  0.47459819  0.72394068  1
  Li  Li5  1  0.50000000  0.50000000  0.50000000  1
  Li  Li6  1  0.03215122  0.24580213  0.66338910  1
  Li  Li7  1  0.74498398  0.02540181  0.22394068  1
  Li  Li8  1  0.74112066  0.77252426  0.58350026  1
  Li  Li9  1  0.49139791  0.73178059  0.33444796  1
  Li  Li10  1  0.50000000  0.00000000  0.50000000  1
  Li  Li11  1  0.74112066  0.27252426  0.91649974  1
  Li  Li12  1  0.25887934  0.22747574  0.41649974  1
  Li  Li13  1  0.50860209  0.76821941  0.83444796  1
  Li  Li14  1  0.25501602  0.97459819  0.77605932  1
  Li  Li15  1  0.49139791  0.23178059  0.16555204  1
  Li  Li16  1  0.50000000  0.00000000  0.00000000  1
  Li  Li17  1  0.74498398  0.52540181  0.27605932  1
  Li  Li18  1  0.96784878  0.25419787  0.16338910  1
  Li  Li19  1  0.50000000  0.50000000  0.00000000  1
  V  V20  1  0.00000000  0.50000000  0.50000000  1
  V  V21  1  0.00000000  0.00000000  0.00000000  1
  V  V22  1  0.00000000  0.00000000  0.50000000  1
  V  V23  1  0.00000000  0.50000000  0.00000000  1
  P  P24  1  0.25209564  0.47638010  0.25521675  1
  P  P25  1  0.74126546  0.74428503  0.07930487  1
  P  P26  1  0.74126546  0.24428503  0.42069513  1
  P  P27  1  0.25209564  0.97638010  0.24478325  1
  P  P28  1  0.25873454  0.25571497  0.92069513  1
  P  P29  1  0.25873454  0.75571497  0.57930487  1
  P  P30  1  0.74790436  0.02361990  0.75521675  1
  P  P31  1  0.74790436  0.52361990  0.74478325  1
  O  O32  1  0.05998451  0.81561061  0.51815045  1
  O  O33  1  0.05849566  0.53399021  0.32339564  1
  O  O34  1  0.94150434  0.96600979  0.82339564  1
  O  O35  1  0.45327370  0.80424264  0.51313685  1
  O  O36  1  0.54672630  0.19575736  0.48686315  1
  O  O37  1  0.76201308  0.97385556  0.61992086  1
  O  O38  1  0.45327370  0.30424264  0.98686315  1
  O  O39  1  0.24333195  0.32913196  0.25527998  1
  O  O40  1  0.55385669  0.46811770  0.68432970  1
  O  O41  1  0.05998451  0.31561061  0.98184955  1
  O  O42  1  0.44614331  0.03188230  0.18432970  1
  O  O43  1  0.55385669  0.96811770  0.81567030  1
  O  O44  1  0.76264513  0.39051797  0.44366839  1
  O  O45  1  0.73927819  0.21650812  0.28278494  1
  O  O46  1  0.23735487  0.60948203  0.55633161  1
  O  O47  1  0.23798692  0.02614444  0.38007914  1
  O  O48  1  0.44614331  0.53188230  0.31567030  1
  O  O49  1  0.26072181  0.78349188  0.71721506  1
  O  O50  1  0.75666805  0.67086804  0.74472002  1
  O  O51  1  0.94001549  0.18438939  0.48184955  1
  O  O52  1  0.24333195  0.82913196  0.24472002  1
  O  O53  1  0.26072181  0.28349188  0.78278494  1
  O  O54  1  0.94001549  0.68438939  0.01815045  1
  O  O55  1  0.54672630  0.69575736  0.01313685  1
  O  O56  1  0.76264513  0.89051797  0.05633161  1
  O  O57  1  0.05849566  0.03399021  0.17660436  1
  O  O58  1  0.94150434  0.46600979  0.67660436  1
  O  O59  1  0.23735487  0.10948203  0.94366839  1
  O  O60  1  0.73927819  0.71650812  0.21721506  1
  O  O61  1  0.23798692  0.52614444  0.11992086  1
  O  O62  1  0.75666805  0.17086804  0.75527998  1
  O  O63  1  0.76201308  0.47385556  0.88007914  1
  F  F64  1  0.77399317  0.13274572  0.03086500  1
  F  F65  1  0.21327318  0.05974926  0.62325573  1
  F  F66  1  0.78672682  0.44025074  0.12325573  1
  F  F67  1  0.22600683  0.36725428  0.53086500  1
  F  F68  1  0.22600683  0.86725428  0.96913500  1
  F  F69  1  0.78672682  0.94025074  0.37674427  1
  F  F70  1  0.21327318  0.55974926  0.87674427  1
  F  F71  1  0.77399317  0.63274572  0.46913500  1
