# generated using pymatgen
data_Co6O5F7
_symmetry_space_group_name_H-M   'P 1'
_cell_length_a   7.18056240
_cell_length_b   5.57862279
_cell_length_c   5.57862279
_cell_angle_alpha   72.27119703
_cell_angle_beta   71.97797287
_cell_angle_gamma   71.97797287
_symmetry_Int_Tables_number   1
_chemical_formula_structural   Co6O5F7
_chemical_formula_sum   'Co6 O5 F7'
_cell_volume   196.61644952
_cell_formula_units_Z   1
loop_
 _symmetry_equiv_pos_site_id
 _symmetry_equiv_pos_as_xyz
  1  'x, y, z'
loop_
 _atom_site_type_symbol
 _atom_site_label
 _atom_site_symmetry_multiplicity
 _atom_site_fract_x
 _atom_site_fract_y
 _atom_site_fract_z
 _atom_site_occupancy
  Co  Co0  1  0.82021209  0.69965322  0.69965322  1
  Co  Co1  1  0.30851979  0.64762068  0.64762068  1
  Co  Co2  1  0.67101091  0.33635828  0.33635828  1
  Co  Co3  1  0.16088867  0.32801141  0.32801141  1
  Co  Co4  1  0.51924681  0.97776660  0.97776660  1
  Co  Co5  1  -0.00000551  0.00622248  0.00622248  1
  O  O6  1  0.67310652  0.04757920  0.61956540  1
  O  O7  1  0.95812938  0.22924830  0.22924830  1
  O  O8  1  0.38327654  0.42269351  0.42269351  1
  O  O9  1  0.03172574  0.78684330  0.78684330  1
  O  O10  1  0.67310652  0.61956540  0.04757920  1
  F  F11  1  0.33879513  0.35120133  0.95867088  1
  F  F12  1  0.62919628  0.57479719  0.57479719  1
  F  F13  1  0.30062505  0.89380361  0.89380361  1
  F  F14  1  0.70296186  0.09637438  0.09637438  1
  F  F15  1  0.33879513  0.95867088  0.35120133  1
  F  F16  1  0.99520455  0.31783966  0.70575058  1
  F  F17  1  0.99520455  0.70575058  0.31783966  1
