# generated using pymatgen
data_Sr4Sn2Se9
_symmetry_space_group_name_H-M   'P 1'
_cell_length_a   8.75344170
_cell_length_b   12.12112569
_cell_length_c   16.36044042
_cell_angle_alpha   90.00000000
_cell_angle_beta   90.00000000
_cell_angle_gamma   90.00000000
_symmetry_Int_Tables_number   1
_chemical_formula_structural   Sr4Sn2Se9
_chemical_formula_sum   'Sr16 Sn8 Se36'
_cell_volume   1735.86836645
_cell_formula_units_Z   4
loop_
 _symmetry_equiv_pos_site_id
 _symmetry_equiv_pos_as_xyz
  1  'x, y, z'
loop_
 _atom_site_type_symbol
 _atom_site_label
 _atom_site_symmetry_multiplicity
 _atom_site_fract_x
 _atom_site_fract_y
 _atom_site_fract_z
 _atom_site_occupancy
  Sr  Sr0  1  0.74708195  0.11228378  0.67370262  1
  Sr  Sr1  1  0.24892920  0.25414447  0.92770947  1
  Sr  Sr2  1  0.74708195  0.61228378  0.82629738  1
  Sr  Sr3  1  0.25291805  0.11228378  0.67370262  1
  Sr  Sr4  1  0.25291805  0.88771622  0.32629738  1
  Sr  Sr5  1  0.25291805  0.61228378  0.82629738  1
  Sr  Sr6  1  0.24892920  0.75414447  0.57229053  1
  Sr  Sr7  1  0.75107080  0.25414447  0.92770947  1
  Sr  Sr8  1  0.74708195  0.38771622  0.17370262  1
  Sr  Sr9  1  0.25291805  0.38771622  0.17370262  1
  Sr  Sr10  1  0.24892920  0.24585553  0.42770947  1
  Sr  Sr11  1  0.75107080  0.75414447  0.57229053  1
  Sr  Sr12  1  0.75107080  0.24585553  0.42770947  1
  Sr  Sr13  1  0.75107080  0.74585553  0.07229053  1
  Sr  Sr14  1  0.24892920  0.74585553  0.07229053  1
  Sr  Sr15  1  0.74708195  0.88771622  0.32629738  1
  Sn  Sn16  1  0.50000000  0.91003452  0.82153507  1
  Sn  Sn17  1  0.50000000  0.08996548  0.17846493  1
  Sn  Sn18  1  0.50000000  0.58996548  0.32153507  1
  Sn  Sn19  1  0.50000000  0.41003452  0.67846493  1
  Sn  Sn20  1  0.00000000  0.95076870  0.89563821  1
  Sn  Sn21  1  0.00000000  0.45076870  0.60436179  1
  Sn  Sn22  1  0.00000000  0.54923130  0.39563821  1
  Sn  Sn23  1  0.00000000  0.04923130  0.10436179  1
  Se  Se24  1  0.50000000  0.74200713  0.43087797  1
  Se  Se25  1  0.50000000  0.75799287  0.93087797  1
  Se  Se26  1  0.75668124  0.13043394  0.24946020  1
  Se  Se27  1  0.24331876  0.13043394  0.24946020  1
  Se  Se28  1  0.00000000  0.13381142  0.81392576  1
  Se  Se29  1  0.22611848  0.00000000  0.00000000  1
  Se  Se30  1  0.22611848  0.50000000  0.50000000  1
  Se  Se31  1  0.77388152  0.00000000  0.00000000  1
  Se  Se32  1  0.00000000  0.46359489  0.92985413  1
  Se  Se33  1  0.77388152  0.50000000  0.50000000  1
  Se  Se34  1  0.00000000  0.24243160  0.57386883  1
  Se  Se35  1  0.00000000  0.36618858  0.31392576  1
  Se  Se36  1  0.00000000  0.53640511  0.07014587  1
  Se  Se37  1  0.50000000  0.54078688  0.06866449  1
  Se  Se38  1  0.00000000  0.25756840  0.07386883  1
  Se  Se39  1  0.50000000  0.62342176  0.67972412  1
  Se  Se40  1  0.24331876  0.86956606  0.75053980  1
  Se  Se41  1  0.00000000  0.86618858  0.18607424  1
  Se  Se42  1  0.50000000  0.12342176  0.82027588  1
  Se  Se43  1  0.24331876  0.36956606  0.74946020  1
  Se  Se44  1  0.75668124  0.63043394  0.25053980  1
  Se  Se45  1  0.50000000  0.25799287  0.56912203  1
  Se  Se46  1  0.00000000  0.74243160  0.92613117  1
  Se  Se47  1  0.50000000  0.95921312  0.56866449  1
  Se  Se48  1  0.50000000  0.24200713  0.06912203  1
  Se  Se49  1  0.50000000  0.87657824  0.17972412  1
  Se  Se50  1  0.75668124  0.86956606  0.75053980  1
  Se  Se51  1  0.50000000  0.04078688  0.43133551  1
  Se  Se52  1  0.50000000  0.45921312  0.93133551  1
  Se  Se53  1  0.75668124  0.36956606  0.74946020  1
  Se  Se54  1  0.00000000  0.75756840  0.42613117  1
  Se  Se55  1  0.50000000  0.37657824  0.32027588  1
  Se  Se56  1  0.00000000  0.03640511  0.42985413  1
  Se  Se57  1  0.00000000  0.63381142  0.68607424  1
  Se  Se58  1  0.00000000  0.96359489  0.57014587  1
  Se  Se59  1  0.24331876  0.63043394  0.25053980  1
