# generated using pymatgen
data_Be(BC)2
_symmetry_space_group_name_H-M   'P 1'
_cell_length_a   4.70149561
_cell_length_b   5.43396802
_cell_length_c   6.13303419
_cell_angle_alpha   90.00000000
_cell_angle_beta   90.00000000
_cell_angle_gamma   90.00000000
_symmetry_Int_Tables_number   1
_chemical_formula_structural   Be(BC)2
_chemical_formula_sum   'Be4 B8 C8'
_cell_volume   156.68538854
_cell_formula_units_Z   4
loop_
 _symmetry_equiv_pos_site_id
 _symmetry_equiv_pos_as_xyz
  1  'x, y, z'
loop_
 _atom_site_type_symbol
 _atom_site_label
 _atom_site_symmetry_multiplicity
 _atom_site_fract_x
 _atom_site_fract_y
 _atom_site_fract_z
 _atom_site_occupancy
  Be  Be0  1  0.18362741  0.75000000  0.04668355  1
  Be  Be1  1  0.18362741  0.75000000  0.45331645  1
  Be  Be2  1  0.81637259  0.25000000  0.95331645  1
  Be  Be3  1  0.81637259  0.25000000  0.54668355  1
  B  B4  1  0.47856368  0.25000000  0.75000000  1
  B  B5  1  0.99177250  0.99833086  0.75000000  1
  B  B6  1  0.49928383  0.25000000  0.25000000  1
  B  B7  1  0.52143632  0.75000000  0.25000000  1
  B  B8  1  0.99177250  0.50166914  0.75000000  1
  B  B9  1  0.00822750  0.49833086  0.25000000  1
  B  B10  1  0.50071617  0.75000000  0.75000000  1
  B  B11  1  0.00822750  0.00166914  0.25000000  1
  C  C12  1  0.33982941  0.50682300  0.25000000  1
  C  C13  1  0.33982941  0.99317700  0.25000000  1
  C  C14  1  0.66017059  0.00682300  0.75000000  1
  C  C15  1  0.16600031  0.75000000  0.75000000  1
  C  C16  1  0.83399969  0.25000000  0.25000000  1
  C  C17  1  0.85533132  0.75000000  0.25000000  1
  C  C18  1  0.66017059  0.49317700  0.75000000  1
  C  C19  1  0.14466868  0.25000000  0.75000000  1
