# generated using pymatgen
data_Ge4Te7As2
_symmetry_space_group_name_H-M   'P 1'
_cell_length_a   23.98712126
_cell_length_b   23.98712130
_cell_length_c   23.98712159
_cell_angle_alpha   10.02558927
_cell_angle_beta   10.02558852
_cell_angle_gamma   10.02558855
_symmetry_Int_Tables_number   1
_chemical_formula_structural   Ge4Te7As2
_chemical_formula_sum   'Ge4 Te7 As2'
_cell_volume   363.16943262
_cell_formula_units_Z   1
loop_
 _symmetry_equiv_pos_site_id
 _symmetry_equiv_pos_as_xyz
  1  'x, y, z'
loop_
 _atom_site_type_symbol
 _atom_site_label
 _atom_site_symmetry_multiplicity
 _atom_site_fract_x
 _atom_site_fract_y
 _atom_site_fract_z
 _atom_site_occupancy
  Ge  Ge0  1  0.92535396  0.92535396  0.92535396  1
  Ge  Ge1  1  0.69142790  0.69142790  0.69142790  1
  Ge  Ge2  1  0.30857210  0.30857210  0.30857210  1
  Ge  Ge3  1  0.07464604  0.07464604  0.07464604  1
  Te  Te4  1  0.85474620  0.85474620  0.85474620  1
  Te  Te5  1  0.23540881  0.23540881  0.23540881  1
  Te  Te6  1  0.76459119  0.76459119  0.76459119  1
  Te  Te7  1  0.14525380  0.14525380  0.14525380  1
  Te  Te8  1  0.00000000  0.00000000  0.00000000  1
  Te  Te9  1  0.38209956  0.38209956  0.38209956  1
  Te  Te10  1  0.61790044  0.61790044  0.61790044  1
  As  As11  1  0.45786766  0.45786766  0.45786766  1
  As  As12  1  0.54213234  0.54213234  0.54213234  1
