# generated using pymatgen
data_Li5Co5O9F
_symmetry_space_group_name_H-M   'P 1'
_cell_length_a   5.12380857
_cell_length_b   5.01369971
_cell_length_c   7.90385895
_cell_angle_alpha   109.54379382
_cell_angle_beta   78.72306629
_cell_angle_gamma   79.24251475
_symmetry_Int_Tables_number   1
_chemical_formula_structural   Li5Co5O9F
_chemical_formula_sum   'Li5 Co5 O9 F1'
_cell_volume   180.53710068
_cell_formula_units_Z   1
loop_
 _symmetry_equiv_pos_site_id
 _symmetry_equiv_pos_as_xyz
  1  'x, y, z'
loop_
 _atom_site_type_symbol
 _atom_site_label
 _atom_site_symmetry_multiplicity
 _atom_site_fract_x
 _atom_site_fract_y
 _atom_site_fract_z
 _atom_site_occupancy
  Li  Li0  1  0.50423477  0.21252698  0.90554557  1
  Li  Li1  1  0.50158014  0.58546284  0.69586303  1
  Li  Li2  1  0.50265498  0.00407771  0.49164779  1
  Li  Li3  1  0.49740102  0.40169260  0.30554098  1
  Li  Li4  1  0.49074505  0.80228086  0.10407126  1
  Co  Co5  1  0.99731329  0.41737375  0.80040896  1
  Co  Co6  1  0.98470284  0.77910496  0.59678136  1
  Co  Co7  1  0.99268520  0.19378229  0.40011140  1
  Co  Co8  1  0.99574030  0.59862344  0.19919222  1
  Co  Co9  1  0.99005750  0.00436700  0.01259622  1
  O  O10  1  0.77463738  0.82910952  0.85527160  1
  O  O11  1  0.23761457  0.62513454  0.95064308  1
  O  O12  1  0.78573866  0.18011190  0.63917757  1
  O  O13  1  0.76042861  0.57409115  0.44883566  1
  O  O14  1  0.23662335  0.41222739  0.54719890  1
  O  O15  1  0.76152817  0.98004224  0.24998327  1
  O  O16  1  0.21112567  0.80286166  0.34702441  1
  O  O17  1  0.78456852  0.38874122  0.04985857  1
  O  O18  1  0.21056358  0.20900747  0.15837870  1
  F  F19  1  0.28005539  0.99938048  0.74186745  1
