# generated using pymatgen
data_CsPr(PO3)4
_symmetry_space_group_name_H-M   'P 1'
_cell_length_a   9.19967572
_cell_length_b   10.67484319
_cell_length_c   11.39748980
_cell_angle_alpha   106.60909834
_cell_angle_beta   90.00000000
_cell_angle_gamma   90.00000000
_symmetry_Int_Tables_number   1
_chemical_formula_structural   CsPr(PO3)4
_chemical_formula_sum   'Cs4 Pr4 P16 O48'
_cell_volume   1072.59159424
_cell_formula_units_Z   4
loop_
 _symmetry_equiv_pos_site_id
 _symmetry_equiv_pos_as_xyz
  1  'x, y, z'
loop_
 _atom_site_type_symbol
 _atom_site_label
 _atom_site_symmetry_multiplicity
 _atom_site_fract_x
 _atom_site_fract_y
 _atom_site_fract_z
 _atom_site_occupancy
  Cs  Cs0  1  0.43398482  0.31310925  0.53925839  1
  Cs  Cs1  1  0.93398482  0.18689075  0.96074161  1
  Cs  Cs2  1  0.56601518  0.68689075  0.46074161  1
  Cs  Cs3  1  0.06601518  0.81310925  0.03925839  1
  Pr  Pr4  1  0.27423954  0.49842553  0.18175106  1
  Pr  Pr5  1  0.77423954  0.00157447  0.31824894  1
  Pr  Pr6  1  0.22576046  0.99842553  0.68175106  1
  Pr  Pr7  1  0.72576046  0.50157447  0.81824894  1
  P  P8  1  0.60235345  0.82490011  0.02473694  1
  P  P9  1  0.96911240  0.74873332  0.71566711  1
  P  P10  1  0.53088760  0.24873332  0.21566711  1
  P  P11  1  0.40655478  0.85628984  0.24064512  1
  P  P12  1  0.32444699  0.53887612  0.86268040  1
  P  P13  1  0.90655478  0.64371016  0.25935488  1
  P  P14  1  0.17555301  0.03887612  0.36268040  1
  P  P15  1  0.03088760  0.25126668  0.28433289  1
  P  P16  1  0.59344522  0.14371016  0.75935488  1
  P  P17  1  0.67555301  0.46112388  0.13731960  1
  P  P18  1  0.09344522  0.35628984  0.74064512  1
  P  P19  1  0.89764655  0.32490011  0.52473694  1
  P  P20  1  0.46911240  0.75126668  0.78433289  1
  P  P21  1  0.10235345  0.67509989  0.47526306  1
  P  P22  1  0.39764655  0.17509989  0.97526306  1
  P  P23  1  0.82444699  0.96112388  0.63731960  1
  O  O24  1  0.53804928  0.85706518  0.90369913  1
  O  O25  1  0.32327231  0.73945397  0.25139030  1
  O  O26  1  0.96294837  0.03688948  0.67058213  1
  O  O27  1  0.15989979  0.18367533  0.34319271  1
  O  O28  1  0.46195072  0.14293482  0.09630087  1
  O  O29  1  0.96425537  0.40088648  0.82235097  1
  O  O30  1  0.34010021  0.68367533  0.84319271  1
  O  O31  1  0.44994327  0.83469727  0.09925361  1
  O  O32  1  0.65655340  0.68672686  0.98687960  1
  O  O33  1  0.46294837  0.46311052  0.82941787  1
  O  O34  1  0.20525342  0.56969568  0.40799325  1
  O  O35  1  0.92073407  0.14864090  0.22395654  1
  O  O36  1  0.17672769  0.23945397  0.75139030  1
  O  O37  1  0.29408640  0.97777878  0.25518019  1
  O  O38  1  0.57926593  0.64864090  0.72395654  1
  O  O39  1  0.55005673  0.16530273  0.90074639  1
  O  O40  1  0.79474658  0.43030432  0.59200675  1
  O  O41  1  0.53574463  0.90088648  0.32235097  1
  O  O42  1  0.70525342  0.93030432  0.09200675  1
  O  O43  1  0.67672769  0.26054603  0.74860970  1
  O  O44  1  0.34344660  0.31327314  0.01312040  1
  O  O45  1  0.05005673  0.33469727  0.59925361  1
  O  O46  1  0.03705163  0.96311052  0.32941787  1
  O  O47  1  0.70591360  0.02222122  0.74481981  1
  O  O48  1  0.94994327  0.66530273  0.40074639  1
  O  O49  1  0.53705163  0.53688948  0.17058213  1
  O  O50  1  0.15655340  0.81327314  0.51312040  1
  O  O51  1  0.82327231  0.76054603  0.24860970  1
  O  O52  1  0.40165565  0.82737397  0.70657153  1
  O  O53  1  0.59834435  0.17262603  0.29342847  1
  O  O54  1  0.90165565  0.67262603  0.79342847  1
  O  O55  1  0.74449482  0.44095855  0.01419442  1
  O  O56  1  0.03574463  0.59911352  0.17764903  1
  O  O57  1  0.03804928  0.64293482  0.59630087  1
  O  O58  1  0.84010021  0.81632467  0.65680729  1
  O  O59  1  0.29474658  0.06969568  0.90799325  1
  O  O60  1  0.07926593  0.85135910  0.77604346  1
  O  O61  1  0.09834435  0.32737397  0.20657153  1
  O  O62  1  0.84344660  0.18672686  0.48687960  1
  O  O63  1  0.75550518  0.94095855  0.51419442  1
  O  O64  1  0.65989979  0.31632467  0.15680729  1
  O  O65  1  0.24449482  0.05904145  0.48580558  1
  O  O66  1  0.20591360  0.47777878  0.75518019  1
  O  O67  1  0.42073407  0.35135910  0.27604346  1
  O  O68  1  0.25550518  0.55904145  0.98580558  1
  O  O69  1  0.46425537  0.09911352  0.67764903  1
  O  O70  1  0.79408640  0.52222122  0.24481981  1
  O  O71  1  0.96195072  0.35706518  0.40369913  1
