# generated using pymatgen
data_LiMnPO4
_symmetry_space_group_name_H-M   'P 1'
_cell_length_a   10.08944385
_cell_length_b   10.23556558
_cell_length_c   17.52494606
_cell_angle_alpha   105.86658269
_cell_angle_beta   106.72982930
_cell_angle_gamma   60.47288503
_symmetry_Int_Tables_number   1
_chemical_formula_structural   LiMnPO4
_chemical_formula_sum   'Li16 Mn16 P16 O64'
_cell_volume   1489.20524059
_cell_formula_units_Z   16
loop_
 _symmetry_equiv_pos_site_id
 _symmetry_equiv_pos_as_xyz
  1  'x, y, z'
loop_
 _atom_site_type_symbol
 _atom_site_label
 _atom_site_symmetry_multiplicity
 _atom_site_fract_x
 _atom_site_fract_y
 _atom_site_fract_z
 _atom_site_occupancy
  Li  Li0  1  0.74178894  0.37643310  0.93616733  1
  Li  Li1  1  0.87693229  0.31867958  0.43738523  1
  Li  Li2  1  0.74198981  0.87758356  0.93606187  1
  Li  Li3  1  0.50638131  0.06063540  0.68631711  1
  Li  Li4  1  0.55864042  0.50153244  0.68494733  1
  Li  Li5  1  0.37702501  0.81951909  0.43700448  1
  Li  Li6  1  0.63104081  0.49590371  0.18693228  1
  Li  Li7  1  0.62482135  0.00151519  0.18493619  1
  Li  Li8  1  0.24178842  0.81865040  0.93736697  1
  Li  Li9  1  0.00655867  0.55345491  0.68695508  1
  Li  Li10  1  0.24045350  0.31949576  0.93700167  1
  Li  Li11  1  0.06000701  0.99588145  0.68693152  1
  Li  Li12  1  0.31645944  0.37756631  0.43603681  1
  Li  Li13  1  0.12694999  0.05344771  0.18696226  1
  Li  Li14  1  0.11933092  0.56063527  0.18631980  1
  Li  Li15  1  0.81794778  0.87643799  0.43615618  1
  Mn  Mn16  1  0.87539039  0.44059493  0.81191542  1
  Mn  Mn17  1  0.87026670  0.94608311  0.81255555  1
  Mn  Mn18  1  0.99618602  0.44604355  0.31249758  1
  Mn  Mn19  1  0.25819573  0.61982718  0.06252216  1
  Mn  Mn20  1  0.36933933  0.50219104  0.81277549  1
  Mn  Mn21  1  0.37423150  0.99721411  0.81360952  1
  Mn  Mn22  1  0.75703108  0.17985773  0.06160691  1
  Mn  Mn23  1  0.12469989  0.67985078  0.56157550  1
  Mn  Mn24  1  0.62256115  0.17836874  0.56152080  1
  Mn  Mn25  1  0.49594384  0.94059766  0.31187853  1
  Mn  Mn26  1  0.18448068  0.11989909  0.56254571  1
  Mn  Mn27  1  0.44205974  0.49718658  0.31358551  1
  Mn  Mn28  1  0.68473655  0.61843685  0.56211563  1
  Mn  Mn29  1  0.25886611  0.11845508  0.06209883  1
  Mn  Mn30  1  0.76066407  0.67832346  0.06157214  1
  Mn  Mn31  1  0.94121742  0.00225090  0.31276297  1
  P  P32  1  0.93541832  0.87238619  0.12280651  1
  P  P33  1  0.31504328  0.37238542  0.62280665  1
  P  P34  1  0.37194300  0.81830997  0.62463788  1
  P  P35  1  0.68465754  0.62553217  0.37495861  1
  P  P36  1  0.81674678  0.86924417  0.62341776  1
  P  P37  1  0.18338638  0.12947017  0.37508034  1
  P  P38  1  0.56180041  0.18400479  0.87347777  1
  P  P39  1  0.93745168  0.36922065  0.12343054  1
  P  P40  1  0.62840362  0.17955355  0.37348299  1
  P  P41  1  0.87287021  0.31398188  0.62460965  1
  P  P42  1  0.12767176  0.68400618  0.37345164  1
  P  P43  1  0.06220518  0.62949493  0.87507999  1
  P  P44  1  0.56558355  0.67952026  0.87350234  1
  P  P45  1  0.43773023  0.81400387  0.12459815  1
  P  P46  1  0.06473230  0.12553244  0.87494002  1
  P  P47  1  0.43438272  0.31827808  0.12463886  1
  O  O48  1  0.88950734  0.83258216  0.54830516  1
  O  O49  1  0.12978132  0.58248190  0.79672644  1
  O  O50  1  0.64966801  0.00071566  0.61083082  1
  O  O51  1  0.82691466  0.83274516  0.04707440  1
  O  O52  1  0.04661716  0.49625639  0.89126249  1
  O  O53  1  0.33018007  0.88462712  0.04771600  1
  O  O54  1  0.72945507  0.30851867  0.63745689  1
  O  O55  1  0.33080476  0.38549434  0.04623453  1
  O  O56  1  0.67623523  0.59912116  0.94702192  1
  O  O57  1  0.16884291  0.60106494  0.44570698  1
  O  O58  1  0.38740150  0.33272874  0.54705500  1
  O  O59  1  0.58842360  0.07437792  0.29754273  1
  O  O60  1  0.09936972  0.16897572  0.44612838  1
  O  O61  1  0.86209756  0.41749817  0.19906596  1
  O  O62  1  0.95952493  0.00325398  0.11039369  1
  O  O63  1  0.67581879  0.10109989  0.94575042  1
  O  O64  1  0.82621532  0.33259160  0.04832333  1
  O  O65  1  0.63478457  0.57439403  0.79755389  1
  O  O66  1  0.39957563  0.69796861  0.86424703  1
  O  O67  1  0.08449823  0.08243021  0.29671828  1
  O  O68  1  0.19494955  0.26892618  0.36416222  1
  O  O69  1  0.85031019  0.49374536  0.39168074  1
  O  O70  1  0.59766013  0.30941490  0.13827197  1
  O  O71  1  0.41821476  0.42396126  0.69652573  1
  O  O72  1  0.31268939  0.23069592  0.63750497  1
  O  O73  1  0.17845978  0.16762652  0.94615339  1
  O  O74  1  0.85439892  0.92398113  0.19653182  1
  O  O75  1  0.34841877  0.99627940  0.39126426  1
  O  O76  1  0.91946711  0.91749318  0.69906282  1
  O  O77  1  0.48893800  0.33954914  0.38480225  1
  O  O78  1  0.58663049  0.57516256  0.29762661  1
  O  O79  1  0.41426334  0.92917874  0.69590170  1
  O  O80  1  0.96051263  0.50066930  0.11084087  1
  O  O81  1  0.67176625  0.09912839  0.44700492  1
  O  O82  1  0.08331474  0.58350100  0.29621116  1
  O  O83  1  0.54942058  0.34554020  0.88620609  1
  O  O84  1  0.69567475  0.76478066  0.36317615  1
  O  O85  1  0.17772391  0.66903819  0.94614358  1
  O  O86  1  0.62940462  0.08349530  0.79624014  1
  O  O87  1  0.39797799  0.19723968  0.86431153  1
  O  O88  1  0.35243532  0.42913732  0.19589335  1
  O  O89  1  0.50902927  0.65610451  0.61709167  1
  O  O90  1  0.00816069  0.15095974  0.61584640  1
  O  O91  1  0.60002388  0.66759432  0.44615951  1
  O  O92  1  0.45670287  0.65097258  0.11582259  1
  O  O93  1  0.45194883  0.15607042  0.11707739  1
  O  O94  1  0.32991024  0.88553230  0.54623875  1
  O  O95  1  0.09637692  0.22714361  0.13708368  1
  O  O96  1  0.59946508  0.80853825  0.13746636  1
  O  O97  1  0.13583643  0.07517846  0.79762582  1
  O  O98  1  0.26908805  0.69724817  0.36427914  1
  O  O99  1  0.09414077  0.73068846  0.13749677  1
  O  O100  1  0.91735811  0.42024180  0.69832617  1
  O  O101  1  0.76661599  0.19811603  0.36420206  1
  O  O102  1  0.36070025  0.92022682  0.19831958  1
  O  O103  1  0.99125162  0.84553341  0.38618999  1
  O  O104  1  0.81351455  0.72717320  0.63706171  1
  O  O105  1  0.90267414  0.26475185  0.86314609  1
  O  O106  1  0.90024421  0.76890269  0.86415840  1
  O  O107  1  0.23117829  0.80940307  0.63826026  1
  O  O108  1  0.83294204  0.38460024  0.54772658  1
  O  O109  1  0.04762643  0.99371541  0.89165537  1
  O  O110  1  0.14766872  0.50326248  0.61039967  1
  O  O111  1  0.55626323  0.83955904  0.88482242  1
