# generated using pymatgen
data_CdI2
_symmetry_space_group_name_H-M   'P 1'
_cell_length_a   29.83545193
_cell_length_b   29.83545191
_cell_length_c   29.83545165
_cell_angle_alpha   8.35405540
_cell_angle_beta   8.35405556
_cell_angle_gamma   8.35405524
_symmetry_Int_Tables_number   1
_chemical_formula_structural   CdI2
_chemical_formula_sum   'Cd4 I8'
_cell_volume   486.37008364
_cell_formula_units_Z   4
loop_
 _symmetry_equiv_pos_site_id
 _symmetry_equiv_pos_as_xyz
  1  'x, y, z'
loop_
 _atom_site_type_symbol
 _atom_site_label
 _atom_site_symmetry_multiplicity
 _atom_site_fract_x
 _atom_site_fract_y
 _atom_site_fract_z
 _atom_site_occupancy
  Cd  Cd0  1  0.77079993  0.77079993  0.77079993  1
  Cd  Cd1  1  0.27080782  0.27080782  0.27080782  1
  Cd  Cd2  1  0.18752545  0.18752545  0.18752545  1
  Cd  Cd3  1  0.68753644  0.68753644  0.68753644  1
  I  I4  1  0.08482649  0.08482649  0.08482649  1
  I  I5  1  0.54016423  0.54016423  0.54016423  1
  I  I6  1  0.00156129  0.00156129  0.00156129  1
  I  I7  1  0.45677230  0.45677230  0.45677230  1
  I  I8  1  0.83488467  0.83488467  0.83488467  1
  I  I9  1  0.62344742  0.62344742  0.62344742  1
  I  I10  1  0.91816739  0.91816739  0.91816739  1
  I  I11  1  0.37350655  0.37350655  0.37350655  1
