# generated using pymatgen
data_Ce(SiAu2)2
_symmetry_space_group_name_H-M   'P 1'
_cell_length_a   4.32746751
_cell_length_b   4.32778312
_cell_length_c   27.67340596
_cell_angle_alpha   90.00088501
_cell_angle_beta   90.00032565
_cell_angle_gamma   89.99388333
_symmetry_Int_Tables_number   1
_chemical_formula_structural   Ce(SiAu2)2
_chemical_formula_sum   'Ce4 Si8 Au16'
_cell_volume   518.27697517
_cell_formula_units_Z   4
loop_
 _symmetry_equiv_pos_site_id
 _symmetry_equiv_pos_as_xyz
  1  'x, y, z'
loop_
 _atom_site_type_symbol
 _atom_site_label
 _atom_site_symmetry_multiplicity
 _atom_site_fract_x
 _atom_site_fract_y
 _atom_site_fract_z
 _atom_site_occupancy
  Ce  Ce0  1  0.49999973  0.00000114  0.74827523  1
  Ce  Ce1  1  0.99999877  0.50000138  0.25172885  1
  Ce  Ce2  1  0.00000432  0.99999630  -0.00000364  1
  Ce  Ce3  1  -0.00000030  0.00000018  0.50000687  1
  Si  Si4  1  0.50000326  0.49999664  0.95799215  1
  Si  Si5  1  0.50000049  0.50000159  0.45804763  1
  Si  Si6  1  0.00000100  0.49999863  0.79012308  1
  Si  Si7  1  0.00000243  0.50000283  0.70615482  1
  Si  Si8  1  0.49999914  0.99999949  0.20984573  1
  Si  Si9  1  0.49999944  0.99999762  0.29387610  1
  Si  Si10  1  0.49999369  0.50000161  0.04199597  1
  Si  Si11  1  0.49999979  0.49999925  0.54195922  1
  Au  Au12  1  0.99999746  0.49999685  0.08715066  1
  Au  Au13  1  0.00000067  0.99999816  0.66239902  1
  Au  Au14  1  0.99999971  0.00000150  0.83630029  1
  Au  Au15  1  0.50000408  0.00000246  0.08693646  1
  Au  Au16  1  0.99999913  0.50000368  0.91305770  1
  Au  Au17  1  0.50000023  0.49999926  0.66180620  1
  Au  Au18  1  0.50000011  0.99999875  0.41278800  1
  Au  Au19  1  0.00000054  0.00000009  0.33762865  1
  Au  Au20  1  0.99999918  0.50000119  0.41311956  1
  Au  Au21  1  0.49999948  0.50000220  0.33821242  1
  Au  Au22  1  0.49999765  0.49999479  0.16302442  1
  Au  Au23  1  0.00000027  0.50000058  0.58721527  1
  Au  Au24  1  0.50000134  0.50000116  0.83695488  1
  Au  Au25  1  0.99999847  0.00000218  0.16367285  1
  Au  Au26  1  0.49999933  0.00000216  0.58688246  1
  Au  Au27  1  0.50000062  0.99999834  0.91284914  1
