# generated using pymatgen
data_Ca2TaMnO6
_symmetry_space_group_name_H-M   'P 1'
_cell_length_a   5.52133041
_cell_length_b   5.74148200
_cell_length_c   7.70880442
_cell_angle_alpha   90.00000000
_cell_angle_beta   90.00000000
_cell_angle_gamma   86.11370042
_symmetry_Int_Tables_number   1
_chemical_formula_structural   Ca2TaMnO6
_chemical_formula_sum   'Ca4 Ta2 Mn2 O12'
_cell_volume   243.81193853
_cell_formula_units_Z   2
loop_
 _symmetry_equiv_pos_site_id
 _symmetry_equiv_pos_as_xyz
  1  'x, y, z'
loop_
 _atom_site_type_symbol
 _atom_site_label
 _atom_site_symmetry_multiplicity
 _atom_site_fract_x
 _atom_site_fract_y
 _atom_site_fract_z
 _atom_site_occupancy
  Ca  Ca0  1  0.01795299  0.95259679  0.25000000  1
  Ca  Ca1  1  0.49402679  0.43369130  0.25000000  1
  Ca  Ca2  1  0.50597321  0.56630870  0.75000000  1
  Ca  Ca3  1  0.98204701  0.04740321  0.75000000  1
  Ta  Ta4  1  0.00000000  0.50000000  0.00000000  1
  Ta  Ta5  1  0.00000000  0.50000000  0.50000000  1
  Mn  Mn6  1  0.50000000  0.00000000  0.00000000  1
  Mn  Mn7  1  0.50000000  0.00000000  0.50000000  1
  O  O8  1  0.79809353  0.79716171  0.54834999  1
  O  O9  1  0.28083373  0.68515317  0.45146979  1
  O  O10  1  0.20190647  0.20283829  0.45165001  1
  O  O11  1  0.71916627  0.31484683  0.95146979  1
  O  O12  1  0.09771504  0.47200269  0.75000000  1
  O  O13  1  0.71916627  0.31484683  0.54853021  1
  O  O14  1  0.28083373  0.68515317  0.04853021  1
  O  O15  1  0.79809353  0.79716171  0.95165001  1
  O  O16  1  0.59510843  0.02792465  0.25000000  1
  O  O17  1  0.20190647  0.20283829  0.04834999  1
  O  O18  1  0.40489157  0.97207535  0.75000000  1
  O  O19  1  0.90228496  0.52799731  0.25000000  1
