# generated using pymatgen
data_LiFePO4
_symmetry_space_group_name_H-M   'P 1'
_cell_length_a   9.96981446
_cell_length_b   10.16317572
_cell_length_c   16.64096317
_cell_angle_alpha   82.71422192
_cell_angle_beta   90.00000000
_cell_angle_gamma   60.62739358
_symmetry_Int_Tables_number   1
_chemical_formula_structural   LiFePO4
_chemical_formula_sum   'Li16 Fe16 P16 O64'
_cell_volume   1453.74608244
_cell_formula_units_Z   16
loop_
 _symmetry_equiv_pos_site_id
 _symmetry_equiv_pos_as_xyz
  1  'x, y, z'
loop_
 _atom_site_type_symbol
 _atom_site_label
 _atom_site_symmetry_multiplicity
 _atom_site_fract_x
 _atom_site_fract_y
 _atom_site_fract_z
 _atom_site_occupancy
  Li  Li0  1  0.26367576  0.84972424  0.87256157  1
  Li  Li1  1  0.94344186  0.29155490  0.37194107  1
  Li  Li2  1  0.76500324  0.29155490  0.87194107  1
  Li  Li3  1  0.82779131  0.16387094  0.62027783  1
  Li  Li4  1  0.37913278  0.10838427  0.62181106  1
  Li  Li5  1  0.38488489  0.34922249  0.37300889  1
  Li  Li6  1  0.32697739  0.66609902  0.62294397  1
  Li  Li7  1  0.76522293  0.79102027  0.87335780  1
  Li  Li8  1  0.88660001  0.84972424  0.37256157  1
  Li  Li9  1  0.51397299  0.60686983  0.12085494  1
  Li  Li10  1  0.51248195  0.10838427  0.12181106  1
  Li  Li11  1  0.00692459  0.66609902  0.12294397  1
  Li  Li12  1  0.44375681  0.79102027  0.37335780  1
  Li  Li13  1  0.26589262  0.34922249  0.87300889  1
  Li  Li14  1  0.00833875  0.16387094  0.12027783  1
  Li  Li15  1  0.87915618  0.60686983  0.62085494  1
  Fe  Fe16  1  0.75776551  0.16483760  0.24953976  1
  Fe  Fe17  1  0.69618226  0.48589938  0.49721183  1
  Fe  Fe18  1  0.31866140  0.54357594  0.99996009  1
  Fe  Fe19  1  0.25715169  0.66997476  0.24984457  1
  Fe  Fe20  1  0.19467950  0.98597361  0.49801500  1
  Fe  Fe21  1  0.31873473  0.04270633  0.99909864  1
  Fe  Fe22  1  0.81791935  0.48589938  0.99721183  1
  Fe  Fe23  1  0.20346723  0.22624017  0.24728090  1
  Fe  Fe24  1  0.07739689  0.16483760  0.74953976  1
  Fe  Fe25  1  0.57749083  0.71974245  0.74977451  1
  Fe  Fe26  1  0.70276672  0.71974245  0.24977451  1
  Fe  Fe27  1  0.63855894  0.04270633  0.49909864  1
  Fe  Fe28  1  0.07287455  0.66997476  0.74984457  1
  Fe  Fe29  1  0.13776366  0.54357594  0.49996009  1
  Fe  Fe30  1  0.57029160  0.22624017  0.74728190  1
  Fe  Fe31  1  0.81934689  0.98597361  0.99801500  1
  P  P32  1  0.55017539  0.03894608  0.31008773  1
  P  P33  1  0.17000414  0.84533141  0.06032106  1
  P  P34  1  0.48366401  0.34613271  0.56034167  1
  P  P35  1  0.40984193  0.54161915  0.81079656  1
  P  P36  1  0.17020328  0.34613271  0.06034167  1
  P  P37  1  0.60213484  0.48667502  0.30784507  1
  P  P38  1  0.41087852  0.03894608  0.81008773  1
  P  P39  1  0.03845405  0.29315063  0.55890988  1
  P  P40  1  0.10198478  0.99012921  0.30778521  1
  P  P41  1  0.66839532  0.29315063  0.05890988  1
  P  P42  1  0.53849072  0.79251683  0.55966984  1
  P  P43  1  0.66899244  0.79251683  0.05966984  1
  P  P44  1  0.90788701  0.99012921  0.80778521  1
  P  P45  1  0.98466445  0.84533141  0.56032106  1
  P  P46  1  0.91119014  0.48667502  0.80784507  1
  P  P47  1  0.04853791  0.54161915  0.31079656  1
  O  O48  1  0.84041630  0.00652671  0.55325068  1
  O  O49  1  0.15305700  0.00652671  0.05325068  1
  O  O50  1  0.43492777  0.17496261  0.82259928  1
  O  O51  1  0.93016525  0.32417176  0.81728628  1
  O  O52  1  0.19983691  0.16246185  0.54284024  1
  O  O53  1  0.82929205  0.56745634  0.88131531  1
  O  O54  1  0.74365438  0.33290320  0.98458377  1
  O  O55  1  0.01017813  0.35675153  0.07182582  1
  O  O56  1  0.56835397  0.89479080  0.80357011  1
  O  O57  1  0.63306934  0.35675153  0.57182582  1
  O  O58  1  0.16553908  0.50747574  0.38311266  1
  O  O59  1  0.07193240  0.47438948  0.80119030  1
  O  O60  1  0.97476065  0.24124363  0.63430312  1
  O  O61  1  0.63770024  0.16246185  0.04284024  1
  O  O62  1  0.34055097  0.50782424  0.55344612  1
  O  O63  1  0.32390244  0.00920583  0.88176305  1
  O  O64  1  0.39010863  0.17496261  0.32259928  1
  O  O65  1  0.56628568  0.39813383  0.80131037  1
  O  O66  1  0.55072182  0.93497032  0.57344428  1
  O  O67  1  0.60443058  0.58961284  0.23044328  1
  O  O68  1  0.03558149  0.39813383  0.30131037  1
  O  O69  1  0.15162479  0.50782424  0.05344612  1
  O  O70  1  0.11321381  0.58610297  0.23299340  1
  O  O71  1  0.42159721  0.82955578  0.48682811  1
  O  O72  1  0.10089648  0.09880255  0.23248025  1
  O  O73  1  0.61565149  0.07795124  0.23096196  1
  O  O74  1  0.28150178  0.23687075  0.13462337  1
  O  O75  1  0.07079553  0.97218283  0.79950862  1
  O  O76  1  0.09987310  0.06748563  0.38314508  1
  O  O77  1  0.48162647  0.23687075  0.63462337  1
  O  O78  1  0.13257978  0.85760088  0.57373629  1
  O  O79  1  0.51430886  0.93497032  0.07344428  1
  O  O80  1  0.05163143  0.43432544  0.57419361  1
  O  O81  1  0.98025817  0.73439971  0.63237504  1
  O  O82  1  0.92216292  0.82952178  0.81553203  1
  O  O83  1  0.98921391  0.77560806  0.48152314  1
  O  O84  1  0.83264028  0.06748563  0.88314508  1
  O  O85  1  0.23517803  0.77560806  0.98152314  1
  O  O86  1  0.53685523  0.89479080  0.30357011  1
  O  O87  1  0.30639728  0.07795124  0.73096196  1
  O  O88  1  0.78399572  0.24124363  0.13430312  1
  O  O89  1  0.28534112  0.73439971  0.13237504  1
  O  O90  1  0.47981924  0.74020529  0.63736449  1
  O  O91  1  0.74884702  0.82955578  0.98682811  1
  O  O92  1  0.63767025  0.66289651  0.04226127  1
  O  O93  1  0.92344342  0.33290320  0.48458377  1
  O  O94  1  0.48534982  0.27400467  0.48296013  1
  O  O95  1  0.80595658  0.58961284  0.73044328  1
  O  O96  1  0.51404213  0.43432544  0.07419361  1
  O  O97  1  0.24831530  0.82952178  0.31553203  1
  O  O98  1  0.30068321  0.58610297  0.73299340  1
  O  O99  1  0.95702264  0.97218283  0.29950862  1
  O  O100  1  0.80029997  0.09880255  0.73248025  1
  O  O101  1  0.00981834  0.85760088  0.07373629  1
  O  O102  1  0.74566498  0.32417176  0.31728628  1
  O  O103  1  0.77997547  0.74020529  0.13736449  1
  O  O104  1  0.24064551  0.27400467  0.98296013  1
  O  O105  1  0.88797926  0.67552397  0.32447711  1
  O  O106  1  0.32698417  0.50747574  0.88311266  1
  O  O107  1  0.60325262  0.56745634  0.38131531  1
  O  O108  1  0.66689173  0.00920583  0.38176305  1
  O  O109  1  0.45367812  0.47438948  0.30119030  1
  O  O110  1  0.69943325  0.66289651  0.54226127  1
  O  O111  1  0.43649777  0.67552397  0.82447711  1
