# generated using pymatgen
data_LiNd2Tl(MoO4)4
_symmetry_space_group_name_H-M   'P 1'
_cell_length_a   5.38936455
_cell_length_b   7.09490913
_cell_length_c   20.04557317
_cell_angle_alpha   88.83627247
_cell_angle_beta   86.93473579
_cell_angle_gamma   67.67839749
_symmetry_Int_Tables_number   1
_chemical_formula_structural   LiNd2Tl(MoO4)4
_chemical_formula_sum   'Li2 Nd4 Tl2 Mo8 O32'
_cell_volume   708.03392741
_cell_formula_units_Z   2
loop_
 _symmetry_equiv_pos_site_id
 _symmetry_equiv_pos_as_xyz
  1  'x, y, z'
loop_
 _atom_site_type_symbol
 _atom_site_label
 _atom_site_symmetry_multiplicity
 _atom_site_fract_x
 _atom_site_fract_y
 _atom_site_fract_z
 _atom_site_occupancy
  Li  Li0  1  0.68582651  0.62834697  0.25000000  1
  Li  Li1  1  0.31417349  0.37165303  0.75000000  1
  Nd  Nd2  1  0.14654281  0.70772481  0.96628201  1
  Nd  Nd3  1  0.14573239  0.70772481  0.53371799  1
  Nd  Nd4  1  0.85345719  0.29227519  0.03371799  1
  Nd  Nd5  1  0.85426761  0.29227519  0.46628201  1
  Tl  Tl6  1  0.96854429  0.06291142  0.25000000  1
  Tl  Tl7  1  0.03145571  0.93708858  0.75000000  1
  Mo  Mo8  1  0.73379908  0.51176131  0.64795313  1
  Mo  Mo9  1  0.26620092  0.48823869  0.35204687  1
  Mo  Mo10  1  0.75443962  0.51176131  0.85204687  1
  Mo  Mo11  1  0.57711117  0.87235791  0.40786592  1
  Mo  Mo12  1  0.24556038  0.48823869  0.14795313  1
  Mo  Mo13  1  0.55053092  0.87235791  0.09213408  1
  Mo  Mo14  1  0.44946908  0.12764209  0.90786592  1
  Mo  Mo15  1  0.42288883  0.12764209  0.59213408  1
  O  O16  1  0.59141408  0.48050812  0.56764785  1
  O  O17  1  0.72848709  0.28333020  0.82691033  1
  O  O18  1  0.78175274  0.95642594  0.03962777  1
  O  O19  1  0.17891833  0.33660971  0.54353836  1
  O  O20  1  0.98818271  0.28333020  0.67308967  1
  O  O21  1  0.58559339  0.30369496  0.13332747  1
  O  O22  1  0.26182133  0.95642594  0.46037223  1
  O  O23  1  0.88928835  0.69630504  0.63332747  1
  O  O24  1  0.51552804  0.66339029  0.04353836  1
  O  O25  1  0.23363069  0.08107150  0.10029988  1
  O  O26  1  0.73817867  0.04357406  0.53962777  1
  O  O27  1  0.94073681  0.58594463  0.78837650  1
  O  O28  1  0.51041316  0.18804918  0.67008531  1
  O  O29  1  0.92807779  0.48050812  0.93235215  1
  O  O30  1  0.52668144  0.41405537  0.28837650  1
  O  O31  1  0.48958684  0.81195082  0.32991469  1
  O  O32  1  0.68529781  0.08107150  0.39970012  1
  O  O33  1  0.21824726  0.04357406  0.96037223  1
  O  O34  1  0.07192221  0.51949188  0.06764785  1
  O  O35  1  0.47331856  0.58594463  0.71162350  1
  O  O36  1  0.01181729  0.71666980  0.32691033  1
  O  O37  1  0.27151291  0.71666980  0.17308967  1
  O  O38  1  0.40858592  0.51949188  0.43235215  1
  O  O39  1  0.05926319  0.41405537  0.21162350  1
  O  O40  1  0.31470219  0.91892850  0.60029988  1
  O  O41  1  0.11071165  0.30369496  0.36667253  1
  O  O42  1  0.76636931  0.91892850  0.89970012  1
  O  O43  1  0.82108167  0.66339029  0.45646164  1
  O  O44  1  0.30153766  0.18804918  0.82991469  1
  O  O45  1  0.41440661  0.69630504  0.86667253  1
  O  O46  1  0.48447196  0.33660971  0.95646164  1
  O  O47  1  0.69846234  0.81195082  0.17008531  1
