# generated using pymatgen
data_Li6(CoO2)5
_symmetry_space_group_name_H-M   'P 1'
_cell_length_a   5.44464493
_cell_length_b   6.34520405
_cell_length_c   8.35098052
_cell_angle_alpha   102.63235796
_cell_angle_beta   103.04560188
_cell_angle_gamma   67.41628990
_symmetry_Int_Tables_number   1
_chemical_formula_structural   Li6(CoO2)5
_chemical_formula_sum   'Li6 Co5 O10'
_cell_volume   256.69685056
_cell_formula_units_Z   1
loop_
 _symmetry_equiv_pos_site_id
 _symmetry_equiv_pos_as_xyz
  1  'x, y, z'
loop_
 _atom_site_type_symbol
 _atom_site_label
 _atom_site_symmetry_multiplicity
 _atom_site_fract_x
 _atom_site_fract_y
 _atom_site_fract_z
 _atom_site_occupancy
  Li  Li0  1  0.45055007  0.30236851  0.72615649  1
  Li  Li1  1  0.45504354  0.42940929  0.35917753  1
  Li  Li2  1  0.45496327  0.86020995  0.55058563  1
  Li  Li3  1  0.54774963  0.34065485  0.04881887  1
  Li  Li4  1  0.54834967  0.89802914  0.87413718  1
  Li  Li5  1  0.54334441  0.76856722  0.24135736  1
  Co  Co6  1  0.00069851  0.09824898  0.79822343  1
  Co  Co7  1  0.99895284  0.30680626  0.39257328  1
  Co  Co8  1  0.99469565  0.70699028  0.59483248  1
  Co  Co9  1  0.00430158  0.49229690  0.00503988  1
  Co  Co10  1  0.00059995  0.89556872  0.20866870  1
  O  O11  1  0.25701867  0.23907549  0.89209488  1
  O  O12  1  0.24613424  0.01221289  0.35049975  1
  O  O13  1  0.24479386  0.43090010  0.52033274  1
  O  O14  1  0.24602361  0.83724659  0.70964171  1
  O  O15  1  0.25960370  0.60483941  0.15793608  1
  O  O16  1  0.75177304  0.36379150  0.88810910  1
  O  O17  1  0.75433191  0.18996424  0.24950386  1
  O  O18  1  0.74296722  0.59423376  0.44506723  1
  O  O19  1  0.74592347  0.95813745  0.70616262  1
  O  O20  1  0.75219314  0.77043947  0.08109822  1
