# generated using pymatgen
data_In2PbS4
_symmetry_space_group_name_H-M   'P 1'
_cell_length_a   3.89238983
_cell_length_b   12.00549050
_cell_length_c   13.88427639
_cell_angle_alpha   90.00000000
_cell_angle_beta   90.00000000
_cell_angle_gamma   90.00000000
_symmetry_Int_Tables_number   1
_chemical_formula_structural   In2PbS4
_chemical_formula_sum   'In8 Pb4 S16'
_cell_volume   648.81291779
_cell_formula_units_Z   4
loop_
 _symmetry_equiv_pos_site_id
 _symmetry_equiv_pos_as_xyz
  1  'x, y, z'
loop_
 _atom_site_type_symbol
 _atom_site_label
 _atom_site_symmetry_multiplicity
 _atom_site_fract_x
 _atom_site_fract_y
 _atom_site_fract_z
 _atom_site_occupancy
  In  In0  1  0.75000000  0.93782083  0.11217693  1
  In  In1  1  0.75000000  0.43782083  0.38782307  1
  In  In2  1  0.25000000  0.06217917  0.88782307  1
  In  In3  1  0.25000000  0.56217917  0.61217693  1
  In  In4  1  0.75000000  0.41551732  0.90158350  1
  In  In5  1  0.75000000  0.91551732  0.59841650  1
  In  In6  1  0.25000000  0.58448268  0.09841650  1
  In  In7  1  0.25000000  0.08448268  0.40158350  1
  Pb  Pb8  1  0.75000000  0.25424132  0.16291437  1
  Pb  Pb9  1  0.75000000  0.75424132  0.33708563  1
  Pb  Pb10  1  0.25000000  0.74575868  0.83708563  1
  Pb  Pb11  1  0.25000000  0.24575868  0.66291437  1
  S  S12  1  0.75000000  0.40785732  0.57198859  1
  S  S13  1  0.75000000  0.90785732  0.92801141  1
  S  S14  1  0.25000000  0.59214268  0.42801141  1
  S  S15  1  0.25000000  0.09214268  0.07198859  1
  S  S16  1  0.75000000  0.04573655  0.28019397  1
  S  S17  1  0.75000000  0.54573655  0.21980603  1
  S  S18  1  0.25000000  0.95426345  0.71980603  1
  S  S19  1  0.25000000  0.45426345  0.78019397  1
  S  S20  1  0.75000000  0.19964727  0.83552995  1
  S  S21  1  0.75000000  0.69964727  0.66447005  1
  S  S22  1  0.25000000  0.80035273  0.16447005  1
  S  S23  1  0.25000000  0.30035273  0.33552995  1
  S  S24  1  0.75000000  0.12099439  0.53007066  1
  S  S25  1  0.75000000  0.62099439  0.96992934  1
  S  S26  1  0.25000000  0.87900561  0.46992934  1
  S  S27  1  0.25000000  0.37900561  0.03007066  1
