# generated using pymatgen
data_MnGaNi2
_symmetry_space_group_name_H-M   'P 1'
_cell_length_a   4.15039823
_cell_length_b   5.52558371
_cell_length_c   20.63273319
_cell_angle_alpha   90.00000000
_cell_angle_beta   89.93545102
_cell_angle_gamma   90.00000000
_symmetry_Int_Tables_number   1
_chemical_formula_structural   MnGaNi2
_chemical_formula_sum   'Mn10 Ga10 Ni20'
_cell_volume   473.17786337
_cell_formula_units_Z   10
loop_
 _symmetry_equiv_pos_site_id
 _symmetry_equiv_pos_as_xyz
  1  'x, y, z'
loop_
 _atom_site_type_symbol
 _atom_site_label
 _atom_site_symmetry_multiplicity
 _atom_site_fract_x
 _atom_site_fract_y
 _atom_site_fract_z
 _atom_site_occupancy
  Mn  Mn0  1  0.95887542  0.00000000  0.80002259  1
  Mn  Mn1  1  0.44976335  0.50000000  0.89998494  1
  Mn  Mn2  1  0.04112458  0.00000000  0.19997741  1
  Mn  Mn3  1  0.54112458  0.50000000  0.69997741  1
  Mn  Mn4  1  0.45887542  0.50000000  0.30002259  1
  Mn  Mn5  1  0.55023665  0.50000000  0.10001506  1
  Mn  Mn6  1  0.05023665  0.00000000  0.60001506  1
  Mn  Mn7  1  0.94976335  0.00000000  0.39998494  1
  Mn  Mn8  1  0.00000000  0.00000000  0.00000000  1
  Mn  Mn9  1  0.50000000  0.50000000  0.50000000  1
  Ga  Ga10  1  0.95819663  0.50000000  0.80019021  1
  Ga  Ga11  1  0.44896669  0.00000000  0.89991246  1
  Ga  Ga12  1  0.94896669  0.50000000  0.39991246  1
  Ga  Ga13  1  0.55103331  0.00000000  0.10008754  1
  Ga  Ga14  1  0.54180337  0.00000000  0.69980979  1
  Ga  Ga15  1  0.00000000  0.50000000  0.00000000  1
  Ga  Ga16  1  0.05103331  0.50000000  0.60008754  1
  Ga  Ga17  1  0.50000000  0.00000000  0.50000000  1
  Ga  Ga18  1  0.04180337  0.50000000  0.19980979  1
  Ga  Ga19  1  0.45819663  0.00000000  0.30019021  1
  Ni  Ni20  1  0.45477580  0.75019836  0.80005232  1
  Ni  Ni21  1  0.05441442  0.25014190  0.09999821  1
  Ni  Ni22  1  0.95477580  0.25019836  0.30005232  1
  Ni  Ni23  1  0.00000000  0.74985513  0.50000000  1
  Ni  Ni24  1  0.45477580  0.24980164  0.80005232  1
  Ni  Ni25  1  0.05441442  0.74985810  0.09999821  1
  Ni  Ni26  1  0.04522420  0.74980164  0.69994768  1
  Ni  Ni27  1  0.94558558  0.74985810  0.90000179  1
  Ni  Ni28  1  0.54522420  0.75019836  0.19994768  1
  Ni  Ni29  1  0.95477580  0.74980164  0.30005232  1
  Ni  Ni30  1  0.54522420  0.24980164  0.19994768  1
  Ni  Ni31  1  0.55441442  0.24985810  0.59999821  1
  Ni  Ni32  1  0.50000000  0.24985513  0.00000000  1
  Ni  Ni33  1  0.44558558  0.24985810  0.40000179  1
  Ni  Ni34  1  0.04522420  0.25019836  0.69994768  1
  Ni  Ni35  1  0.94558558  0.25014190  0.90000179  1
  Ni  Ni36  1  0.55441442  0.75014190  0.59999821  1
  Ni  Ni37  1  0.00000000  0.25014487  0.50000000  1
  Ni  Ni38  1  0.50000000  0.75014487  0.00000000  1
  Ni  Ni39  1  0.44558558  0.75014190  0.40000179  1
