# generated using pymatgen
data_Ca(HO)2
_symmetry_space_group_name_H-M   'P 1'
_cell_length_a   3.64383264
_cell_length_b   3.59143482
_cell_length_c   5.01120755
_cell_angle_alpha   90.42278209
_cell_angle_beta   96.07207030
_cell_angle_gamma   119.91286946
_symmetry_Int_Tables_number   1
_chemical_formula_structural   Ca(HO)2
_chemical_formula_sum   'Ca1 H2 O2'
_cell_volume   56.38677809
_cell_formula_units_Z   1
loop_
 _symmetry_equiv_pos_site_id
 _symmetry_equiv_pos_as_xyz
  1  'x, y, z'
loop_
 _atom_site_type_symbol
 _atom_site_label
 _atom_site_symmetry_multiplicity
 _atom_site_fract_x
 _atom_site_fract_y
 _atom_site_fract_z
 _atom_site_occupancy
  Ca  Ca0  1  0.01039548  0.95543041  0.97424849  1
  H  H1  1  0.58816985  0.15730531  0.55772146  1
  H  H2  1  0.43333161  0.58919836  0.39068804  1
  O  O3  1  0.62569700  0.26445953  0.74395043  1
  O  O4  1  0.39805707  0.66150838  0.20657958  1
