# generated using pymatgen
data_TaAg7S6
_symmetry_space_group_name_H-M   'P 1'
_cell_length_a   7.44677069
_cell_length_b   7.70615864
_cell_length_c   10.66556726
_cell_angle_alpha   89.45154857
_cell_angle_beta   90.00000000
_cell_angle_gamma   90.00000000
_symmetry_Int_Tables_number   1
_chemical_formula_structural   TaAg7S6
_chemical_formula_sum   'Ta2 Ag14 S12'
_cell_volume   612.02616222
_cell_formula_units_Z   2
loop_
 _symmetry_equiv_pos_site_id
 _symmetry_equiv_pos_as_xyz
  1  'x, y, z'
loop_
 _atom_site_type_symbol
 _atom_site_label
 _atom_site_symmetry_multiplicity
 _atom_site_fract_x
 _atom_site_fract_y
 _atom_site_fract_z
 _atom_site_occupancy
  Ta  Ta0  1  0.25248588  0.99751845  0.00341571  1
  Ta  Ta1  1  0.74751412  0.49751845  0.50341571  1
  Ag  Ag2  1  0.64662011  0.70203177  0.84886976  1
  Ag  Ag3  1  0.91260716  0.29303858  0.80248304  1
  Ag  Ag4  1  0.46957978  0.70575770  0.23638977  1
  Ag  Ag5  1  0.71225327  0.04034440  0.97009822  1
  Ag  Ag6  1  0.11988102  0.92223551  0.71207284  1
  Ag  Ag7  1  0.35337989  0.20203177  0.34886976  1
  Ag  Ag8  1  0.04031777  0.21551819  0.52075534  1
  Ag  Ag9  1  0.88011898  0.42223551  0.21207284  1
  Ag  Ag10  1  0.57018321  0.92647701  0.54530527  1
  Ag  Ag11  1  0.95968223  0.71551819  0.02075534  1
  Ag  Ag12  1  0.28774673  0.54034440  0.47009822  1
  Ag  Ag13  1  0.08739284  0.79303858  0.30248304  1
  Ag  Ag14  1  0.42981679  0.42647701  0.04530527  1
  Ag  Ag15  1  0.53042022  0.20575770  0.73638977  1
  S  S16  1  0.77060461  0.97530628  0.73859158  1
  S  S17  1  0.51221730  0.51429645  0.64546006  1
  S  S18  1  0.24065487  0.95653189  0.48956180  1
  S  S19  1  0.48778270  0.01429645  0.14546006  1
  S  S20  1  0.75934513  0.45653189  0.98956180  1
  S  S21  1  0.26074455  0.74371254  0.88866945  1
  S  S22  1  0.74844333  0.74292647  0.37616725  1
  S  S23  1  0.25155667  0.24292647  0.87616725  1
  S  S24  1  0.99566866  0.01330477  0.12515990  1
  S  S25  1  0.22939539  0.47530628  0.23859158  1
  S  S26  1  0.73925545  0.24371254  0.38866945  1
  S  S27  1  0.00433134  0.51330477  0.62515990  1
