# generated using pymatgen
data_CoSb2S2(OF3)4
_symmetry_space_group_name_H-M   'P 1'
_cell_length_a   5.14870692
_cell_length_b   7.95164059
_cell_length_c   8.71912236
_cell_angle_alpha   93.87099363
_cell_angle_beta   91.53185050
_cell_angle_gamma   97.98701560
_symmetry_Int_Tables_number   1
_chemical_formula_structural   CoSb2S2(OF3)4
_chemical_formula_sum   'Co1 Sb2 S2 O4 F12'
_cell_volume   352.46180265
_cell_formula_units_Z   1
loop_
 _symmetry_equiv_pos_site_id
 _symmetry_equiv_pos_as_xyz
  1  'x, y, z'
loop_
 _atom_site_type_symbol
 _atom_site_label
 _atom_site_symmetry_multiplicity
 _atom_site_fract_x
 _atom_site_fract_y
 _atom_site_fract_z
 _atom_site_occupancy
  Co  Co0  1  0.50000000  0.50000000  0.50000000  1
  Sb  Sb1  1  0.96922493  0.26114343  0.73535719  1
  Sb  Sb2  1  0.03077507  0.73885657  0.26464281  1
  S  S3  1  0.49987868  0.79988595  0.78864414  1
  S  S4  1  0.50012132  0.20011405  0.21135586  1
  O  O5  1  0.59946814  0.30419739  0.35221849  1
  O  O6  1  0.75589877  0.77781228  0.84724369  1
  O  O7  1  0.24410123  0.22218772  0.15275631  1
  O  O8  1  0.40053186  0.69580261  0.64778151  1
  F  F9  1  0.16189247  0.44975825  0.85230453  1
  F  F10  1  0.83278944  0.65913440  0.44509964  1
  F  F11  1  0.22551747  0.11789954  0.77342174  1
  F  F12  1  0.22845497  0.91356113  0.39670809  1
  F  F13  1  0.71534406  0.41339144  0.67445752  1
  F  F14  1  0.23649588  0.80165736  0.09468093  1
  F  F15  1  0.77154503  0.08643887  0.60329191  1
  F  F16  1  0.76350412  0.19834264  0.90531907  1
  F  F17  1  0.16721056  0.34086560  0.55490036  1
  F  F18  1  0.28465594  0.58660856  0.32554248  1
  F  F19  1  0.83810753  0.55024175  0.14769547  1
  F  F20  1  0.77448253  0.88210046  0.22657826  1
