# generated using pymatgen
data_Ti9Se2
_symmetry_space_group_name_H-M   'P 1'
_cell_length_a   3.46046672
_cell_length_b   6.83278744
_cell_length_c   15.51034553
_cell_angle_alpha   90.00000000
_cell_angle_beta   90.00000000
_cell_angle_gamma   90.00000000
_symmetry_Int_Tables_number   1
_chemical_formula_structural   Ti9Se2
_chemical_formula_sum   'Ti18 Se4'
_cell_volume   366.73643615
_cell_formula_units_Z   2
loop_
 _symmetry_equiv_pos_site_id
 _symmetry_equiv_pos_as_xyz
  1  'x, y, z'
loop_
 _atom_site_type_symbol
 _atom_site_label
 _atom_site_symmetry_multiplicity
 _atom_site_fract_x
 _atom_site_fract_y
 _atom_site_fract_z
 _atom_site_occupancy
  Ti  Ti0  1  0.00000000  0.72247698  0.71026017  1
  Ti  Ti1  1  0.50000000  0.40445594  0.63961800  1
  Ti  Ti2  1  0.00000000  0.61073775  0.92273082  1
  Ti  Ti3  1  0.00000000  0.77752302  0.21026017  1
  Ti  Ti4  1  0.50000000  0.28121097  0.94341085  1
  Ti  Ti5  1  0.50000000  0.71878903  0.05658915  1
  Ti  Ti6  1  0.00000000  0.11073775  0.57726918  1
  Ti  Ti7  1  0.00000000  0.88926225  0.42273082  1
  Ti  Ti8  1  0.50000000  0.21878903  0.44341085  1
  Ti  Ti9  1  0.00000000  0.38926225  0.07726918  1
  Ti  Ti10  1  0.50000000  0.59554406  0.36038200  1
  Ti  Ti11  1  0.00000000  0.22247698  0.78973983  1
  Ti  Ti12  1  0.50000000  0.90445594  0.86038200  1
  Ti  Ti13  1  0.00000000  0.00000000  0.00000000  1
  Ti  Ti14  1  0.00000000  0.27752302  0.28973983  1
  Ti  Ti15  1  0.50000000  0.09554406  0.13961800  1
  Ti  Ti16  1  0.50000000  0.78121097  0.55658915  1
  Ti  Ti17  1  0.00000000  0.50000000  0.50000000  1
  Se  Se18  1  0.50000000  0.51918225  0.80277122  1
  Se  Se19  1  0.50000000  0.48081775  0.19722878  1
  Se  Se20  1  0.50000000  0.01918225  0.69722878  1
  Se  Se21  1  0.50000000  0.98081775  0.30277122  1
