# generated using pymatgen
data_SF6
_symmetry_space_group_name_H-M   'P 1'
_cell_length_a   8.31795581
_cell_length_b   8.21407324
_cell_length_c   4.86664870
_cell_angle_alpha   85.50357121
_cell_angle_beta   90.05434670
_cell_angle_gamma   120.56512079
_symmetry_Int_Tables_number   1
_chemical_formula_structural   SF6
_chemical_formula_sum   'S3 F18'
_cell_volume   285.13393442
_cell_formula_units_Z   3
loop_
 _symmetry_equiv_pos_site_id
 _symmetry_equiv_pos_as_xyz
  1  'x, y, z'
loop_
 _atom_site_type_symbol
 _atom_site_label
 _atom_site_symmetry_multiplicity
 _atom_site_fract_x
 _atom_site_fract_y
 _atom_site_fract_z
 _atom_site_occupancy
  S  S0  1  0.00000000  0.00000000  0.00000000  1
  S  S1  1  0.66893459  0.33737908  0.40890278  1
  S  S2  1  0.33106541  0.66262092  0.59109722  1
  F  F3  1  0.90206792  0.10444243  0.12030102  1
  F  F4  1  0.09793208  0.89555757  0.87969898  1
  F  F5  1  0.80750384  0.85066515  0.87824611  1
  F  F6  1  0.19249616  0.14933485  0.12175389  1
  F  F7  1  0.05370430  0.13415931  0.72081893  1
  F  F8  1  0.94629570  0.86584069  0.27918107  1
  F  F9  1  0.58763912  0.44761701  0.22945078  1
  F  F10  1  0.41236088  0.55238299  0.77054922  1
  F  F11  1  0.75027009  0.22724580  0.58803706  1
  F  F12  1  0.24972991  0.77275420  0.41196294  1
  F  F13  1  0.59600499  0.18043552  0.19354921  1
  F  F14  1  0.40399501  0.81956448  0.80645079  1
  F  F15  1  0.74097244  0.49394048  0.62372126  1
  F  F16  1  0.25902756  0.50605952  0.37627874  1
  F  F17  1  0.86297768  0.45701490  0.23596815  1
  F  F18  1  0.13702232  0.54298510  0.76403185  1
  F  F19  1  0.47440512  0.21733056  0.58111764  1
  F  F20  1  0.52559488  0.78266944  0.41888236  1
