# generated using pymatgen
data_CrBi12Mo4PbO34
_symmetry_space_group_name_H-M   'P 1'
_cell_length_a   5.89318905
_cell_length_b   11.82904028
_cell_length_c   25.25665504
_cell_angle_alpha   101.87959206
_cell_angle_beta   90.00000000
_cell_angle_gamma   90.00000000
_symmetry_Int_Tables_number   1
_chemical_formula_structural   CrBi12Mo4PbO34
_chemical_formula_sum   'Cr2 Bi24 Mo8 Pb2 O68'
_cell_volume   1722.95170382
_cell_formula_units_Z   2
loop_
 _symmetry_equiv_pos_site_id
 _symmetry_equiv_pos_as_xyz
  1  'x, y, z'
loop_
 _atom_site_type_symbol
 _atom_site_label
 _atom_site_symmetry_multiplicity
 _atom_site_fract_x
 _atom_site_fract_y
 _atom_site_fract_z
 _atom_site_occupancy
  Cr  Cr0  1  0.98618863  0.50000000  0.75000000  1
  Cr  Cr1  1  0.01381137  0.50000000  0.25000000  1
  Bi  Bi2  1  0.92207145  0.15867701  0.24500560  1
  Bi  Bi3  1  0.01622159  0.91759847  0.40798225  1
  Bi  Bi4  1  0.48807227  0.27001834  0.65913200  1
  Bi  Bi5  1  0.98377841  0.08240153  0.59201775  1
  Bi  Bi6  1  0.97730622  0.75628684  0.60100283  1
  Bi  Bi7  1  0.92207145  0.84132299  0.25499440  1
  Bi  Bi8  1  0.51192773  0.27001834  0.15913200  1
  Bi  Bi9  1  0.48809032  0.63816979  0.67895361  1
  Bi  Bi10  1  0.07792855  0.84132299  0.75499440  1
  Bi  Bi11  1  0.57719882  0.04010984  0.82600956  1
  Bi  Bi12  1  0.48807227  0.72998166  0.84086800  1
  Bi  Bi13  1  0.07792855  0.15867701  0.74500560  1
  Bi  Bi14  1  0.51190968  0.63816979  0.17895361  1
  Bi  Bi15  1  0.98377841  0.91759847  0.90798225  1
  Bi  Bi16  1  0.48809032  0.36183021  0.82104639  1
  Bi  Bi17  1  0.57719882  0.95989016  0.67399044  1
  Bi  Bi18  1  0.51190968  0.36183021  0.32104639  1
  Bi  Bi19  1  0.51192773  0.72998166  0.34086800  1
  Bi  Bi20  1  0.97730622  0.24371316  0.89899717  1
  Bi  Bi21  1  0.42280118  0.95989016  0.17399044  1
  Bi  Bi22  1  0.02269378  0.75628684  0.10100283  1
  Bi  Bi23  1  0.01622159  0.08240153  0.09201775  1
  Bi  Bi24  1  0.02269378  0.24371316  0.39899717  1
  Bi  Bi25  1  0.42280118  0.04010984  0.32600956  1
  Mo  Mo26  1  -0.00010056  0.42632658  0.57831698  1
  Mo  Mo27  1  0.00010056  0.57367342  0.42168302  1
  Mo  Mo28  1  0.47888292  0.16273170  0.98683593  1
  Mo  Mo29  1  0.52111708  0.83726830  0.01316407  1
  Mo  Mo30  1  -0.00010056  0.57367342  0.92168302  1
  Mo  Mo31  1  0.52111708  0.16273170  0.48683593  1
  Mo  Mo32  1  0.47888292  0.83726830  0.51316407  1
  Mo  Mo33  1  0.00010056  0.42632658  0.07831698  1
  Pb  Pb34  1  0.50000000  0.50000000  0.00000000  1
  Pb  Pb35  1  0.50000000  0.50000000  0.50000000  1
  O  O36  1  0.18015291  0.38218173  0.24035776  1
  O  O37  1  0.27290768  0.50053853  0.91657339  1
  O  O38  1  0.57007242  0.71451033  0.54034003  1
  O  O39  1  0.78166786  0.46905059  0.89702206  1
  O  O40  1  0.77051662  0.23691145  0.33556163  1
  O  O41  1  0.84756692  0.49856364  0.19655760  1
  O  O42  1  0.75588056  0.12901335  0.15434231  1
  O  O43  1  0.22948338  0.76308855  0.66443837  1
  O  O44  1  0.72542528  0.77195585  0.66744179  1
  O  O45  1  0.21833214  0.46905059  0.39702206  1
  O  O46  1  0.75588056  0.87098665  0.34565769  1
  O  O47  1  0.68880548  0.05408327  0.96820382  1
  O  O48  1  0.81984709  0.38218173  0.74035776  1
  O  O49  1  0.06796606  0.62439471  0.49111332  1
  O  O50  1  0.77051662  0.76308855  0.16443837  1
  O  O51  1  0.26875212  0.00000000  0.75000000  1
  O  O52  1  0.26499574  0.13719952  0.15806670  1
  O  O53  1  0.24411944  0.87098665  0.84565769  1
  O  O54  1  0.53820996  0.79645322  0.94050973  1
  O  O55  1  0.40402610  0.74297722  0.75786445  1
  O  O56  1  0.59597390  0.74297722  0.25786445  1
  O  O57  1  0.27290768  0.49946147  0.58342661  1
  O  O58  1  0.93203394  0.37560529  0.50888668  1
  O  O59  1  0.27457472  0.77195585  0.16744179  1
  O  O60  1  0.46179004  0.79645322  0.44050973  1
  O  O61  1  0.07523143  0.06127506  0.36673121  1
  O  O62  1  0.21261691  0.88690533  0.54556274  1
  O  O63  1  0.21261691  0.11309467  0.95443726  1
  O  O64  1  0.75970019  0.00000000  0.75000000  1
  O  O65  1  0.18015291  0.61781827  0.25964224  1
  O  O66  1  0.78166786  0.53094941  0.60297794  1
  O  O67  1  0.72542528  0.22804415  0.83255821  1
  O  O68  1  0.31119452  0.05408327  0.46820382  1
  O  O69  1  0.00489422  0.69647770  0.88942656  1
  O  O70  1  0.92476857  0.93872494  0.63326879  1
  O  O71  1  0.15243308  0.49856364  0.69655760  1
  O  O72  1  0.73124788  0.00000000  0.25000000  1
  O  O73  1  0.31119452  0.94591673  0.03179618  1
  O  O74  1  0.73500426  0.13719952  0.65806670  1
  O  O75  1  0.68880548  0.94591673  0.53179618  1
  O  O76  1  0.46179004  0.20354678  0.05949027  1
  O  O77  1  0.24411944  0.12901335  0.65434231  1
  O  O78  1  0.99510578  0.69647770  0.38942656  1
  O  O79  1  0.93203394  0.62439471  0.99111332  1
  O  O80  1  0.92476857  0.06127506  0.86673121  1
  O  O81  1  0.21833214  0.53094941  0.10297794  1
  O  O82  1  0.73500426  0.86280048  0.84193330  1
  O  O83  1  0.27457472  0.22804415  0.33255821  1
  O  O84  1  0.57007242  0.28548967  0.95965997  1
  O  O85  1  0.26499574  0.86280048  0.34193330  1
  O  O86  1  0.24029981  0.00000000  0.25000000  1
  O  O87  1  0.53820996  0.20354678  0.55949027  1
  O  O88  1  0.22948338  0.23691145  0.83556163  1
  O  O89  1  0.72709232  0.49946147  0.08342661  1
  O  O90  1  0.00489422  0.30352230  0.61057344  1
  O  O91  1  0.42992758  0.28548967  0.45965997  1
  O  O92  1  0.42992758  0.71451033  0.04034003  1
  O  O93  1  0.78738309  0.11309467  0.45443726  1
  O  O94  1  0.40402610  0.25702278  0.74213555  1
  O  O95  1  0.84756692  0.50143636  0.30344240  1
  O  O96  1  0.06796606  0.37560529  0.00888668  1
  O  O97  1  0.07523143  0.93872494  0.13326879  1
  O  O98  1  0.78738309  0.88690533  0.04556274  1
  O  O99  1  0.59597390  0.25702278  0.24213555  1
  O  O100  1  0.72709232  0.50053853  0.41657339  1
  O  O101  1  0.15243308  0.50143636  0.80344240  1
  O  O102  1  0.81984709  0.61781827  0.75964224  1
  O  O103  1  0.99510578  0.30352230  0.11057344  1
