# generated using pymatgen
data_K3Th2Cu3S7
_symmetry_space_group_name_H-M   'P 1'
_cell_length_a   4.07156779
_cell_length_b   14.38980807
_cell_length_c   24.74765819
_cell_angle_alpha   90.00000000
_cell_angle_beta   90.00000000
_cell_angle_gamma   90.00000000
_symmetry_Int_Tables_number   1
_chemical_formula_structural   K3Th2Cu3S7
_chemical_formula_sum   'K12 Th8 Cu12 S28'
_cell_volume   1449.94250180
_cell_formula_units_Z   4
loop_
 _symmetry_equiv_pos_site_id
 _symmetry_equiv_pos_as_xyz
  1  'x, y, z'
loop_
 _atom_site_type_symbol
 _atom_site_label
 _atom_site_symmetry_multiplicity
 _atom_site_fract_x
 _atom_site_fract_y
 _atom_site_fract_z
 _atom_site_occupancy
  K  K0  1  0.49381456  0.45312879  0.06285933  1
  K  K1  1  0.00618544  0.95312879  0.06285933  1
  K  K2  1  0.50618544  0.45312879  0.43714067  1
  K  K3  1  0.49381456  0.54687121  0.56285933  1
  K  K4  1  0.50000000  0.93094988  0.25000000  1
  K  K5  1  0.99381456  0.04687121  0.93714067  1
  K  K6  1  0.00000000  0.43094988  0.25000000  1
  K  K7  1  -0.00000000  0.56905012  0.75000000  1
  K  K8  1  0.50618544  0.54687121  0.93714067  1
  K  K9  1  0.99381456  0.95312879  0.43714067  1
  K  K10  1  0.00618544  0.04687121  0.56285933  1
  K  K11  1  0.50000000  0.06905012  0.75000000  1
  Th  Th12  1  0.99732719  0.69116420  0.35822830  1
  Th  Th13  1  0.49732719  0.80883580  0.64177170  1
  Th  Th14  1  0.99732719  0.30883580  0.85822830  1
  Th  Th15  1  0.00267281  0.69116420  0.14177170  1
  Th  Th16  1  0.49732719  0.19116420  0.14177170  1
  Th  Th17  1  0.50267281  0.19116420  0.35822830  1
  Th  Th18  1  0.00267281  0.30883580  0.64177170  1
  Th  Th19  1  0.50267281  0.80883580  0.85822830  1
  Cu  Cu20  1  0.00080607  0.23677390  0.46243690  1
  Cu  Cu21  1  0.49919393  0.73677390  0.46243690  1
  Cu  Cu22  1  0.99919393  0.23677390  0.03756310  1
  Cu  Cu23  1  0.50000000  0.65944483  0.25000000  1
  Cu  Cu24  1  0.49919393  0.26322610  0.96243690  1
  Cu  Cu25  1  0.50000000  0.34055517  0.75000000  1
  Cu  Cu26  1  -0.00000000  0.84055517  0.75000000  1
  Cu  Cu27  1  -0.00000000  0.15944483  0.25000000  1
  Cu  Cu28  1  0.50080607  0.26322610  0.53756310  1
  Cu  Cu29  1  0.99919393  0.76322610  0.53756310  1
  Cu  Cu30  1  0.50080607  0.73677390  0.03756310  1
  Cu  Cu31  1  0.00080607  0.76322610  0.96243690  1
  S  S32  1  0.00000000  0.24939857  0.75000000  1
  S  S33  1  0.00088554  0.64364223  0.03248402  1
  S  S34  1  0.49738970  0.56801421  0.32756486  1
  S  S35  1  0.49686122  0.81649758  0.37984102  1
  S  S36  1  0.99686122  0.31649758  0.12015898  1
  S  S37  1  0.50313878  0.18350242  0.62015898  1
  S  S38  1  0.00000000  0.75060143  0.25000000  1
  S  S39  1  0.00261030  0.06801421  0.32756486  1
  S  S40  1  0.00313878  0.68350242  0.87984102  1
  S  S41  1  0.00261030  0.93198579  0.82756486  1
  S  S42  1  0.50000000  0.25060143  0.25000000  1
  S  S43  1  0.49686122  0.18350242  0.87984102  1
  S  S44  1  0.50261030  0.43198579  0.67243514  1
  S  S45  1  0.99686122  0.68350242  0.62015898  1
  S  S46  1  0.50088554  0.85635777  0.96751598  1
  S  S47  1  0.99738970  0.06801421  0.17243514  1
  S  S48  1  0.49911446  0.85635777  0.53248402  1
  S  S49  1  0.49738970  0.43198579  0.82756486  1
  S  S50  1  0.99911446  0.64364223  0.46751598  1
  S  S51  1  0.50000000  0.74939857  0.75000000  1
  S  S52  1  0.99738970  0.93198579  0.67243514  1
  S  S53  1  0.00313878  0.31649758  0.37984102  1
  S  S54  1  0.50088554  0.14364223  0.46751598  1
  S  S55  1  0.50261030  0.56801421  0.17243514  1
  S  S56  1  0.00088554  0.35635777  0.53248402  1
  S  S57  1  0.99911446  0.35635777  0.96751598  1
  S  S58  1  0.49911446  0.14364223  0.03248402  1
  S  S59  1  0.50313878  0.81649758  0.12015898  1
