# generated using pymatgen
data_CsVSO6
_symmetry_space_group_name_H-M   'P 1'
_cell_length_a   9.09499519
_cell_length_b   9.51236034
_cell_length_c   14.82277794
_cell_angle_alpha   90.00000000
_cell_angle_beta   90.00000000
_cell_angle_gamma   98.45536922
_symmetry_Int_Tables_number   1
_chemical_formula_structural   CsVSO6
_chemical_formula_sum   'Cs8 V8 S8 O48'
_cell_volume   1268.45203912
_cell_formula_units_Z   8
loop_
 _symmetry_equiv_pos_site_id
 _symmetry_equiv_pos_as_xyz
  1  'x, y, z'
loop_
 _atom_site_type_symbol
 _atom_site_label
 _atom_site_symmetry_multiplicity
 _atom_site_fract_x
 _atom_site_fract_y
 _atom_site_fract_z
 _atom_site_occupancy
  Cs  Cs0  1  0.72512239  0.58791962  0.60149244  1
  Cs  Cs1  1  0.27487761  0.91208038  0.10149244  1
  Cs  Cs2  1  0.27487761  0.41208038  0.39850756  1
  Cs  Cs3  1  0.82124230  0.13280653  0.55400790  1
  Cs  Cs4  1  0.17875770  0.86719347  0.44599210  1
  Cs  Cs5  1  0.82124230  0.63280653  0.94599210  1
  Cs  Cs6  1  0.17875770  0.36719347  0.05400790  1
  Cs  Cs7  1  0.72512239  0.08791962  0.89850756  1
  V  V8  1  0.57871527  0.58443127  0.22096917  1
  V  V9  1  0.57871527  0.08443127  0.27903083  1
  V  V10  1  0.22826562  0.11842600  0.82743061  1
  V  V11  1  0.22826562  0.61842600  0.67256939  1
  V  V12  1  0.42128473  0.41556873  0.77903083  1
  V  V13  1  0.42128473  0.91556873  0.72096917  1
  V  V14  1  0.77173438  0.38157400  0.32743061  1
  V  V15  1  0.77173438  0.88157400  0.17256939  1
  S  S16  1  0.61469079  0.80181632  0.39644155  1
  S  S17  1  0.38530921  0.19818368  0.60355845  1
  S  S18  1  0.98422093  0.14625908  0.28035141  1
  S  S19  1  0.98422093  0.64625908  0.21964859  1
  S  S20  1  0.38530921  0.69818368  0.89644155  1
  S  S21  1  0.61469079  0.30181632  0.10355845  1
  S  S22  1  0.01577907  0.85374092  0.71964859  1
  S  S23  1  0.01577907  0.35374092  0.78035141  1
  O  O24  1  0.55127546  0.43908175  0.12585900  1
  O  O25  1  0.50496219  0.29786101  0.56427620  1
  O  O26  1  0.33698322  0.25238881  0.69465001  1
  O  O27  1  0.59272120  0.88653516  0.72264900  1
  O  O28  1  0.33698322  0.75238881  0.80534999  1
  O  O29  1  0.40600542  0.54122526  0.69057078  1
  O  O30  1  0.94102872  0.29649397  0.27622835  1
  O  O31  1  0.74572674  0.83609107  0.45303200  1
  O  O32  1  0.49503781  0.70213899  0.43572380  1
  O  O33  1  0.66301678  0.24761119  0.19465001  1
  O  O34  1  0.59399458  0.95877474  0.19057078  1
  O  O35  1  0.66301678  0.74761119  0.30534999  1
  O  O36  1  0.15907403  0.45798606  0.76450232  1
  O  O37  1  0.59272120  0.38653516  0.77735100  1
  O  O38  1  0.84092597  0.04201394  0.26450232  1
  O  O39  1  0.44872454  0.56091825  0.87414100  1
  O  O40  1  0.94102872  0.79649397  0.22377165  1
  O  O41  1  0.03855622  0.12281486  0.37110084  1
  O  O42  1  0.96144378  0.37718514  0.87110084  1
  O  O43  1  0.55127546  0.93908175  0.37414100  1
  O  O44  1  0.68010326  0.21364300  0.36425942  1
  O  O45  1  0.44872454  0.06091825  0.62585900  1
  O  O46  1  0.31989674  0.28635700  0.86425942  1
  O  O47  1  0.03855622  0.62281486  0.12889916  1
  O  O48  1  0.15884293  0.54788400  0.57890562  1
  O  O49  1  0.31989674  0.78635700  0.63574058  1
  O  O50  1  0.15907403  0.95798606  0.73549768  1
  O  O51  1  0.50496219  0.79786101  0.93572380  1
  O  O52  1  0.08947767  0.63618108  0.29232381  1
  O  O53  1  0.25427326  0.66390893  0.95303200  1
  O  O54  1  0.84115707  0.45211600  0.42109438  1
  O  O55  1  0.49503781  0.20213899  0.06427620  1
  O  O56  1  0.40727880  0.11346484  0.27735100  1
  O  O57  1  0.25427326  0.16390893  0.54696800  1
  O  O58  1  0.15884293  0.04788400  0.92109438  1
  O  O59  1  0.59399458  0.45877474  0.30942922  1
  O  O60  1  0.05897128  0.20350603  0.77622835  1
  O  O61  1  0.40600542  0.04122526  0.80942922  1
  O  O62  1  0.84092597  0.54201394  0.23549768  1
  O  O63  1  0.74572674  0.33609107  0.04696800  1
  O  O64  1  0.68010326  0.71364300  0.13574058  1
  O  O65  1  0.91052233  0.86381892  0.79232381  1
  O  O66  1  0.05897128  0.70350603  0.72377165  1
  O  O67  1  0.40727880  0.61346484  0.22264900  1
  O  O68  1  0.84115707  0.95211600  0.07890562  1
  O  O69  1  0.96144378  0.87718514  0.62889916  1
  O  O70  1  0.91052233  0.36381892  0.70767619  1
  O  O71  1  0.08947767  0.13618108  0.20767619  1
