# generated using pymatgen
data_Cs2NiH12(SO7)2
_symmetry_space_group_name_H-M   'P 1'
_cell_length_a   6.43421106
_cell_length_b   9.29136446
_cell_length_c   12.86981839
_cell_angle_alpha   90.00000000
_cell_angle_beta   90.00000000
_cell_angle_gamma   106.29604478
_symmetry_Int_Tables_number   1
_chemical_formula_structural   Cs2NiH12(SO7)2
_chemical_formula_sum   'Cs4 Ni2 H24 S4 O28'
_cell_volume   738.48065417
_cell_formula_units_Z   2
loop_
 _symmetry_equiv_pos_site_id
 _symmetry_equiv_pos_as_xyz
  1  'x, y, z'
loop_
 _atom_site_type_symbol
 _atom_site_label
 _atom_site_symmetry_multiplicity
 _atom_site_fract_x
 _atom_site_fract_y
 _atom_site_fract_z
 _atom_site_occupancy
  Ni  Ni0  1  0.00000000  0.00000000  0.00000000  1
  Ni  Ni1  1  0.00000000  0.50000000  0.50000000  1
  S  S2  1  0.74095985  0.39475476  0.14825283  1
  S  S3  1  0.25904015  0.10524524  0.64825283  1
  S  S4  1  0.25904015  0.60524524  0.85174717  1
  S  S5  1  0.74095985  0.89475476  0.35174717  1
  O  O6  1  0.61332067  0.41817209  0.24035382  1
  O  O7  1  0.38667933  0.08182791  0.74035382  1
  O  O8  1  0.38667933  0.58182791  0.75964618  1
  O  O9  1  0.61332067  0.91817209  0.25964618  1
  O  O10  1  0.79741835  0.53190444  0.08215948  1
  O  O11  1  0.20258165  0.96809556  0.58215948  1
  O  O12  1  0.20258165  0.46809556  0.91784052  1
  O  O13  1  0.79741835  0.03190444  0.41784052  1
  O  O14  1  0.60353549  0.26691119  0.08556020  1
  O  O15  1  0.39646451  0.23308881  0.58556020  1
  O  O16  1  0.39646451  0.73308881  0.91443980  1
  O  O17  1  0.60353549  0.76691119  0.41443980  1
  O  O18  1  0.94229318  0.35799404  0.18396858  1
  O  O19  1  0.05770682  0.14200596  0.68396858  1
  O  O20  1  0.05770682  0.64200596  0.81603142  1
  O  O21  1  0.94229318  0.85799404  0.31603142  1
  O  O22  1  0.15848057  0.15732371  0.11225075  1
  O  O23  1  0.84151943  0.34267629  0.61225075  1
  O  O24  1  0.84151943  0.84267629  0.88774925  1
  O  O25  1  0.15848057  0.65732371  0.38774925  1
  O  O26  1  0.01503439  0.82943181  0.10750197  1
  O  O27  1  0.98496561  0.67056819  0.60750197  1
  O  O28  1  0.98496561  0.17056819  0.89249803  1
  O  O29  1  0.01503439  0.32943181  0.39249803  1
  O  O30  1  0.29099359  0.99844253  0.93714469  1
  O  O31  1  0.70900641  0.50155747  0.43714469  1
  O  O32  1  0.70900641  0.00155747  0.06285531  1
  O  O33  1  0.29099359  0.49844253  0.56285531  1
  Cs  Cs34  1  0.35135958  0.12737734  0.35582463  1
  Cs  Cs35  1  0.64864042  0.37262266  0.85582463  1
  Cs  Cs36  1  0.64864042  0.87262266  0.64417537  1
  Cs  Cs37  1  0.35135958  0.62737734  0.14417537  1
  H  H38  1  0.31416376  0.20692076  0.09839010  1
  H  H39  1  0.68583624  0.29307924  0.59839010  1
  H  H40  1  0.68583624  0.79307924  0.90160990  1
  H  H41  1  0.31416376  0.70692076  0.40160990  1
  H  H42  1  0.08369176  0.23411431  0.12999393  1
  H  H43  1  0.91630824  0.26588569  0.62999393  1
  H  H44  1  0.91630824  0.76588569  0.87000607  1
  H  H45  1  0.08369176  0.73411431  0.37000607  1
  H  H46  1  0.92661082  0.72443491  0.09531230  1
  H  H47  1  0.07338918  0.77556509  0.59531230  1
  H  H48  1  0.07338918  0.27556509  0.90468770  1
  H  H49  1  0.92661082  0.22443491  0.40468770  1
  H  H50  1  0.98817102  0.85053803  0.18147769  1
  H  H51  1  0.01182898  0.64946197  0.68147769  1
  H  H52  1  0.01182898  0.14946197  0.81852231  1
  H  H53  1  0.98817102  0.35053803  0.31852231  1
  H  H54  1  0.32930783  0.90222527  0.94079505  1
  H  H55  1  0.67069217  0.59777473  0.44079505  1
  H  H56  1  0.67069217  0.09777473  0.05920495  1
  H  H57  1  0.32930783  0.40222527  0.55920495  1
  H  H58  1  0.30726586  0.02602537  0.86205995  1
  H  H59  1  0.69273414  0.47397463  0.36205995  1
  H  H60  1  0.69273414  0.97397463  0.13794005  1
  H  H61  1  0.30726586  0.52602537  0.63794005  1
