# generated using pymatgen
data_Cs2P2H2O7
_symmetry_space_group_name_H-M   'P 1'
_cell_length_a   6.08618953
_cell_length_b   6.08618953
_cell_length_c   11.52103671
_cell_angle_alpha   89.77456520
_cell_angle_beta   90.22543480
_cell_angle_gamma   83.06066019
_symmetry_Int_Tables_number   1
_chemical_formula_structural   Cs2P2H2O7
_chemical_formula_sum   'Cs4 P4 H4 O14'
_cell_volume   423.62519079
_cell_formula_units_Z   2
loop_
 _symmetry_equiv_pos_site_id
 _symmetry_equiv_pos_as_xyz
  1  'x, y, z'
loop_
 _atom_site_type_symbol
 _atom_site_label
 _atom_site_symmetry_multiplicity
 _atom_site_fract_x
 _atom_site_fract_y
 _atom_site_fract_z
 _atom_site_occupancy
  Cs  Cs0  1  0.27910752  0.26783395  0.02061221  1
  Cs  Cs1  1  0.26783395  0.27910752  0.47938779  1
  Cs  Cs2  1  0.72089248  0.73216605  0.97938779  1
  Cs  Cs3  1  0.73216605  0.72089248  0.52061221  1
  P  P4  1  0.80038670  0.17144598  0.26336598  1
  P  P5  1  0.17144598  0.80038670  0.23663402  1
  P  P6  1  0.19961330  0.82855402  0.73663402  1
  P  P7  1  0.82855402  0.19961330  0.76336598  1
  H  H8  1  0.49153985  0.10896106  0.73728257  1
  H  H9  1  0.10896106  0.49153985  0.76271743  1
  H  H10  1  0.50846015  0.89103894  0.26271743  1
  H  H11  1  0.89103894  0.50846015  0.23728257  1
  O  O12  1  0.60453688  0.19320527  0.69250010  1
  O  O13  1  0.19320527  0.60453688  0.80749990  1
  O  O14  1  0.39546312  0.80679473  0.30749990  1
  O  O15  1  0.80679473  0.39546312  0.19250010  1
  O  O16  1  0.24300140  0.79102432  0.60918483  1
  O  O17  1  0.79102432  0.24300140  0.89081517  1
  O  O18  1  0.75699860  0.20897568  0.39081517  1
  O  O19  1  0.20897568  0.75699860  0.10918483  1
  O  O20  1  0.96820418  0.34863562  0.69644378  1
  O  O21  1  0.34863562  0.96820418  0.80355622  1
  O  O22  1  0.03179582  0.65136438  0.30355622  1
  O  O23  1  0.65136438  0.03179582  0.19644378  1
  O  O24  1  0.94109083  0.94109083  0.75000000  1
  O  O25  1  0.05890917  0.05890917  0.25000000  1
