# generated using pymatgen
data_RbVSO6
_symmetry_space_group_name_H-M   'P 1'
_cell_length_a   5.63677875
_cell_length_b   9.04028745
_cell_length_c   10.96917260
_cell_angle_alpha   90.00000000
_cell_angle_beta   90.00000000
_cell_angle_gamma   90.00000000
_symmetry_Int_Tables_number   1
_chemical_formula_structural   RbVSO6
_chemical_formula_sum   'Rb4 V4 S4 O24'
_cell_volume   558.96819637
_cell_formula_units_Z   4
loop_
 _symmetry_equiv_pos_site_id
 _symmetry_equiv_pos_as_xyz
  1  'x, y, z'
loop_
 _atom_site_type_symbol
 _atom_site_label
 _atom_site_symmetry_multiplicity
 _atom_site_fract_x
 _atom_site_fract_y
 _atom_site_fract_z
 _atom_site_occupancy
  Rb  Rb0  1  0.25328217  0.93802881  0.09376535  1
  Rb  Rb1  1  0.74671783  0.56197119  0.59376535  1
  Rb  Rb2  1  0.75328217  0.06197119  0.40623465  1
  Rb  Rb3  1  0.24671783  0.43802881  0.90623465  1
  V  V4  1  0.79059797  0.09688368  0.80953291  1
  V  V5  1  0.29059797  0.90311632  0.69046709  1
  V  V6  1  0.70940203  0.59688368  0.19046709  1
  V  V7  1  0.20940203  0.40311632  0.30953291  1
  S  S8  1  0.76846591  0.70778483  0.96164069  1
  S  S9  1  0.23153409  0.79221517  0.46164069  1
  S  S10  1  0.26846591  0.29221517  0.53835931  1
  S  S11  1  0.73153409  0.20778483  0.03835931  1
  O  O12  1  0.44970401  0.34490264  0.44119590  1
  O  O13  1  0.05029599  0.84490264  0.55880410  1
  O  O14  1  0.95948989  0.16610480  0.96929404  1
  O  O15  1  0.80216573  0.25132833  0.73423456  1
  O  O16  1  0.21510020  0.63240537  0.44828685  1
  O  O17  1  0.19783427  0.24867167  0.23423456  1
  O  O18  1  0.92552074  0.49142576  0.27070958  1
  O  O19  1  0.79507621  0.62328000  0.84986212  1
  O  O20  1  0.54051011  0.66610480  0.03070596  1
  O  O21  1  0.07447926  0.00857424  0.77070958  1
  O  O22  1  0.57447926  0.99142576  0.72929042  1
  O  O23  1  0.42552074  0.50857424  0.22929042  1
  O  O24  1  0.45948989  0.83389520  0.53070596  1
  O  O25  1  0.29507621  0.37672000  0.65013788  1
  O  O26  1  0.04051011  0.33389520  0.46929404  1
  O  O27  1  0.20492379  0.87672000  0.34986212  1
  O  O28  1  0.28489980  0.13240537  0.55171315  1
  O  O29  1  0.70492379  0.12328000  0.15013788  1
  O  O30  1  0.55029599  0.15509736  0.94119590  1
  O  O31  1  0.94970401  0.65509736  0.05880410  1
  O  O32  1  0.69783427  0.75132833  0.26576544  1
  O  O33  1  0.78489980  0.86759463  0.94828685  1
  O  O34  1  0.30216573  0.74867167  0.76576544  1
  O  O35  1  0.71510020  0.36759463  0.05171315  1
