# generated using pymatgen
data_Sr2Co2O5
_symmetry_space_group_name_H-M   'P 1'
_cell_length_a   5.42790844
_cell_length_b   5.53875314
_cell_length_c   16.28215016
_cell_angle_alpha   90.00023443
_cell_angle_beta   90.02441460
_cell_angle_gamma   90.14195478
_symmetry_Int_Tables_number   1
_chemical_formula_structural   Sr2Co2O5
_chemical_formula_sum   'Sr8 Co8 O20'
_cell_volume   489.50249116
_cell_formula_units_Z   4
loop_
 _symmetry_equiv_pos_site_id
 _symmetry_equiv_pos_as_xyz
  1  'x, y, z'
loop_
 _atom_site_type_symbol
 _atom_site_label
 _atom_site_symmetry_multiplicity
 _atom_site_fract_x
 _atom_site_fract_y
 _atom_site_fract_z
 _atom_site_occupancy
  Sr  Sr0  1  0.50110123  0.00879644  0.11025052  1
  Sr  Sr1  1  0.00105043  0.49102638  0.38928938  1
  Sr  Sr2  1  0.99881320  0.50880729  0.88969314  1
  Sr  Sr3  1  0.50098477  0.00896885  0.38927492  1
  Sr  Sr4  1  0.99891507  0.50902036  0.61077941  1
  Sr  Sr5  1  0.00115175  0.49124716  0.11024003  1
  Sr  Sr6  1  0.49899746  0.99098600  0.61078102  1
  Sr  Sr7  1  0.49887709  0.99114932  0.88969587  1
  Co  Co8  1  0.52873151  0.43929084  0.75006894  1
  Co  Co9  1  0.97139050  0.93915798  0.24995335  1
  Co  Co10  1  0.47126518  0.56077947  0.24993097  1
  Co  Co11  1  0.02863324  0.06075193  0.75004590  1
  Co  Co12  1  0.00000721  -0.00000201  0.49999304  1
  Co  Co13  1  0.49999795  0.50001335  0.00001797  1
  Co  Co14  1  0.00000672  0.00000022  0.00000873  1
  Co  Co15  1  0.49999691  0.50001468  0.49998525  1
  O  O16  1  0.12079542  0.62430011  0.24985989  1
  O  O17  1  0.24879955  0.25116839  0.50444261  1
  O  O18  1  0.48356281  0.53722979  0.64497185  1
  O  O19  1  0.37938955  0.12394382  0.75013856  1
  O  O20  1  0.51631582  0.46300987  0.35500190  1
  O  O21  1  0.87944738  0.37589359  0.75013984  1
  O  O22  1  0.98355472  0.96269493  0.85513767  1
  O  O23  1  0.51637978  0.46291111  0.14487675  1
  O  O24  1  0.62075693  0.87583015  0.24986194  1
  O  O25  1  0.01640363  0.03705184  0.14489323  1
  O  O26  1  0.98360498  0.96275726  0.64497545  1
  O  O27  1  0.01635351  0.03699117  0.35498981  1
  O  O28  1  0.25122344  0.75123527  0.00472780  1
  O  O29  1  0.74878004  0.24878297  0.99531033  1
  O  O30  1  0.75110168  0.74869102  0.00463284  1
  O  O31  1  0.48349446  0.53732770  0.85514573  1
  O  O32  1  0.75120727  0.74883842  0.49552588  1
  O  O33  1  0.24890414  0.25131533  0.99539802  1
  O  O34  1  0.25095713  0.75148598  0.49542283  1
  O  O35  1  0.74904752  0.24853303  0.50453865  1
