# generated using pymatgen
data_Ba2Tm(CuO2)4
_symmetry_space_group_name_H-M   'P 1'
_cell_length_a   3.86529732
_cell_length_b   3.88695816
_cell_length_c   13.86982072
_cell_angle_alpha   98.05495626
_cell_angle_beta   90.00000000
_cell_angle_gamma   90.00000000
_symmetry_Int_Tables_number   1
_chemical_formula_structural   Ba2Tm(CuO2)4
_chemical_formula_sum   'Ba2 Tm1 Cu4 O8'
_cell_volume   206.32775217
_cell_formula_units_Z   1
loop_
 _symmetry_equiv_pos_site_id
 _symmetry_equiv_pos_as_xyz
  1  'x, y, z'
loop_
 _atom_site_type_symbol
 _atom_site_label
 _atom_site_symmetry_multiplicity
 _atom_site_fract_x
 _atom_site_fract_y
 _atom_site_fract_z
 _atom_site_occupancy
  O  O0  1  0.00000000  0.28153762  0.56307525  1
  O  O1  1  0.00000000  0.71846238  0.43692475  1
  O  O2  1  0.00000000  0.44934228  0.89868457  1
  O  O3  1  0.00000000  0.55065772  0.10131543  1
  O  O4  1  0.50000000  0.94930805  0.89861609  1
  O  O5  1  0.50000000  0.05069195  0.10138391  1
  O  O6  1  0.00000000  0.85487850  0.70975699  1
  O  O7  1  0.00000000  0.14512150  0.29024301  1
  Cu  Cu8  1  0.00000000  0.93988457  0.87976914  1
  Cu  Cu9  1  0.00000000  0.06011543  0.12023086  1
  Cu  Cu10  1  0.00000000  0.78745259  0.57490519  1
  Cu  Cu11  1  0.00000000  0.21254741  0.42509481  1
  Ba  Ba12  1  0.50000000  0.36477199  0.72954397  1
  Ba  Ba13  1  0.50000000  0.63522801  0.27045603  1
  Tm  Tm14  1  0.50000000  0.50000000  0.00000000  1
