# generated using pymatgen
data_NaAlSiO4
_symmetry_space_group_name_H-M   'P 1'
_cell_length_a   10.10035861
_cell_length_b   10.10035869
_cell_length_c   25.07005455
_cell_angle_alpha   90.00000000
_cell_angle_beta   90.00000000
_cell_angle_gamma   119.99999972
_symmetry_Int_Tables_number   1
_chemical_formula_structural   NaAlSiO4
_chemical_formula_sum   'Na24 Al24 Si24 O96'
_cell_volume   2214.92743366
_cell_formula_units_Z   24
loop_
 _symmetry_equiv_pos_site_id
 _symmetry_equiv_pos_as_xyz
  1  'x, y, z'
loop_
 _atom_site_type_symbol
 _atom_site_label
 _atom_site_symmetry_multiplicity
 _atom_site_fract_x
 _atom_site_fract_y
 _atom_site_fract_z
 _atom_site_occupancy
  Na  Na0  1  0.02073561  0.56469291  0.03573534  1
  Na  Na1  1  0.52651322  0.55799095  0.53026981  1
  Na  Na2  1  0.44247074  0.96046273  0.51964442  1
  Na  Na3  1  0.00444387  0.01498410  0.02801774  1
  Na  Na4  1  0.43530709  0.45604271  0.36906834  1
  Na  Na5  1  0.51799200  0.55752926  0.18631142  1
  Na  Na6  1  0.44200905  0.96852227  0.86360281  1
  Na  Na7  1  0.97926439  0.43530709  0.53573534  1
  Na  Na8  1  0.03147773  0.47348678  0.19693681  1
  Na  Na9  1  0.03953727  0.48200800  0.85297842  1
  Na  Na10  1  0.55799095  0.03147773  0.36360281  1
  Na  Na11  1  0.96852227  0.52651322  0.69693681  1
  Na  Na12  1  0.54395729  0.97926439  0.70240234  1
  Na  Na13  1  0.45604271  0.02073561  0.20240234  1
  Na  Na14  1  0.99555613  0.98501590  0.52801774  1
  Na  Na15  1  0.55752926  0.03953727  0.01964442  1
  Na  Na16  1  0.48200800  0.44247074  0.68631142  1
  Na  Na17  1  0.96046273  0.51799200  0.35297842  1
  Na  Na18  1  0.98945977  0.00444387  0.19468474  1
  Na  Na19  1  0.01054023  0.99555613  0.69468474  1
  Na  Na20  1  0.01498410  0.01054023  0.86135074  1
  Na  Na21  1  0.56469291  0.54395729  0.86906834  1
  Na  Na22  1  0.98501590  0.98945977  0.36135074  1
  Na  Na23  1  0.47348678  0.44200905  0.03026981  1
  Al  Al24  1  0.63530058  0.88084851  0.25850367  1
  Al  Al25  1  0.70793607  0.89685105  0.92875634  1
  Al  Al26  1  0.77130752  0.67322786  0.75323736  1
  Al  Al27  1  0.90192033  0.22869248  0.41990336  1
  Al  Al28  1  0.88084851  0.24554793  0.09183667  1
  Al  Al29  1  0.64474843  0.31426584  0.92391776  1
  Al  Al30  1  0.67322786  0.90192033  0.58657036  1
  Al  Al31  1  0.66951741  0.35525157  0.59058476  1
  Al  Al32  1  0.09807967  0.77130752  0.91990336  1
  Al  Al33  1  0.35525157  0.68573416  0.42391776  1
  Al  Al34  1  0.18891499  0.29206393  0.59542334  1
  Al  Al35  1  0.29206393  0.10314895  0.42875634  1
  Al  Al36  1  0.11915149  0.75445207  0.59183667  1
  Al  Al37  1  0.10314895  0.81108501  0.26209034  1
  Al  Al38  1  0.68573416  0.33048259  0.25725176  1
  Al  Al39  1  0.89685105  0.18891499  0.76209034  1
  Al  Al40  1  0.81108501  0.70793607  0.09542334  1
  Al  Al41  1  0.22869248  0.32677214  0.25323736  1
  Al  Al42  1  0.33048259  0.64474843  0.09058476  1
  Al  Al43  1  0.32677214  0.09807967  0.08657036  1
  Al  Al44  1  0.24554793  0.36469942  0.92516967  1
  Al  Al45  1  0.31426584  0.66951741  0.75725176  1
  Al  Al46  1  0.75445207  0.63530058  0.42516967  1
  Al  Al47  1  0.36469942  0.11915149  0.75850367  1
  Si  Si48  1  0.77821956  0.64453247  0.96919200  1
  Si  Si49  1  0.33844193  0.63629580  0.62938960  1
  Si  Si50  1  0.29785386  0.66155807  0.29605560  1
  Si  Si51  1  0.67609996  0.91254898  0.13180854  1
  Si  Si52  1  0.91254898  0.23644902  0.96514154  1
  Si  Si53  1  0.69643064  0.89846660  0.46129584  1
  Si  Si54  1  0.10153340  0.79796404  0.79462984  1
  Si  Si55  1  0.32390004  0.08745102  0.63180854  1
  Si  Si56  1  0.30356936  0.10153340  0.96129584  1
  Si  Si57  1  0.23644902  0.32390004  0.79847454  1
  Si  Si58  1  0.35546753  0.13368709  0.30252600  1
  Si  Si59  1  0.36370420  0.70214614  0.96272260  1
  Si  Si60  1  0.63629580  0.29785386  0.46272260  1
  Si  Si61  1  0.89846660  0.20203596  0.29462984  1
  Si  Si62  1  0.66155807  0.36370420  0.12938960  1
  Si  Si63  1  0.22178044  0.35546753  0.46919200  1
  Si  Si64  1  0.76355098  0.67609996  0.29847454  1
  Si  Si65  1  0.13368709  0.77821956  0.13585900  1
  Si  Si66  1  0.20203596  0.30356936  0.12796284  1
  Si  Si67  1  0.79796404  0.69643064  0.62796284  1
  Si  Si68  1  0.64453247  0.86631291  0.80252600  1
  Si  Si69  1  0.86631291  0.22178044  0.63585900  1
  Si  Si70  1  0.70214614  0.33844193  0.79605560  1
  Si  Si71  1  0.08745102  0.76355098  0.46514154  1
  O  O72  1  0.24508076  0.97230142  0.80320833  1
  O  O73  1  0.37599413  0.69863582  0.69074525  1
  O  O74  1  0.17812853  0.62250177  0.60842819  1
  O  O75  1  0.31275713  0.03547605  0.02012937  1
  O  O76  1  0.24632059  0.30353096  0.52841663  1
  O  O77  1  0.05316027  0.34163723  0.46374614  1
  O  O78  1  0.62400587  0.30136418  0.19074525  1
  O  O79  1  0.65836277  0.71152304  0.79708014  1
  O  O80  1  0.80931770  0.84258125  0.59529688  1
  O  O81  1  0.35506584  0.53453897  0.45967649  1
  O  O82  1  0.67735831  0.37599413  0.85741125  1
  O  O83  1  0.44437324  0.82187147  0.27509519  1
  O  O84  1  0.46490983  0.14564452  0.45987024  1
  O  O85  1  0.94575112  0.80849277  0.29407873  1
  O  O86  1  0.27728108  0.31275713  0.18679637  1
  O  O87  1  0.85435548  0.31926531  0.79320424  1
  O  O88  1  0.28847696  0.94683973  0.13041314  1
  O  O89  1  0.53509017  0.85435548  0.95987024  1
  O  O90  1  0.85147729  0.31435378  0.26307275  1
  O  O91  1  0.96673646  0.80931770  0.76196388  1
  O  O92  1  0.00481988  0.75637511  0.09157638  1
  O  O93  1  0.62250177  0.44437324  0.44176119  1
  O  O94  1  0.66981381  0.96096613  0.19385141  1
  O  O95  1  0.82052687  0.35506584  0.62634349  1
  O  O96  1  0.31926531  0.46490983  0.62653724  1
  O  O97  1  0.94278963  0.24632059  0.69508363  1
  O  O98  1  0.80849277  0.86274165  0.12741273  1
  O  O99  1  0.72271892  0.68724287  0.68679637  1
  O  O100  1  0.51688795  0.24879878  0.09137699  1
  O  O101  1  0.23098127  0.74169211  0.44936723  1
  O  O102  1  0.24879878  0.73191083  0.92470999  1
  O  O103  1  0.48311205  0.75120122  0.59137699  1
  O  O104  1  0.69863582  0.32264169  0.52407825  1
  O  O105  1  0.73191083  0.48311205  0.75804399  1
  O  O106  1  0.55562676  0.17812853  0.77509519  1
  O  O107  1  0.72160682  0.05835796  0.09215659  1
  O  O108  1  0.53712351  0.85147729  0.42973875  1
  O  O109  1  0.68724287  0.96452395  0.52012937  1
  O  O110  1  0.86274165  0.05424888  0.96074573  1
  O  O111  1  0.68564622  0.53712351  0.59640575  1
  O  O112  1  0.29115232  0.33018619  0.86051741  1
  O  O113  1  0.26808917  0.51688795  0.25804399  1
  O  O114  1  0.97230142  0.72722066  0.63654133  1
  O  O115  1  0.64493416  0.46546103  0.95967649  1
  O  O116  1  0.32264169  0.62400587  0.35741125  1
  O  O117  1  0.14852271  0.68564622  0.76307275  1
  O  O118  1  0.75491924  0.02769858  0.30320833  1
  O  O119  1  0.05424888  0.19150723  0.79407873  1
  O  O120  1  0.31435378  0.46287649  0.09640575  1
  O  O121  1  0.66324886  0.72160682  0.25882259  1
  O  O122  1  0.75637511  0.75155523  0.92490938  1
  O  O123  1  0.69646904  0.94278963  0.86175063  1
  O  O124  1  0.70884768  0.66981381  0.36051741  1
  O  O125  1  0.99518012  0.24362489  0.59157638  1
  O  O126  1  0.82187147  0.37749823  0.10842819  1
  O  O127  1  0.94164204  0.66324886  0.42548959  1
  O  O128  1  0.53453897  0.17947313  0.29301049  1
  O  O129  1  0.51071085  0.76901873  0.11603423  1
  O  O130  1  0.14564452  0.68073469  0.29320424  1
  O  O131  1  0.02769858  0.27277934  0.13654133  1
  O  O132  1  0.84258125  0.03326354  0.42862988  1
  O  O133  1  0.33018619  0.03903387  0.69385141  1
  O  O134  1  0.74169211  0.51071085  0.28270023  1
  O  O135  1  0.46546103  0.82052687  0.79301049  1
  O  O136  1  0.34163723  0.28847696  0.29708014  1
  O  O137  1  0.19068230  0.15741875  0.09529688  1
  O  O138  1  0.46287649  0.14852271  0.92973875  1
  O  O139  1  0.68073469  0.53509017  0.12653724  1
  O  O140  1  0.05835796  0.33675114  0.92548959  1
  O  O141  1  0.48928915  0.23098127  0.61603423  1
  O  O142  1  0.76901873  0.25830789  0.94936723  1
  O  O143  1  0.03326354  0.19068230  0.26196388  1
  O  O144  1  0.05721037  0.75367941  0.19508363  1
  O  O145  1  0.96452395  0.27728108  0.35346337  1
  O  O146  1  0.33675114  0.27839318  0.75882259  1
  O  O147  1  0.75155523  0.99518012  0.75824338  1
  O  O148  1  0.30353096  0.05721037  0.36175063  1
  O  O149  1  0.15741875  0.96673646  0.92862988  1
  O  O150  1  0.27277934  0.24508076  0.96987433  1
  O  O151  1  0.25830789  0.48928915  0.78270023  1
  O  O152  1  0.13725835  0.94575112  0.46074573  1
  O  O153  1  0.17947313  0.64493416  0.12634349  1
  O  O154  1  0.24844477  0.00481988  0.25824338  1
  O  O155  1  0.71152304  0.05316027  0.63041314  1
  O  O156  1  0.37749823  0.55562676  0.94176119  1
  O  O157  1  0.03547605  0.72271892  0.85346337  1
  O  O158  1  0.03903387  0.70884768  0.52718441  1
  O  O159  1  0.30136418  0.67735831  0.02407825  1
  O  O160  1  0.24362489  0.24844477  0.42490938  1
  O  O161  1  0.96096613  0.29115232  0.02718441  1
  O  O162  1  0.72722066  0.75491924  0.46987433  1
  O  O163  1  0.19150723  0.13725835  0.62741273  1
  O  O164  1  0.94683973  0.65836277  0.96374614  1
  O  O165  1  0.27839318  0.94164204  0.59215659  1
  O  O166  1  0.75367941  0.69646904  0.02841663  1
  O  O167  1  0.75120122  0.26808917  0.42470999  1
