# generated using pymatgen
data_CoOF
_symmetry_space_group_name_H-M   'P 1'
_cell_length_a   4.60440400
_cell_length_b   13.61501398
_cell_length_c   2.94441873
_cell_angle_alpha   90.00000550
_cell_angle_beta   90.00001933
_cell_angle_gamma   89.99830392
_symmetry_Int_Tables_number   1
_chemical_formula_structural   CoOF
_chemical_formula_sum   'Co6 O6 F6'
_cell_volume   184.58273883
_cell_formula_units_Z   6
loop_
 _symmetry_equiv_pos_site_id
 _symmetry_equiv_pos_as_xyz
  1  'x, y, z'
loop_
 _atom_site_type_symbol
 _atom_site_label
 _atom_site_symmetry_multiplicity
 _atom_site_fract_x
 _atom_site_fract_y
 _atom_site_fract_z
 _atom_site_occupancy
  Co  Co0  1  0.97708892  0.99872464  0.99999987  1
  Co  Co1  1  0.10212061  0.33242868  0.99999993  1
  Co  Co2  1  0.95762768  0.66979361  0.99999995  1
  Co  Co3  1  0.54236156  0.16980855  0.49999999  1
  Co  Co4  1  0.52310149  0.49875041  0.49999999  1
  Co  Co5  1  0.39785461  0.83234176  0.50000005  1
  O  O6  1  0.26764706  0.26980539  0.50000009  1
  O  O7  1  0.13207228  0.93130051  0.49999985  1
  O  O8  1  0.23232790  0.76972294  0.99999983  1
  O  O9  1  0.36793678  0.43137306  0.00000011  1
  O  O10  1  0.69480444  0.56430852  0.00000003  1
  O  O11  1  0.80531987  0.06427075  0.49999993  1
  F  F12  1  0.17717669  0.60150937  0.50000001  1
  F  F13  1  0.32274138  0.10148743  0.00000021  1
  F  F14  1  0.77878256  0.23604406  0.99999993  1
  F  F15  1  0.60522459  0.89612690  0.00000009  1
  F  F16  1  0.89460474  0.39622183  0.49999997  1
  F  F17  1  0.72120684  0.73597961  0.50000016  1
