# generated using pymatgen
data_Ca3Mg3(PO4)4
_symmetry_space_group_name_H-M   'P 1'
_cell_length_a   10.11881338
_cell_length_b   12.63209680
_cell_length_c   17.34095864
_cell_angle_alpha   99.14441039
_cell_angle_beta   90.00000000
_cell_angle_gamma   113.61068665
_symmetry_Int_Tables_number   1
_chemical_formula_structural   Ca3Mg3(PO4)4
_chemical_formula_sum   'Ca18 Mg18 P24 O96'
_cell_volume   2000.21918076
_cell_formula_units_Z   6
loop_
 _symmetry_equiv_pos_site_id
 _symmetry_equiv_pos_as_xyz
  1  'x, y, z'
loop_
 _atom_site_type_symbol
 _atom_site_label
 _atom_site_symmetry_multiplicity
 _atom_site_fract_x
 _atom_site_fract_y
 _atom_site_fract_z
 _atom_site_occupancy
  Ca  Ca0  1  0.20566847  0.31658702  0.43532462  1
  Ca  Ca1  1  0.82064373  0.86423444  0.41081561  1
  Ca  Ca2  1  0.16111876  0.62538157  0.56661232  1
  Ca  Ca3  1  0.04359071  0.86423444  0.91081561  1
  Ca  Ca4  1  0.79433153  0.68341298  0.56467538  1
  Ca  Ca5  1  0.66995996  0.17839347  0.60882066  1
  Ca  Ca6  1  0.50843351  0.17839347  0.10882066  1
  Ca  Ca7  1  0.53573719  0.37461843  0.93338768  1
  Ca  Ca8  1  0.49156649  0.82160653  0.89117934  1
  Ca  Ca9  1  0.46426281  0.62538157  0.06661232  1
  Ca  Ca10  1  0.95640929  0.13576556  0.08918439  1
  Ca  Ca11  1  0.83888124  0.37461843  0.43338768  1
  Ca  Ca12  1  0.88908145  0.68341298  0.06467538  1
  Ca  Ca13  1  0.10207065  0.00000000  0.75000000  1
  Ca  Ca14  1  0.17935627  0.13576556  0.58918439  1
  Ca  Ca15  1  0.89792935  0.00000000  0.25000000  1
  Ca  Ca16  1  0.33004004  0.82160653  0.39117934  1
  Ca  Ca17  1  0.11091855  0.31658702  0.93532462  1
  Mg  Mg18  1  0.89558408  0.52622423  0.87001889  1
  Mg  Mg19  1  0.25660802  0.21465596  0.23516352  1
  Mg  Mg20  1  0.95804794  0.21465596  0.73516352  1
  Mg  Mg21  1  0.10441592  0.47377577  0.12998111  1
  Mg  Mg22  1  0.74339198  0.78534404  0.76483648  1
  Mg  Mg23  1  0.61711521  0.46799920  0.72490313  1
  Mg  Mg24  1  0.36935985  0.47377577  0.62998111  1
  Mg  Mg25  1  0.67116301  0.16143914  0.94901757  1
  Mg  Mg26  1  0.49027613  0.16143914  0.44901757  1
  Mg  Mg27  1  0.85088399  0.46799920  0.22490313  1
  Mg  Mg28  1  0.63064015  0.52622423  0.37001889  1
  Mg  Mg29  1  0.42638015  0.00000000  0.25000000  1
  Mg  Mg30  1  0.38288479  0.53200080  0.27509687  1
  Mg  Mg31  1  0.32883699  0.83856086  0.05098243  1
  Mg  Mg32  1  0.50972387  0.83856086  0.55098243  1
  Mg  Mg33  1  0.04195206  0.78534404  0.26483648  1
  Mg  Mg34  1  0.57361985  0.00000000  0.75000000  1
  Mg  Mg35  1  0.14911601  0.53200080  0.77509687  1
  P  P36  1  0.72184767  0.67350690  0.22409157  1
  P  P37  1  0.04834077  0.32649310  0.27590843  1
  P  P38  1  0.44172117  0.72381687  0.71352887  1
  P  P39  1  0.93512415  0.63096731  0.39957955  1
  P  P40  1  0.27815233  0.32649310  0.77590843  1
  P  P41  1  0.55827883  0.27618313  0.28647113  1
  P  P42  1  0.64470966  0.99691047  0.09577840  1
  P  P43  1  0.11138507  0.94665542  0.12077783  1
  P  P44  1  0.88861493  0.05334458  0.87922217  1
  P  P45  1  0.35220082  0.99691047  0.59577840  1
  P  P46  1  0.71790430  0.27618313  0.78647113  1
  P  P47  1  0.64779918  0.00308953  0.40422160  1
  P  P48  1  0.42729958  0.61127562  0.47520278  1
  P  P49  1  0.95165923  0.67350690  0.72409157  1
  P  P50  1  0.16472966  0.05334458  0.37922217  1
  P  P51  1  0.81602396  0.38872438  0.02479722  1
  P  P52  1  0.35529034  0.00308953  0.90422160  1
  P  P53  1  0.18397604  0.61127562  0.97520278  1
  P  P54  1  0.28209570  0.72381687  0.21352887  1
  P  P55  1  0.69584315  0.63096731  0.89957955  1
  P  P56  1  0.83527034  0.94665542  0.62077783  1
  P  P57  1  0.06487585  0.36903269  0.60042045  1
  P  P58  1  0.30415685  0.36903269  0.10042045  1
  P  P59  1  0.57270042  0.38872438  0.52479722  1
  O  O60  1  0.20426672  0.97540904  0.62903572  1
  O  O61  1  0.97627426  0.14506574  0.82763663  1
  O  O62  1  0.04347265  0.93299366  0.34168637  1
  O  O63  1  0.93707900  0.28660154  0.63934143  1
  O  O64  1  0.77682465  0.79816056  0.27300296  1
  O  O65  1  0.13632057  0.31595237  0.07962148  1
  O  O66  1  0.26668561  0.83828567  0.25713233  1
  O  O67  1  0.66845237  0.51126937  0.84410236  1
  O  O68  1  0.88952101  0.93299366  0.84168637  1
  O  O69  1  0.37469595  0.75462542  0.14278713  1
  O  O70  1  0.34952255  0.28660154  0.13934143  1
  O  O71  1  0.79573328  0.02459096  0.37096428  1
  O  O72  1  0.85344688  0.63545377  0.21762589  1
  O  O73  1  0.01728477  0.39915271  0.52571473  1
  O  O74  1  0.12749837  0.63398937  0.18637080  1
  O  O75  1  0.57368880  0.69572604  0.51987786  1
  O  O76  1  0.42631120  0.30427396  0.48012214  1
  O  O77  1  0.17963180  0.31595237  0.57962148  1
  O  O78  1  0.17319853  0.51174274  0.02052900  1
  O  O79  1  0.66875226  0.31773710  0.22376436  1
  O  O80  1  0.97423007  0.09940364  0.95960492  1
  O  O81  1  0.72990978  0.04085129  0.88268134  1
  O  O82  1  0.02576993  0.90059636  0.04039508  1
  O  O83  1  0.65180183  0.31423939  0.03001042  1
  O  O84  1  0.39725308  0.41503564  0.73393577  1
  O  O85  1  0.52921447  0.97789097  0.33912993  1
  O  O86  1  0.95652735  0.06700634  0.65831363  1
  O  O87  1  0.70862107  0.11134805  0.05843908  1
  O  O88  1  0.02133591  0.79816056  0.77300296  1
  O  O89  1  0.98271523  0.60084729  0.47428527  1
  O  O90  1  0.57160006  0.83828567  0.75713233  1
  O  O91  1  0.99723382  0.67114052  0.63915598  1
  O  O92  1  0.82680147  0.48825726  0.97947100  1
  O  O93  1  0.11047899  0.06700634  0.15831363  1
  O  O94  1  0.66145579  0.48825726  0.47947100  1
  O  O95  1  0.49350899  0.36601063  0.31362920  1
  O  O96  1  0.73331439  0.16171433  0.74286767  1
  O  O97  1  0.33756244  0.68576061  0.46998958  1
  O  O98  1  0.27009022  0.95914871  0.11731866  1
  O  O99  1  0.61813206  0.60084729  0.97428527  1
  O  O100  1  0.62007053  0.24537458  0.35721287  1
  O  O101  1  0.50649101  0.63398937  0.68637080  1
  O  O102  1  0.14655312  0.36454623  0.78237411  1
  O  O103  1  0.47078553  0.02210903  0.66087007  1
  O  O104  1  0.59727303  0.88865195  0.44156092  1
  O  O105  1  0.65047745  0.71339846  0.86065857  1
  O  O106  1  0.29137893  0.88865195  0.94156092  1
  O  O107  1  0.87482643  0.90059636  0.54039508  1
  O  O108  1  0.12203724  0.69572604  0.01987786  1
  O  O109  1  0.62530405  0.24537458  0.85721287  1
  O  O110  1  0.34819817  0.68576061  0.96998958  1
  O  O111  1  0.06292100  0.71339846  0.36065857  1
  O  O112  1  0.83120853  0.85493426  0.67236337  1
  O  O113  1  0.22317535  0.20183944  0.72699704  1
  O  O114  1  0.37992947  0.75462542  0.64278713  1
  O  O115  1  0.60274692  0.58496436  0.26606423  1
  O  O116  1  0.00276618  0.32885948  0.36084402  1
  O  O117  1  0.02372574  0.85493426  0.17236337  1
  O  O118  1  0.33124774  0.68226290  0.77623564  1
  O  O119  1  0.01778256  0.41503564  0.23393577  1
  O  O120  1  0.64898484  0.31773710  0.72376436  1
  O  O121  1  0.97866409  0.20183944  0.22699704  1
  O  O122  1  0.98221744  0.58496436  0.76606423  1
  O  O123  1  0.34776859  0.89410200  0.53184044  1
  O  O124  1  0.22885767  0.02459096  0.87096428  1
  O  O125  1  0.54633341  0.89410200  0.03184044  1
  O  O126  1  0.89242465  0.44451764  0.10737537  1
  O  O127  1  0.16879147  0.14506574  0.32763663  1
  O  O128  1  0.42839994  0.16171433  0.24286767  1
  O  O129  1  0.15718300  0.48873063  0.65589764  1
  O  O130  1  0.40272697  0.11134805  0.55843908  1
  O  O131  1  0.32609330  0.32885948  0.86084402  1
  O  O132  1  0.87250163  0.36601063  0.81362920  1
  O  O133  1  0.38186794  0.39915271  0.02571473  1
  O  O134  1  0.55132350  0.02210903  0.16087007  1
  O  O135  1  0.82036820  0.68404763  0.42037852  1
  O  O136  1  0.10757535  0.55548236  0.89262463  1
  O  O137  1  0.78200689  0.63545377  0.71762589  1
  O  O138  1  0.21799311  0.36454623  0.28237411  1
  O  O139  1  0.44867650  0.97789097  0.83912993  1
  O  O140  1  0.84281700  0.51126937  0.34410236  1
  O  O141  1  0.33154763  0.48873063  0.15589764  1
  O  O142  1  0.65223141  0.10589800  0.46815956  1
  O  O143  1  0.87796276  0.30427396  0.98012214  1
  O  O144  1  0.44790701  0.55548236  0.39262463  1
  O  O145  1  0.77114233  0.97540904  0.12903572  1
  O  O146  1  0.35101516  0.68226290  0.27623564  1
  O  O147  1  0.12517357  0.09940364  0.45960492  1
  O  O148  1  0.55209299  0.44451764  0.60737537  1
  O  O149  1  0.66243756  0.31423939  0.53001042  1
  O  O150  1  0.31094151  0.04085129  0.38268134  1
  O  O151  1  0.33854421  0.51174274  0.52052900  1
  O  O152  1  0.68905849  0.95914871  0.61731866  1
  O  O153  1  0.67390670  0.67114052  0.13915598  1
  O  O154  1  0.86367943  0.68404763  0.92037852  1
  O  O155  1  0.45366659  0.10589800  0.96815956  1
