# generated using pymatgen
data_Re2Cl7O3
_symmetry_space_group_name_H-M   'P 1'
_cell_length_a   6.30431651
_cell_length_b   11.10006083
_cell_length_c   16.50662229
_cell_angle_alpha   90.00000000
_cell_angle_beta   94.90981894
_cell_angle_gamma   90.00000000
_symmetry_Int_Tables_number   1
_chemical_formula_structural   Re2Cl7O3
_chemical_formula_sum   'Re8 Cl28 O12'
_cell_volume   1150.86681948
_cell_formula_units_Z   4
loop_
 _symmetry_equiv_pos_site_id
 _symmetry_equiv_pos_as_xyz
  1  'x, y, z'
loop_
 _atom_site_type_symbol
 _atom_site_label
 _atom_site_symmetry_multiplicity
 _atom_site_fract_x
 _atom_site_fract_y
 _atom_site_fract_z
 _atom_site_occupancy
  Re  Re0  1  0.83064014  0.08453805  0.30933187  1
  Re  Re1  1  0.86472253  0.66053994  0.53189393  1
  Re  Re2  1  0.13527747  0.33946006  0.46810607  1
  Re  Re3  1  0.16935986  0.91546195  0.69066813  1
  Re  Re4  1  0.36472253  0.83946006  0.03189393  1
  Re  Re5  1  0.66935986  0.58453805  0.19066813  1
  Re  Re6  1  0.33064014  0.41546195  0.80933187  1
  Re  Re7  1  0.63527747  0.16053994  0.96810607  1
  Cl  Cl8  1  0.27650107  0.02478679  0.94644563  1
  Cl  Cl9  1  0.65830628  0.50286399  0.84224617  1
  Cl  Cl10  1  0.93720647  0.72512118  0.19443460  1
  Cl  Cl11  1  0.73046697  0.02413318  0.43387323  1
  Cl  Cl12  1  0.23046697  0.47586682  0.93387323  1
  Cl  Cl13  1  0.22349893  0.52478679  0.55355437  1
  Cl  Cl14  1  0.77650107  0.47521321  0.44644563  1
  Cl  Cl15  1  0.23373579  0.46011065  0.36619903  1
  Cl  Cl16  1  0.84169372  0.00286399  0.65775383  1
  Cl  Cl17  1  0.56279353  0.22512118  0.30556540  1
  Cl  Cl18  1  0.47356895  0.22309891  0.07875365  1
  Cl  Cl19  1  0.50746292  0.70519942  0.28117261  1
  Cl  Cl20  1  0.97356895  0.27690109  0.57875365  1
  Cl  Cl21  1  0.26953303  0.97586682  0.56612677  1
  Cl  Cl22  1  0.52643105  0.77690109  0.92124635  1
  Cl  Cl23  1  0.76953303  0.52413318  0.06612677  1
  Cl  Cl24  1  0.99253708  0.20519942  0.21882739  1
  Cl  Cl25  1  0.00746292  0.79480058  0.78117261  1
  Cl  Cl26  1  0.43720647  0.77487882  0.69443460  1
  Cl  Cl27  1  0.34169372  0.49713601  0.15775383  1
  Cl  Cl28  1  0.76626421  0.53988935  0.63380097  1
  Cl  Cl29  1  0.72349893  0.97521321  0.05355437  1
  Cl  Cl30  1  0.73373579  0.03988935  0.86619903  1
  Cl  Cl31  1  0.15830628  0.99713601  0.34224617  1
  Cl  Cl32  1  0.02643105  0.72309891  0.42124635  1
  Cl  Cl33  1  0.49253708  0.29480058  0.71882739  1
  Cl  Cl34  1  0.06279353  0.27487882  0.80556540  1
  Cl  Cl35  1  0.26626421  0.96011065  0.13380097  1
  O  O36  1  0.50291477  0.26357341  0.90170567  1
  O  O37  1  0.28507829  0.02233906  0.75229326  1
  O  O38  1  0.21492171  0.52233906  0.74770674  1
  O  O39  1  0.62061467  0.72267287  0.50500527  1
  O  O40  1  0.37938533  0.27732713  0.49499473  1
  O  O41  1  0.00291477  0.23642659  0.40170567  1
  O  O42  1  0.87938533  0.22267287  0.99499473  1
  O  O43  1  0.49708523  0.73642659  0.09829433  1
  O  O44  1  0.12061467  0.77732713  0.00500527  1
  O  O45  1  0.71492171  0.97766094  0.24770674  1
  O  O46  1  0.99708523  0.76357341  0.59829433  1
  O  O47  1  0.78507829  0.47766094  0.25229326  1
