# generated using pymatgen
data_GdFe5P3
_symmetry_space_group_name_H-M   'P 1'
_cell_length_a   3.66122837
_cell_length_b   10.29045541
_cell_length_c   11.81397395
_cell_angle_alpha   90.00000000
_cell_angle_beta   90.00000000
_cell_angle_gamma   90.00000000
_symmetry_Int_Tables_number   1
_chemical_formula_structural   GdFe5P3
_chemical_formula_sum   'Gd4 Fe20 P12'
_cell_volume   445.09982444
_cell_formula_units_Z   4
loop_
 _symmetry_equiv_pos_site_id
 _symmetry_equiv_pos_as_xyz
  1  'x, y, z'
loop_
 _atom_site_type_symbol
 _atom_site_label
 _atom_site_symmetry_multiplicity
 _atom_site_fract_x
 _atom_site_fract_y
 _atom_site_fract_z
 _atom_site_occupancy
  Gd  Gd0  1  0.25000000  0.91832769  0.20394798  1
  Gd  Gd1  1  0.75000000  0.41832769  0.29605202  1
  Gd  Gd2  1  0.25000000  0.58167231  0.70394798  1
  Gd  Gd3  1  0.75000000  0.08167231  0.79605202  1
  Fe  Fe4  1  0.25000000  0.87684673  0.69966536  1
  Fe  Fe5  1  0.25000000  0.09532408  0.99054219  1
  Fe  Fe6  1  0.75000000  0.78134018  0.82428569  1
  Fe  Fe7  1  0.75000000  0.90467592  0.00945781  1
  Fe  Fe8  1  0.75000000  0.59532408  0.50945781  1
  Fe  Fe9  1  0.75000000  0.29444514  0.01256581  1
  Fe  Fe10  1  0.75000000  0.53562066  0.06630620  1
  Fe  Fe11  1  0.75000000  0.71865982  0.32428569  1
  Fe  Fe12  1  0.25000000  0.28134018  0.67571431  1
  Fe  Fe13  1  0.25000000  0.62315327  0.19966536  1
  Fe  Fe14  1  0.25000000  0.40467592  0.49054219  1
  Fe  Fe15  1  0.25000000  0.70555486  0.98743419  1
  Fe  Fe16  1  0.75000000  0.20555486  0.51256581  1
  Fe  Fe17  1  0.25000000  0.21865982  0.17571431  1
  Fe  Fe18  1  0.25000000  0.79444514  0.48743419  1
  Fe  Fe19  1  0.25000000  0.03562066  0.43369380  1
  Fe  Fe20  1  0.75000000  0.96437934  0.56630620  1
  Fe  Fe21  1  0.75000000  0.12315327  0.30033464  1
  Fe  Fe22  1  0.75000000  0.37684673  0.80033464  1
  Fe  Fe23  1  0.25000000  0.46437934  0.93369380  1
  P  P24  1  0.25000000  0.23233679  0.37149344  1
  P  P25  1  0.75000000  0.57946305  0.88787254  1
  P  P26  1  0.75000000  0.73233679  0.12850656  1
  P  P27  1  0.75000000  0.10319594  0.10417821  1
  P  P28  1  0.25000000  0.42053695  0.11212746  1
  P  P29  1  0.25000000  0.60319594  0.39582179  1
  P  P30  1  0.75000000  0.76766321  0.62850656  1
  P  P31  1  0.25000000  0.89680406  0.89582179  1
  P  P32  1  0.75000000  0.92053695  0.38787254  1
  P  P33  1  0.25000000  0.26766321  0.87149344  1
  P  P34  1  0.75000000  0.39680406  0.60417821  1
  P  P35  1  0.25000000  0.07946305  0.61212746  1
