# generated using pymatgen
data_Tl3PbCl5
_symmetry_space_group_name_H-M   'P 1'
_cell_length_a   8.74372230
_cell_length_b   8.72162907
_cell_length_c   14.74717587
_cell_angle_alpha   90.00000000
_cell_angle_beta   90.00000000
_cell_angle_gamma   90.00000000
_symmetry_Int_Tables_number   1
_chemical_formula_structural   Tl3PbCl5
_chemical_formula_sum   'Tl12 Pb4 Cl20'
_cell_volume   1124.61229648
_cell_formula_units_Z   4
loop_
 _symmetry_equiv_pos_site_id
 _symmetry_equiv_pos_as_xyz
  1  'x, y, z'
loop_
 _atom_site_type_symbol
 _atom_site_label
 _atom_site_symmetry_multiplicity
 _atom_site_fract_x
 _atom_site_fract_y
 _atom_site_fract_z
 _atom_site_occupancy
  Tl  Tl0  1  0.12923752  0.16502554  0.33897791  1
  Tl  Tl1  1  0.16121649  0.14340496  0.64132010  1
  Tl  Tl2  1  0.19158623  0.49487987  0.17565566  1
  Tl  Tl3  1  0.30841377  0.99487987  0.07434434  1
  Tl  Tl4  1  0.33878351  0.64340496  0.60867990  1
  Tl  Tl5  1  0.37076248  0.66502554  0.91102209  1
  Tl  Tl6  1  0.62923752  0.33497446  0.41102209  1
  Tl  Tl7  1  0.66121649  0.35659504  0.10867990  1
  Tl  Tl8  1  0.69158623  0.00512013  0.57434434  1
  Tl  Tl9  1  0.80841377  0.50512013  0.67565566  1
  Tl  Tl10  1  0.83878351  0.85659504  0.14132010  1
  Tl  Tl11  1  0.87076248  0.83497446  0.83897791  1
  Pb  Pb12  1  0.02590434  0.31130428  0.92234143  1
  Pb  Pb13  1  0.47409566  0.81130428  0.32765857  1
  Pb  Pb14  1  0.52590434  0.18869572  0.82765857  1
  Pb  Pb15  1  0.97409566  0.68869572  0.42234143  1
  Cl  Cl16  1  0.99801870  0.18705611  0.11669343  1
  Cl  Cl17  1  0.03204136  0.62953734  0.00586465  1
  Cl  Cl18  1  0.15214096  0.46230101  0.77230779  1
  Cl  Cl19  1  0.16867585  0.83438238  0.25934798  1
  Cl  Cl20  1  0.17954154  0.03538471  0.85869381  1
  Cl  Cl21  1  0.32045846  0.53538471  0.39130619  1
  Cl  Cl22  1  0.33132415  0.33438238  0.99065202  1
  Cl  Cl23  1  0.34785904  0.96230101  0.47769221  1
  Cl  Cl24  1  0.46795864  0.12953734  0.24413535  1
  Cl  Cl25  1  0.50198130  0.68705611  0.13330657  1
  Cl  Cl26  1  0.49801870  0.31294389  0.63330657  1
  Cl  Cl27  1  0.53204136  0.87046266  0.74413535  1
  Cl  Cl28  1  0.65214096  0.03769899  0.97769221  1
  Cl  Cl29  1  0.66867585  0.66561762  0.49065202  1
  Cl  Cl30  1  0.67954154  0.46461529  0.89130619  1
  Cl  Cl31  1  0.82045846  0.96461529  0.35869381  1
  Cl  Cl32  1  0.83132415  0.16561762  0.75934798  1
  Cl  Cl33  1  0.84785904  0.53769899  0.27230779  1
  Cl  Cl34  1  0.96795864  0.37046266  0.50586465  1
  Cl  Cl35  1  0.00198130  0.81294389  0.61669343  1
