# generated using pymatgen
data_La4(GeS4)3
_symmetry_space_group_name_H-M   'P 1'
_cell_length_a   11.64352208
_cell_length_b   11.64352173
_cell_length_c   11.64352142
_cell_angle_alpha   114.70262291
_cell_angle_beta   114.70262211
_cell_angle_gamma   114.70262047
_symmetry_Int_Tables_number   1
_chemical_formula_structural   La4(GeS4)3
_chemical_formula_sum   'La8 Ge6 S24'
_cell_volume   906.91175801
_cell_formula_units_Z   2
loop_
 _symmetry_equiv_pos_site_id
 _symmetry_equiv_pos_as_xyz
  1  'x, y, z'
loop_
 _atom_site_type_symbol
 _atom_site_label
 _atom_site_symmetry_multiplicity
 _atom_site_fract_x
 _atom_site_fract_y
 _atom_site_fract_z
 _atom_site_occupancy
  La  La0  1  0.43062859  0.97203228  0.20579741  1
  La  La1  1  0.93062859  0.70579741  0.47203228  1
  La  La2  1  0.70579741  0.47203228  0.93062859  1
  La  La3  1  0.47203228  0.93062859  0.70579741  1
  La  La4  1  0.00006392  0.00006392  0.00006392  1
  La  La5  1  0.97203228  0.20579741  0.43062859  1
  La  La6  1  0.20579741  0.43062859  0.97203228  1
  La  La7  1  0.50006392  0.50006392  0.50006392  1
  Ge  Ge8  1  0.13967385  0.96469757  0.35259218  1
  Ge  Ge9  1  0.63967385  0.85259218  0.46469757  1
  Ge  Ge10  1  0.35259218  0.13967385  0.96469757  1
  Ge  Ge11  1  0.85259218  0.46469757  0.63967385  1
  Ge  Ge12  1  0.96469757  0.35259218  0.13967385  1
  Ge  Ge13  1  0.46469757  0.63967385  0.85259218  1
  S  S14  1  0.69093781  0.87554982  0.68768225  1
  S  S15  1  0.87554982  0.68768225  0.69093781  1
  S  S16  1  0.34592840  0.07824125  0.62343323  1
  S  S17  1  0.68768225  0.69093781  0.87554982  1
  S  S18  1  0.08312112  0.79612264  0.11087314  1
  S  S19  1  0.37554982  0.19093781  0.18768225  1
  S  S20  1  0.84592840  0.12343323  0.57824125  1
  S  S21  1  0.88517891  0.81613184  0.28261378  1
  S  S22  1  0.12343323  0.57824125  0.84592840  1
  S  S23  1  0.78261378  0.31613184  0.38517891  1
  S  S24  1  0.11087314  0.08312112  0.79612264  1
  S  S25  1  0.81613184  0.28261378  0.88517891  1
  S  S26  1  0.19093781  0.18768225  0.37554982  1
  S  S27  1  0.61087314  0.29612264  0.58312112  1
  S  S28  1  0.58312112  0.61087314  0.29612264  1
  S  S29  1  0.79612264  0.11087314  0.08312112  1
  S  S30  1  0.28261378  0.88517891  0.81613184  1
  S  S31  1  0.18768225  0.37554982  0.19093781  1
  S  S32  1  0.29612264  0.58312112  0.61087314  1
  S  S33  1  0.38517891  0.78261378  0.31613184  1
  S  S34  1  0.07824125  0.62343323  0.34592840  1
  S  S35  1  0.57824125  0.84592840  0.12343323  1
  S  S36  1  0.31613184  0.38517891  0.78261378  1
  S  S37  1  0.62343323  0.34592840  0.07824125  1
