# generated using pymatgen
data_In5Br7
_symmetry_space_group_name_H-M   'P 1'
_cell_length_a   13.39283347
_cell_length_b   13.39283293
_cell_length_c   19.67025427
_cell_angle_alpha   80.11346501
_cell_angle_beta   80.11346547
_cell_angle_gamma   89.94633121
_symmetry_Int_Tables_number   1
_chemical_formula_structural   In5Br7
_chemical_formula_sum   'In40 Br56'
_cell_volume   3422.72060660
_cell_formula_units_Z   8
loop_
 _symmetry_equiv_pos_site_id
 _symmetry_equiv_pos_as_xyz
  1  'x, y, z'
loop_
 _atom_site_type_symbol
 _atom_site_label
 _atom_site_symmetry_multiplicity
 _atom_site_fract_x
 _atom_site_fract_y
 _atom_site_fract_z
 _atom_site_occupancy
  In  In0  1  0.17654897  0.33789841  0.55946181  1
  In  In1  1  0.19406430  0.71187201  0.61480211  1
  In  In2  1  0.76940083  0.62374324  0.22199176  1
  In  In3  1  0.88936645  0.72774024  0.89134195  1
  In  In4  1  0.26994443  0.39669349  0.22474736  1
  In  In5  1  0.39669349  0.26994443  0.72474736  1
  In  In6  1  0.88042109  0.21147080  0.61609796  1
  In  In7  1  0.05053109  0.23022195  0.88806218  1
  In  In8  1  0.20300594  0.68627690  0.34188774  1
  In  In9  1  0.46556989  0.55961507  0.37692959  1
  In  In10  1  0.68627690  0.20300594  0.84188774  1
  In  In11  1  0.19378313  0.51408713  0.84149931  1
  In  In12  1  0.28291476  0.69991628  0.84311963  1
  In  In13  1  0.50378900  0.89301159  0.23135156  1
  In  In14  1  0.62238937  0.38077452  0.11184050  1
  In  In15  1  0.62374324  0.76940083  0.72199176  1
  In  In16  1  0.12278610  0.69632454  0.11004105  1
  In  In17  1  0.00009700  0.44082116  0.07829516  1
  In  In18  1  0.44082116  0.00009700  0.57829516  1
  In  In19  1  0.72774024  0.88936645  0.39134195  1
  In  In20  1  0.89301159  0.50378900  0.73135156  1
  In  In21  1  0.69632454  0.12278610  0.61004105  1
  In  In22  1  0.84905913  0.93892662  0.07644219  1
  In  In23  1  0.69991628  0.28291476  0.34311963  1
  In  In24  1  0.38077452  0.62238937  0.61184050  1
  In  In25  1  0.51408713  0.19378313  0.34149931  1
  In  In26  1  0.39352966  0.96560783  0.88142620  1
  In  In27  1  0.77447920  0.01578163  0.84235135  1
  In  In28  1  0.93892662  0.84905913  0.57644219  1
  In  In29  1  0.21147080  0.88042109  0.11609796  1
  In  In30  1  0.12735230  0.00358799  0.73140258  1
  In  In31  1  0.67328925  0.51182850  0.56478411  1
  In  In32  1  0.96560783  0.39352966  0.38142620  1
  In  In33  1  0.00358799  0.12735230  0.23140258  1
  In  In34  1  0.71187201  0.19406430  0.11480211  1
  In  In35  1  0.23022195  0.05053109  0.38806218  1
  In  In36  1  0.33789841  0.17654897  0.05946181  1
  In  In37  1  0.51182850  0.67328925  0.06478411  1
  In  In38  1  0.55961507  0.46556989  0.87692959  1
  In  In39  1  0.01578163  0.77447920  0.34235135  1
  Br  Br40  1  0.18144717  0.43386224  0.73063008  1
  Br  Br41  1  0.64197955  0.06921033  0.04661041  1
  Br  Br42  1  0.40307922  0.90180395  0.05603940  1
  Br  Br43  1  0.93931896  0.99591978  0.89995028  1
  Br  Br44  1  0.36004498  0.26624160  0.41536678  1
  Br  Br45  1  0.86164272  0.66637228  0.41585985  1
  Br  Br46  1  0.78496553  0.65891347  0.62998677  1
  Br  Br47  1  0.84376528  0.93456542  0.73214463  1
  Br  Br48  1  0.53549582  0.73119794  0.53820437  1
  Br  Br49  1  0.90180395  0.40307922  0.55603940  1
  Br  Br50  1  0.66637228  0.86164272  0.91585985  1
  Br  Br51  1  0.71782982  0.06533747  0.23156682  1
  Br  Br52  1  0.11707962  0.23586824  0.32852987  1
  Br  Br53  1  0.17864170  0.82706323  0.90991622  1
  Br  Br54  1  0.49083824  0.19939936  0.88889616  1
  Br  Br55  1  0.61830341  0.74046195  0.32859582  1
  Br  Br56  1  0.00128979  0.49235721  0.90124415  1
  Br  Br57  1  0.56136795  0.05947669  0.72420729  1
  Br  Br58  1  0.06921033  0.64197955  0.54661041  1
  Br  Br59  1  0.68506868  0.33848088  0.72704235  1
  Br  Br60  1  0.96195852  0.21945091  0.72710625  1
  Br  Br61  1  0.34755667  0.83232317  0.72758574  1
  Br  Br62  1  0.33848088  0.68506868  0.22704235  1
  Br  Br63  1  0.22602177  0.57271935  0.04038906  1
  Br  Br64  1  0.26624160  0.36004498  0.91536678  1
  Br  Br65  1  0.20145633  0.90671274  0.56320937  1
  Br  Br66  1  0.75629151  0.32470382  0.91267338  1
  Br  Br67  1  0.93456542  0.84376528  0.23214463  1
  Br  Br68  1  0.65891347  0.78496553  0.12998677  1
  Br  Br69  1  0.28363514  0.15863298  0.62882837  1
  Br  Br70  1  0.19939936  0.49083824  0.38889616  1
  Br  Br71  1  0.83232317  0.34755667  0.22758574  1
  Br  Br72  1  0.15863298  0.28363514  0.12882837  1
  Br  Br73  1  0.99591978  0.93931896  0.39995028  1
  Br  Br74  1  0.32470382  0.75629151  0.41267338  1
  Br  Br75  1  0.03350819  0.14078106  0.53971935  1
  Br  Br76  1  0.74046195  0.61830341  0.82859582  1
  Br  Br77  1  0.82706323  0.17864170  0.40991622  1
  Br  Br78  1  0.90671274  0.20145633  0.06320937  1
  Br  Br79  1  0.45280332  0.69514469  0.89311780  1
  Br  Br80  1  0.06533747  0.71782982  0.73156682  1
  Br  Br81  1  0.43386224  0.18144717  0.23063008  1
  Br  Br82  1  0.70525347  0.94971932  0.56294065  1
  Br  Br83  1  0.21945091  0.96195852  0.22710625  1
  Br  Br84  1  0.40149023  0.46303595  0.54923958  1
  Br  Br85  1  0.46303595  0.40149023  0.04923958  1
  Br  Br86  1  0.69514469  0.45280332  0.39311780  1
  Br  Br87  1  0.57271935  0.22602177  0.54038906  1
  Br  Br88  1  0.73119794  0.53549582  0.03820437  1
  Br  Br89  1  0.05947669  0.56136795  0.22420729  1
  Br  Br90  1  0.94971932  0.70525347  0.06294065  1
  Br  Br91  1  0.55418238  0.46280623  0.22232310  1
  Br  Br92  1  0.14078106  0.03350819  0.03971935  1
  Br  Br93  1  0.46280623  0.55418238  0.72232310  1
  Br  Br94  1  0.49235721  0.00128979  0.40124415  1
  Br  Br95  1  0.23586824  0.11707962  0.82852987  1
