# generated using pymatgen
data_NdTh9O20
_symmetry_space_group_name_H-M   'P 1'
_cell_length_a   7.94995686
_cell_length_b   19.90255845
_cell_length_c   10.52982320
_cell_angle_alpha   19.07149456
_cell_angle_beta   55.46563594
_cell_angle_gamma   59.95118324
_symmetry_Int_Tables_number   1
_chemical_formula_structural   NdTh9O20
_chemical_formula_sum   'Nd1 Th9 O20'
_cell_volume   444.64065645
_cell_formula_units_Z   1
loop_
 _symmetry_equiv_pos_site_id
 _symmetry_equiv_pos_as_xyz
  1  'x, y, z'
loop_
 _atom_site_type_symbol
 _atom_site_label
 _atom_site_symmetry_multiplicity
 _atom_site_fract_x
 _atom_site_fract_y
 _atom_site_fract_z
 _atom_site_occupancy
  Nd  Nd0  1  0.50000000  0.80000000  0.00000000  1
  Th  Th1  1  0.00195183  0.99968889  0.99883132  1
  Th  Th2  1  0.99815717  0.19786614  0.00491523  1
  Th  Th3  1  0.50023914  0.99932368  0.99974226  1
  Th  Th4  1  0.00184283  0.40213386  0.99508477  1
  Th  Th5  1  0.50000175  0.20041294  0.00042814  1
  Th  Th6  1  0.99804817  0.60031111  0.00116868  1
  Th  Th7  1  0.49999825  0.39958706  0.99957186  1
  Th  Th8  1  0.00000000  0.80000000  0.00000000  1
  Th  Th9  1  0.49976086  0.60067632  0.00025774  1
  O  O10  1  0.12420881  0.15094553  0.24871351  1
  O  O11  1  0.12413267  0.35056875  0.24932762  1
  O  O12  1  0.62782118  0.15569344  0.23743435  1
  O  O13  1  0.37281891  0.05420785  0.74583394  1
  O  O14  1  0.12447484  0.54871997  0.25261898  1
  O  O15  1  0.62582618  0.35043318  0.24904371  1
  O  O16  1  0.11840640  0.74913078  0.25440787  1
  O  O17  1  0.37417382  0.24956682  0.75095629  1
  O  O18  1  0.87552516  0.05128003  0.74738102  1
  O  O19  1  0.62718109  0.54579215  0.25416606  1
  O  O20  1  0.37217882  0.44430656  0.76256565  1
  O  O21  1  0.12455561  0.94947464  0.25085517  1
  O  O22  1  0.62720435  0.74919906  0.25426502  1
  O  O23  1  0.87586733  0.24943125  0.75067238  1
  O  O24  1  0.37412681  0.65007886  0.75051663  1
  O  O25  1  0.87579119  0.44905447  0.75128649  1
  O  O26  1  0.62587319  0.94992114  0.24948337  1
  O  O27  1  0.37279565  0.85080094  0.74573498  1
  O  O28  1  0.87544439  0.65052536  0.74914483  1
  O  O29  1  0.88159360  0.85086922  0.74559213  1
