# generated using pymatgen
data_LiNbO3
_symmetry_space_group_name_H-M   'P 1'
_cell_length_a   5.58377713
_cell_length_b   5.57961070
_cell_length_c   39.08870223
_cell_angle_alpha   55.85013340
_cell_angle_beta   55.83298503
_cell_angle_gamma   55.87253085
_symmetry_Int_Tables_number   1
_chemical_formula_structural   LiNbO3
_chemical_formula_sum   'Li14 Nb14 O42'
_cell_volume   778.31958848
_cell_formula_units_Z   14
loop_
 _symmetry_equiv_pos_site_id
 _symmetry_equiv_pos_as_xyz
  1  'x, y, z'
loop_
 _atom_site_type_symbol
 _atom_site_label
 _atom_site_symmetry_multiplicity
 _atom_site_fract_x
 _atom_site_fract_y
 _atom_site_fract_z
 _atom_site_occupancy
  Li  Li0  1  0.21667420  0.21904634  0.03297877  1
  Li  Li1  1  0.29260136  0.29211646  0.18533214  1
  Li  Li2  1  0.71839789  0.71856432  0.10287764  1
  Li  Li3  1  0.29534911  0.29448260  0.32731967  1
  Li  Li4  1  0.79428837  0.79560272  0.25604141  1
  Li  Li5  1  0.29488354  0.29394237  0.47041078  1
  Li  Li6  1  0.79393069  0.79495752  0.39896845  1
  Li  Li7  1  0.29487114  0.29391967  0.61326731  1
  Li  Li8  1  0.79391222  0.79484834  0.54185125  1
  Li  Li9  1  0.29506037  0.29420175  0.75607465  1
  Li  Li10  1  0.79396171  0.79489499  0.68469115  1
  Li  Li11  1  0.29391422  0.29454981  0.89905267  1
  Li  Li12  1  0.79470730  0.79505301  0.82739473  1
  Li  Li13  1  0.79123624  0.78912323  0.97046084  1
  Nb  Nb14  1  0.01234643  0.00366857  0.00239718  1
  Nb  Nb15  1  0.01154408  0.00673298  0.14570332  1
  Nb  Nb16  1  0.49453042  0.50391807  0.07530368  1
  Nb  Nb17  1  0.01642943  0.01743377  0.28793023  1
  Nb  Nb18  1  0.51828400  0.51695553  0.21613834  1
  Nb  Nb19  1  0.01731426  0.01775755  0.43087868  1
  Nb  Nb20  1  0.51752620  0.51725142  0.35940667  1
  Nb  Nb21  1  0.01731061  0.01762350  0.57376410  1
  Nb  Nb22  1  0.51780189  0.51706142  0.50234744  1
  Nb  Nb23  1  0.01737848  0.01757895  0.71659845  1
  Nb  Nb24  1  0.51777860  0.51703882  0.64520688  1
  Nb  Nb25  1  0.01662795  0.01741701  0.85917387  1
  Nb  Nb26  1  0.51777771  0.51703315  0.78795207  1
  Nb  Nb27  1  0.51583092  0.51670977  0.93022300  1
  O  O28  1  0.12462440  0.37591894  0.10632838  1
  O  O29  1  0.37514460  0.76025024  0.01756310  1
  O  O30  1  0.75676880  0.12220729  0.05354248  1
  O  O31  1  0.25748594  0.87297134  0.08938670  1
  O  O32  1  0.62682998  0.26065021  0.12482786  1
  O  O33  1  0.12591178  0.37577266  0.24823793  1
  O  O34  1  0.86911386  0.62818415  0.03463404  1
  O  O35  1  0.37459872  0.73427343  0.16090216  1
  O  O36  1  0.73907182  0.12573715  0.19644708  1
  O  O37  1  0.23783353  0.87531950  0.23206479  1
  O  O38  1  0.62674210  0.23699094  0.26762980  1
  O  O39  1  0.12569266  0.37705797  0.39105304  1
  O  O40  1  0.87784829  0.62496106  0.17816127  1
  O  O41  1  0.37513959  0.73796309  0.30370592  1
  O  O42  1  0.73683601  0.12663182  0.33928331  1
  O  O43  1  0.23735361  0.87625015  0.37516083  1
  O  O44  1  0.62630263  0.23692832  0.41082047  1
  O  O45  1  0.12552048  0.37700740  0.53392286  1
  O  O46  1  0.87660584  0.62581257  0.31955661  1
  O  O47  1  0.37603415  0.73732287  0.44661228  1
  O  O48  1  0.73651554  0.12623933  0.48233123  1
  O  O49  1  0.23717474  0.87625312  0.51805194  1
  O  O50  1  0.62627475  0.23652425  0.55375718  1
  O  O51  1  0.12550137  0.37700344  0.67678148  1
  O  O52  1  0.87688754  0.62553789  0.46249229  1
  O  O53  1  0.37603691  0.73724026  0.58948249  1
  O  O54  1  0.73646968  0.12622021  0.62519985  1
  O  O55  1  0.23724472  0.87631843  0.66089345  1
  O  O56  1  0.62638644  0.23655752  0.69660104  1
  O  O57  1  0.12603361  0.37637774  0.81956674  1
  O  O58  1  0.87690230  0.62545896  0.60535364  1
  O  O59  1  0.37629573  0.73737019  0.73227086  1
  O  O60  1  0.73674935  0.12626763  0.76800949  1
  O  O61  1  0.23762934  0.87681741  0.80346487  1
  O  O62  1  0.62650487  0.23668125  0.83930851  1
  O  O63  1  0.12435311  0.37162655  0.96369310  1
  O  O64  1  0.87688306  0.62541909  0.74819204  1
  O  O65  1  0.37617609  0.73538312  0.87481288  1
  O  O66  1  0.73649940  0.12576425  0.91048913  1
  O  O67  1  0.23719911  0.87824999  0.94581377  1
  O  O68  1  0.62256835  0.23647818  0.98176615  1
  O  O69  1  0.87638585  0.62491644  0.89099558  1
