# generated using pymatgen
data_Co6O7F5
_symmetry_space_group_name_H-M   'P 1'
_cell_length_a   4.55986357
_cell_length_b   7.56235327
_cell_length_c   5.45946969
_cell_angle_alpha   93.34939910
_cell_angle_beta   93.68966528
_cell_angle_gamma   87.13554387
_symmetry_Int_Tables_number   1
_chemical_formula_structural   Co6O7F5
_chemical_formula_sum   'Co6 O7 F5'
_cell_volume   187.34748640
_cell_formula_units_Z   1
loop_
 _symmetry_equiv_pos_site_id
 _symmetry_equiv_pos_as_xyz
  1  'x, y, z'
loop_
 _atom_site_type_symbol
 _atom_site_label
 _atom_site_symmetry_multiplicity
 _atom_site_fract_x
 _atom_site_fract_y
 _atom_site_fract_z
 _atom_site_occupancy
  Co  Co0  1  0.53122369  0.01333297  0.49282535  1
  Co  Co1  1  0.48909323  0.33590229  0.83340971  1
  Co  Co2  1  0.54203635  0.66332334  0.15126655  1
  Co  Co3  1  0.99816383  0.66846341  0.67596473  1
  Co  Co4  1  0.99101669  0.32392893  0.33543707  1
  Co  Co5  1  0.95845558  0.99723037  -0.00156517  1
  O  O6  1  0.81184100  0.76691009  0.95912108  1
  O  O7  1  0.80264110  0.10194249  0.29851239  1
  O  O8  1  0.70006394  0.77247368  0.46780973  1
  O  O9  1  0.68595002  0.10941144  0.79952676  1
  O  O10  1  0.69497434  0.42573944  0.12831641  1
  O  O11  1  0.30480805  0.56522060  0.87437885  1
  O  O12  1  0.30547742  0.23224904  0.53557034  1
  F  F13  1  0.80125027  0.43361866  0.63383245  1
  F  F14  1  0.30031542  0.89804195  0.20272750  1
  F  F15  1  0.19358914  0.21971637  0.03315662  1
  F  F16  1  0.20216043  0.90880393  0.70235734  1
  F  F17  1  0.18693950  0.56369100  0.37735430  1
