# generated using pymatgen
data_Na4PH5Se3O16
_symmetry_space_group_name_H-M   'P 1'
_cell_length_a   7.19877639
_cell_length_b   7.19567866
_cell_length_c   7.22807179
_cell_angle_alpha   80.07970392
_cell_angle_beta   85.21045942
_cell_angle_gamma   79.94606433
_symmetry_Int_Tables_number   1
_chemical_formula_structural   Na4PH5Se3O16
_chemical_formula_sum   'Na4 P1 H5 Se3 O16'
_cell_volume   362.60176479
_cell_formula_units_Z   1
loop_
 _symmetry_equiv_pos_site_id
 _symmetry_equiv_pos_as_xyz
  1  'x, y, z'
loop_
 _atom_site_type_symbol
 _atom_site_label
 _atom_site_symmetry_multiplicity
 _atom_site_fract_x
 _atom_site_fract_y
 _atom_site_fract_z
 _atom_site_occupancy
  Na  Na0  1  0.02259512  0.78748141  0.17566497  1
  Na  Na1  1  0.34704922  0.84864544  0.65505979  1
  Na  Na2  1  0.64919305  0.14069638  0.31699330  1
  Na  Na3  1  0.95484558  0.20376529  0.83300733  1
  P  P4  1  0.55086912  0.72165378  0.20929168  1
  H  H5  1  0.27533053  0.47857586  0.96115173  1
  H  H6  1  0.37790393  0.93446526  0.00296798  1
  H  H7  1  0.49076589  0.53355163  0.47617191  1
  H  H8  1  0.71694516  0.52936299  0.03304290  1
  H  H9  1  0.99780796  0.47213859  0.49513169  1
  Se  Se10  1  0.12158890  0.24937837  0.29219874  1
  Se  Se11  1  0.46980760  0.27491992  0.79212949  1
  Se  Se12  1  0.88218640  0.74533177  0.70238612  1
  O  O13  1  0.00162984  0.66543509  0.51056289  1
  O  O14  1  0.02435716  0.85832387  0.80098068  1
  O  O15  1  0.16441299  0.45164117  0.15820807  1
  O  O16  1  0.31358298  0.10329993  0.36368037  1
  O  O17  1  0.31398378  0.12278507  0.82987016  1
  O  O18  1  0.33946385  0.49787950  0.82862899  1
  O  O19  1  0.37611650  0.80416658  0.07997607  1
  O  O20  1  0.45572186  0.67338961  0.41189572  1
  O  O21  1  0.54586375  0.32846213  0.56949550  1
  O  O22  1  0.63671535  0.20832644  0.94074792  1
  O  O23  1  0.63902769  0.51852178  0.16003541  1
  O  O24  1  0.69040096  0.85589543  0.18996484  1
  O  O25  1  0.68522790  0.89370877  0.64059522  1
  O  O26  1  0.83819368  0.54746121  0.84756740  1
  O  O27  1  0.98081196  0.13809118  0.19322841  1
  O  O28  1  0.99170130  0.32314557  0.48956473  1
