# generated using pymatgen
data_Nb3TlVCl11
_symmetry_space_group_name_H-M   'P 1'
_cell_length_a   6.88929684
_cell_length_b   13.67558123
_cell_length_c   17.22034189
_cell_angle_alpha   90.00000000
_cell_angle_beta   90.00000000
_cell_angle_gamma   90.00000000
_symmetry_Int_Tables_number   1
_chemical_formula_structural   Nb3TlVCl11
_chemical_formula_sum   'Nb12 Tl4 V4 Cl44'
_cell_volume   1622.41689710
_cell_formula_units_Z   4
loop_
 _symmetry_equiv_pos_site_id
 _symmetry_equiv_pos_as_xyz
  1  'x, y, z'
loop_
 _atom_site_type_symbol
 _atom_site_label
 _atom_site_symmetry_multiplicity
 _atom_site_fract_x
 _atom_site_fract_y
 _atom_site_fract_z
 _atom_site_occupancy
  Nb  Nb0  1  0.54425737  0.74763540  0.01300186  1
  Nb  Nb1  1  0.95574263  0.74763540  0.01300186  1
  Nb  Nb2  1  0.04425737  0.75236460  0.51300186  1
  Nb  Nb3  1  0.45574263  0.25236460  0.98699814  1
  Nb  Nb4  1  0.54425737  0.24763540  0.48699814  1
  Nb  Nb5  1  0.25000000  0.30995968  0.85233061  1
  Nb  Nb6  1  0.95574263  0.24763540  0.48699814  1
  Nb  Nb7  1  0.45574263  0.75236460  0.51300186  1
  Nb  Nb8  1  0.75000000  0.69004032  0.14766939  1
  Nb  Nb9  1  0.75000000  0.19004032  0.35233061  1
  Nb  Nb10  1  0.04425737  0.25236460  0.98699814  1
  Nb  Nb11  1  0.25000000  0.80995968  0.64766939  1
  Tl  Tl12  1  0.25000000  0.02125773  0.23273235  1
  Tl  Tl13  1  0.75000000  0.97874227  0.76726765  1
  Tl  Tl14  1  0.25000000  0.52125773  0.26726765  1
  Tl  Tl15  1  0.75000000  0.47874227  0.73273235  1
  V  V16  1  0.25000000  0.81978746  0.83596612  1
  V  V17  1  0.75000000  0.18021254  0.16403388  1
  V  V18  1  0.25000000  0.31978746  0.66403388  1
  V  V19  1  0.75000000  0.68021254  0.33596612  1
  Cl  Cl20  1  0.75000000  0.35655006  0.40852667  1
  Cl  Cl21  1  0.00949418  0.24753740  0.75215082  1
  Cl  Cl22  1  0.99526627  0.59048237  0.08093929  1
  Cl  Cl23  1  0.50949418  0.25246260  0.25215082  1
  Cl  Cl24  1  0.50473373  0.09048237  0.41906071  1
  Cl  Cl25  1  0.50390540  0.39027045  0.58154415  1
  Cl  Cl26  1  0.00473373  0.90951763  0.58093929  1
  Cl  Cl27  1  0.25000000  0.95820320  0.74645810  1
  Cl  Cl28  1  0.75000000  0.82008813  0.42797024  1
  Cl  Cl29  1  0.25000000  0.64344994  0.59147333  1
  Cl  Cl30  1  0.25000000  0.17991187  0.57202976  1
  Cl  Cl31  1  0.75000000  0.17720291  0.91598340  1
  Cl  Cl32  1  0.50390540  0.89027045  0.91845585  1
  Cl  Cl33  1  0.49609460  0.10972955  0.08154415  1
  Cl  Cl34  1  0.25000000  0.67991187  0.92797024  1
  Cl  Cl35  1  0.00390540  0.10972955  0.08154415  1
  Cl  Cl36  1  0.25000000  0.45820320  0.75354190  1
  Cl  Cl37  1  0.99609460  0.89027045  0.91845585  1
  Cl  Cl38  1  0.99609460  0.39027045  0.58154415  1
  Cl  Cl39  1  0.99526627  0.09048237  0.41906071  1
  Cl  Cl40  1  0.49609460  0.60972955  0.41845585  1
  Cl  Cl41  1  0.75000000  0.32008813  0.07202976  1
  Cl  Cl42  1  0.75000000  0.65892455  0.91978892  1
  Cl  Cl43  1  0.75000000  0.85655006  0.09147333  1
  Cl  Cl44  1  0.25000000  0.32279709  0.41598340  1
  Cl  Cl45  1  0.50473373  0.59048237  0.08093929  1
  Cl  Cl46  1  0.75000000  0.04179680  0.25354190  1
  Cl  Cl47  1  0.99050582  0.75246260  0.24784918  1
  Cl  Cl48  1  0.49526627  0.40951763  0.91906071  1
  Cl  Cl49  1  0.49526627  0.90951763  0.58093929  1
  Cl  Cl50  1  0.75000000  0.67720291  0.58401660  1
  Cl  Cl51  1  0.00949418  0.74753740  0.74784918  1
  Cl  Cl52  1  0.99050582  0.25246260  0.25215082  1
  Cl  Cl53  1  0.25000000  0.14344994  0.90852667  1
  Cl  Cl54  1  0.25000000  0.84107545  0.41978892  1
  Cl  Cl55  1  0.00473373  0.40951763  0.91906071  1
  Cl  Cl56  1  0.00390540  0.60972955  0.41845585  1
  Cl  Cl57  1  0.75000000  0.15892455  0.58021108  1
  Cl  Cl58  1  0.49050582  0.74753740  0.74784918  1
  Cl  Cl59  1  0.75000000  0.54179680  0.24645810  1
  Cl  Cl60  1  0.50949418  0.75246260  0.24784918  1
  Cl  Cl61  1  0.49050582  0.24753740  0.75215082  1
  Cl  Cl62  1  0.25000000  0.34107545  0.08021108  1
  Cl  Cl63  1  0.25000000  0.82279709  0.08401660  1
