# generated using pymatgen
data_LiCa3Zr3TaO12
_symmetry_space_group_name_H-M   'P 1'
_cell_length_a   5.55991078
_cell_length_b   5.79924409
_cell_length_c   15.96838356
_cell_angle_alpha   90.00000000
_cell_angle_beta   89.87385259
_cell_angle_gamma   90.00000000
_symmetry_Int_Tables_number   1
_chemical_formula_structural   LiCa3Zr3TaO12
_chemical_formula_sum   'Li2 Ca6 Zr6 Ta2 O24'
_cell_volume   514.87180962
_cell_formula_units_Z   2
loop_
 _symmetry_equiv_pos_site_id
 _symmetry_equiv_pos_as_xyz
  1  'x, y, z'
loop_
 _atom_site_type_symbol
 _atom_site_label
 _atom_site_symmetry_multiplicity
 _atom_site_fract_x
 _atom_site_fract_y
 _atom_site_fract_z
 _atom_site_occupancy
  Li  Li0  1  0.46472884  0.38031781  0.62540583  1
  Li  Li1  1  0.03527116  0.88031781  0.62459417  1
  Ca  Ca2  1  0.01328489  0.94481512  0.38284515  1
  Ca  Ca3  1  0.01986844  0.94431463  0.86612577  1
  Ca  Ca4  1  0.48671511  0.44481512  0.86715485  1
  Ca  Ca5  1  0.48013156  0.44431463  0.38387423  1
  Ca  Ca6  1  0.51705173  0.54797923  0.12514216  1
  Ca  Ca7  1  0.98294827  0.04797923  0.12485784  1
  Zr  Zr8  1  0.00440864  0.49516192  0.99801325  1
  Zr  Zr9  1  0.98311896  0.48013358  0.50642060  1
  Zr  Zr10  1  0.49559136  0.99516192  0.25198675  1
  Zr  Zr11  1  0.50121019  0.99616780  0.99716431  1
  Zr  Zr12  1  0.51688104  0.98013358  0.74357940  1
  Zr  Zr13  1  0.99878981  0.49616780  0.25283569  1
  Ta  Ta14  1  0.50332516  0.98765686  0.50501761  1
  Ta  Ta15  1  0.99667484  0.48765686  0.74498239  1
  O  O16  1  0.10618217  0.45411522  0.12486147  1
  O  O17  1  0.11803988  0.51342601  0.62901071  1
  O  O18  1  0.18839893  0.19016067  0.28164751  1
  O  O19  1  0.20956071  0.23241270  0.77516767  1
  O  O20  1  0.20713269  0.21490208  0.47268379  1
  O  O21  1  0.19411542  0.19124977  0.96725131  1
  O  O22  1  0.30588458  0.69124977  0.28274869  1
  O  O23  1  0.29043929  0.73241270  0.47483233  1
  O  O24  1  0.29286731  0.71490208  0.77731621  1
  O  O25  1  0.31160107  0.69016067  0.96835249  1
  O  O26  1  0.39381783  0.95411522  0.12513853  1
  O  O27  1  0.38196012  0.01342601  0.62098929  1
  O  O28  1  0.60802814  0.04106590  0.87030037  1
  O  O29  1  0.59732538  0.03457213  0.38249812  1
  O  O30  1  0.69738346  0.29611686  0.02789647  1
  O  O31  1  0.69210044  0.29618538  0.22396878  1
  O  O32  1  0.70719963  0.31854527  0.72247829  1
  O  O33  1  0.67003721  0.30600106  0.52356010  1
  O  O34  1  0.80789956  0.79618538  0.02603122  1
  O  O35  1  0.79280037  0.81854527  0.52752171  1
  O  O36  1  0.80261654  0.79611686  0.22210353  1
  O  O37  1  0.82996279  0.80600106  0.72643990  1
  O  O38  1  0.89197186  0.54106590  0.37969963  1
  O  O39  1  0.90267462  0.53457213  0.86750188  1
