# generated using pymatgen
data_Ti2Cu(PO5)2
_symmetry_space_group_name_H-M   'P 1'
_cell_length_a   7.14600840
_cell_length_b   7.33401570
_cell_length_c   7.92127196
_cell_angle_alpha   90.00000000
_cell_angle_beta   90.00000000
_cell_angle_gamma   118.64910657
_symmetry_Int_Tables_number   1
_chemical_formula_structural   Ti2Cu(PO5)2
_chemical_formula_sum   'Ti4 Cu2 P4 O20'
_cell_volume   364.32017978
_cell_formula_units_Z   2
loop_
 _symmetry_equiv_pos_site_id
 _symmetry_equiv_pos_as_xyz
  1  'x, y, z'
loop_
 _atom_site_type_symbol
 _atom_site_label
 _atom_site_symmetry_multiplicity
 _atom_site_fract_x
 _atom_site_fract_y
 _atom_site_fract_z
 _atom_site_occupancy
  O  O0  1  0.56836213  0.62442466  0.21159070  1
  O  O1  1  0.93163787  0.87557534  0.71159070  1
  O  O2  1  0.43163787  0.37557534  0.78840930  1
  O  O3  1  0.06836213  0.12442466  0.28840930  1
  O  O4  1  0.80597741  0.11562022  0.51083033  1
  O  O5  1  0.69402259  0.38437978  0.01083033  1
  O  O6  1  0.19402259  0.88437978  0.48916967  1
  O  O7  1  0.30597741  0.61562022  0.98916967  1
  O  O8  1  0.95878137  0.40027711  0.29168808  1
  O  O9  1  0.54121863  0.09972289  0.79168808  1
  O  O10  1  0.00017078  0.77606597  0.14674553  1
  O  O11  1  0.49982922  0.72393403  0.64674553  1
  O  O12  1  0.99982922  0.22393403  0.85325447  1
  O  O13  1  0.50017078  0.27606597  0.35325447  1
  O  O14  1  0.30825467  0.12054989  0.02827646  1
  O  O15  1  0.19174533  0.37945011  0.52827646  1
  O  O16  1  0.69174533  0.87945011  0.97172354  1
  O  O17  1  0.80825467  0.62054989  0.47172354  1
  O  O18  1  0.45878137  0.90027711  0.20831192  1
  O  O19  1  0.04121863  0.59972289  0.70831192  1
  P  P20  1  0.00347495  0.25333094  0.40254328  1
  P  P21  1  0.49652505  0.24666906  0.90254328  1
  P  P22  1  0.99652505  0.74666906  0.59745672  1
  P  P23  1  0.50347495  0.75333094  0.09745672  1
  Ti  Ti24  1  0.70279699  0.96499223  0.71838745  1
  Ti  Ti25  1  0.79720301  0.53500777  0.21838745  1
  Ti  Ti26  1  0.29720301  0.03500777  0.28161255  1
  Ti  Ti27  1  0.20279699  0.46499223  0.78161255  1
  Cu  Cu28  1  0.50000000  0.50000000  0.50000000  1
  Cu  Cu29  1  0.00000000  0.00000000  0.00000000  1
