# generated using pymatgen
data_Sm2EuS4
_symmetry_space_group_name_H-M   'P 1'
_cell_length_a   7.41906314
_cell_length_b   7.41906322
_cell_length_c   7.41906334
_cell_angle_alpha   109.48989539
_cell_angle_beta   109.48989562
_cell_angle_gamma   109.43388129
_symmetry_Int_Tables_number   1
_chemical_formula_structural   Sm2EuS4
_chemical_formula_sum   'Sm4 Eu2 S8'
_cell_volume   314.35847145
_cell_formula_units_Z   2
loop_
 _symmetry_equiv_pos_site_id
 _symmetry_equiv_pos_as_xyz
  1  'x, y, z'
loop_
 _atom_site_type_symbol
 _atom_site_label
 _atom_site_symmetry_multiplicity
 _atom_site_fract_x
 _atom_site_fract_y
 _atom_site_fract_z
 _atom_site_occupancy
  Eu  Eu0  1  0.62500000  0.37500000  0.25000000  1
  Eu  Eu1  1  0.87500000  0.12500000  0.75000000  1
  Sm  Sm2  1  0.12321515  0.75000000  0.87321515  1
  Sm  Sm3  1  0.25000000  0.62321515  0.37321515  1
  Sm  Sm4  1  0.37678485  0.25000000  0.62678485  1
  Sm  Sm5  1  0.75000000  0.87678485  0.12678485  1
  S  S6  1  0.00659913  0.85587504  0.49884397  1
  S  S7  1  0.00775516  0.35703107  0.50115603  1
  S  S8  1  0.49340087  0.99224484  0.84927591  1
  S  S9  1  0.14412496  0.14296893  0.15072409  1
  S  S10  1  0.35587504  0.50659913  -0.00115603  1
  S  S11  1  0.64296893  0.64412496  0.65072409  1
  S  S12  1  0.49224484  0.99340087  0.34927591  1
  S  S13  1  0.85703107  0.50775516  0.00115603  1
