# generated using pymatgen
data_Ag13(PbO3)6
_symmetry_space_group_name_H-M   'P 1'
_cell_length_a   6.00226847
_cell_length_b   12.04024991
_cell_length_c   19.46632693
_cell_angle_alpha   90.20868186
_cell_angle_beta   90.04204247
_cell_angle_gamma   120.28043073
_symmetry_Int_Tables_number   1
_chemical_formula_structural   Ag13(PbO3)6
_chemical_formula_sum   'Ag26 Pb12 O36'
_cell_volume   1214.86096501
_cell_formula_units_Z   2
loop_
 _symmetry_equiv_pos_site_id
 _symmetry_equiv_pos_as_xyz
  1  'x, y, z'
loop_
 _atom_site_type_symbol
 _atom_site_label
 _atom_site_symmetry_multiplicity
 _atom_site_fract_x
 _atom_site_fract_y
 _atom_site_fract_z
 _atom_site_occupancy
  Ag  Ag0  1  0.99975008  0.99841005  0.41117982  1
  Ag  Ag1  1  0.00042676  0.00607572  0.74437975  1
  Ag  Ag2  1  0.00002102  0.74931818  0.00026147  1
  Ag  Ag3  1  0.98582593  0.49979083  0.25497160  1
  Ag  Ag4  1  0.99960046  0.50589313  0.74424308  1
  Ag  Ag5  1  0.50230489  0.75020873  0.00074070  1
  Ag  Ag6  1  0.49647587  0.74734830  0.33471092  1
  Ag  Ag7  1  0.50132672  0.75049269  0.66638111  1
  Ag  Ag8  1  0.49975485  0.49968959  0.99906541  1
  Ag  Ag9  1  0.49994449  0.49995486  0.66673114  1
  Ag  Ag10  1  0.00233094  0.99985889  0.25532263  1
  Ag  Ag11  1  0.00147777  0.99397705  0.58782836  1
  Ag  Ag12  1  0.99922330  0.00162863  0.91990092  1
  Ag  Ag13  1  0.99641518  0.74670907  0.33261419  1
  Ag  Ag14  1  0.50178283  0.25054814  0.99944722  1
  Ag  Ag15  1  0.49892441  0.25016974  0.66594391  1
  Ag  Ag16  1  0.50267386  0.25306985  0.33353156  1
  Ag  Ag17  1  0.99832933  0.50014068  0.07778812  1
  Ag  Ag18  1  0.00216014  0.49373890  0.58805999  1
  Ag  Ag19  1  0.01253815  0.49844740  0.41269450  1
  Ag  Ag20  1  0.00090574  0.50153252  0.92204162  1
  Ag  Ag21  1  0.49631470  0.99962571  0.00010691  1
  Ag  Ag22  1  0.49958251  0.00033406  0.33439363  1
  Ag  Ag23  1  0.49968615  0.00017064  0.66651881  1
  Ag  Ag24  1  0.00304433  0.25303891  0.33386832  1
  Ag  Ag25  1  0.00121073  0.24957373  0.00151179  1
  Pb  Pb26  1  0.32492379  0.83232533  0.50221585  1
  Pb  Pb27  1  0.33952851  0.83483926  0.16498968  1
  Pb  Pb28  1  0.32831691  0.83039367  0.83138703  1
  Pb  Pb29  1  0.66347133  0.66469570  0.16788057  1
  Pb  Pb30  1  0.67183641  0.66661293  0.83103913  1
  Pb  Pb31  1  0.66612487  0.66589848  0.50030597  1
  Pb  Pb32  1  0.33544998  0.33535088  0.16796732  1
  Pb  Pb33  1  0.33063208  0.33779990  0.50041819  1
  Pb  Pb34  1  0.32783529  0.33002832  0.83092165  1
  Pb  Pb35  1  0.66791130  0.16504408  0.16497730  1
  Pb  Pb36  1  0.67166341  0.17101567  0.50242007  1
  Pb  Pb37  1  0.67156628  0.16631760  0.83133036  1
  O  O38  1  0.99871541  0.68757325  0.10309455  1
  O  O39  1  0.99957538  0.68685519  0.77107412  1
  O  O40  1  0.99841968  0.68510179  0.43483610  1
  O  O41  1  0.62725024  0.00142073  0.56421455  1
  O  O42  1  0.62625454  0.00069437  0.23112718  1
  O  O43  1  0.61773348  0.99786682  0.89659416  1
  O  O44  1  0.37237596  0.68734952  0.23157069  1
  O  O45  1  0.37224046  0.68802996  0.56414604  1
  O  O46  1  0.38385122  0.68929660  0.89635855  1
  O  O47  1  0.61773801  0.80502067  0.10429994  1
  O  O48  1  0.61756276  0.81227833  0.43767323  1
  O  O49  1  0.62752106  0.81259717  0.76917028  1
  O  O50  1  0.00612918  0.19395848  0.10443647  1
  O  O51  1  0.99865975  0.18711684  0.43559542  1
  O  O52  1  0.99837328  0.18662286  0.77085889  1
  O  O53  1  0.37297558  0.49930103  0.10179841  1
  O  O54  1  0.38082301  0.50299957  0.43866104  1
  O  O55  1  0.37060310  0.49826465  0.76907838  1
  O  O56  1  0.62364606  0.50078076  0.22796384  1
  O  O57  1  0.63174370  0.50159777  0.56531700  1
  O  O58  1  0.61983253  0.49777607  0.89541512  1
  O  O59  1  0.00492060  0.81254583  0.23007341  1
  O  O60  1  0.99369549  0.81102012  0.56098426  1
  O  O61  1  0.00055777  0.81322049  0.89786371  1
  O  O62  1  0.38055552  0.18844943  0.23014333  1
  O  O63  1  0.37034350  0.18914333  0.56306323  1
  O  O64  1  0.38127337  0.18813318  0.89576853  1
  O  O65  1  0.62276029  0.31140572  0.10305147  1
  O  O66  1  0.62108032  0.31390946  0.43702483  1
  O  O67  1  0.62727022  0.31205402  0.76896598  1
  O  O68  1  0.38213989  0.99919039  0.10304516  1
  O  O69  1  0.38005099  0.00254691  0.43821027  1
  O  O70  1  0.37167726  0.99810384  0.76904874  1
  O  O71  1  0.99871225  0.31368593  0.23151265  1
  O  O72  1  0.00070279  0.31206905  0.56282737  1
  O  O73  1  0.00094407  0.31195211  0.89840848  1
