# generated using pymatgen
data_Tl2Fe3Se4
_symmetry_space_group_name_H-M   'P 1'
_cell_length_a   15.78029522
_cell_length_b   5.53271480
_cell_length_c   7.29715931
_cell_angle_alpha   89.89722100
_cell_angle_beta   74.15120212
_cell_angle_gamma   45.43117603
_symmetry_Int_Tables_number   1
_chemical_formula_structural   Tl2Fe3Se4
_chemical_formula_sum   'Tl4 Fe6 Se8'
_cell_volume   419.53185592
_cell_formula_units_Z   2
loop_
 _symmetry_equiv_pos_site_id
 _symmetry_equiv_pos_as_xyz
  1  'x, y, z'
loop_
 _atom_site_type_symbol
 _atom_site_label
 _atom_site_symmetry_multiplicity
 _atom_site_fract_x
 _atom_site_fract_y
 _atom_site_fract_z
 _atom_site_occupancy
  Tl  Tl0  1  0.99869070  0.99002767  -0.00005095  1
  Tl  Tl1  1  0.25000000  0.00000000  0.00000000  1
  Tl  Tl2  1  0.50130930  0.00997233  0.00005095  1
  Tl  Tl3  1  0.75000000  0.00000000  0.00000000  1
  Fe  Fe4  1  0.24751606  0.25451712  0.50218667  1
  Fe  Fe5  1  0.25248394  0.74548288  0.49781333  1
  Fe  Fe6  1  0.50175271  0.24641842  0.49851059  1
  Fe  Fe7  1  0.75549527  0.23715831  0.50146464  1
  Fe  Fe8  1  0.74450473  0.76284169  0.49853536  1
  Fe  Fe9  1  -0.00175271  0.75358158  0.50148941  1
  Se  Se10  1  0.07347022  0.35147424  0.70034274  1
  Se  Se11  1  0.17220796  0.65308701  0.30037373  1
  Se  Se12  1  0.32779204  0.34691299  0.69962627  1
  Se  Se13  1  0.42652978  0.64852576  0.29965726  1
  Se  Se14  1  0.57257438  0.35896181  0.69900147  1
  Se  Se15  1  0.67276604  0.65003664  0.30058359  1
  Se  Se16  1  0.82723396  0.34996336  0.69941641  1
  Se  Se17  1  0.92742562  0.64103819  0.30099853  1
