# generated using pymatgen
data_Yb4Si7
_symmetry_space_group_name_H-M   'P 1'
_cell_length_a   16.88905663
_cell_length_b   6.71728869
_cell_length_c   8.44153836
_cell_angle_alpha   90.00000000
_cell_angle_beta   90.00000000
_cell_angle_gamma   150.60446456
_symmetry_Int_Tables_number   1
_chemical_formula_structural   Yb4Si7
_chemical_formula_sum   'Yb8 Si14'
_cell_volume   470.06432631
_cell_formula_units_Z   2
loop_
 _symmetry_equiv_pos_site_id
 _symmetry_equiv_pos_as_xyz
  1  'x, y, z'
loop_
 _atom_site_type_symbol
 _atom_site_label
 _atom_site_symmetry_multiplicity
 _atom_site_fract_x
 _atom_site_fract_y
 _atom_site_fract_z
 _atom_site_occupancy
  Yb  Yb0  1  0.68901305  0.50812482  0.99923107  1
  Yb  Yb1  1  0.15985999  0.61925935  0.99894690  1
  Yb  Yb2  1  0.84014001  0.38074065  0.00105310  1
  Yb  Yb3  1  0.31098695  0.49187518  0.00076893  1
  Yb  Yb4  1  0.68901305  0.50812482  0.50076893  1
  Yb  Yb5  1  0.15985999  0.61925935  0.50105310  1
  Yb  Yb6  1  0.84014001  0.38074065  0.49894690  1
  Yb  Yb7  1  0.31098695  0.49187518  0.49923107  1
  Si  Si8  1  0.34950350  0.24416553  0.25000000  1
  Si  Si9  1  0.41795774  0.04306636  0.75000000  1
  Si  Si10  1  0.65049650  0.75583447  0.75000000  1
  Si  Si11  1  0.91151361  0.17001677  0.25000000  1
  Si  Si12  1  0.90586127  0.16414977  0.75000000  1
  Si  Si13  1  0.09413873  0.83585023  0.25000000  1
  Si  Si14  1  0.08848639  0.82998323  0.75000000  1
  Si  Si15  1  0.58204226  0.95693364  0.25000000  1
  Si  Si16  1  0.34414758  0.23743991  0.75000000  1
  Si  Si17  1  0.65585242  0.76256009  0.25000000  1
  Si  Si18  1  0.42148613  0.04778807  0.25000000  1
  Si  Si19  1  0.00856416  0.01112575  0.25000000  1
  Si  Si20  1  0.99143584  0.98887425  0.75000000  1
  Si  Si21  1  0.57851387  0.95221193  0.75000000  1
