# generated using pymatgen
data_Sr14La6Mg3Ti17O60
_symmetry_space_group_name_H-M   'P 1'
_cell_length_a   5.57902857
_cell_length_b   5.58237507
_cell_length_c   55.88560651
_cell_angle_alpha   60.27084692
_cell_angle_beta   60.05685676
_cell_angle_gamma   60.02038158
_symmetry_Int_Tables_number   1
_chemical_formula_structural   Sr14La6Mg3Ti17O60
_chemical_formula_sum   'Sr14 La6 Mg3 Ti17 O60'
_cell_volume   1233.95089309
_cell_formula_units_Z   1
loop_
 _symmetry_equiv_pos_site_id
 _symmetry_equiv_pos_as_xyz
  1  'x, y, z'
loop_
 _atom_site_type_symbol
 _atom_site_label
 _atom_site_symmetry_multiplicity
 _atom_site_fract_x
 _atom_site_fract_y
 _atom_site_fract_z
 _atom_site_occupancy
  Sr  Sr0  1  0.25057489  0.24839772  0.02504575  1
  Sr  Sr1  1  0.25054230  0.25048062  0.12484360  1
  Sr  Sr2  1  0.25080308  0.25077367  0.22476294  1
  Sr  Sr3  1  0.74967138  0.74571415  0.07549384  1
  Sr  Sr4  1  0.25093230  0.25094178  0.32472120  1
  Sr  Sr5  1  0.75083640  0.74929317  0.17490264  1
  Sr  Sr6  1  0.25096449  0.25111573  0.42469710  1
  Sr  Sr7  1  0.75080841  0.74967455  0.27487203  1
  Sr  Sr8  1  0.25121210  0.25150447  0.52460466  1
  Sr  Sr9  1  0.75084773  0.74980398  0.37485167  1
  Sr  Sr10  1  0.25070830  0.25478677  0.62437754  1
  Sr  Sr11  1  0.75105304  0.74950144  0.47484021  1
  Sr  Sr12  1  0.25179971  0.25133606  0.72450514  1
  Sr  Sr13  1  0.75187560  0.75195437  0.57442592  1
  La  La14  1  0.25139721  0.26376345  0.82334588  1
  La  La15  1  0.75193781  0.74482714  0.67512435  1
  La  La16  1  0.24772783  0.26266533  0.92418915  1
  La  La17  1  0.74954775  0.73461482  0.77663049  1
  La  La18  1  0.75118195  0.74135314  0.87562818  1
  La  La19  1  0.75234021  0.73881369  0.97565027  1
  Mg  Mg20  1  0.49945116  0.50169983  0.74993832  1
  Mg  Mg21  1  0.49899385  0.49850946  0.85035091  1
  Mg  Mg22  1  0.50266515  0.49733081  0.94973497  1
  Ti  Ti23  1  0.00118233  0.01363994  0.99839990  1
  Ti  Ti24  1  0.00280560  0.00143331  0.09929412  1
  Ti  Ti25  1  0.00203105  0.00144860  0.19944921  1
  Ti  Ti26  1  0.50567010  0.49414486  0.04945200  1
  Ti  Ti27  1  0.50291278  0.49904310  0.14951145  1
  Ti  Ti28  1  0.00184411  0.00213178  0.29942024  1
  Ti  Ti29  1  0.00191012  0.00213144  0.39940703  1
  Ti  Ti30  1  0.50253677  0.50051471  0.24944159  1
  Ti  Ti31  1  0.50244818  0.50091432  0.34942180  1
  Ti  Ti32  1  0.00243028  0.00154745  0.49935631  1
  Ti  Ti33  1  0.50274012  0.50056370  0.44939634  1
  Ti  Ti34  1  0.00371226  0.00001607  0.59924907  1
  Ti  Ti35  1  0.99545002  0.98845315  0.70206039  1
  Ti  Ti36  1  0.50206174  0.50133526  0.54944807  1
  Ti  Ti37  1  0.00448423  0.99521825  0.79958198  1
  Ti  Ti38  1  0.49650695  0.50783642  0.64990765  1
  Ti  Ti39  1  0.00117496  0.00097405  0.89966780  1
  O  O40  1  0.22591190  0.27156582  0.07728365  1
  O  O41  1  0.28558431  0.72351406  0.02172503  1
  O  O42  1  0.24917185  0.78720631  0.07144562  1
  O  O43  1  0.74559152  0.20032870  0.03084977  1
  O  O44  1  0.23021463  0.26773549  0.17711605  1
  O  O45  1  0.26722107  0.73192289  0.12339586  1
  O  O46  1  0.72968886  0.27155924  0.07728383  1
  O  O47  1  0.77366106  0.72351211  0.02172523  1
  O  O48  1  0.24830212  0.78431638  0.17190826  1
  O  O49  1  0.74768866  0.21551653  0.12891120  1
  O  O50  1  0.23084927  0.26710792  0.27706972  1
  O  O51  1  0.26726762  0.73119847  0.22347764  1
  O  O52  1  0.73088888  0.26773018  0.17711669  1
  O  O53  1  0.76691151  0.73192022  0.12339608  1
  O  O54  1  0.24871824  0.78391725  0.27186453  1
  O  O55  1  0.74853984  0.21605289  0.22868668  1
  O  O56  1  0.23088960  0.26714228  0.37706659  1
  O  O57  1  0.26736368  0.73103915  0.32346559  1
  O  O58  1  0.73133485  0.26710260  0.27707048  1
  O  O59  1  0.76676542  0.73119299  0.22347831  1
  O  O60  1  0.24881547  0.78393465  0.37184232  1
  O  O61  1  0.74882950  0.21597184  0.32863743  1
  O  O62  1  0.23066532  0.26769354  0.47703916  1
  O  O63  1  0.26742910  0.73118334  0.42343703  1
  O  O64  1  0.73129134  0.26714156  0.37706735  1
  O  O65  1  0.76694418  0.73103487  0.32346623  1
  O  O66  1  0.24876028  0.78460476  0.47178691  1
  O  O67  1  0.74882774  0.21602252  0.42863306  1
  O  O68  1  0.22710358  0.27042377  0.57725379  1
  O  O69  1  0.26771901  0.73144640  0.52335920  1
  O  O70  1  0.73124340  0.26769636  0.47703958  1
  O  O71  1  0.76701605  0.73118272  0.42343777  1
  O  O72  1  0.24975982  0.78703761  0.57134455  1
  O  O73  1  0.74801815  0.21633728  0.52876344  1
  O  O74  1  0.21577378  0.29092592  0.67691264  1
  O  O75  1  0.27436944  0.72609047  0.62244229  1
  O  O76  1  0.72994576  0.27041469  0.57725497  1
  O  O77  1  0.76725121  0.73145367  0.52335942  1
  O  O78  1  0.25522796  0.80230381  0.66872612  1
  O  O79  1  0.75087596  0.18822140  0.63100410  1
  O  O80  1  0.19564033  0.29083529  0.78066724  1
  O  O81  1  0.29315424  0.72651582  0.71895397  1
  O  O82  1  0.72418430  0.29091281  0.67691370  1
  O  O83  1  0.77513999  0.72608755  0.62244313  1
  O  O84  1  0.24119141  0.82565064  0.76919751  1
  O  O85  1  0.75889973  0.16524587  0.73169475  1
  O  O86  1  0.19188600  0.29428331  0.88135955  1
  O  O87  1  0.29366679  0.70676609  0.82005544  1
  O  O88  1  0.70686540  0.29081650  0.78066703  1
  O  O89  1  0.79078379  0.72649388  0.71895453  1
  O  O90  1  0.23976382  0.84957999  0.86708901  1
  O  O91  1  0.75579576  0.15183267  0.83365714  1
  O  O92  1  0.19927794  0.28835577  0.97911648  1
  O  O93  1  0.29337302  0.70765749  0.91957181  1
  O  O94  1  0.70022978  0.29427116  0.88136025  1
  O  O95  1  0.79902816  0.70675409  0.82005505  1
  O  O96  1  0.24119914  0.83107915  0.96865226  1
  O  O97  1  0.75724339  0.14797218  0.93375528  1
  O  O98  1  0.72120297  0.28834450  0.97911731  1
  O  O99  1  0.80326777  0.70764003  0.91957270  1
