# generated using pymatgen
data_Sc39N34
_symmetry_space_group_name_H-M   'P 1'
_cell_length_a   3.22026645
_cell_length_b   3.22026472
_cell_length_c   124.64766019
_cell_angle_alpha   59.74882750
_cell_angle_beta   59.74878945
_cell_angle_gamma   60.00013305
_symmetry_Int_Tables_number   1
_chemical_formula_structural   Sc39N34
_chemical_formula_sum   'Sc39 N34'
_cell_volume   910.52853133
_cell_formula_units_Z   1
loop_
 _symmetry_equiv_pos_site_id
 _symmetry_equiv_pos_as_xyz
  1  'x, y, z'
loop_
 _atom_site_type_symbol
 _atom_site_label
 _atom_site_symmetry_multiplicity
 _atom_site_fract_x
 _atom_site_fract_y
 _atom_site_fract_z
 _atom_site_occupancy
  Sc  Sc0  1  0.48427166  0.48427130  0.01403051  1
  Sc  Sc1  1  0.49994463  0.49994509  0.03846642  1
  Sc  Sc2  1  0.51523020  0.51522999  0.06293174  1
  Sc  Sc3  1  0.48827277  0.48827248  0.09064541  1
  Sc  Sc4  1  0.51045073  0.51045062  0.11458152  1
  Sc  Sc5  1  0.48954334  0.48954398  0.14183049  1
  Sc  Sc6  1  0.51179416  0.51179420  0.16575963  1
  Sc  Sc7  1  0.48476557  0.48476502  0.19348023  1
  Sc  Sc8  1  0.50018401  0.50018394  0.21793390  1
  Sc  Sc9  1  0.51609801  0.51609726  0.24235206  1
  Sc  Sc10  1  0.48401391  0.48401417  0.27045986  1
  Sc  Sc11  1  0.49115212  0.49115254  0.29555189  1
  Sc  Sc12  1  0.49582708  0.49582641  0.32083500  1
  Sc  Sc13  1  0.49788174  0.49788091  0.34631730  1
  Sc  Sc14  1  0.49874224  0.49874312  0.37189235  1
  Sc  Sc15  1  0.49929286  0.49929173  0.39749095  1
  Sc  Sc16  1  0.49977064  0.49977166  0.42309445  1
  Sc  Sc17  1  0.50011760  0.50011727  0.44870912  1
  Sc  Sc18  1  0.50015325  0.50015328  0.47434607  1
  Sc  Sc19  1  0.49998295  0.49998206  0.50000161  1
  Sc  Sc20  1  0.49987879  0.49988045  0.52565169  1
  Sc  Sc21  1  0.49993393  0.49993422  0.55128698  1
  Sc  Sc22  1  0.50007488  0.50007501  0.57691707  1
  Sc  Sc23  1  0.50014966  0.50014862  0.60255228  1
  Sc  Sc24  1  0.50014361  0.50014284  0.62819381  1
  Sc  Sc25  1  0.50011171  0.50011227  0.65383782  1
  Sc  Sc26  1  0.50004141  0.50004063  0.67948351  1
  Sc  Sc27  1  0.49999901  0.49999931  0.70512858  1
  Sc  Sc28  1  0.49996507  0.49996563  0.73077260  1
  Sc  Sc29  1  0.49988387  0.49988379  0.75641977  1
  Sc  Sc30  1  0.49982129  0.49982139  0.78206575  1
  Sc  Sc31  1  0.49993794  0.49993817  0.80769567  1
  Sc  Sc32  1  0.50026629  0.50026549  0.83331295  1
  Sc  Sc33  1  0.50059508  0.50059519  0.85892894  1
  Sc  Sc34  1  0.50104510  0.50104459  0.88453392  1
  Sc  Sc35  1  0.50204811  0.50204825  0.91009835  1
  Sc  Sc36  1  0.50429055  0.50429215  0.93556533  1
  Sc  Sc37  1  0.50903142  0.50903104  0.96084274  1
  Sc  Sc38  1  0.51623494  0.51623562  0.98593035  1
  N  N39  1  0.00617175  0.00617085  0.02516662  1
  N  N40  1  0.99407293  0.99407313  0.05173856  1
  N  N41  1  0.99973670  0.99973697  0.10258431  1
  N  N42  1  0.00032594  0.00032589  0.15382113  1
  N  N43  1  0.00595830  0.00595766  0.20467004  1
  N  N44  1  0.99392711  0.99392745  0.23123647  1
  N  N45  1  0.01101630  0.01101630  0.28120343  1
  N  N46  1  0.00300247  0.00300289  0.33310208  1
  N  N47  1  0.00590185  0.00590269  0.30723793  1
  N  N48  1  0.00103366  0.00103337  0.35889458  1
  N  N49  1  -0.00003385  -0.00003335  0.38461766  1
  N  N50  1  -0.00037688  -0.00037621  0.41028518  1
  N  N51  1  -0.00018635  -0.00018696  0.43591117  1
  N  N52  1  0.00011855  0.00011849  0.46152904  1
  N  N53  1  0.00021500  0.00021453  0.48716273  1
  N  N54  1  0.00021090  0.00021064  0.51280485  1
  N  N55  1  0.00024067  0.00024023  0.53844363  1
  N  N56  1  0.00025397  0.00025314  0.56408378  1
  N  N57  1  0.00005092  0.00005100  0.58973957  1
  N  N58  1  0.99973425  0.99973591  0.61540483  1
  N  N59  1  0.99956273  0.99956205  0.64105968  1
  N  N60  1  0.99954088  0.99954124  0.66670204  1
  N  N61  1  0.99961646  0.99961589  0.69233722  1
  N  N62  1  -0.00020086  -0.00020021  0.71796441  1
  N  N63  1  -0.00001339  -0.00001281  0.74359119  1
  N  N64  1  0.00005256  0.00005255  0.76922652  1
  N  N65  1  0.00007750  0.00007770  0.79486575  1
  N  N66  1  0.00013968  0.00013976  0.82050191  1
  N  N67  1  0.00001872  0.00001960  0.84615269  1
  N  N68  1  0.99945728  0.99945744  0.87183658  1
  N  N69  1  0.99843394  0.99843270  0.89755618  1
  N  N70  1  0.99699790  0.99699623  0.92330785  1
  N  N71  1  0.99453614  0.99453542  0.94913774  1
  N  N72  1  0.98946415  0.98946614  0.97516903  1
