# generated using pymatgen
data_CaLa3Mn4O12
_symmetry_space_group_name_H-M   'P 1'
_cell_length_a   11.01382150
_cell_length_b   11.01382153
_cell_length_c   13.40296732
_cell_angle_alpha   35.77865306
_cell_angle_beta   35.77865290
_cell_angle_gamma   60.83889248
_symmetry_Int_Tables_number   1
_chemical_formula_structural   CaLa3Mn4O12
_chemical_formula_sum   'Ca2 La6 Mn8 O24'
_cell_volume   481.29091876
_cell_formula_units_Z   2
loop_
 _symmetry_equiv_pos_site_id
 _symmetry_equiv_pos_as_xyz
  1  'x, y, z'
loop_
 _atom_site_type_symbol
 _atom_site_label
 _atom_site_symmetry_multiplicity
 _atom_site_fract_x
 _atom_site_fract_y
 _atom_site_fract_z
 _atom_site_occupancy
  Ca  Ca0  1  0.50000000  0.50000000  0.25000000  1
  Ca  Ca1  1  0.50000000  0.50000000  0.75000000  1
  La  La2  1  0.99958441  0.49916882  0.25083118  1
  La  La3  1  0.50083118  0.00041559  0.24916882  1
  La  La4  1  0.49916882  0.99958441  0.75083118  1
  La  La5  1  0.99958441  0.00041559  0.25000000  1
  La  La6  1  0.00041559  0.99958441  0.75000000  1
  La  La7  1  0.00041559  0.50083118  0.74916882  1
  Mn  Mn8  1  0.00000000  0.00000000  0.00000000  1
  Mn  Mn9  1  0.00000000  0.50000000  0.00000000  1
  Mn  Mn10  1  0.50000000  0.00000000  0.00000000  1
  Mn  Mn11  1  0.00000000  0.50000000  0.50000000  1
  Mn  Mn12  1  0.50000000  0.50000000  0.00000000  1
  Mn  Mn13  1  0.50000000  0.00000000  0.50000000  1
  Mn  Mn14  1  0.50000000  0.50000000  0.50000000  1
  Mn  Mn15  1  0.00000000  0.00000000  0.50000000  1
  O  O16  1  0.28337041  0.06674083  0.18325917  1
  O  O17  1  0.21459841  0.27945195  0.25560940  1
  O  O18  1  0.27945195  0.56485353  0.18548671  1
  O  O19  1  0.21618285  0.78381715  0.25000000  1
  O  O20  1  0.43514647  0.21459841  0.31519377  1
  O  O21  1  0.06674083  0.28337041  0.68325917  1
  O  O22  1  0.78381715  0.06763431  0.18236569  1
  O  O23  1  0.43514647  0.72054805  0.31451329  1
  O  O24  1  0.71662959  0.28337041  0.25000000  1
  O  O25  1  0.06763431  0.78381715  0.68236569  1
  O  O26  1  0.27945195  0.21459841  0.75560940  1
  O  O27  1  0.21459841  0.43514647  0.81519377  1
  O  O28  1  0.78540159  0.56485353  0.18480623  1
  O  O29  1  0.72054805  0.78540159  0.24439060  1
  O  O30  1  0.93236569  0.21618285  0.31763431  1
  O  O31  1  0.28337041  0.71662959  0.75000000  1
  O  O32  1  0.56485353  0.27945195  0.68548671  1
  O  O33  1  0.21618285  0.93236569  0.81763431  1
  O  O34  1  0.93325917  0.71662959  0.31674083  1
  O  O35  1  0.56485353  0.78540159  0.68480623  1
  O  O36  1  0.78381715  0.21618285  0.75000000  1
  O  O37  1  0.72054805  0.43514647  0.81451329  1
  O  O38  1  0.78540159  0.72054805  0.74439060  1
  O  O39  1  0.71662959  0.93325917  0.81674083  1
