# generated using pymatgen
data_K2OsO5
_symmetry_space_group_name_H-M   'P 1'
_cell_length_a   11.02304494
_cell_length_b   10.94497234
_cell_length_c   8.40595260
_cell_angle_alpha   90.80616371
_cell_angle_beta   91.50684775
_cell_angle_gamma   119.42116240
_symmetry_Int_Tables_number   1
_chemical_formula_structural   K2OsO5
_chemical_formula_sum   'K12 Os6 O30'
_cell_volume   882.62983976
_cell_formula_units_Z   6
loop_
 _symmetry_equiv_pos_site_id
 _symmetry_equiv_pos_as_xyz
  1  'x, y, z'
loop_
 _atom_site_type_symbol
 _atom_site_label
 _atom_site_symmetry_multiplicity
 _atom_site_fract_x
 _atom_site_fract_y
 _atom_site_fract_z
 _atom_site_occupancy
  K  K0  1  0.30183842  0.96581091  0.00378064  1
  K  K1  1  0.04322953  0.34131201  0.98931206  1
  K  K2  1  0.31715810  0.65054860  0.26230928  1
  K  K3  1  0.34322618  0.68162003  0.74319092  1
  K  K4  1  0.00525748  0.01234358  0.73167383  1
  K  K5  1  0.38025436  0.33354244  0.55734938  1
  K  K6  1  0.68927867  0.71968654  0.00279664  1
  K  K7  1  0.67874892  0.34400813  0.25728294  1
  K  K8  1  0.67016328  0.34939044  0.76501549  1
  K  K9  1  0.97135418  0.62781835  0.51296117  1
  K  K10  1  0.65777633  0.03397837  0.44512459  1
  K  K11  1  0.01481960  0.01096614  0.26341184  1
  Os  Os12  1  0.30309619  0.96880053  0.49943658  1
  Os  Os13  1  0.02826877  0.32546600  0.49372603  1
  Os  Os14  1  0.36444226  0.33215906  0.99628457  1
  Os  Os15  1  0.67081125  0.69526730  0.50362455  1
  Os  Os16  1  0.97948165  0.62417835  0.00754597  1
  Os  Os17  1  0.67394765  0.04557355  0.99451689  1
  O  O18  1  0.00128830  0.79729684  0.99945774  1
  O  O19  1  0.21340130  0.88925374  0.31455842  1
  O  O20  1  0.22335260  0.88033100  0.67703449  1
  O  O21  1  0.16677997  0.68638600  0.99537529  1
  O  O22  1  0.13292500  0.51668765  0.50675190  1
  O  O23  1  0.11746112  0.31974992  0.67402936  1
  O  O24  1  0.10188702  0.31766115  0.31100282  1
  O  O25  1  0.39522600  0.86781469  0.49023217  1
  O  O26  1  0.18184875  0.19648812  0.98915275  1
  O  O27  1  0.31140483  0.46200216  0.03595921  1
  O  O28  1  0.54604569  0.86215285  0.95368875  1
  O  O29  1  0.48032698  0.60071577  0.50732861  1
  O  O30  1  0.20650058  0.06574343  0.51108723  1
  O  O31  1  0.43342243  0.32203875  0.18327222  1
  O  O32  1  0.65835025  0.77680133  0.32510432  1
  O  O33  1  0.68509082  0.78477314  0.68703663  1
  O  O34  1  0.81164992  0.00597427  0.03371107  1
  O  O35  1  0.39513014  0.21242722  0.87170411  1
  O  O36  1  0.50030583  0.46700060  0.88065604  1
  O  O37  1  0.46534630  0.13112217  0.50315045  1
  O  O38  1  0.67130951  0.52961624  0.50473804  1
  O  O39  1  0.86089141  0.78908991  0.48992643  1
  O  O40  1  0.55881209  0.04408480  0.14630601  1
  O  O41  1  0.78989828  0.54410009  0.02175766  1
  O  O42  1  0.78466605  0.22946704  0.05831503  1
  O  O43  1  0.66309603  0.09312244  0.79570336  1
  O  O44  1  0.95104067  0.52476500  0.82497245  1
  O  O45  1  0.98409594  0.55083475  0.19468439  1
  O  O46  1  0.86979954  0.33552297  0.48916123  1
  O  O47  1  0.92629386  0.13330560  0.49479847  1
