# generated using pymatgen
data_Nd3Al3Si3(NO6)2
_symmetry_space_group_name_H-M   'P 1'
_cell_length_a   8.08997175
_cell_length_b   8.04443553
_cell_length_c   4.91253750
_cell_angle_alpha   90.44759123
_cell_angle_beta   90.00000000
_cell_angle_gamma   120.18742806
_symmetry_Int_Tables_number   1
_chemical_formula_structural   Nd3Al3Si3(NO6)2
_chemical_formula_sum   'Nd3 Al3 Si3 N2 O12'
_cell_volume   276.33635325
_cell_formula_units_Z   1
loop_
 _symmetry_equiv_pos_site_id
 _symmetry_equiv_pos_as_xyz
  1  'x, y, z'
loop_
 _atom_site_type_symbol
 _atom_site_label
 _atom_site_symmetry_multiplicity
 _atom_site_fract_x
 _atom_site_fract_y
 _atom_site_fract_z
 _atom_site_occupancy
  Nd  Nd0  1  0.98932516  0.40224630  0.00496777  1
  Nd  Nd1  1  0.58707986  0.59775370  0.99503223  1
  Nd  Nd2  1  0.41550328  0.00000000  0.00000000  1
  Al  Al3  1  0.00207816  0.76432791  0.50921220  1
  Al  Al4  1  0.00812047  -0.00000000  0.00000000  1
  Al  Al5  1  0.23775025  0.23567209  0.49078780  1
  Si  Si6  1  0.33416267  0.66643742  0.54213053  1
  Si  Si7  1  0.66772625  0.33356258  0.45786947  1
  Si  Si8  1  0.73972687  -0.00000000  0.50000000  1
  N  N9  1  0.53992622  0.84112961  0.68429347  1
  N  N10  1  0.69879660  0.15887039  0.31570653  1
  O  O11  1  0.13678045  0.91697043  0.24164960  1
  O  O12  1  0.15246723  0.68234854  0.67320699  1
  O  O13  1  0.10145059  0.22686702  0.20593257  1
  O  O14  1  0.32499233  0.65976013  0.20904926  1
  O  O15  1  0.29833856  0.45978947  0.67306473  1
  O  O16  1  0.21981002  0.08302957  0.75835040  1
  O  O17  1  0.47011869  0.31765146  0.32679301  1
  O  O18  1  0.78786804  0.87825561  0.26518176  1
  O  O19  1  0.87458357  0.77313298  0.79406743  1
  O  O20  1  0.66523320  0.34023987  0.79095074  1
  O  O21  1  0.83854909  0.54021053  0.32693527  1
  O  O22  1  0.90961244  0.12174439  0.73481824  1
