# generated using pymatgen
data_Mn27Sb26
_symmetry_space_group_name_H-M   'P 1'
_cell_length_a   53.47608907
_cell_length_b   18.85182116
_cell_length_c   9.95525819
_cell_angle_alpha   35.84812384
_cell_angle_beta   34.39353673
_cell_angle_gamma   10.77127415
_symmetry_Int_Tables_number   1
_chemical_formula_structural   Mn27Sb26
_chemical_formula_sum   'Mn27 Sb26'
_cell_volume   1059.49818813
_cell_formula_units_Z   1
loop_
 _symmetry_equiv_pos_site_id
 _symmetry_equiv_pos_as_xyz
  1  'x, y, z'
loop_
 _atom_site_type_symbol
 _atom_site_label
 _atom_site_symmetry_multiplicity
 _atom_site_fract_x
 _atom_site_fract_y
 _atom_site_fract_z
 _atom_site_occupancy
  Mn  Mn0  1  0.99940964  0.00044440  0.00509250  1
  Mn  Mn1  1  0.07616549  0.00192545  0.00075579  1
  Mn  Mn2  1  0.99848112  0.00389095  0.50258039  1
  Mn  Mn3  1  0.15317902  0.00169411  0.00087437  1
  Mn  Mn4  1  0.07686188  0.99662666  0.50632611  1
  Mn  Mn5  1  0.15266038  0.00250954  0.50067466  1
  Mn  Mn6  1  0.22989524  0.00354028  -0.00220788  1
  Mn  Mn7  1  0.31542656  0.98005131  0.99566252  1
  Mn  Mn8  1  0.23422906  0.98845890  0.50354948  1
  Mn  Mn9  1  0.38495901  0.99940824  0.00105933  1
  Mn  Mn10  1  0.30680460  0.00297663  0.50180583  1
  Mn  Mn11  1  0.38431595  0.00170078  0.49890669  1
  Mn  Mn12  1  0.46289978  -0.00328835  0.99683971  1
  Mn  Mn13  1  0.53679084  0.00447467  0.99711178  1
  Mn  Mn14  1  0.45796105  0.00685157  0.50365822  1
  Mn  Mn15  1  0.61271480  0.00542709  0.00437295  1
  Mn  Mn16  1  0.53690609  0.00571753  0.49679505  1
  Mn  Mn17  1  0.68999928  0.01085655  0.99446731  1
  Mn  Mn18  1  0.61364936  0.00408659  0.50479947  1
  Mn  Mn19  1  0.76972949  0.00018073  -0.00088894  1
  Mn  Mn20  1  0.69436099  0.99219119  0.50174964  1
  Mn  Mn21  1  0.84652350  0.99862321  0.99728345  1
  Mn  Mn22  1  0.76912320  0.00183612  0.49854291  1
  Mn  Mn23  1  0.91994993  0.00592209  0.00325820  1
  Mn  Mn24  1  0.84887928  0.99474686  0.49417179  1
  Mn  Mn25  1  0.80976172  0.32804138  0.24931695  1
  Mn  Mn26  1  0.92550167  0.99630941  0.49287111  1
  Sb  Sb27  1  0.04016162  0.32865245  0.74895042  1
  Sb  Sb28  1  0.05748714  0.61252545  0.24744621  1
  Sb  Sb29  1  0.11706079  0.32873823  0.74873503  1
  Sb  Sb30  1  0.11444629  0.67004741  0.25027908  1
  Sb  Sb31  1  0.19262122  0.33237894  0.75180446  1
  Sb  Sb32  1  0.19083380  0.67182253  0.24938347  1
  Sb  Sb33  1  0.27054889  0.32666589  0.75563441  1
  Sb  Sb34  1  0.26596831  0.67605944  0.25028894  1
  Sb  Sb35  1  0.34632887  0.33276595  0.74944988  1
  Sb  Sb36  1  0.34400411  0.67166884  0.25078266  1
  Sb  Sb37  1  0.42338390  0.33120469  0.75113201  1
  Sb  Sb38  1  0.42162390  0.67104861  0.25355124  1
  Sb  Sb39  1  0.49987250  0.33192599  0.75366239  1
  Sb  Sb40  1  0.49862968  0.66969571  0.25274553  1
  Sb  Sb41  1  0.58078229  0.32311953  0.74599277  1
  Sb  Sb42  1  0.57559550  0.67047624  0.24908283  1
  Sb  Sb43  1  0.65565526  0.33066518  0.74745847  1
  Sb  Sb44  1  0.64145293  0.69474447  0.25092513  1
  Sb  Sb45  1  0.73476357  0.32794479  0.73561745  1
  Sb  Sb46  1  0.72279737  0.69758443  0.24888826  1
  Sb  Sb47  1  0.80899678  0.32885772  0.74833501  1
  Sb  Sb48  1  0.80604637  0.67229608  0.24788246  1
  Sb  Sb49  1  0.88367230  0.32952519  0.76400814  1
  Sb  Sb50  1  0.88521214  0.66509334  0.25113375  1
  Sb  Sb51  1  0.96200773  0.33227294  0.74918743  1
  Sb  Sb52  1  0.96059977  0.67034908  0.24821319  1
