# generated using pymatgen
data_BaCaBO3F
_symmetry_space_group_name_H-M   'P 1'
_cell_length_a   9.11970477
_cell_length_b   8.90191660
_cell_length_c   4.48923552
_cell_angle_alpha   90.74309876
_cell_angle_beta   89.85992061
_cell_angle_gamma   118.87425071
_symmetry_Int_Tables_number   1
_chemical_formula_structural   BaCaBO3F
_chemical_formula_sum   'Ba3 Ca3 B3 O9 F3'
_cell_volume   319.11136738
_cell_formula_units_Z   3
loop_
 _symmetry_equiv_pos_site_id
 _symmetry_equiv_pos_as_xyz
  1  'x, y, z'
loop_
 _atom_site_type_symbol
 _atom_site_label
 _atom_site_symmetry_multiplicity
 _atom_site_fract_x
 _atom_site_fract_y
 _atom_site_fract_z
 _atom_site_occupancy
  Ba  Ba0  1  0.99406340  0.28891830  0.54247391  1
  Ba  Ba1  1  0.29776507  0.01425709  0.47740987  1
  Ba  Ba2  1  0.70183552  0.70802661  0.48529028  1
  Ca  Ca3  1  0.38551525  0.38903753  0.97938781  1
  Ca  Ca4  1  0.60943860  0.99886880  0.97793597  1
  Ca  Ca5  1  0.99781955  0.62338912  0.02764155  1
  B  B6  1  0.32553702  0.66958125  0.99666848  1
  B  B7  1  0.99776554  0.99893357  0.97804951  1
  B  B8  1  0.67013991  0.34013357  0.99977580  1
  O  O9  1  0.30087472  0.81234748  0.98341416  1
  O  O10  1  0.18823395  0.50439705  0.00567030  1
  O  O11  1  0.14767943  0.13499506  0.88240300  1
  O  O12  1  0.48779243  0.69177965  0.00014574  1
  O  O13  1  0.50835240  0.20148886  0.99674192  1
  O  O14  1  0.69361141  0.50673766  0.98962820  1
  O  O15  1  0.99720150  0.87988761  0.17565850  1
  O  O16  1  0.80805993  0.31159229  0.01162786  1
  O  O17  1  0.84864615  0.98438578  0.87114755  1
  F  F18  1  0.38595215  0.38488285  0.47743101  1
  F  F19  1  0.61014614  0.00298517  0.47656164  1
  F  F20  1  0.98656992  0.61037470  0.52993693  1
