# generated using pymatgen
data_Na3Zr2Si2PO12
_symmetry_space_group_name_H-M   'P 1'
_cell_length_a   9.16023192
_cell_length_b   9.17160631
_cell_length_c   18.59183198
_cell_angle_alpha   61.46555641
_cell_angle_beta   61.37718233
_cell_angle_gamma   60.02358048
_symmetry_Int_Tables_number   1
_chemical_formula_structural   Na3Zr2Si2PO12
_chemical_formula_sum   'Na12 Zr8 Si8 P4 O48'
_cell_volume   1127.82755365
_cell_formula_units_Z   4
loop_
 _symmetry_equiv_pos_site_id
 _symmetry_equiv_pos_as_xyz
  1  'x, y, z'
loop_
 _atom_site_type_symbol
 _atom_site_label
 _atom_site_symmetry_multiplicity
 _atom_site_fract_x
 _atom_site_fract_y
 _atom_site_fract_z
 _atom_site_occupancy
  Na  Na0  1  0.27303749  0.07829071  0.18721795  1
  Na  Na1  1  0.05712259  0.30634952  0.45813703  1
  Na  Na2  1  0.62936252  0.97223298  0.27228760  1
  Na  Na3  1  0.59839159  0.40257192  0.12478200  1
  Na  Na4  1  0.31350724  0.05388918  0.71395402  1
  Na  Na5  1  0.38177044  0.60607974  0.38001535  1
  Na  Na6  1  0.05564291  0.30508155  0.95750945  1
  Na  Na7  1  0.95046007  0.68467996  0.03739427  1
  Na  Na8  1  0.59771124  0.39344280  0.62945534  1
  Na  Na9  1  0.38321283  0.60285016  0.88053526  1
  Na  Na10  1  0.94582561  0.68878638  0.53764942  1
  Na  Na11  1  0.68954733  0.94948814  0.79147413  1
  Zr  Zr12  1  0.14912164  0.65059039  0.28122182  1
  Zr  Zr13  1  0.64410053  0.14588107  0.02844083  1
  Zr  Zr14  1  0.15445450  0.64946507  0.77920977  1
  Zr  Zr15  1  0.34918275  0.85160200  0.47032838  1
  Zr  Zr16  1  0.64471363  0.14397557  0.52866727  1
  Zr  Zr17  1  0.84956765  0.35008856  0.22177531  1
  Zr  Zr18  1  0.34778249  0.84933258  0.97097574  1
  Zr  Zr19  1  0.85645669  0.34808887  0.71937337  1
  Si  Si20  1  0.24711551  0.47072689  0.11984692  1
  Si  Si21  1  0.04503095  0.95694655  0.37568212  1
  Si  Si22  1  0.47110404  0.24815774  0.36653078  1
  Si  Si23  1  0.52762108  0.75154655  0.13014891  1
  Si  Si24  1  0.24863914  0.47283851  0.61797407  1
  Si  Si25  1  0.04238932  0.95532353  0.87560661  1
  Si  Si26  1  0.47093146  0.24713083  0.86818385  1
  Si  Si27  1  0.52859345  0.75062070  0.63118984  1
  P  P28  1  0.95444736  0.04275991  0.12691383  1
  P  P29  1  0.75146102  0.52973976  0.38085908  1
  P  P30  1  0.95593681  0.04442026  0.62508456  1
  P  P31  1  0.75245130  0.52859900  0.87966636  1
  O  O32  1  0.10903162  0.00185712  0.04496367  1
  O  O33  1  0.99936902  0.12128473  0.29030429  1
  O  O34  1  0.07099398  0.42799798  0.14554945  1
  O  O35  1  0.26161520  0.63168581  0.02684368  1
  O  O36  1  0.10865443  0.00549177  0.54301740  1
  O  O37  1  0.42425722  0.28982067  0.11204647  1
  O  O38  1  0.23698314  0.52960994  0.19280077  1
  O  O39  1  0.06336242  0.76855531  0.37579443  1
  O  O40  1  0.00620257  0.11906701  0.78858060  1
  O  O41  1  0.28558887  0.42100101  0.36123767  1
  O  O42  1  0.43208226  0.06951932  0.39473015  1
  O  O43  1  0.06716128  0.43766554  0.64534742  1
  O  O44  1  0.47847862  0.74857452  0.05709320  1
  O  O45  1  0.77460074  0.07549446  0.12263010  1
  O  O46  1  0.36062058  0.74220662  0.22083789  1
  O  O47  1  0.62897709  0.26920353  0.27288765  1
  O  O48  1  0.23691304  0.93185450  0.37442754  1
  O  O49  1  0.52635497  0.24641524  0.43913290  1
  O  O50  1  0.26464152  0.63298471  0.52527159  1
  O  O51  1  0.55719668  0.93598036  0.10320535  1
  O  O52  1  0.71157979  0.58211211  0.13949374  1
  O  O53  1  0.42255137  0.28984805  0.61133037  1
  O  O54  1  0.24258217  0.52960112  0.69101412  1
  O  O55  1  0.94561077  0.21921747  0.12463738  1
  O  O56  1  0.05913530  0.76779436  0.87573454  1
  O  O57  1  0.75319613  0.48166222  0.31081814  1
  O  O58  1  0.58967904  0.70467016  0.38687629  1
  O  O59  1  0.28543289  0.41799453  0.86045746  1
  O  O60  1  0.43426848  0.06546876  0.89847689  1
  O  O61  1  0.73409889  0.37862555  0.46833778  1
  O  O62  1  0.47489326  0.75486319  0.55797445  1
  O  O63  1  0.77498274  0.07170124  0.62463978  1
  O  O64  1  0.36511970  0.73797708  0.72370083  1
  O  O65  1  0.63483509  0.25983016  0.77680103  1
  O  O66  1  0.23429866  0.92923965  0.87548992  1
  O  O67  1  0.51885669  0.25374550  0.94103821  1
  O  O68  1  0.92382851  0.55905188  0.35541600  1
  O  O69  1  0.56290069  0.93128123  0.60546060  1
  O  O70  1  0.71043641  0.57717543  0.64004723  1
  O  O71  1  0.98092033  0.89143095  0.21032954  1
  O  O72  1  0.94223584  0.22269702  0.62322682  1
  O  O73  1  0.75276457  0.47820176  0.81117973  1
  O  O74  1  0.58868792  0.70204665  0.88761060  1
  O  O75  1  0.88535557  0.99568639  0.46387534  1
  O  O76  1  0.73999023  0.37706355  0.96732317  1
  O  O77  1  0.92260935  0.56439222  0.85214980  1
  O  O78  1  0.98980097  0.89261881  0.70800431  1
  O  O79  1  0.88187420  0.99525044  0.96311447  1
