# generated using pymatgen
data_Li5Fe8(BO3)8
_symmetry_space_group_name_H-M   'P 1'
_cell_length_a   5.28798792
_cell_length_b   9.03423756
_cell_length_c   11.37632703
_cell_angle_alpha   113.56815626
_cell_angle_beta   78.00363447
_cell_angle_gamma   89.84956770
_symmetry_Int_Tables_number   1
_chemical_formula_structural   Li5Fe8(BO3)8
_chemical_formula_sum   'Li5 Fe8 B8 O24'
_cell_volume   485.03425508
_cell_formula_units_Z   1
loop_
 _symmetry_equiv_pos_site_id
 _symmetry_equiv_pos_as_xyz
  1  'x, y, z'
loop_
 _atom_site_type_symbol
 _atom_site_label
 _atom_site_symmetry_multiplicity
 _atom_site_fract_x
 _atom_site_fract_y
 _atom_site_fract_z
 _atom_site_occupancy
  Li  Li0  1  0.16701864  0.16740183  0.34511618  1
  Li  Li1  1  0.36194760  0.29438344  0.58902541  1
  Li  Li2  1  0.61443609  0.04777015  0.09183038  1
  Li  Li3  1  0.10947998  0.54940530  0.09443094  1
  Li  Li4  1  0.42595491  0.93126550  0.83821525  1
  Fe  Fe5  1  0.39905506  0.28289942  0.87267570  1
  Fe  Fe6  1  0.09777416  0.22812754  0.11655576  1
  Fe  Fe7  1  0.84723891  0.13911605  0.62472644  1
  Fe  Fe8  1  0.66424738  0.35931163  0.36403083  1
  Fe  Fe9  1  0.34332107  0.64454697  0.62232326  1
  Fe  Fe10  1  0.15545021  0.84188435  0.36177092  1
  Fe  Fe11  1  0.91002376  0.76572558  0.87390723  1
  Fe  Fe12  1  0.60765704  0.71973650  0.12047295  1
  B  B13  1  0.63563817  0.02206310  0.37435200  1
  B  B14  1  0.89647156  0.09640607  0.87170398  1
  B  B15  1  0.15546488  0.51409561  0.36975623  1
  B  B16  1  0.39936730  0.61346683  0.87424264  1
  B  B17  1  0.85403654  0.47162906  0.62042848  1
  B  B18  1  0.60689181  0.38996544  0.11984479  1
  B  B19  1  0.34705715  0.98134206  0.61807166  1
  B  B20  1  0.09978637  0.89999650  0.13121026  1
  O  O21  1  0.13452792  0.12279435  0.90794513  1
  O  O22  1  0.46727747  0.12645658  0.64694556  1
  O  O23  1  0.23673252  0.03168565  0.14222435  1
  O  O24  1  0.50698277  0.16210178  0.38995210  1
  O  O25  1  0.88180332  0.02590763  0.40771083  1
  O  O26  1  0.80103578  0.18841364  0.81241547  1
  O  O27  1  0.26183400  0.48805889  0.87902107  1
  O  O28  1  0.05454502  0.36391028  0.32789454  1
  O  O29  1  0.69563215  0.27438515  0.15993846  1
  O  O30  1  0.61206344  0.46716881  0.58937267  1
  O  O31  1  0.98015098  0.32887408  0.60864323  1
  O  O32  1  0.37120045  0.37129515  0.07988710  1
  O  O33  1  0.61783457  0.64897447  0.92418867  1
  O  O34  1  0.36119502  0.53267006  0.43160353  1
  O  O35  1  0.31187949  0.71759885  0.82134901  1
  O  O36  1  0.97215442  0.61362493  0.65950496  1
  O  O37  1  0.75086216  0.51391236  0.11812605  1
  O  O38  1  0.19373021  0.77938408  0.16605279  1
  O  O39  1  0.13030028  0.97007405  0.56254353  1
  O  O40  1  0.43029191  0.86098941  0.64637820  1
  O  O41  1  0.05627187  0.64021328  0.35050415  1
  O  O42  1  0.74793156  0.98163373  0.89373496  1
  O  O43  1  0.52585610  0.87534729  0.33288407  1
  O  O44  1  0.86848801  0.88182756  0.09092026  1
