# generated using pymatgen
data_NaCaFe2(SiO3)4
_symmetry_space_group_name_H-M   'P 1'
_cell_length_a   5.34804455
_cell_length_b   6.68267687
_cell_length_c   6.68267706
_cell_angle_alpha   84.49891887
_cell_angle_beta   77.92822206
_cell_angle_gamma   77.92822910
_symmetry_Int_Tables_number   1
_chemical_formula_structural   NaCaFe2(SiO3)4
_chemical_formula_sum   'Na1 Ca1 Fe2 Si4 O12'
_cell_volume   228.04815305
_cell_formula_units_Z   1
loop_
 _symmetry_equiv_pos_site_id
 _symmetry_equiv_pos_as_xyz
  1  'x, y, z'
loop_
 _atom_site_type_symbol
 _atom_site_label
 _atom_site_symmetry_multiplicity
 _atom_site_fract_x
 _atom_site_fract_y
 _atom_site_fract_z
 _atom_site_occupancy
  Na  Na0  1  0.25000000  0.69729266  0.30270734  1
  Ca  Ca1  1  0.75000000  0.30186251  0.69813749  1
  Fe  Fe2  1  0.25000000  0.09309437  0.90690563  1
  Fe  Fe3  1  0.75000000  0.89836718  0.10163282  1
  Si  Si4  1  0.27044459  0.19737208  0.37768856  1
  Si  Si5  1  0.22955540  0.62231144  0.80262792  1
  Si  Si6  1  0.76200137  0.38069001  0.19666887  1
  Si  Si7  1  0.73799863  0.80333113  0.61930999  1
  O  O8  1  0.00168260  0.63177473  0.66255829  1
  O  O9  1  0.17801280  0.11503467  0.61032679  1
  O  O10  1  0.37072647  0.02884748  0.20193032  1
  O  O11  1  0.12927353  0.79806968  0.97115252  1
  O  O12  1  0.32198720  0.38967321  0.88496533  1
  O  O13  1  0.49831740  0.33744171  0.36822527  1
  O  O14  1  0.50243292  0.66965633  0.64090576  1
  O  O15  1  0.68947618  0.61441123  0.10710410  1
  O  O16  1  0.83943947  0.20113962  0.03236018  1
  O  O17  1  0.66056053  0.96763982  0.79886038  1
  O  O18  1  0.81052382  0.89289590  0.38558877  1
  O  O19  1  0.99756708  0.35909424  0.33034367  1
