# generated using pymatgen
data_RbP(HO2)2
_symmetry_space_group_name_H-M   'P 1'
_cell_length_a   7.66796734
_cell_length_b   6.27470748
_cell_length_c   9.68220228
_cell_angle_alpha   90.00000000
_cell_angle_beta   108.43585077
_cell_angle_gamma   90.00000000
_symmetry_Int_Tables_number   1
_chemical_formula_structural   RbP(HO2)2
_chemical_formula_sum   'Rb4 P4 H8 O16'
_cell_volume   441.94361753
_cell_formula_units_Z   4
loop_
 _symmetry_equiv_pos_site_id
 _symmetry_equiv_pos_as_xyz
  1  'x, y, z'
loop_
 _atom_site_type_symbol
 _atom_site_label
 _atom_site_symmetry_multiplicity
 _atom_site_fract_x
 _atom_site_fract_y
 _atom_site_fract_z
 _atom_site_occupancy
  Rb  Rb0  1  0.26310702  0.24282365  0.78106431  1
  Rb  Rb1  1  0.73689298  0.74282365  0.71893569  1
  Rb  Rb2  1  0.73689298  0.75717635  0.21893569  1
  Rb  Rb3  1  0.26310702  0.25717635  0.28106431  1
  P  P4  1  0.24178861  0.75422950  0.01941354  1
  P  P5  1  0.75821139  0.25422950  0.48058646  1
  P  P6  1  0.75821139  0.24577050  0.98058646  1
  P  P7  1  0.24178861  0.74577050  0.51941354  1
  H  H8  1  0.36419382  0.73637277  0.83674587  1
  H  H9  1  0.63580618  0.23637277  0.66325413  1
  H  H10  1  0.63580618  0.26362723  0.16325413  1
  H  H11  1  0.36419382  0.76362723  0.33674587  1
  H  H12  1  0.00000000  0.00000000  0.00000000  1
  H  H13  1  0.00000000  0.50000000  0.50000000  1
  H  H14  1  0.00000000  0.50000000  0.00000000  1
  H  H15  1  0.00000000  0.00000000  0.50000000  1
  O  O16  1  0.40136128  0.75937883  0.94737662  1
  O  O17  1  0.59863872  0.25937883  0.55262338  1
  O  O18  1  0.59863872  0.24062117  0.05262338  1
  O  O19  1  0.40136128  0.74062117  0.44737662  1
  O  O20  1  0.33171100  0.80944281  0.17867661  1
  O  O21  1  0.66828900  0.30944281  0.32132339  1
  O  O22  1  0.66828900  0.19055719  0.82132339  1
  O  O23  1  0.33171100  0.69055719  0.67867661  1
  O  O24  1  0.09655593  0.92212328  0.93652062  1
  O  O25  1  0.90344407  0.42212328  0.56347938  1
  O  O26  1  0.90344407  0.07787672  0.06347938  1
  O  O27  1  0.09655593  0.57787672  0.43652062  1
  O  O28  1  0.15474322  0.52690662  0.99460363  1
  O  O29  1  0.84525678  0.02690662  0.50539637  1
  O  O30  1  0.84525678  0.47309338  0.00539637  1
  O  O31  1  0.15474322  0.97309338  0.49460363  1
