# generated using pymatgen
data_Co5Te4(BrO6)2
_symmetry_space_group_name_H-M   'P 1'
_cell_length_a   5.33379421
_cell_length_b   10.74075872
_cell_length_c   13.95263768
_cell_angle_alpha   83.12643495
_cell_angle_beta   78.98257566
_cell_angle_gamma   75.62081521
_symmetry_Int_Tables_number   1
_chemical_formula_structural   Co5Te4(BrO6)2
_chemical_formula_sum   'Co10 Te8 Br4 O24'
_cell_volume   757.82586615
_cell_formula_units_Z   2
loop_
 _symmetry_equiv_pos_site_id
 _symmetry_equiv_pos_as_xyz
  1  'x, y, z'
loop_
 _atom_site_type_symbol
 _atom_site_label
 _atom_site_symmetry_multiplicity
 _atom_site_fract_x
 _atom_site_fract_y
 _atom_site_fract_z
 _atom_site_occupancy
  Co  Co0  1  0.23616822  0.75008791  0.25002152  1
  Co  Co1  1  0.86942108  0.30077922  0.52680829  1
  Co  Co2  1  0.79042734  0.60182810  0.38110657  1
  Co  Co3  1  0.13057892  0.69922078  0.47319171  1
  Co  Co4  1  0.22663543  0.10170283  0.88112543  1
  Co  Co5  1  0.69701664  0.19917146  0.97319771  1
  Co  Co6  1  0.30298336  0.80082854  0.02680229  1
  Co  Co7  1  0.76383178  0.24991209  0.74997848  1
  Co  Co8  1  0.20957266  0.39817190  0.61889343  1
  Co  Co9  1  0.77336457  0.89829717  0.11887457  1
  Te  Te10  1  0.43138836  0.09410654  0.62329278  1
  Te  Te11  1  0.80599099  0.89447406  0.86221945  1
  Te  Te12  1  0.56280022  0.60541955  0.63774584  1
  Te  Te13  1  0.14880442  0.40563162  0.87670481  1
  Te  Te14  1  0.19400901  0.10552594  0.13778055  1
  Te  Te15  1  0.43719978  0.39458045  0.36225416  1
  Te  Te16  1  0.56861164  0.90589346  0.37670722  1
  Te  Te17  1  0.85119558  0.59436838  0.12329519  1
  Br  Br18  1  0.09366233  0.87281040  0.59847521  1
  Br  Br19  1  0.90633767  0.12718960  0.40152479  1
  Br  Br20  1  0.43515158  0.37281787  0.09856110  1
  Br  Br21  1  0.56484842  0.62718213  0.90143890  1
  O  O22  1  0.44536502  0.25590486  0.86712097  1
  O  O23  1  0.05041806  0.16636108  0.02003531  1
  O  O24  1  0.54623549  0.06796441  0.06853858  1
  O  O25  1  0.87705152  0.06314078  0.85760868  1
  O  O26  1  0.20218275  0.56328212  0.35765544  1
  O  O27  1  0.43133292  0.75616413  0.36715073  1
  O  O28  1  0.76994750  0.52695220  0.25196918  1
  O  O29  1  0.08460386  0.20399325  0.64470796  1
  O  O30  1  0.12294848  0.93685922  0.14239132  1
  O  O31  1  0.45376451  0.93203559  0.93146142  1
  O  O32  1  0.45118953  0.02670786  0.75198602  1
  O  O33  1  0.91539614  0.79600675  0.35529204  1
  O  O34  1  0.93307589  0.29590379  0.85529000  1
  O  O35  1  0.94958194  0.83363892  0.97996469  1
  O  O36  1  0.23677675  0.33369224  0.47997568  1
  O  O37  1  0.23005250  0.47304780  0.74803082  1
  O  O38  1  0.31718634  0.56793219  0.56856319  1
  O  O39  1  0.06692411  0.70409621  0.14471000  1
  O  O40  1  0.76322325  0.66630776  0.52002432  1
  O  O41  1  0.79781725  0.43671788  0.64234456  1
  O  O42  1  0.68281366  0.43206781  0.43143681  1
  O  O43  1  0.55463498  0.74409514  0.13287903  1
  O  O44  1  0.56866708  0.24383587  0.63284927  1
  O  O45  1  0.54881047  0.97329214  0.24801398  1
