# generated using pymatgen
data_Li2Sn(H5O4)2
_symmetry_space_group_name_H-M   'P 1'
_cell_length_a   5.06337582
_cell_length_b   7.07090423
_cell_length_c   10.17887876
_cell_angle_alpha   90.00000000
_cell_angle_beta   98.82398835
_cell_angle_gamma   90.00000000
_symmetry_Int_Tables_number   1
_chemical_formula_structural   Li2Sn(H5O4)2
_chemical_formula_sum   'Li4 Sn2 H20 O16'
_cell_volume   360.11747338
_cell_formula_units_Z   2
loop_
 _symmetry_equiv_pos_site_id
 _symmetry_equiv_pos_as_xyz
  1  'x, y, z'
loop_
 _atom_site_type_symbol
 _atom_site_label
 _atom_site_symmetry_multiplicity
 _atom_site_fract_x
 _atom_site_fract_y
 _atom_site_fract_z
 _atom_site_occupancy
  Li  Li0  1  0.94341410  0.77449466  0.32264861  1
  Li  Li1  1  0.44341410  0.72550534  0.82264861  1
  Li  Li2  1  0.05658590  0.22550534  0.67735139  1
  Li  Li3  1  0.55658590  0.27449466  0.17735139  1
  Sn  Sn4  1  0.50000000  0.50000000  0.50000000  1
  Sn  Sn5  1  0.00000000  0.00000000  0.00000000  1
  H  H6  1  0.49776028  0.82630627  0.39752821  1
  H  H7  1  0.99776028  0.67369373  0.89752821  1
  H  H8  1  0.50223972  0.17369373  0.60247179  1
  H  H9  1  0.00223972  0.32630627  0.10247179  1
  H  H10  1  0.01905733  0.44878984  0.36224898  1
  H  H11  1  0.51905733  0.05121016  0.86224898  1
  H  H12  1  0.98094267  0.55121016  0.63775102  1
  H  H13  1  0.48094267  0.94878984  0.13775102  1
  H  H14  1  0.74282939  0.21727833  0.41466114  1
  H  H15  1  0.24282939  0.28272167  0.91466114  1
  H  H16  1  0.25717061  0.78272167  0.58533886  1
  H  H17  1  0.75717061  0.71727833  0.08533886  1
  H  H18  1  0.23906029  0.02467100  0.29354215  1
  H  H19  1  0.73906029  0.47532900  0.79354215  1
  H  H20  1  0.76093971  0.97532900  0.70645785  1
  H  H21  1  0.26093971  0.52467100  0.20645785  1
  H  H22  1  0.22366886  0.09458421  0.44590067  1
  H  H23  1  0.72366886  0.40541579  0.94590067  1
  H  H24  1  0.77633114  0.90541579  0.55409933  1
  H  H25  1  0.27633114  0.59458421  0.05409933  1
  O  O26  1  0.65596264  0.74796691  0.42915918  1
  O  O27  1  0.15596264  0.75203309  0.92915918  1
  O  O28  1  0.34403736  0.25203309  0.57084082  1
  O  O29  1  0.84403736  0.24796691  0.07084082  1
  O  O30  1  0.16650629  0.53900536  0.35329752  1
  O  O31  1  0.66650629  0.96099464  0.85329752  1
  O  O32  1  0.83349371  0.46099464  0.64670248  1
  O  O33  1  0.33349371  0.03900536  0.14670248  1
  O  O34  1  0.69045309  0.33566440  0.36756646  1
  O  O35  1  0.19045309  0.16433560  0.86756646  1
  O  O36  1  0.30954691  0.66433560  0.63243354  1
  O  O37  1  0.80954691  0.83566440  0.13243354  1
  O  O38  1  0.17891298  0.98865659  0.38063752  1
  O  O39  1  0.67891298  0.51134341  0.88063752  1
  O  O40  1  0.82108702  0.01134341  0.61936248  1
  O  O41  1  0.32108702  0.48865659  0.11936248  1
