# generated using pymatgen
data_Na2Sr6ZnFe6F34
_symmetry_space_group_name_H-M   'P 1'
_cell_length_a   9.90851373
_cell_length_b   9.92010310
_cell_length_c   15.29404399
_cell_angle_alpha   80.45727682
_cell_angle_beta   80.47857887
_cell_angle_gamma   68.73984202
_symmetry_Int_Tables_number   1
_chemical_formula_structural   Na2Sr6ZnFe6F34
_chemical_formula_sum   'Na4 Sr12 Zn2 Fe12 F68'
_cell_volume   1372.50968310
_cell_formula_units_Z   2
loop_
 _symmetry_equiv_pos_site_id
 _symmetry_equiv_pos_as_xyz
  1  'x, y, z'
loop_
 _atom_site_type_symbol
 _atom_site_label
 _atom_site_symmetry_multiplicity
 _atom_site_fract_x
 _atom_site_fract_y
 _atom_site_fract_z
 _atom_site_occupancy
  Na  Na0  1  0.15102204  0.55806452  0.14877694  1
  Na  Na1  1  0.49074022  0.50562833  0.00227348  1
  Na  Na2  1  0.50214669  0.50031694  0.50078383  1
  Na  Na3  1  0.74534514  0.75157821  0.53781893  1
  Sr  Sr4  1  0.00672534  0.99289262  0.00423896  1
  Sr  Sr5  1  0.26215290  0.25332029  0.44883150  1
  Sr  Sr6  1  0.16136752  0.53627902  0.65136622  1
  Sr  Sr7  1  0.25151171  0.26603270  0.95184619  1
  Sr  Sr8  1  0.53332438  0.16621844  0.15321514  1
  Sr  Sr9  1  0.56105501  0.14060161  0.64798259  1
  Sr  Sr10  1  0.44895323  0.84979482  0.35279196  1
  Sr  Sr11  1  0.46518540  0.83687263  0.84730652  1
  Sr  Sr12  1  0.75075812  0.73509730  0.05365862  1
  Sr  Sr13  1  0.83851054  0.46939488  0.34536677  1
  Sr  Sr14  1  0.99925605  0.99713240  0.49955520  1
  Sr  Sr15  1  0.84956914  0.44446528  0.84929007  1
  Zn  Zn16  1  0.50328319  0.49548745  0.25020361  1
  Zn  Zn17  1  0.49406308  0.50633272  0.74972982  1
  Fe  Fe18  1  0.16166755  0.17441176  0.23168836  1
  Fe  Fe19  1  0.16998805  0.16102613  0.73283187  1
  Fe  Fe20  1  0.14141104  0.63873426  0.39601226  1
  Fe  Fe21  1  0.13842481  0.65198004  0.90538257  1
  Fe  Fe22  1  0.35951177  0.85757604  0.10460123  1
  Fe  Fe23  1  0.35055803  0.85905949  0.59604807  1
  Fe  Fe24  1  0.65449151  0.13925810  0.40403920  1
  Fe  Fe25  1  0.63935960  0.14137314  0.89681430  1
  Fe  Fe26  1  0.85969868  0.34783427  0.09584666  1
  Fe  Fe27  1  0.85775034  0.36389161  0.60279655  1
  Fe  Fe28  1  0.82925813  0.83677350  0.26683632  1
  Fe  Fe29  1  0.83742371  0.82909388  0.76635661  1
  F  F30  1  0.08142485  0.11582236  0.34849178  1
  F  F31  1  0.01412738  0.24384550  0.52053432  1
  F  F32  1  0.24976875  0.01348221  0.01853731  1
  F  F33  1  0.07935200  0.37448388  0.25406759  1
  F  F34  1  0.00279716  0.74031024  0.00693929  1
  F  F35  1  0.11759062  0.08053600  0.85061487  1
  F  F36  1  0.05312113  0.48811827  0.40668417  1
  F  F37  1  0.03297546  0.74016477  0.29132807  1
  F  F38  1  0.26745401  0.23374249  0.11869733  1
  F  F39  1  0.03564008  0.51858694  0.90857789  1
  F  F40  1  0.14566366  0.33729174  0.78643294  1
  F  F41  1  0.33717859  0.14634472  0.28735517  1
  F  F42  1  0.00461209  0.80755328  0.82757281  1
  F  F43  1  0.24393673  0.26108099  0.62055094  1
  F  F44  1  0.21331846  0.77348239  0.10935143  1
  F  F45  1  0.25748187  0.51018543  0.49059768  1
  F  F46  1  0.37204302  0.07881135  0.75814720  1
  F  F47  1  0.29602605  0.51973717  0.31202115  1
  F  F48  1  0.23221386  0.78243695  0.38785004  1
  F  F49  1  0.21705645  0.75948804  0.59215858  1
  F  F50  1  0.51773377  0.04062502  0.40871367  1
  F  F51  1  0.26785293  0.56400411  0.80021558  1
  F  F52  1  0.26164971  0.50452647  0.98731001  1
  F  F53  1  0.44491623  0.43579332  0.14804797  1
  F  F54  1  0.26065883  0.96559275  0.20997103  1
  F  F55  1  0.49019035  0.05285892  0.90596232  1
  F  F56  1  0.19066748  0.99431655  0.67254932  1
  F  F57  1  0.23960255  0.78424140  0.90837244  1
  F  F58  1  0.50505716  0.26388468  0.48816513  1
  F  F59  1  0.43813836  0.43402697  0.64874180  1
  F  F60  1  0.26287997  0.99173174  0.48906315  1
  F  F61  1  0.56667395  0.26748263  0.29956496  1
  F  F62  1  0.48856515  0.74350679  0.01026950  1
  F  F63  1  0.47656859  0.70971118  0.19346668  1
  F  F64  1  0.52422076  0.29291212  0.80835439  1
  F  F65  1  0.50979133  0.25729278  0.98960771  1
  F  F66  1  0.43088809  0.73271755  0.70351688  1
  F  F67  1  0.73583432  0.01126601  0.51029462  1
  F  F68  1  0.56178060  0.56536039  0.35162582  1
  F  F69  1  0.49309642  0.73698619  0.51173855  1
  F  F70  1  0.75991855  0.21568518  0.09139388  1
  F  F71  1  0.80967826  0.00438406  0.32774673  1
  F  F72  1  0.51104149  0.94611803  0.09359962  1
  F  F73  1  0.73871375  0.03605148  0.79040585  1
  F  F74  1  0.56287663  0.56216810  0.85342177  1
  F  F75  1  0.73518736  0.49486550  0.01072296  1
  F  F76  1  0.73130533  0.43483138  0.20049008  1
  F  F77  1  0.47124897  0.97190039  0.59154864  1
  F  F78  1  0.78472468  0.24228583  0.40594656  1
  F  F79  1  0.77189025  0.21568411  0.61106762  1
  F  F80  1  0.70973248  0.46746118  0.69754626  1
  F  F81  1  0.62538639  0.92741457  0.24307836  1
  F  F82  1  0.74358180  0.48317807  0.50898123  1
  F  F83  1  0.78345622  0.22958998  0.88939602  1
  F  F84  1  0.75262984  0.73921835  0.37705870  1
  F  F85  1  0.99680030  0.18879563  0.16975375  1
  F  F86  1  0.65880081  0.85893951  0.71654123  1
  F  F87  1  0.84045176  0.66730414  0.21265474  1
  F  F88  1  0.95979534  0.48063436  0.09053388  1
  F  F89  1  0.73865790  0.75478920  0.88016044  1
  F  F90  1  0.96465961  0.25849545  0.71104337  1
  F  F91  1  0.95352062  0.50291366  0.59525803  1
  F  F92  1  0.87840353  0.92014803  0.14930800  1
  F  F93  1  0.99209787  0.26278413  0.98890967  1
  F  F94  1  0.92318775  0.62710436  0.74337761  1
  F  F95  1  0.75320840  0.98830285  0.98081358  1
  F  F96  1  0.99204587  0.75134226  0.48067012  1
  F  F97  1  0.92193656  0.88674557  0.65221888  1
