# generated using pymatgen
data_Na2CrFeF7
_symmetry_space_group_name_H-M   'P 1'
_cell_length_a   7.44705749
_cell_length_b   7.44705751
_cell_length_c   25.06917490
_cell_angle_alpha   89.71974024
_cell_angle_beta   98.88737083
_cell_angle_gamma   119.76175308
_symmetry_Int_Tables_number   1
_chemical_formula_structural   Na2CrFeF7
_chemical_formula_sum   'Na16 Cr8 Fe8 F56'
_cell_volume   1188.24207857
_cell_formula_units_Z   8
loop_
 _symmetry_equiv_pos_site_id
 _symmetry_equiv_pos_as_xyz
  1  'x, y, z'
loop_
 _atom_site_type_symbol
 _atom_site_label
 _atom_site_symmetry_multiplicity
 _atom_site_fract_x
 _atom_site_fract_y
 _atom_site_fract_z
 _atom_site_occupancy
  Na  Na0  1  0.74313705  0.11575601  0.87838825  1
  Na  Na1  1  0.96172194  0.21172194  0.75000000  1
  Na  Na2  1  0.45547618  0.20731166  0.75246801  1
  Na  Na3  1  0.50000000  0.00000000  0.50000000  1
  Na  Na4  1  0.25686295  0.88424399  0.12161175  1
  Na  Na5  1  0.00000000  0.00000000  0.00000000  1
  Na  Na6  1  0.73736776  0.86474880  0.62161175  1
  Na  Na7  1  0.95484365  0.70300817  0.74753199  1
  Na  Na8  1  0.26263224  0.13525120  0.37838825  1
  Na  Na9  1  0.50000000  0.50000000  0.00000000  1
  Na  Na10  1  0.00000000  0.50000000  0.50000000  1
  Na  Na11  1  0.54452382  0.79268834  0.24753199  1
  Na  Na12  1  0.50000000  0.00000000  0.00000000  1
  Na  Na13  1  0.04515635  0.29699183  0.25246801  1
  Na  Na14  1  0.50000000  0.50000000  0.50000000  1
  Na  Na15  1  0.03827806  0.78827806  0.25000000  1
  Cr  Cr16  1  0.26369332  0.63685212  0.37405287  1
  Cr  Cr17  1  0.23720075  0.11035955  0.87405287  1
  Cr  Cr18  1  0.73630668  0.36314788  0.62594713  1
  Cr  Cr19  1  0.76279925  0.88964045  0.12594713  1
  Cr  Cr20  1  0.49881955  0.24881955  0.25000000  1
  Cr  Cr21  1  0.00000000  0.00000000  0.50000000  1
  Cr  Cr22  1  0.00000000  0.50000000  0.00000000  1
  Cr  Cr23  1  0.50118045  0.75118045  0.75000000  1
  Fe  Fe24  1  0.75957629  0.38687541  0.12782111  1
  Fe  Fe25  1  0.24042371  0.61312459  0.87217889  1
  Fe  Fe26  1  0.76210478  0.13485129  0.37384530  1
  Fe  Fe27  1  0.23789522  0.86514871  0.62615470  1
  Fe  Fe28  1  0.75905430  0.63175517  0.37217889  1
  Fe  Fe29  1  0.24094570  0.36824483  0.62782111  1
  Fe  Fe30  1  0.26100598  0.38825947  0.12615470  1
  Fe  Fe31  1  0.73899402  0.61174053  0.87384530  1
  F  F32  1  0.05838703  0.34136110  0.35724557  1
  F  F33  1  0.20869159  0.58370447  0.95388871  1
  F  F34  1  0.06130555  0.46942093  0.15557602  1
  F  F35  1  0.34852692  0.97783204  0.20922953  1
  F  F36  1  0.34501268  0.36370587  0.20714089  1
  F  F37  1  0.26726971  0.63654962  0.78989535  1
  F  F38  1  0.26860252  0.13929739  0.29077047  1
  F  F39  1  0.12675100  0.29484902  0.85794751  1
  F  F40  1  0.84609852  0.97365640  0.20423380  1
  F  F41  1  0.26942259  0.64186472  0.29576620  1
  F  F42  1  0.34343501  0.86212821  0.70714089  1
  F  F43  1  0.65334573  0.52262565  0.28989535  1
  F  F44  1  0.68171018  0.81065584  0.04710478  1
  F  F45  1  0.70493488  0.36107044  0.40229221  1
  F  F46  1  0.73139748  0.86070261  0.70922953  1
  F  F47  1  0.06309849  0.73119651  0.35794751  1
  F  F48  1  0.35198350  0.92918969  0.88980765  1
  F  F49  1  0.53297131  0.06739940  0.60847056  1
  F  F50  1  0.25930915  0.12921728  0.46820552  1
  F  F51  1  0.46061796  0.53782415  0.38980765  1
  F  F52  1  0.93869445  0.53057907  0.84442398  1
  F  F53  1  0.26355106  0.63460540  0.45289522  1
  F  F54  1  0.65656499  0.13787179  0.29285911  1
  F  F55  1  0.18615509  0.09427047  0.65557602  1
  F  F56  1  0.64801650  0.07081031  0.11019235  1
  F  F57  1  0.73644894  0.36539460  0.54710478  1
  F  F58  1  0.87018424  0.74519713  0.45388871  1
  F  F59  1  0.12981576  0.25480287  0.54611129  1
  F  F60  1  0.51588447  0.29885854  0.85724557  1
  F  F61  1  0.65147308  0.02216796  0.79077047  1
  F  F62  1  0.16101177  0.79110363  0.03179448  1
  F  F63  1  0.79130841  0.41629553  0.04611129  1
  F  F64  1  0.53938204  0.46217585  0.61019235  1
  F  F65  1  0.15390148  0.02634360  0.79576620  1
  F  F66  1  0.48411553  0.70114146  0.14275443  1
  F  F67  1  0.65498732  0.63629413  0.79285911  1
  F  F68  1  0.95892884  0.92450075  0.89152944  1
  F  F69  1  0.73057741  0.35813528  0.70423380  1
  F  F70  1  0.31828982  0.18934416  0.95289522  1
  F  F71  1  0.45877823  0.30264266  0.09770779  1
  F  F72  1  0.18107853  0.41933138  0.04503272  1
  F  F73  1  0.87429866  0.13604581  0.45496728  1
  F  F74  1  0.93690151  0.26880349  0.64205249  1
  F  F75  1  0.29506512  0.63892956  0.59770779  1
  F  F76  1  0.81384491  0.90572953  0.34442398  1
  F  F77  1  0.12570134  0.86395419  0.54503272  1
  F  F78  1  0.34665427  0.47737435  0.71010465  1
  F  F79  1  0.54122177  0.69735734  0.90229221  1
  F  F80  1  0.87324900  0.70515098  0.14205249  1
  F  F81  1  0.46702869  0.93260060  0.39152944  1
  F  F82  1  0.83898823  0.20889637  0.96820552  1
  F  F83  1  0.94161297  0.65863890  0.64275443  1
  F  F84  1  0.74069085  0.87078272  0.53179448  1
  F  F85  1  0.81892147  0.58066862  0.95496728  1
  F  F86  1  0.73273029  0.36345038  0.21010465  1
  F  F87  1  0.04107116  0.07549925  0.10847056  1
