# generated using pymatgen
data_CrPb5O8
_symmetry_space_group_name_H-M   'P 1'
_cell_length_a   11.97980777
_cell_length_b   11.98731065
_cell_length_c   15.14951986
_cell_angle_alpha   90.00000000
_cell_angle_beta   91.09684231
_cell_angle_gamma   90.00000000
_symmetry_Int_Tables_number   1
_chemical_formula_structural   CrPb5O8
_chemical_formula_sum   'Cr8 Pb40 O64'
_cell_volume   2175.15842973
_cell_formula_units_Z   8
loop_
 _symmetry_equiv_pos_site_id
 _symmetry_equiv_pos_as_xyz
  1  'x, y, z'
loop_
 _atom_site_type_symbol
 _atom_site_label
 _atom_site_symmetry_multiplicity
 _atom_site_fract_x
 _atom_site_fract_y
 _atom_site_fract_z
 _atom_site_occupancy
  Cr  Cr0  1  0.84212750  0.39112829  0.57343353  1
  Cr  Cr1  1  0.34212750  0.10887171  0.57343353  1
  Cr  Cr2  1  0.15787250  0.60887171  0.42656647  1
  Cr  Cr3  1  0.34967442  0.09774948  0.07084182  1
  Cr  Cr4  1  0.84967442  0.40225052  0.07084182  1
  Cr  Cr5  1  0.15032558  0.59774948  0.92915818  1
  Cr  Cr6  1  0.65787250  0.89112829  0.42656647  1
  Cr  Cr7  1  0.65032558  0.90225052  0.92915818  1
  Pb  Pb8  1  0.60963884  0.58671948  0.18903345  1
  Pb  Pb9  1  0.88352150  0.05393883  0.06269994  1
  Pb  Pb10  1  0.89169813  0.76060174  0.80950440  1
  Pb  Pb11  1  0.39036116  0.41328052  0.81096655  1
  Pb  Pb12  1  0.13751620  0.58159231  0.19010212  1
  Pb  Pb13  1  0.90098609  0.73909692  0.06233738  1
  Pb  Pb14  1  0.62740095  0.91864817  0.67413696  1
  Pb  Pb15  1  0.59901391  0.23909692  0.93766262  1
  Pb  Pb16  1  0.63751620  0.91840769  0.19010212  1
  Pb  Pb17  1  0.89210758  0.06928815  0.56027245  1
  Pb  Pb18  1  0.38352150  0.44606117  0.06269994  1
  Pb  Pb19  1  0.60789242  0.56928815  0.43972755  1
  Pb  Pb20  1  0.10715835  0.91250571  0.68912266  1
  Pb  Pb21  1  0.11647850  0.94606117  0.93730006  1
  Pb  Pb22  1  0.89036116  0.08671948  0.81096655  1
  Pb  Pb23  1  0.60715835  0.58749429  0.68912266  1
  Pb  Pb24  1  0.10963884  0.91328052  0.18903345  1
  Pb  Pb25  1  0.88915380  0.75423597  0.29378196  1
  Pb  Pb26  1  0.88688776  0.74441299  0.57510769  1
  Pb  Pb27  1  0.39169813  0.73939826  0.80950440  1
  Pb  Pb28  1  0.86248380  0.41840769  0.80989788  1
  Pb  Pb29  1  0.12740095  0.58135183  0.67413696  1
  Pb  Pb30  1  0.39210758  0.43071185  0.56027245  1
  Pb  Pb31  1  0.11084620  0.24576403  0.70621804  1
  Pb  Pb32  1  0.11311224  0.25558701  0.42489231  1
  Pb  Pb33  1  0.36248380  0.08159231  0.80989788  1
  Pb  Pb34  1  0.60830187  0.26060174  0.19049560  1
  Pb  Pb35  1  0.61084620  0.25423597  0.70621804  1
  Pb  Pb36  1  0.10789242  0.93071185  0.43972755  1
  Pb  Pb37  1  0.89284165  0.08749429  0.31087734  1
  Pb  Pb38  1  0.10830187  0.23939826  0.19049560  1
  Pb  Pb39  1  0.40098609  0.76090308  0.06233738  1
  Pb  Pb40  1  0.39284165  0.41250571  0.31087734  1
  Pb  Pb41  1  0.37259905  0.08135183  0.32586304  1
  Pb  Pb42  1  0.38915380  0.74576403  0.29378196  1
  Pb  Pb43  1  0.61311224  0.24441299  0.42489231  1
  Pb  Pb44  1  0.61647850  0.55393883  0.93730006  1
  Pb  Pb45  1  0.09901391  0.26090308  0.93766262  1
  Pb  Pb46  1  0.87259905  0.41864817  0.32586304  1
  Pb  Pb47  1  0.38688776  0.75558701  0.57510769  1
  O  O48  1  0.70915976  0.40068762  0.07153895  1
  O  O49  1  0.34808142  0.20301693  0.65555472  1
  O  O50  1  0.49433002  0.39983788  0.94582365  1
  O  O51  1  0.40899473  0.99512810  0.60676531  1
  O  O52  1  0.38845857  0.05520684  0.97082482  1
  O  O53  1  0.98122085  0.27501593  0.81815770  1
  O  O54  1  0.70770155  0.42144967  0.55419453  1
  O  O55  1  0.29084024  0.59931238  0.92846105  1
  O  O56  1  0.89797214  0.27419564  0.09042485  1
  O  O57  1  0.00422409  0.08111013  0.18445739  1
  O  O58  1  0.29018994  0.67457584  0.68947652  1
  O  O59  1  0.29871778  0.67721866  0.17138138  1
  O  O60  1  0.70128222  0.32278134  0.82861862  1
  O  O61  1  0.99008108  0.91143466  0.31446146  1
  O  O62  1  0.89502851  0.48757385  0.15113089  1
  O  O63  1  0.79018994  0.82542416  0.68947652  1
  O  O64  1  0.51877915  0.77501593  0.18184230  1
  O  O65  1  0.39629167  0.16360589  0.48149333  1
  O  O66  1  0.98632803  0.27267201  0.30702313  1
  O  O67  1  0.50422409  0.41888987  0.18445739  1
  O  O68  1  0.39502851  0.01242615  0.15113089  1
  O  O69  1  0.09100527  0.49512810  0.39323469  1
  O  O70  1  0.20770155  0.07855033  0.55419453  1
  O  O71  1  0.88845857  0.44479316  0.97082482  1
  O  O72  1  0.89629167  0.33639411  0.48149333  1
  O  O73  1  0.10497149  0.51242615  0.84886911  1
  O  O74  1  0.50575485  0.40472937  0.43981504  1
  O  O75  1  0.50991892  0.41143466  0.68553854  1
  O  O76  1  0.99577591  0.91888987  0.81554261  1
  O  O77  1  0.10370833  0.66360589  0.51850667  1
  O  O78  1  0.65191858  0.79698307  0.34444528  1
  O  O79  1  0.79084024  0.90068762  0.92846105  1
  O  O80  1  0.48122085  0.22498407  0.81815770  1
  O  O81  1  0.20981006  0.17457584  0.31052348  1
  O  O82  1  0.20915976  0.09931238  0.07153895  1
  O  O83  1  0.60370833  0.83639411  0.51850667  1
  O  O84  1  0.01877915  0.72498407  0.18184230  1
  O  O85  1  0.15191858  0.70301693  0.34444528  1
  O  O86  1  0.60202786  0.77419564  0.90957515  1
  O  O87  1  0.79871778  0.82278134  0.17138138  1
  O  O88  1  0.79229845  0.92144967  0.44580547  1
  O  O89  1  0.01367197  0.72732799  0.69297687  1
  O  O90  1  0.59100527  0.00487190  0.39323469  1
  O  O91  1  0.49424515  0.59527063  0.56018496  1
  O  O92  1  0.00991892  0.08856534  0.68553854  1
  O  O93  1  0.90899473  0.50487190  0.60676531  1
  O  O94  1  0.60497149  0.98757385  0.84886911  1
  O  O95  1  0.70981006  0.32542416  0.31052348  1
  O  O96  1  0.10202786  0.72580436  0.90957515  1
  O  O97  1  0.20128222  0.17721866  0.82861862  1
  O  O98  1  0.84808142  0.29698307  0.65555472  1
  O  O99  1  0.49577591  0.58111013  0.81554261  1
  O  O100  1  0.49008108  0.58856534  0.31446146  1
  O  O101  1  0.00575485  0.09527063  0.43981504  1
  O  O102  1  0.39797214  0.22580436  0.09042485  1
  O  O103  1  0.29229845  0.57855033  0.44580547  1
  O  O104  1  0.11154143  0.55520684  0.02917518  1
  O  O105  1  0.50566998  0.60016212  0.05417635  1
  O  O106  1  0.00566998  0.89983788  0.05417635  1
  O  O107  1  0.99433002  0.10016212  0.94582365  1
  O  O108  1  0.51367197  0.77267201  0.69297687  1
  O  O109  1  0.61154143  0.94479316  0.02917518  1
  O  O110  1  0.99424515  0.90472937  0.56018496  1
  O  O111  1  0.48632803  0.22732799  0.30702313  1
