# generated using pymatgen
data_Ba4Pr7Si12BN27
_symmetry_space_group_name_H-M   'P 1'
_cell_length_a   12.38218509
_cell_length_b   12.38218496
_cell_length_c   5.48455115
_cell_angle_alpha   90.00000000
_cell_angle_beta   90.00000000
_cell_angle_gamma   120.00000036
_symmetry_Int_Tables_number   1
_chemical_formula_structural   Ba4Pr7Si12BN27
_chemical_formula_sum   'Ba4 Pr7 Si12 B1 N27'
_cell_volume   728.22620004
_cell_formula_units_Z   1
loop_
 _symmetry_equiv_pos_site_id
 _symmetry_equiv_pos_as_xyz
  1  'x, y, z'
loop_
 _atom_site_type_symbol
 _atom_site_label
 _atom_site_symmetry_multiplicity
 _atom_site_fract_x
 _atom_site_fract_y
 _atom_site_fract_z
 _atom_site_occupancy
  Ba  Ba0  1  0.92043282  0.48872697  0.50000000  1
  Ba  Ba1  1  0.51127303  0.43170585  0.50000000  1
  Ba  Ba2  1  0.33333300  0.66666700  0.50000000  1
  Ba  Ba3  1  0.56829415  0.07956718  0.50000000  1
  Pr  Pr4  1  0.77928644  0.02384408  0.00000000  1
  Pr  Pr5  1  0.67659324  0.70523898  0.00000000  1
  Pr  Pr6  1  0.02864574  0.32340676  0.00000000  1
  Pr  Pr7  1  0.00000000  0.00000000  0.50000000  1
  Pr  Pr8  1  0.97615592  0.75544236  0.00000000  1
  Pr  Pr9  1  0.24455764  0.22071356  0.00000000  1
  Pr  Pr10  1  0.29476102  0.97135426  0.00000000  1
  Si  Si11  1  0.49280443  0.79503974  0.00000000  1
  Si  Si12  1  0.75804049  0.26418993  0.00000000  1
  Si  Si13  1  0.67837401  0.87065620  0.50000000  1
  Si  Si14  1  0.87470060  0.18617615  0.50000000  1
  Si  Si15  1  0.81382385  0.68852445  0.50000000  1
  Si  Si16  1  0.73581007  0.49385056  0.00000000  1
  Si  Si17  1  0.19228219  0.32162599  0.50000000  1
  Si  Si18  1  0.30223531  0.50719557  0.00000000  1
  Si  Si19  1  0.12934380  0.80771781  0.50000000  1
  Si  Si20  1  0.31147555  0.12529940  0.50000000  1
  Si  Si21  1  0.20496026  0.69776469  0.00000000  1
  Si  Si22  1  0.50614944  0.24195951  0.00000000  1
  B  B23  1  0.00000000  0.00000000  0.00000000  1
  N  N24  1  0.24631381  0.96374411  0.50000000  1
  N  N25  1  0.13650023  0.72923379  0.24625041  1
  N  N26  1  0.13650023  0.72923379  0.75374959  1
  N  N27  1  0.03625589  0.28256970  0.50000000  1
  N  N28  1  0.18735320  0.55152922  0.00000000  1
  N  N29  1  0.87403696  0.88939584  0.00000000  1
  N  N30  1  0.01535888  0.12596304  0.00000000  1
  N  N31  1  0.36417603  0.81264680  0.00000000  1
  N  N32  1  0.27076621  0.40726644  0.24625041  1
  N  N33  1  0.27076621  0.40726644  0.75374959  1
  N  N34  1  0.11060416  0.98464112  0.00000000  1
  N  N35  1  0.20828981  0.18575015  0.50000000  1
  N  N36  1  0.44847078  0.63582397  0.00000000  1
  N  N37  1  0.59273356  0.86349977  0.24625041  1
  N  N38  1  0.59273356  0.86349977  0.75374959  1
  N  N39  1  0.40192186  0.17991652  0.24237255  1
  N  N40  1  0.40192186  0.17991652  0.75762745  1
  N  N41  1  0.71743030  0.75368619  0.50000000  1
  N  N42  1  0.57645716  0.40145786  0.00000000  1
  N  N43  1  0.77799466  0.59807814  0.24237255  1
  N  N44  1  0.77799466  0.59807814  0.75762745  1
  N  N45  1  0.59854214  0.17499929  0.00000000  1
  N  N46  1  0.97746034  0.79171019  0.50000000  1
  N  N47  1  0.82500071  0.42354284  0.00000000  1
  N  N48  1  0.82008348  0.22200534  0.75762745  1
  N  N49  1  0.82008348  0.22200534  0.24237255  1
  N  N50  1  0.81424985  0.02253966  0.50000000  1
