# generated using pymatgen
data_KAl2P2H8O12F
_symmetry_space_group_name_H-M   'P 1'
_cell_length_a   9.43686446
_cell_length_b   9.79408156
_cell_length_c   5.62887381
_cell_angle_alpha   90.00000000
_cell_angle_beta   90.00000000
_cell_angle_gamma   90.00000000
_symmetry_Int_Tables_number   1
_chemical_formula_structural   KAl2P2H8O12F
_chemical_formula_sum   'K2 Al4 P4 H16 O24 F2'
_cell_volume   520.25102710
_cell_formula_units_Z   2
loop_
 _symmetry_equiv_pos_site_id
 _symmetry_equiv_pos_as_xyz
  1  'x, y, z'
loop_
 _atom_site_type_symbol
 _atom_site_label
 _atom_site_symmetry_multiplicity
 _atom_site_fract_x
 _atom_site_fract_y
 _atom_site_fract_z
 _atom_site_occupancy
  K  K0  1  0.50000000  0.50000000  0.92069659  1
  K  K1  1  0.00000000  0.00000000  0.92069659  1
  Al  Al2  1  0.36018770  0.11139099  0.96328469  1
  Al  Al3  1  0.63981230  0.88860901  0.96328469  1
  Al  Al4  1  0.13981230  0.61139099  0.96328469  1
  Al  Al5  1  0.86018770  0.38860901  0.96328469  1
  P  P6  1  0.35209461  0.82544826  0.71369131  1
  P  P7  1  0.64790539  0.17455174  0.71369131  1
  P  P8  1  0.14790539  0.32544826  0.71369131  1
  P  P9  1  0.85209461  0.67455174  0.71369131  1
  H  H10  1  0.51352212  0.22630691  0.29508923  1
  H  H11  1  0.48647788  0.77369309  0.29508923  1
  H  H12  1  0.98647788  0.72630691  0.29508923  1
  H  H13  1  0.01352212  0.27369309  0.29508923  1
  H  H14  1  0.34980782  0.27372606  0.31949931  1
  H  H15  1  0.65019218  0.72627394  0.31949931  1
  H  H16  1  0.15019218  0.77372606  0.31949931  1
  H  H17  1  0.84980782  0.22627394  0.31949931  1
  H  H18  1  0.27269149  0.96285928  0.32262975  1
  H  H19  1  0.72730851  0.03714072  0.32262975  1
  H  H20  1  0.22730851  0.46285928  0.32262975  1
  H  H21  1  0.77269149  0.53714072  0.32262975  1
  H  H22  1  0.21587250  0.11848036  0.35052241  1
  H  H23  1  0.78412750  0.88151964  0.35052241  1
  H  H24  1  0.28412750  0.61848036  0.35052241  1
  H  H25  1  0.71587250  0.38151964  0.35052241  1
  O  O26  1  0.28988776  0.71690843  0.88256351  1
  O  O27  1  0.71011224  0.28309157  0.88256351  1
  O  O28  1  0.21011224  0.21690843  0.88256351  1
  O  O29  1  0.78988776  0.78309157  0.88256351  1
  O  O30  1  0.29238677  0.96796356  0.77930303  1
  O  O31  1  0.70761323  0.03203644  0.77930303  1
  O  O32  1  0.20761323  0.46796356  0.77930303  1
  O  O33  1  0.79238677  0.53203644  0.77930303  1
  O  O34  1  0.51521988  0.82007287  0.74101560  1
  O  O35  1  0.48478012  0.17992713  0.74101560  1
  O  O36  1  0.98478012  0.32007287  0.74101560  1
  O  O37  1  0.01521988  0.67992713  0.74101560  1
  O  O38  1  0.42646577  0.25048404  0.20302605  1
  O  O39  1  0.57353423  0.74951596  0.20302605  1
  O  O40  1  0.07353423  0.75048404  0.20302605  1
  O  O41  1  0.92646577  0.24951596  0.20302605  1
  O  O42  1  0.23612580  0.04423323  0.23499348  1
  O  O43  1  0.76387420  0.95576677  0.23499348  1
  O  O44  1  0.26387420  0.54423323  0.23499348  1
  O  O45  1  0.73612580  0.45576677  0.23499348  1
  O  O46  1  0.31475619  0.79482481  0.44989320  1
  O  O47  1  0.68524381  0.20517519  0.44989320  1
  O  O48  1  0.18524381  0.29482481  0.44989320  1
  O  O49  1  0.81475619  0.70517519  0.44989320  1
  F  F50  1  0.50000000  0.00000000  0.09628032  1
  F  F51  1  0.00000000  0.50000000  0.09628032  1
