# generated using pymatgen
data_NaFe2(MoO4)3
_symmetry_space_group_name_H-M   'P 1'
_cell_length_a   6.97376231
_cell_length_b   6.99698715
_cell_length_c   11.92080100
_cell_angle_alpha   76.64708574
_cell_angle_beta   76.58576881
_cell_angle_gamma   88.26938503
_symmetry_Int_Tables_number   1
_chemical_formula_structural   NaFe2(MoO4)3
_chemical_formula_sum   'Na2 Fe4 Mo6 O24'
_cell_volume   550.34607447
_cell_formula_units_Z   2
loop_
 _symmetry_equiv_pos_site_id
 _symmetry_equiv_pos_as_xyz
  1  'x, y, z'
loop_
 _atom_site_type_symbol
 _atom_site_label
 _atom_site_symmetry_multiplicity
 _atom_site_fract_x
 _atom_site_fract_y
 _atom_site_fract_z
 _atom_site_occupancy
  Na  Na0  1  0.18026566  0.60243833  0.86804648  1
  Na  Na1  1  0.81973434  0.39756167  0.13195352  1
  Fe  Fe2  1  0.69776262  0.70268218  0.59110411  1
  Fe  Fe3  1  0.32925568  0.69241489  0.18861943  1
  Fe  Fe4  1  0.30223738  0.29731782  0.40889589  1
  Fe  Fe5  1  0.67074432  0.30758511  0.81138057  1
  Mo  Mo6  1  0.75253099  0.24530767  0.50002555  1
  Mo  Mo7  1  0.19498806  0.20107979  0.74333257  1
  Mo  Mo8  1  0.65268604  0.74985897  0.89300210  1
  Mo  Mo9  1  0.80501194  0.79892021  0.25666743  1
  Mo  Mo10  1  0.34731396  0.25014103  0.10699790  1
  Mo  Mo11  1  0.24746901  0.75469233  0.49997445  1
  O  O12  1  0.35656485  0.36869473  0.23242696  1
  O  O13  1  0.30807683  0.99473608  0.16536841  1
  O  O14  1  0.84898876  0.65446675  0.95715333  1
  O  O15  1  0.27605151  0.60074981  0.39290352  1
  O  O16  1  0.73919262  0.73616295  0.41970590  1
  O  O17  1  0.69192317  0.00526392  0.83463159  1
  O  O18  1  0.62112788  0.70392324  0.19934248  1
  O  O19  1  0.26080738  0.26383705  0.58029410  1
  O  O20  1  0.57678660  0.29505638  0.99781509  1
  O  O21  1  0.00522436  0.26104428  0.42149189  1
  O  O22  1  0.60247569  0.32367523  0.39474707  1
  O  O23  1  0.82453819  0.05498227  0.20800285  1
  O  O24  1  0.15101124  0.34553325  0.04284667  1
  O  O25  1  0.31877092  0.00227995  0.42256367  1
  O  O26  1  0.64343515  0.63130527  0.76757304  1
  O  O27  1  0.02965737  0.67824679  0.20573637  1
  O  O28  1  0.39752431  0.67632477  0.60525293  1
  O  O29  1  0.68122908  0.99772005  0.57743633  1
  O  O30  1  0.37887212  0.29607676  0.80065752  1
  O  O31  1  0.17546181  0.94501773  0.79199715  1
  O  O32  1  0.72394849  0.39925019  0.60709648  1
  O  O33  1  0.42321340  0.70494362  0.00218491  1
  O  O34  1  0.97034263  0.32175321  0.79426363  1
  O  O35  1  0.99477564  0.73895572  0.57850811  1
