# generated using pymatgen
data_LiFe2(BO3)2
_symmetry_space_group_name_H-M   'P 1'
_cell_length_a   5.24061562
_cell_length_b   9.15571663
_cell_length_c   11.32480523
_cell_angle_alpha   66.50654996
_cell_angle_beta   77.06653709
_cell_angle_gamma   89.07226942
_symmetry_Int_Tables_number   1
_chemical_formula_structural   LiFe2(BO3)2
_chemical_formula_sum   'Li4 Fe8 B8 O24'
_cell_volume   484.07234818
_cell_formula_units_Z   4
loop_
 _symmetry_equiv_pos_site_id
 _symmetry_equiv_pos_as_xyz
  1  'x, y, z'
loop_
 _atom_site_type_symbol
 _atom_site_label
 _atom_site_symmetry_multiplicity
 _atom_site_fract_x
 _atom_site_fract_y
 _atom_site_fract_z
 _atom_site_occupancy
  Li  Li0  1  0.96780048  0.96143525  0.40661034  1
  Li  Li1  1  0.70918168  0.73128206  0.90564153  1
  Li  Li2  1  0.51763657  0.49523638  0.65417119  1
  Li  Li3  1  0.23683025  0.24929381  0.15508939  1
  Fe  Fe4  1  0.98359867  0.64106816  0.37594654  1
  Fe  Fe5  1  0.73910103  0.07287887  0.88244642  1
  Fe  Fe6  1  0.50712551  0.85140777  0.63198960  1
  Fe  Fe7  1  0.76794210  0.43633164  0.12785027  1
  Fe  Fe8  1  0.22463490  0.55989608  0.87767362  1
  Fe  Fe9  1  0.47654352  0.15335369  0.38469142  1
  Fe  Fe10  1  0.03535987  0.33671435  0.63031264  1
  Fe  Fe11  1  0.24863452  0.93141607  0.12823429  1
  B  B12  1  0.97874927  0.30562252  0.37550723  1
  B  B13  1  0.73562427  0.39960578  0.87369269  1
  B  B14  1  0.53767236  0.18577301  0.63405898  1
  B  B15  1  0.75781754  0.11279907  0.12880582  1
  B  B16  1  0.47019542  0.81633456  0.38087705  1
  B  B17  1  0.23596162  0.89705906  0.87641060  1
  B  B18  1  0.00968773  0.68187027  0.62569953  1
  B  B19  1  0.26952113  0.59643556  0.12677448  1
  O  O20  1  0.97275696  0.90241698  0.88020971  1
  O  O21  1  0.88736700  0.28570730  0.84719402  1
  O  O22  1  0.83876559  0.49608015  0.92739735  1
  O  O23  1  0.86960386  0.81495970  0.61933132  1
  O  O24  1  0.91426337  0.56629142  0.59601292  1
  O  O25  1  0.75457109  0.14913329  0.68778161  1
  O  O26  1  0.74518393  0.32676787  0.32965780  1
  O  O27  1  0.49462533  0.42223699  0.84909557  1
  O  O28  1  0.38545931  0.79144600  0.82854940  1
  O  O29  1  0.56557488  0.93468298  0.42423375  1
  O  O30  1  0.61162639  0.69381208  0.38501364  1
  O  O31  1  0.36910508  0.98519323  0.92090108  1
  O  O32  1  0.64010227  0.02858800  0.07590817  1
  O  O33  1  0.40841711  0.31564993  0.62613585  1
  O  O34  1  0.45573876  0.08218671  0.57959444  1
  O  O35  1  0.59685570  0.22035893  0.17178891  1
  O  O36  1  0.54001411  0.59920061  0.10664547  1
  O  O37  1  0.25272000  0.67089669  0.66305305  1
  O  O38  1  0.23212835  0.84477967  0.34437312  1
  O  O39  1  0.05957005  0.40380968  0.42361669  1
  O  O40  1  0.12448365  0.18041009  0.36232673  1
  O  O41  1  0.14940587  0.48510645  0.09191365  1
  O  O42  1  0.12866678  0.69763375  0.17078126  1
  O  O43  1  0.00770511  0.10116854  0.14448686  1
