# generated using pymatgen
data_BaRe2H12C3N6O11
_symmetry_space_group_name_H-M   'P 1'
_cell_length_a   13.94545154
_cell_length_b   7.99226429
_cell_length_c   15.10966992
_cell_angle_alpha   90.00000000
_cell_angle_beta   94.89759955
_cell_angle_gamma   90.00000000
_symmetry_Int_Tables_number   1
_chemical_formula_structural   BaRe2H12C3N6O11
_chemical_formula_sum   'Ba4 Re8 H48 C12 N24 O44'
_cell_volume   1677.91064303
_cell_formula_units_Z   4
loop_
 _symmetry_equiv_pos_site_id
 _symmetry_equiv_pos_as_xyz
  1  'x, y, z'
loop_
 _atom_site_type_symbol
 _atom_site_label
 _atom_site_symmetry_multiplicity
 _atom_site_fract_x
 _atom_site_fract_y
 _atom_site_fract_z
 _atom_site_occupancy
  Ba  Ba0  1  0.37569187  0.38515942  0.58361536  1
  Ba  Ba1  1  0.62430813  0.88515942  0.91638464  1
  Ba  Ba2  1  0.62430813  0.61484058  0.41638464  1
  Ba  Ba3  1  0.37569187  0.11484058  0.08361536  1
  Re  Re4  1  0.48548001  0.12860664  0.36827637  1
  Re  Re5  1  0.51451999  0.62860664  0.13172363  1
  Re  Re6  1  0.51451999  0.87139336  0.63172363  1
  Re  Re7  1  0.48548001  0.37139336  0.86827637  1
  Re  Re8  1  0.12996149  0.06608565  0.58914351  1
  Re  Re9  1  0.87003851  0.56608565  0.91085649  1
  Re  Re10  1  0.87003851  0.93391435  0.41085649  1
  Re  Re11  1  0.12996149  0.43391435  0.08914351  1
  H  H12  1  0.72527814  0.35299300  0.74622196  1
  H  H13  1  0.27472186  0.85299300  0.75377804  1
  H  H14  1  0.27472186  0.64700700  0.25377804  1
  H  H15  1  0.72527814  0.14700700  0.24622196  1
  H  H16  1  0.64234511  0.51638489  0.73885388  1
  H  H17  1  0.35765489  0.01638489  0.76114612  1
  H  H18  1  0.35765489  0.48361511  0.26114612  1
  H  H19  1  0.64234511  0.98361511  0.23885388  1
  H  H20  1  0.74457351  0.18350640  0.62097637  1
  H  H21  1  0.25542649  0.68350640  0.87902363  1
  H  H22  1  0.25542649  0.81649360  0.37902363  1
  H  H23  1  0.74457351  0.31649360  0.12097637  1
  H  H24  1  0.66652844  0.21136342  0.52563204  1
  H  H25  1  0.33347156  0.71136342  0.97436796  1
  H  H26  1  0.33347156  0.78863658  0.47436796  1
  H  H27  1  0.66652844  0.28863658  0.02563204  1
  H  H28  1  0.17620266  0.34340559  0.86352368  1
  H  H29  1  0.82379734  0.84340559  0.63647632  1
  H  H30  1  0.82379734  0.65659441  0.13647632  1
  H  H31  1  0.17620266  0.15659441  0.36352368  1
  H  H32  1  0.25793780  0.27936136  0.79132791  1
  H  H33  1  0.74206220  0.77936136  0.70867209  1
  H  H34  1  0.74206220  0.72063864  0.20867209  1
  H  H35  1  0.25793780  0.22063864  0.29132791  1
  H  H36  1  0.08341604  0.58063165  0.83214936  1
  H  H37  1  0.91658396  0.08063165  0.66785064  1
  H  H38  1  0.91658396  0.41936835  0.16785064  1
  H  H39  1  0.08341604  0.91936835  0.33214936  1
  H  H40  1  0.10403573  0.70314890  0.73852145  1
  H  H41  1  0.89596427  0.20314890  0.76147855  1
  H  H42  1  0.89596427  0.29685110  0.26147855  1
  H  H43  1  0.10403573  0.79685110  0.23852145  1
  H  H44  1  0.03073893  0.55974679  0.36030610  1
  H  H45  1  0.96926107  0.05974679  0.13969390  1
  H  H46  1  0.96926107  0.44025321  0.63969390  1
  H  H47  1  0.03073893  0.94025321  0.86030610  1
  H  H48  1  0.10748261  0.40312589  0.32482309  1
  H  H49  1  0.89251739  0.90312589  0.17517691  1
  H  H50  1  0.89251739  0.59687411  0.67517691  1
  H  H51  1  0.10748261  0.09687411  0.82482309  1
  H  H52  1  0.05845391  0.67594927  0.49797361  1
  H  H53  1  0.94154609  0.17594927  0.00202639  1
  H  H54  1  0.94154609  0.32405073  0.50202639  1
  H  H55  1  0.05845391  0.82405073  0.99797361  1
  H  H56  1  0.15020947  0.59862873  0.57417826  1
  H  H57  1  0.84979053  0.09862873  0.92582174  1
  H  H58  1  0.84979053  0.40137127  0.42582174  1
  H  H59  1  0.15020947  0.90137127  0.07417826  1
  C  C60  1  0.64354735  0.37505686  0.62552625  1
  C  C61  1  0.35645265  0.87505686  0.87447375  1
  C  C62  1  0.35645265  0.62494314  0.37447375  1
  C  C63  1  0.64354735  0.12494314  0.12552625  1
  C  C64  1  0.18584989  0.49084006  0.75172046  1
  C  C65  1  0.81415011  0.99084006  0.74827954  1
  C  C66  1  0.81415011  0.50915994  0.24827954  1
  C  C67  1  0.18584989  0.00915994  0.25172046  1
  C  C68  1  0.14115787  0.48554251  0.45187020  1
  C  C69  1  0.85884213  0.98554251  0.04812980  1
  C  C70  1  0.85884213  0.51445749  0.54812980  1
  C  C71  1  0.14115787  0.01445749  0.95187020  1
  N  N72  1  0.67324349  0.41765226  0.71003444  1
  N  N73  1  0.32675651  0.91765226  0.78996556  1
  N  N74  1  0.32675651  0.58234774  0.28996556  1
  N  N75  1  0.67324349  0.08234774  0.21003444  1
  N  N76  1  0.68750741  0.24404481  0.58922078  1
  N  N77  1  0.31249259  0.74404481  0.91077922  1
  N  N78  1  0.31249259  0.75595519  0.41077922  1
  N  N79  1  0.68750741  0.25595519  0.08922078  1
  N  N80  1  0.19852739  0.34774421  0.80085240  1
  N  N81  1  0.80147261  0.84774421  0.69914760  1
  N  N82  1  0.80147261  0.65225579  0.19914760  1
  N  N83  1  0.19852739  0.15225579  0.30085240  1
  N  N84  1  0.12123214  0.60304630  0.77870055  1
  N  N85  1  0.87876786  0.10304630  0.72129945  1
  N  N86  1  0.87876786  0.39695370  0.22129945  1
  N  N87  1  0.12123214  0.89695370  0.27870055  1
  N  N88  1  0.08841448  0.48335579  0.37217335  1
  N  N89  1  0.91158552  0.98335579  0.12782665  1
  N  N90  1  0.91158552  0.51664421  0.62782665  1
  N  N91  1  0.08841448  0.01664421  0.87217335  1
  N  N92  1  0.11523299  0.59810205  0.51225358  1
  N  N93  1  0.88476701  0.09810205  0.98774642  1
  N  N94  1  0.88476701  0.40189795  0.48774642  1
  N  N95  1  0.11523299  0.90189795  0.01225358  1
  O  O96  1  0.40911249  0.13989162  0.45420461  1
  O  O97  1  0.59088751  0.63989162  0.04579539  1
  O  O98  1  0.59088751  0.86010838  0.54579539  1
  O  O99  1  0.40911249  0.36010838  0.95420461  1
  O  O100  1  0.58676485  0.25746541  0.39258519  1
  O  O101  1  0.41323515  0.75746541  0.10741481  1
  O  O102  1  0.41323515  0.74253459  0.60741481  1
  O  O103  1  0.58676485  0.24253459  0.89258519  1
  O  O104  1  0.52322354  0.92149563  0.35865198  1
  O  O105  1  0.47677646  0.42149563  0.14134802  1
  O  O106  1  0.47677646  0.07850437  0.64134802  1
  O  O107  1  0.52322354  0.57850437  0.85865198  1
  O  O108  1  0.42079282  0.18774654  0.26805648  1
  O  O109  1  0.57920718  0.68774654  0.23194352  1
  O  O110  1  0.57920718  0.81225346  0.73194352  1
  O  O111  1  0.42079282  0.31225346  0.76805648  1
  O  O112  1  0.25053447  0.11837683  0.62148320  1
  O  O113  1  0.74946553  0.61837683  0.87851680  1
  O  O114  1  0.74946553  0.88162317  0.37851680  1
  O  O115  1  0.25053447  0.38162317  0.12148320  1
  O  O116  1  0.11687606  0.01271635  0.47625196  1
  O  O117  1  0.88312394  0.51271635  0.02374804  1
  O  O118  1  0.88312394  0.98728365  0.52374804  1
  O  O119  1  0.11687606  0.48728365  0.97625196  1
  O  O120  1  0.09752420  0.89477091  0.65321370  1
  O  O121  1  0.90247580  0.39477091  0.84678630  1
  O  O122  1  0.90247580  0.10522909  0.34678630  1
  O  O123  1  0.09752420  0.60522909  0.15321370  1
  O  O124  1  0.05394039  0.23420353  0.60936048  1
  O  O125  1  0.94605961  0.73420353  0.89063952  1
  O  O126  1  0.94605961  0.76579647  0.39063952  1
  O  O127  1  0.05394039  0.26579647  0.10936048  1
  O  O128  1  0.57617166  0.45538197  0.58207130  1
  O  O129  1  0.42382834  0.95538197  0.91792870  1
  O  O130  1  0.42382834  0.54461803  0.41792870  1
  O  O131  1  0.57617166  0.04461803  0.08207130  1
  O  O132  1  0.23130795  0.52052050  0.68475985  1
  O  O133  1  0.76869205  0.02052050  0.81524015  1
  O  O134  1  0.76869205  0.47947950  0.31524015  1
  O  O135  1  0.23130795  0.97947950  0.18475985  1
  O  O136  1  0.21166587  0.38699622  0.46781011  1
  O  O137  1  0.78833413  0.88699622  0.03218989  1
  O  O138  1  0.78833413  0.61300378  0.53218989  1
  O  O139  1  0.21166587  0.11300378  0.96781011  1
