# generated using pymatgen
data_Ba2VI5O17
_symmetry_space_group_name_H-M   'P 1'
_cell_length_a   7.26160228
_cell_length_b   7.68588114
_cell_length_c   33.69774524
_cell_angle_alpha   90.00000000
_cell_angle_beta   90.00000000
_cell_angle_gamma   116.19585323
_symmetry_Int_Tables_number   1
_chemical_formula_structural   Ba2VI5O17
_chemical_formula_sum   'Ba8 V4 I20 O68'
_cell_volume   1687.56282023
_cell_formula_units_Z   4
loop_
 _symmetry_equiv_pos_site_id
 _symmetry_equiv_pos_as_xyz
  1  'x, y, z'
loop_
 _atom_site_type_symbol
 _atom_site_label
 _atom_site_symmetry_multiplicity
 _atom_site_fract_x
 _atom_site_fract_y
 _atom_site_fract_z
 _atom_site_occupancy
  Ba  Ba0  1  0.17194170  0.81529450  0.00215466  1
  Ba  Ba1  1  0.48090122  0.37795938  0.18697097  1
  Ba  Ba2  1  0.51909878  0.62204062  0.81302903  1
  Ba  Ba3  1  0.82805830  0.18470550  0.99784534  1
  Ba  Ba4  1  0.01909878  0.62204062  0.68697097  1
  Ba  Ba5  1  0.98090122  0.37795938  0.31302903  1
  Ba  Ba6  1  0.67194170  0.81529450  0.49784534  1
  Ba  Ba7  1  0.32805830  0.18470550  0.50215466  1
  V  V8  1  0.02026095  0.02734531  0.09647180  1
  V  V9  1  0.52026095  0.02734531  0.40352820  1
  V  V10  1  0.47973905  0.97265469  0.59647180  1
  V  V11  1  0.97973905  0.97265469  0.90352820  1
  I  I12  1  0.55647408  0.60187571  0.95214747  1
  I  I13  1  0.49209817  0.12543601  0.88588943  1
  I  I14  1  0.13393111  0.72328611  0.21512986  1
  I  I15  1  0.99209817  0.12543601  0.61411057  1
  I  I16  1  0.89858982  0.09868749  0.19926489  1
  I  I17  1  0.10141018  0.90131251  0.80073511  1
  I  I18  1  0.60141018  0.90131251  0.69926489  1
  I  I19  1  0.63393111  0.72328611  0.28487014  1
  I  I20  1  0.44352592  0.39812429  0.04785253  1
  I  I21  1  0.58171835  0.56080730  0.60381759  1
  I  I22  1  0.50790183  0.87456399  0.11411057  1
  I  I23  1  0.08171835  0.56080730  0.89618241  1
  I  I24  1  0.39858982  0.09868749  0.30073511  1
  I  I25  1  0.86606889  0.27671389  0.78487014  1
  I  I26  1  0.05647408  0.60187571  0.54785253  1
  I  I27  1  0.41828165  0.43919270  0.39618241  1
  I  I28  1  0.91828165  0.43919270  0.10381759  1
  I  I29  1  0.94352592  0.39812429  0.45214747  1
  I  I30  1  0.36606889  0.27671389  0.71512986  1
  I  I31  1  0.00790183  0.87456399  0.38588943  1
  O  O32  1  0.96377644  0.17964994  0.46806182  1
  O  O33  1  0.83836808  0.58529235  0.61381025  1
  O  O34  1  0.04877288  0.46629454  0.94636316  1
  O  O35  1  0.16163192  0.41470765  0.38618975  1
  O  O36  1  0.34261744  0.08862211  0.61138396  1
  O  O37  1  0.24566151  0.29356455  0.08831925  1
  O  O38  1  0.83403720  0.18595078  0.08689847  1
  O  O39  1  0.66596280  0.81404922  0.58689847  1
  O  O40  1  0.55651268  0.23399377  0.93514311  1
  O  O41  1  0.52648427  0.02965771  0.54801205  1
  O  O42  1  0.54432209  0.31147172  0.26994626  1
  O  O43  1  0.05651268  0.23399377  0.56485689  1
  O  O44  1  0.94348732  0.76600623  0.43514311  1
  O  O45  1  0.06813874  0.19274391  0.15530439  1
  O  O46  1  0.04432209  0.31147172  0.23005374  1
  O  O47  1  0.47378737  0.32190925  0.76535085  1
  O  O48  1  0.93186126  0.80725609  0.84469561  1
  O  O49  1  0.02621263  0.67809075  0.26535085  1
  O  O50  1  0.54877288  0.46629454  0.55363684  1
  O  O51  1  0.86254818  0.66885902  0.35378452  1
  O  O52  1  0.77439283  0.41073674  0.49140541  1
  O  O53  1  0.47351573  0.97034229  0.45198795  1
  O  O54  1  0.25901213  0.85496188  0.37827398  1
  O  O55  1  0.44348732  0.76600623  0.06485689  1
  O  O56  1  0.95122712  0.53370546  0.05363684  1
  O  O57  1  0.46377644  0.17964994  0.03193818  1
  O  O58  1  0.24098787  0.14503812  0.87827398  1
  O  O59  1  0.16596280  0.81404922  0.91310153  1
  O  O60  1  0.09784403  0.36983508  0.81496144  1
  O  O61  1  0.43186126  0.80725609  0.65530439  1
  O  O62  1  0.28914980  0.01308196  0.71512651  1
  O  O63  1  0.33836808  0.58529235  0.88618975  1
  O  O64  1  0.45567791  0.68852828  0.73005374  1
  O  O65  1  0.68264974  0.13937421  0.18151030  1
  O  O66  1  0.74566151  0.29356455  0.41168075  1
  O  O67  1  0.75433849  0.70643545  0.91168075  1
  O  O68  1  0.31735026  0.86062579  0.81848970  1
  O  O69  1  0.53622356  0.82035006  0.96806182  1
  O  O70  1  0.56813874  0.19274391  0.34469561  1
  O  O71  1  0.72560717  0.58926326  0.99140541  1
  O  O72  1  0.84261744  0.08862211  0.88861604  1
  O  O73  1  0.95567791  0.68852828  0.76994626  1
  O  O74  1  0.02648427  0.02965771  0.95198795  1
  O  O75  1  0.71085020  0.98691804  0.28487349  1
  O  O76  1  0.27439283  0.41073674  0.00859459  1
  O  O77  1  0.22560717  0.58926326  0.50859459  1
  O  O78  1  0.78914980  0.01308196  0.78487349  1
  O  O79  1  0.45122712  0.53370546  0.44636316  1
  O  O80  1  0.75901213  0.85496188  0.12172602  1
  O  O81  1  0.18264974  0.13937421  0.31848970  1
  O  O82  1  0.97351573  0.97034229  0.04801205  1
  O  O83  1  0.36254818  0.66885902  0.14621548  1
  O  O84  1  0.74098787  0.14503812  0.62172602  1
  O  O85  1  0.21085020  0.98691804  0.21512651  1
  O  O86  1  0.90215597  0.63016492  0.18503856  1
  O  O87  1  0.97378737  0.32190925  0.73464915  1
  O  O88  1  0.25433849  0.70643545  0.58831925  1
  O  O89  1  0.03622356  0.82035006  0.53193818  1
  O  O90  1  0.81735026  0.86062579  0.68151030  1
  O  O91  1  0.40215597  0.63016492  0.31496144  1
  O  O92  1  0.33403720  0.18595078  0.41310153  1
  O  O93  1  0.66163192  0.41470765  0.11381025  1
  O  O94  1  0.52621263  0.67809075  0.23464915  1
  O  O95  1  0.59784403  0.36983508  0.68503856  1
  O  O96  1  0.15738256  0.91137789  0.11138396  1
  O  O97  1  0.13745182  0.33114098  0.64621548  1
  O  O98  1  0.63745182  0.33114098  0.85378452  1
  O  O99  1  0.65738256  0.91137789  0.38861604  1
