# generated using pymatgen
data_NaB(HO)4
_symmetry_space_group_name_H-M   'P 1'
_cell_length_a   5.96623113
_cell_length_b   10.74404320
_cell_length_c   6.24494229
_cell_angle_alpha   90.00000000
_cell_angle_beta   112.05976920
_cell_angle_gamma   90.00000000
_symmetry_Int_Tables_number   1
_chemical_formula_structural   NaB(HO)4
_chemical_formula_sum   'Na4 B4 H16 O16'
_cell_volume   371.00417191
_cell_formula_units_Z   4
loop_
 _symmetry_equiv_pos_site_id
 _symmetry_equiv_pos_as_xyz
  1  'x, y, z'
loop_
 _atom_site_type_symbol
 _atom_site_label
 _atom_site_symmetry_multiplicity
 _atom_site_fract_x
 _atom_site_fract_y
 _atom_site_fract_z
 _atom_site_occupancy
  Na  Na0  1  0.74998265  0.01692007  0.76106294  1
  Na  Na1  1  0.75001735  0.51692007  0.23893706  1
  Na  Na2  1  0.25001735  0.98307993  0.23893706  1
  Na  Na3  1  0.24998265  0.48307993  0.76106294  1
  B  B4  1  0.72434258  0.09062539  0.27786190  1
  B  B5  1  0.77565742  0.59062539  0.72213810  1
  B  B6  1  0.27565742  0.90937461  0.72213810  1
  B  B7  1  0.22434258  0.40937461  0.27786190  1
  H  H8  1  0.83853777  0.91037559  0.37475438  1
  H  H9  1  0.66146223  0.41037559  0.62524562  1
  H  H10  1  0.16146223  0.08962441  0.62524562  1
  H  H11  1  0.33853777  0.58962441  0.37475438  1
  H  H12  1  0.93099438  0.18635807  0.14083938  1
  H  H13  1  0.56900562  0.68635807  0.85916062  1
  H  H14  1  0.06900562  0.81364193  0.85916062  1
  H  H15  1  0.43099438  0.31364193  0.14083938  1
  H  H16  1  0.42927478  0.12637390  0.99043021  1
  H  H17  1  0.07072522  0.62637390  0.00956979  1
  H  H18  1  0.57072522  0.87362610  0.00956979  1
  H  H19  1  0.92927478  0.37362610  0.99043021  1
  H  H20  1  0.84133070  0.24103120  0.49757744  1
  H  H21  1  0.65866930  0.74103120  0.50242256  1
  H  H22  1  0.15866930  0.75896880  0.50242256  1
  H  H23  1  0.34133070  0.25896880  0.49757744  1
  O  O24  1  0.68402294  0.95673553  0.31782412  1
  O  O25  1  0.81597706  0.45673553  0.68217588  1
  O  O26  1  0.31597706  0.04326447  0.68217588  1
  O  O27  1  0.18402294  0.54326447  0.31782412  1
  O  O28  1  0.88115256  0.09822776  0.14283086  1
  O  O29  1  0.61884744  0.59822776  0.85716914  1
  O  O30  1  0.11884744  0.90177224  0.85716914  1
  O  O31  1  0.38115256  0.40177224  0.14283086  1
  O  O32  1  0.48338112  0.14902468  0.15497188  1
  O  O33  1  0.01661888  0.64902468  0.84502812  1
  O  O34  1  0.51661888  0.85097532  0.84502812  1
  O  O35  1  0.98338112  0.35097532  0.15497188  1
  O  O36  1  0.83770447  0.15052607  0.51066466  1
  O  O37  1  0.66229553  0.65052607  0.48933534  1
  O  O38  1  0.16229553  0.84947393  0.48933534  1
  O  O39  1  0.33770447  0.34947393  0.51066466  1
