# generated using pymatgen
data_FePH6NO5
_symmetry_space_group_name_H-M   'P 1'
_cell_length_a   5.73206063
_cell_length_b   8.94420385
_cell_length_c   4.84051047
_cell_angle_alpha   90.00000000
_cell_angle_beta   90.00000000
_cell_angle_gamma   90.00000000
_symmetry_Int_Tables_number   1
_chemical_formula_structural   FePH6NO5
_chemical_formula_sum   'Fe2 P2 H12 N2 O10'
_cell_volume   248.16676992
_cell_formula_units_Z   2
loop_
 _symmetry_equiv_pos_site_id
 _symmetry_equiv_pos_as_xyz
  1  'x, y, z'
loop_
 _atom_site_type_symbol
 _atom_site_label
 _atom_site_symmetry_multiplicity
 _atom_site_fract_x
 _atom_site_fract_y
 _atom_site_fract_z
 _atom_site_occupancy
  Fe  Fe0  1  0.50000000  0.02262095  0.50440856  1
  Fe  Fe1  1  0.00000000  0.97737905  0.00440856  1
  P  P2  1  0.50000000  0.80492677  0.06859002  1
  P  P3  1  0.00000000  0.19507323  0.56859002  1
  H  H4  1  0.50000000  0.53834609  0.81441171  1
  H  H5  1  0.00000000  0.46165391  0.31441171  1
  H  H6  1  0.50000000  0.54497101  0.45696685  1
  H  H7  1  0.00000000  0.45502899  0.95696685  1
  H  H8  1  0.64909777  0.40880124  0.62571566  1
  H  H9  1  0.35090223  0.40880124  0.62571566  1
  H  H10  1  0.85090223  0.59119876  0.12571566  1
  H  H11  1  0.14909777  0.59119876  0.12571566  1
  H  H12  1  0.63732354  0.19749571  0.08104805  1
  H  H13  1  0.36267646  0.19749571  0.08104805  1
  H  H14  1  0.86267646  0.80250429  0.58104805  1
  H  H15  1  0.13732354  0.80250429  0.58104805  1
  N  N16  1  0.50000000  0.47420867  0.63112220  1
  N  N17  1  0.00000000  0.52579133  0.13112220  1
  O  O18  1  0.50000000  0.82974659  0.75403432  1
  O  O19  1  0.00000000  0.17025341  0.25403432  1
  O  O20  1  0.50000000  0.63429658  0.12887309  1
  O  O21  1  0.00000000  0.36570342  0.62887309  1
  O  O22  1  0.71679031  0.88087723  0.21130396  1
  O  O23  1  0.28320969  0.88087723  0.21130396  1
  O  O24  1  0.78320969  0.11912277  0.71130396  1
  O  O25  1  0.21679031  0.11912277  0.71130396  1
  O  O26  1  0.50000000  0.21365713  0.20015790  1
  O  O27  1  0.00000000  0.78634287  0.70015790  1
