# generated using pymatgen
data_Fe4O7F
_symmetry_space_group_name_H-M   'P 1'
_cell_length_a   4.61568172
_cell_length_b   4.61568172
_cell_length_c   12.05722855
_cell_angle_alpha   90.00000000
_cell_angle_beta   90.00000000
_cell_angle_gamma   91.84961283
_symmetry_Int_Tables_number   1
_chemical_formula_structural   Fe4O7F
_chemical_formula_sum   'Fe8 O14 F2'
_cell_volume   256.73960476
_cell_formula_units_Z   2
loop_
 _symmetry_equiv_pos_site_id
 _symmetry_equiv_pos_as_xyz
  1  'x, y, z'
loop_
 _atom_site_type_symbol
 _atom_site_label
 _atom_site_symmetry_multiplicity
 _atom_site_fract_x
 _atom_site_fract_y
 _atom_site_fract_z
 _atom_site_occupancy
  Fe  Fe0  1  0.00511385  0.99488615  0.00419877  1
  Fe  Fe1  1  0.99488615  0.00511385  0.24580123  1
  Fe  Fe2  1  0.99488615  0.00511385  0.50419877  1
  Fe  Fe3  1  0.00511385  0.99488615  0.74580123  1
  Fe  Fe4  1  0.50000000  0.50000000  0.12500000  1
  Fe  Fe5  1  0.50000000  0.50000000  0.62500000  1
  Fe  Fe6  1  0.47779275  0.52220725  0.87500000  1
  Fe  Fe7  1  0.52220725  0.47779275  0.37500000  1
  O  O8  1  0.19537782  0.80462218  0.12828228  1
  O  O9  1  0.19537782  0.80462218  0.62171772  1
  O  O10  1  0.17860914  0.82139086  0.87500000  1
  O  O11  1  0.30284817  0.31168003  -0.00010703  1
  O  O12  1  0.31168003  0.30284817  0.25010703  1
  O  O13  1  0.31168003  0.30284817  0.49989297  1
  O  O14  1  0.30284817  0.31168003  0.75010703  1
  O  O15  1  0.68831997  0.69715183  -0.00010703  1
  O  O16  1  0.69715183  0.68831997  0.25010703  1
  O  O17  1  0.69715183  0.68831997  0.49989297  1
  O  O18  1  0.68831997  0.69715183  0.75010703  1
  O  O19  1  0.80462218  0.19537782  0.12171772  1
  O  O20  1  0.82139086  0.17860914  0.37500000  1
  O  O21  1  0.80462218  0.19537782  0.62828228  1
  F  F22  1  0.20402894  0.79597106  0.37500000  1
  F  F23  1  0.79597106  0.20402894  0.87500000  1
