# generated using pymatgen
data_KAl2P2H5O11
_symmetry_space_group_name_H-M   'P 1'
_cell_length_a   9.28933227
_cell_length_b   9.79694514
_cell_length_c   9.89082451
_cell_angle_alpha   90.00000000
_cell_angle_beta   90.00000000
_cell_angle_gamma   90.00000000
_symmetry_Int_Tables_number   1
_chemical_formula_structural   KAl2P2H5O11
_chemical_formula_sum   'K4 Al8 P8 H20 O44'
_cell_volume   900.13504396
_cell_formula_units_Z   4
loop_
 _symmetry_equiv_pos_site_id
 _symmetry_equiv_pos_as_xyz
  1  'x, y, z'
loop_
 _atom_site_type_symbol
 _atom_site_label
 _atom_site_symmetry_multiplicity
 _atom_site_fract_x
 _atom_site_fract_y
 _atom_site_fract_z
 _atom_site_occupancy
  K  K0  1  0.76100703  0.45189343  0.15315326  1
  K  K1  1  0.73899297  0.54810657  0.65315326  1
  K  K2  1  0.26100703  0.04810657  0.84684674  1
  K  K3  1  0.23899297  0.95189343  0.34684674  1
  Al  Al4  1  0.59079333  0.76287444  0.35546654  1
  Al  Al5  1  0.90920667  0.23712556  0.85546654  1
  Al  Al6  1  0.09079333  0.73712556  0.64453346  1
  Al  Al7  1  0.40920667  0.26287444  0.14453346  1
  Al  Al8  1  0.14501850  0.50000812  0.19248737  1
  Al  Al9  1  0.35498150  0.49999188  0.69248737  1
  Al  Al10  1  0.64501850  -0.00000812  0.80751263  1
  Al  Al11  1  0.85498150  0.00000812  0.30751263  1
  P  P12  1  0.91805286  0.69654677  0.36003872  1
  P  P13  1  0.58194714  0.30345323  0.86003872  1
  P  P14  1  0.41805286  0.80345323  0.63996128  1
  P  P15  1  0.08194714  0.19654677  0.13996128  1
  P  P16  1  0.41727372  0.47275458  0.37489904  1
  P  P17  1  0.08272628  0.52724542  0.87489904  1
  P  P18  1  0.91727372  0.02724542  0.62510096  1
  P  P19  1  0.58272628  0.97275458  0.12510096  1
  H  H20  1  0.77930846  0.24476735  0.39437640  1
  H  H21  1  0.72069154  0.75523265  0.89437640  1
  H  H22  1  0.27930846  0.25523265  0.60562360  1
  H  H23  1  0.22069154  0.74476735  0.10562360  1
  H  H24  1  0.65193012  0.16955027  0.30327148  1
  H  H25  1  0.84806988  0.83044973  0.80327148  1
  H  H26  1  0.15193012  0.33044973  0.69672852  1
  H  H27  1  0.34806988  0.66955027  0.19672852  1
  H  H28  1  0.56125703  0.70168878  0.05062561  1
  H  H29  1  0.93874297  0.29831122  0.55062561  1
  H  H30  1  0.06125703  0.79831122  0.94937439  1
  H  H31  1  0.43874297  0.20168878  0.44937439  1
  H  H32  1  0.55221671  0.60355363  0.92523334  1
  H  H33  1  0.94778329  0.39644637  0.42523334  1
  H  H34  1  0.05221671  0.89644637  0.07476666  1
  H  H35  1  0.44778329  0.10355363  0.57476666  1
  H  H36  1  0.69225691  0.95179464  0.49371042  1
  H  H37  1  0.80774309  0.04820536  0.99371042  1
  H  H38  1  0.19225691  0.54820536  0.50628958  1
  H  H39  1  0.30774309  0.45179464  0.00628958  1
  O  O40  1  0.05050113  0.33106786  0.21396734  1
  O  O41  1  0.44949887  0.66893214  0.71396734  1
  O  O42  1  0.55050113  0.16893214  0.78603266  1
  O  O43  1  0.94949887  0.83106786  0.28603266  1
  O  O44  1  0.75403023  0.65979096  0.35906095  1
  O  O45  1  0.74596977  0.34020904  0.85906095  1
  O  O46  1  0.25403023  0.84020904  0.64093905  1
  O  O47  1  0.24596977  0.15979096  0.14093905  1
  O  O48  1  0.53595526  0.29343374  0.01019095  1
  O  O49  1  0.96404474  0.70656626  0.51019095  1
  O  O50  1  0.03595526  0.20656626  0.98980905  1
  O  O51  1  0.46404474  0.79343374  0.48980905  1
  O  O52  1  0.99327651  0.57684017  0.29022312  1
  O  O53  1  0.50672349  0.42315983  0.79022312  1
  O  O54  1  0.49327651  0.92315983  0.70977688  1
  O  O55  1  0.00672349  0.07684017  0.20977688  1
  O  O56  1  0.25147340  0.47983312  0.35643260  1
  O  O57  1  0.24852660  0.52016688  0.85643260  1
  O  O58  1  0.75147340  0.02016688  0.64356740  1
  O  O59  1  0.74852660  0.97983312  0.14356740  1
  O  O60  1  0.47219499  0.33817731  0.30367855  1
  O  O61  1  0.02780501  0.66182269  0.80367855  1
  O  O62  1  0.97219499  0.16182269  0.69632145  1
  O  O63  1  0.52780501  0.83817731  0.19632145  1
  O  O64  1  0.04552136  0.53735059  0.02574033  1
  O  O65  1  0.45447864  0.46264941  0.52574033  1
  O  O66  1  0.54552136  0.96264941  0.97425967  1
  O  O67  1  0.95447864  0.03735059  0.47425967  1
  O  O68  1  0.49186531  0.59689305  0.30652104  1
  O  O69  1  0.00813469  0.40310695  0.80652104  1
  O  O70  1  0.99186531  0.90310695  0.69347896  1
  O  O71  1  0.50813469  0.09689305  0.19347896  1
  O  O72  1  0.69759283  0.91904361  0.39893286  1
  O  O73  1  0.80240717  0.08095639  0.89893286  1
  O  O74  1  0.19759283  0.58095639  0.60106714  1
  O  O75  1  0.30240717  0.41904361  0.10106714  1
  O  O76  1  0.75634483  0.18029884  0.31895250  1
  O  O77  1  0.74365517  0.81970116  0.81895250  1
  O  O78  1  0.25634483  0.31970116  0.68104750  1
  O  O79  1  0.24365517  0.68029884  0.18104750  1
  O  O80  1  0.61955211  0.64300169  0.99119073  1
  O  O81  1  0.88044789  0.35699831  0.49119073  1
  O  O82  1  0.11955211  0.85699831  0.00880927  1
  O  O83  1  0.38044789  0.14300169  0.50880927  1
