# generated using pymatgen
data_PH6N3O
_symmetry_space_group_name_H-M   'P 1'
_cell_length_a   8.56524287
_cell_length_b   8.91969807
_cell_length_c   5.44831413
_cell_angle_alpha   90.00000000
_cell_angle_beta   94.44737972
_cell_angle_gamma   90.00000000
_symmetry_Int_Tables_number   1
_chemical_formula_structural   PH6N3O
_chemical_formula_sum   'P4 H24 N12 O4'
_cell_volume   414.99448900
_cell_formula_units_Z   4
loop_
 _symmetry_equiv_pos_site_id
 _symmetry_equiv_pos_as_xyz
  1  'x, y, z'
loop_
 _atom_site_type_symbol
 _atom_site_label
 _atom_site_symmetry_multiplicity
 _atom_site_fract_x
 _atom_site_fract_y
 _atom_site_fract_z
 _atom_site_occupancy
  P  P0  1  0.25161676  0.47446749  0.66610575  1
  P  P1  1  0.74838324  0.97446749  0.83389425  1
  P  P2  1  0.74838324  0.52553251  0.33389425  1
  P  P3  1  0.25161676  0.02553251  0.16610575  1
  H  H4  1  0.10553471  0.26615090  0.56889243  1
  H  H5  1  0.89446529  0.76615090  0.93110757  1
  H  H6  1  0.89446529  0.73384910  0.43110757  1
  H  H7  1  0.10553471  0.23384910  0.06889243  1
  H  H8  1  0.99746936  0.39652694  0.70124008  1
  H  H9  1  0.00253064  0.89652694  0.79875992  1
  H  H10  1  0.00253064  0.60347306  0.29875992  1
  H  H11  1  0.99746936  0.10347306  0.20124008  1
  H  H12  1  0.40140000  0.29106134  0.86032631  1
  H  H13  1  0.59860000  0.79106134  0.63967369  1
  H  H14  1  0.59860000  0.70893866  0.13967369  1
  H  H15  1  0.40140000  0.20893866  0.36032631  1
  H  H16  1  0.51122479  0.39574130  0.67700463  1
  H  H17  1  0.48877521  0.89574130  0.82299537  1
  H  H18  1  0.48877521  0.60425870  0.32299537  1
  H  H19  1  0.51122479  0.10425870  0.17700463  1
  H  H20  1  0.25401481  0.70422922  0.86727455  1
  H  H21  1  0.74598519  0.20422922  0.63272545  1
  H  H22  1  0.74598519  0.29577078  0.13272545  1
  H  H23  1  0.25401481  0.79577078  0.36727455  1
  H  H24  1  0.23342653  0.55941782  0.06826103  1
  H  H25  1  0.76657347  0.05941782  0.43173897  1
  H  H26  1  0.76657347  0.44058218  0.93173897  1
  H  H27  1  0.23342653  0.94058218  0.56826103  1
  N  N28  1  0.10704935  0.35279204  0.69266443  1
  N  N29  1  0.89295065  0.85279204  0.80733557  1
  N  N30  1  0.89295065  0.64720796  0.30733557  1
  N  N31  1  0.10704935  0.14720796  0.19266443  1
  N  N32  1  0.40157476  0.35512800  0.70372564  1
  N  N33  1  0.59842524  0.85512800  0.79627436  1
  N  N34  1  0.59842524  0.64487200  0.29627436  1
  N  N35  1  0.40157476  0.14487200  0.20372564  1
  N  N36  1  0.22436865  0.59405668  0.88855300  1
  N  N37  1  0.77563135  0.09405668  0.61144700  1
  N  N38  1  0.77563135  0.40594332  0.11144700  1
  N  N39  1  0.22436865  0.90594332  0.38855300  1
  O  O40  1  0.26329572  0.56143647  0.42983920  1
  O  O41  1  0.73670428  0.06143647  0.07016080  1
  O  O42  1  0.73670428  0.43856353  0.57016080  1
  O  O43  1  0.26329572  0.93856353  0.92983920  1
