# generated using pymatgen
data_Na3GeH11O9
_symmetry_space_group_name_H-M   'P 1'
_cell_length_a   11.99340780
_cell_length_b   11.16919229
_cell_length_c   13.20229937
_cell_angle_alpha   90.00000000
_cell_angle_beta   90.00000000
_cell_angle_gamma   90.00000000
_symmetry_Int_Tables_number   1
_chemical_formula_structural   Na3GeH11O9
_chemical_formula_sum   'Na24 Ge8 H88 O72'
_cell_volume   1768.53616465
_cell_formula_units_Z   8
loop_
 _symmetry_equiv_pos_site_id
 _symmetry_equiv_pos_as_xyz
  1  'x, y, z'
loop_
 _atom_site_type_symbol
 _atom_site_label
 _atom_site_symmetry_multiplicity
 _atom_site_fract_x
 _atom_site_fract_y
 _atom_site_fract_z
 _atom_site_occupancy
  Na  Na0  1  0.82636330  0.63327385  0.12856835  1
  Na  Na1  1  0.32636330  0.86672615  0.87143165  1
  Na  Na2  1  0.17363670  0.13327385  0.37143165  1
  Na  Na3  1  0.67363670  0.36672615  0.62856835  1
  Na  Na4  1  0.17363670  0.36672615  0.87143165  1
  Na  Na5  1  0.67363670  0.13327385  0.12856835  1
  Na  Na6  1  0.82636330  0.86672615  0.62856835  1
  Na  Na7  1  0.32636330  0.63327385  0.37143165  1
  Na  Na8  1  0.68218903  0.60714915  0.91691926  1
  Na  Na9  1  0.18218903  0.89285085  0.08308074  1
  Na  Na10  1  0.31781097  0.10714915  0.58308074  1
  Na  Na11  1  0.81781097  0.39285085  0.41691926  1
  Na  Na12  1  0.31781097  0.39285085  0.08308074  1
  Na  Na13  1  0.81781097  0.10714915  0.91691926  1
  Na  Na14  1  0.68218903  0.89285085  0.41691926  1
  Na  Na15  1  0.18218903  0.60714915  0.58308074  1
  Na  Na16  1  0.83648313  0.37550560  0.82177724  1
  Na  Na17  1  0.33648313  0.12449440  0.17822276  1
  Na  Na18  1  0.16351687  0.87550560  0.67822276  1
  Na  Na19  1  0.66351687  0.62449440  0.32177724  1
  Na  Na20  1  0.16351687  0.62449440  0.17822276  1
  Na  Na21  1  0.66351687  0.87550560  0.82177724  1
  Na  Na22  1  0.83648313  0.12449440  0.32177724  1
  Na  Na23  1  0.33648313  0.37550560  0.67822276  1
  Ge  Ge24  1  0.97877977  0.62867883  0.86917903  1
  Ge  Ge25  1  0.47877977  0.87132117  0.13082097  1
  Ge  Ge26  1  0.02122023  0.12867883  0.63082097  1
  Ge  Ge27  1  0.52122023  0.37132117  0.36917903  1
  Ge  Ge28  1  0.02122023  0.37132117  0.13082097  1
  Ge  Ge29  1  0.52122023  0.12867883  0.86917903  1
  Ge  Ge30  1  0.97877977  0.87132117  0.36917903  1
  Ge  Ge31  1  0.47877977  0.62867883  0.63082097  1
  H  H32  1  0.88764227  0.49667957  0.99518461  1
  H  H33  1  0.38764227  0.00332043  0.00481539  1
  H  H34  1  0.11235773  0.99667957  0.50481539  1
  H  H35  1  0.61235773  0.50332043  0.49518461  1
  H  H36  1  0.11235773  0.50332043  0.00481539  1
  H  H37  1  0.61235773  0.99667957  0.99518461  1
  H  H38  1  0.88764227  0.00332043  0.49518461  1
  H  H39  1  0.38764227  0.49667957  0.50481539  1
  H  H40  1  0.91985497  0.50699058  0.27629071  1
  H  H41  1  0.41985497  0.99300942  0.72370929  1
  H  H42  1  0.08014503  0.00699058  0.22370929  1
  H  H43  1  0.58014503  0.49300942  0.77629071  1
  H  H44  1  0.08014503  0.49300942  0.72370929  1
  H  H45  1  0.58014503  0.00699058  0.27629071  1
  H  H46  1  0.91985497  0.99300942  0.77629071  1
  H  H47  1  0.41985497  0.50699058  0.22370929  1
  H  H48  1  0.90319065  0.62638953  0.34325263  1
  H  H49  1  0.40319065  0.87361047  0.65674737  1
  H  H50  1  0.09680935  0.12638953  0.15674737  1
  H  H51  1  0.59680935  0.37361047  0.84325263  1
  H  H52  1  0.09680935  0.37361047  0.65674737  1
  H  H53  1  0.59680935  0.12638953  0.34325263  1
  H  H54  1  0.90319065  0.87361047  0.84325263  1
  H  H55  1  0.40319065  0.62638953  0.15674737  1
  H  H56  1  0.69135767  0.64933814  0.69210648  1
  H  H57  1  0.19135767  0.85066186  0.30789352  1
  H  H58  1  0.30864233  0.14933814  0.80789352  1
  H  H59  1  0.80864233  0.35066186  0.19210648  1
  H  H60  1  0.30864233  0.35066186  0.30789352  1
  H  H61  1  0.80864233  0.14933814  0.69210648  1
  H  H62  1  0.69135767  0.85066186  0.19210648  1
  H  H63  1  0.19135767  0.64933814  0.80789352  1
  H  H64  1  0.81321394  0.66352606  0.74109273  1
  H  H65  1  0.31321394  0.83647394  0.25890727  1
  H  H66  1  0.18678606  0.16352606  0.75890727  1
  H  H67  1  0.68678606  0.33647394  0.24109273  1
  H  H68  1  0.18678606  0.33647394  0.25890727  1
  H  H69  1  0.68678606  0.16352606  0.74109273  1
  H  H70  1  0.81321394  0.83647394  0.24109273  1
  H  H71  1  0.31321394  0.66352606  0.75890727  1
  H  H72  1  0.82743757  0.69870471  0.47179536  1
  H  H73  1  0.32743757  0.80129529  0.52820464  1
  H  H74  1  0.17256243  0.19870471  0.02820464  1
  H  H75  1  0.67256243  0.30129529  0.97179536  1
  H  H76  1  0.17256243  0.30129529  0.52820464  1
  H  H77  1  0.67256243  0.19870471  0.47179536  1
  H  H78  1  0.82743757  0.80129529  0.97179536  1
  H  H79  1  0.32743757  0.69870471  0.02820464  1
  H  H80  1  0.71089879  0.65971783  0.53297800  1
  H  H81  1  0.21089879  0.84028217  0.46702200  1
  H  H82  1  0.28910121  0.15971783  0.96702200  1
  H  H83  1  0.78910121  0.34028217  0.03297800  1
  H  H84  1  0.28910121  0.34028217  0.46702200  1
  H  H85  1  0.78910121  0.15971783  0.53297800  1
  H  H86  1  0.71089879  0.84028217  0.03297800  1
  H  H87  1  0.21089879  0.65971783  0.96702200  1
  H  H88  1  0.99765382  0.76257940  0.03944430  1
  H  H89  1  0.49765382  0.73742060  0.96055570  1
  H  H90  1  0.00234618  0.26257940  0.46055570  1
  H  H91  1  0.50234618  0.23742060  0.53944430  1
  H  H92  1  0.00234618  0.23742060  0.96055570  1
  H  H93  1  0.50234618  0.26257940  0.03944430  1
  H  H94  1  0.99765382  0.73742060  0.53944430  1
  H  H95  1  0.49765382  0.76257940  0.46055570  1
  H  H96  1  0.98423158  0.80513324  0.16034200  1
  H  H97  1  0.48423158  0.69486676  0.83965800  1
  H  H98  1  0.01576842  0.30513324  0.33965800  1
  H  H99  1  0.51576842  0.19486676  0.66034200  1
  H  H100  1  0.01576842  0.19486676  0.83965800  1
  H  H101  1  0.51576842  0.30513324  0.16034200  1
  H  H102  1  0.98423158  0.69486676  0.66034200  1
  H  H103  1  0.48423158  0.80513324  0.33965800  1
  H  H104  1  0.92326912  0.37523604  0.60052773  1
  H  H105  1  0.42326912  0.12476396  0.39947227  1
  H  H106  1  0.07673088  0.87523604  0.89947227  1
  H  H107  1  0.57673088  0.62476396  0.10052773  1
  H  H108  1  0.07673088  0.62476396  0.39947227  1
  H  H109  1  0.57673088  0.87523604  0.60052773  1
  H  H110  1  0.92326912  0.12476396  0.10052773  1
  H  H111  1  0.42326912  0.37523604  0.89947227  1
  H  H112  1  0.88708905  0.50178902  0.64572800  1
  H  H113  1  0.38708905  0.99821098  0.35427200  1
  H  H114  1  0.11291095  0.00178902  0.85427200  1
  H  H115  1  0.61291095  0.49821098  0.14572800  1
  H  H116  1  0.11291095  0.49821098  0.35427200  1
  H  H117  1  0.61291095  0.00178902  0.64572800  1
  H  H118  1  0.88708905  0.99821098  0.14572800  1
  H  H119  1  0.38708905  0.50178902  0.85427200  1
  O  O120  1  0.86847854  0.54160805  0.93021063  1
  O  O121  1  0.36847854  0.95839195  0.06978937  1
  O  O122  1  0.13152146  0.04160805  0.56978937  1
  O  O123  1  0.63152146  0.45839195  0.43021063  1
  O  O124  1  0.13152146  0.45839195  0.06978937  1
  O  O125  1  0.63152146  0.04160805  0.93021063  1
  O  O126  1  0.86847854  0.95839195  0.43021063  1
  O  O127  1  0.36847854  0.54160805  0.56978937  1
  O  O128  1  0.96582483  0.77932854  0.91102489  1
  O  O129  1  0.46582483  0.72067146  0.08897511  1
  O  O130  1  0.03417517  0.27932854  0.58897511  1
  O  O131  1  0.53417517  0.22067146  0.41102489  1
  O  O132  1  0.03417517  0.22067146  0.08897511  1
  O  O133  1  0.53417517  0.27932854  0.91102489  1
  O  O134  1  0.96582483  0.72067146  0.41102489  1
  O  O135  1  0.46582483  0.77932854  0.58897511  1
  O  O136  1  0.11183441  0.57103890  0.89747882  1
  O  O137  1  0.61183441  0.92896110  0.10252118  1
  O  O138  1  0.88816559  0.07103890  0.60252118  1
  O  O139  1  0.38816559  0.42896110  0.39747882  1
  O  O140  1  0.88816559  0.42896110  0.10252118  1
  O  O141  1  0.38816559  0.07103890  0.89747882  1
  O  O142  1  0.11183441  0.92896110  0.39747882  1
  O  O143  1  0.61183441  0.57103890  0.60252118  1
  O  O144  1  0.94345758  0.60321128  0.74034688  1
  O  O145  1  0.44345758  0.89678872  0.25965312  1
  O  O146  1  0.05654242  0.10321128  0.75965312  1
  O  O147  1  0.55654242  0.39678872  0.24034688  1
  O  O148  1  0.05654242  0.39678872  0.25965312  1
  O  O149  1  0.55654242  0.10321128  0.74034688  1
  O  O150  1  0.94345758  0.89678872  0.24034688  1
  O  O151  1  0.44345758  0.60321128  0.75965312  1
  O  O152  1  0.86167960  0.55892356  0.30592561  1
  O  O153  1  0.36167960  0.94107644  0.69407439  1
  O  O154  1  0.13832040  0.05892356  0.19407439  1
  O  O155  1  0.63832040  0.44107644  0.80592561  1
  O  O156  1  0.13832040  0.44107644  0.69407439  1
  O  O157  1  0.63832040  0.05892356  0.30592561  1
  O  O158  1  0.86167960  0.94107644  0.80592561  1
  O  O159  1  0.36167960  0.55892356  0.19407439  1
  O  O160  1  0.73591032  0.69946287  0.74096246  1
  O  O161  1  0.23591032  0.80053713  0.25903754  1
  O  O162  1  0.26408968  0.19946287  0.75903754  1
  O  O163  1  0.76408968  0.30053713  0.24096246  1
  O  O164  1  0.26408968  0.30053713  0.25903754  1
  O  O165  1  0.76408968  0.19946287  0.74096246  1
  O  O166  1  0.73591032  0.80053713  0.24096246  1
  O  O167  1  0.23591032  0.69946287  0.75903754  1
  O  O168  1  0.75054981  0.72153656  0.49185130  1
  O  O169  1  0.25054981  0.77846344  0.50814870  1
  O  O170  1  0.24945019  0.22153656  0.00814870  1
  O  O171  1  0.74945019  0.27846344  0.99185130  1
  O  O172  1  0.24945019  0.27846344  0.50814870  1
  O  O173  1  0.74945019  0.22153656  0.49185130  1
  O  O174  1  0.75054981  0.77846344  0.99185130  1
  O  O175  1  0.25054981  0.72153656  0.00814870  1
  O  O176  1  0.01381067  0.74041442  0.11162873  1
  O  O177  1  0.51381067  0.75958558  0.88837127  1
  O  O178  1  0.98618933  0.24041442  0.38837127  1
  O  O179  1  0.48618933  0.25958558  0.61162873  1
  O  O180  1  0.98618933  0.25958558  0.88837127  1
  O  O181  1  0.48618933  0.24041442  0.11162873  1
  O  O182  1  0.01381067  0.75958558  0.61162873  1
  O  O183  1  0.51381067  0.74041442  0.38837127  1
  O  O184  1  0.85927637  0.43343904  0.60407648  1
  O  O185  1  0.35927637  0.06656096  0.39592352  1
  O  O186  1  0.14072363  0.93343904  0.89592352  1
  O  O187  1  0.64072363  0.56656096  0.10407648  1
  O  O188  1  0.14072363  0.56656096  0.39592352  1
  O  O189  1  0.64072363  0.93343904  0.60407648  1
  O  O190  1  0.85927637  0.06656096  0.10407648  1
  O  O191  1  0.35927637  0.43343904  0.89592352  1
