# generated using pymatgen
data_Li9Mn15O32
_symmetry_space_group_name_H-M   'P 1'
_cell_length_a   5.87102233
_cell_length_b   23.63197166
_cell_length_c   10.28485224
_cell_angle_alpha   29.93486457
_cell_angle_beta   55.12530514
_cell_angle_gamma   60.57426271
_symmetry_Int_Tables_number   1
_chemical_formula_structural   Li9Mn15O32
_chemical_formula_sum   'Li9 Mn15 O32'
_cell_volume   584.15830930
_cell_formula_units_Z   1
loop_
 _symmetry_equiv_pos_site_id
 _symmetry_equiv_pos_as_xyz
  1  'x, y, z'
loop_
 _atom_site_type_symbol
 _atom_site_label
 _atom_site_symmetry_multiplicity
 _atom_site_fract_x
 _atom_site_fract_y
 _atom_site_fract_z
 _atom_site_occupancy
  Li  Li0  1  0.12563431  0.24401846  0.14223909  1
  Li  Li1  1  0.13634601  0.50338241  0.11074707  1
  Li  Li2  1  0.49765247  0.12770929  0.99920264  1
  Li  Li3  1  0.11221304  0.74643183  0.13089971  1
  Li  Li4  1  0.88574096  0.25511153  0.85680072  1
  Li  Li5  1  0.50264043  0.74724133  0.50269531  1
  Li  Li6  1  0.86163496  0.50712426  0.86302618  1
  Li  Li7  1  0.88359861  0.74837397  0.87892791  1
  Li  Li8  1  0.87845238  0.00140739  0.87436842  1
  Mn  Mn9  1  0.99260096  0.25087994  0.50684655  1
  Mn  Mn10  1  0.50906428  0.12511585  0.49869026  1
  Mn  Mn11  1  0.50335278  0.25032584  0.50538415  1
  Mn  Mn12  1  0.99688587  0.50123638  0.49487020  1
  Mn  Mn13  1  0.50901492  0.37533564  0.49574226  1
  Mn  Mn14  1  0.99645741  0.74972926  0.49949120  1
  Mn  Mn15  1  0.49665598  0.50225304  0.49406780  1
  Mn  Mn16  1  0.48318514  0.62800037  0.49594983  1
  Mn  Mn17  1  0.48860333  0.37791856  0.00112839  1
  Mn  Mn18  1  0.11962377  0.99367437  0.14214598  1
  Mn  Mn19  1  0.00698493  0.99685974  0.50413310  1
  Mn  Mn20  1  0.50208342  0.86962094  0.51047416  1
  Mn  Mn21  1  0.50944778  0.62513203  0.99187369  1
  Mn  Mn22  1  0.49994650  0.99887212  0.50104474  1
  Mn  Mn23  1  0.50153749  0.87243080  0.00267443  1
  O  O24  1  0.25158320  0.10224906  0.29614415  1
  O  O25  1  0.26118316  0.24896723  0.27383771  1
  O  O26  1  0.76561723  0.10447273  0.28244551  1
  O  O27  1  0.24069251  0.14285842  0.72592201  1
  O  O28  1  0.26553773  0.36042076  0.27032642  1
  O  O29  1  0.71412838  0.24167037  0.29121522  1
  O  O30  1  0.29403680  0.26341481  0.70444668  1
  O  O31  1  0.29451230  0.50107109  0.24253940  1
  O  O32  1  0.74621718  0.14463209  0.71805475  1
  O  O33  1  0.74616480  0.36342640  0.28556580  1
  O  O34  1  0.27818777  0.38522971  0.70714553  1
  O  O35  1  0.26775940  0.60985191  0.26045640  1
  O  O36  1  0.75114592  0.26336854  0.70494290  1
  O  O37  1  0.71493791  0.50284662  0.25949418  1
  O  O38  1  0.27143457  0.51003856  0.70551366  1
  O  O39  1  0.24860586  0.75307297  0.25870021  1
  O  O40  1  0.71755380  0.61535361  0.28506825  1
  O  O41  1  0.24729307  0.63563872  0.70336387  1
  O  O42  1  0.72951398  0.39319847  0.72719363  1
  O  O43  1  0.26420459  0.86568086  0.24300603  1
  O  O44  1  0.70151219  0.50762399  0.73600220  1
  O  O45  1  0.70683499  0.74960430  0.24582383  1
  O  O46  1  0.29025769  0.74502638  0.76141692  1
  O  O47  1  0.25183776  0.98369454  0.30354160  1
  O  O48  1  0.74446061  0.63619210  0.74767429  1
  O  O49  1  0.74444607  0.86794354  0.29060280  1
  O  O50  1  0.26180416  0.88576963  0.71778432  1
  O  O51  1  0.74988866  0.74874634  0.73513068  1
  O  O52  1  0.70565544  0.98909137  0.29560742  1
  O  O53  1  0.29852134  0.99972960  0.73273995  1
  O  O54  1  0.73146067  0.88638438  0.74176413  1
  O  O55  1  0.74365250  0.99454552  0.74310575  1
