# generated using pymatgen
data_La2(WO3)19
_symmetry_space_group_name_H-M   'P 1'
_cell_length_a   73.85175060
_cell_length_b   16.02637890
_cell_length_c   8.69151964
_cell_angle_alpha   29.80175496
_cell_angle_beta   26.56001264
_cell_angle_gamma   14.03271182
_symmetry_Int_Tables_number   1
_chemical_formula_structural   La2(WO3)19
_chemical_formula_sum   'La2 W19 O57'
_cell_volume   1115.31863991
_cell_formula_units_Z   1
loop_
 _symmetry_equiv_pos_site_id
 _symmetry_equiv_pos_as_xyz
  1  'x, y, z'
loop_
 _atom_site_type_symbol
 _atom_site_label
 _atom_site_symmetry_multiplicity
 _atom_site_fract_x
 _atom_site_fract_y
 _atom_site_fract_z
 _atom_site_occupancy
  La  La0  1  0.47305646  0.00202845  0.00073956  1
  La  La1  1  0.94799594  0.99797123  0.99925814  1
  W  W2  1  0.02865956  0.48817458  0.50590962  1
  W  W3  1  0.08179862  0.49213076  0.48736246  1
  W  W4  1  0.13457294  0.49556904  0.48820395  1
  W  W5  1  0.18452511  0.50025202  0.49948139  1
  W  W6  1  0.23652068  0.49976997  0.50051880  1
  W  W7  1  0.28648358  0.50441925  0.51179729  1
  W  W8  1  0.33925748  0.50786008  0.51263860  1
  W  W9  1  0.39238796  0.51185226  0.49409547  1
  W  W10  1  0.44560548  0.51219825  0.49559967  1
  W  W11  1  0.50175398  0.48746694  0.50541045  1
  W  W12  1  0.55385645  0.49241693  0.50790153  1
  W  W13  1  0.60754378  0.49420920  0.48802052  1
  W  W14  1  0.66012028  0.49575178  0.49353015  1
  W  W15  1  0.71052713  0.50000155  0.49999730  1
  W  W16  1  0.76092900  0.50425749  0.50649753  1
  W  W17  1  0.81349755  0.50584043  0.51200500  1
  W  W18  1  0.86719326  0.50760038  0.49211153  1
  W  W19  1  0.91930211  0.51252239  0.49458596  1
  W  W20  1  0.97544385  0.48781891  0.50441297  1
  O  O21  1  0.02423586  0.51354833  0.99945027  1
  O  O22  1  0.99877444  0.51248545  0.48678170  1
  O  O23  1  0.07529691  0.51387247  0.00009961  1
  O  O24  1  0.05290188  0.49916633  0.49972140  1
  O  O25  1  0.13172236  0.49900521  0.00019883  1
  O  O26  1  0.10096183  0.51394011  0.51348070  1
  O  O27  1  0.18441588  0.49911962  0.00026394  1
  O  O28  1  0.02395104  0.00105906  0.51329811  1
  O  O29  1  0.15814614  0.49958756  0.49895504  1
  O  O30  1  0.07866594  0.00064649  0.50101201  1
  O  O31  1  0.23664312  0.50085376  -0.00027216  1
  O  O32  1  0.21052830  0.49999490  0.49999363  1
  O  O33  1  0.28933553  0.50097563  -0.00021115  1
  O  O34  1  0.13132147  0.00085414  0.50093456  1
  O  O35  1  0.26291503  0.50037872  0.50102769  1
  O  O36  1  0.34575957  0.48611431  -0.00010449  1
  O  O37  1  0.18435536  0.99938884  0.49949334  1
  O  O38  1  0.32010024  0.48602742  0.48649168  1
  O  O39  1  0.39682100  0.48642606  0.00054610  1
  O  O40  1  0.23670234  0.00059070  0.50048692  1
  O  O41  1  0.36816020  0.50079357  0.50026782  1
  O  O42  1  0.28973108  0.99914779  0.49906789  1
  O  O43  1  0.44737324  0.49967847  0.99992434  1
  O  O44  1  0.42228352  0.48748455  0.51322924  1
  O  O45  1  0.49995574  0.50033345  0.00053706  1
  O  O46  1  0.34238569  -0.00064695  0.49898912  1
  O  O47  1  0.47367694  0.49993257  0.50020047  1
  O  O48  1  0.55054076  0.51326943  -0.00000046  1
  O  O49  1  0.39710867  0.99892420  0.48667218  1
  O  O50  1  0.52508924  0.51266060  0.48662322  1
  O  O51  1  0.44808050  0.99950764  0.48740357  1
  O  O52  1  0.60179812  0.51298709  0.00062085  1
  O  O53  1  0.57923426  0.49894949  0.49959469  1
  O  O54  1  0.49920599  0.00075771  0.51315102  1
  O  O55  1  0.65804988  0.49908035  -0.00005392  1
  O  O56  1  0.62747815  0.51290424  0.51364876  1
  O  O57  1  0.71052178  0.50001461  0.00000984  1
  O  O58  1  0.55037723  0.00080841  0.51287921  1
  O  O59  1  0.68436919  0.49953288  0.49925344  1
  O  O60  1  0.76299894  0.50093719  0.00005781  1
  O  O61  1  0.60506525  0.00040072  0.50076586  1
  O  O62  1  0.73667719  0.50048895  0.50076049  1
  O  O63  1  0.81924957  0.48701946  0.99939042  1
  O  O64  1  0.65776576  0.99958911  0.50182563  1
  O  O65  1  0.79357089  0.48711144  0.48635950  1
  O  O66  1  0.87051011  0.48673859  0.00000148  1
  O  O67  1  0.71052236  0.00001527  0.50000930  1
  O  O68  1  0.84180892  0.50108867  0.50041746  1
  O  O69  1  0.92109457  0.49966302  0.99947060  1
  O  O70  1  0.76328419  0.00042594  0.49817729  1
  O  O71  1  0.89596320  0.48734539  0.51336433  1
  O  O72  1  0.97368296  0.50030952  0.00007070  1
  O  O73  1  0.81598751  -0.00040240  0.49921972  1
  O  O74  1  0.94737584  0.50006993  0.49978433  1
  O  O75  1  0.87067119  0.99919914  0.48712856  1
  O  O76  1  0.92184522  0.99924790  0.48686650  1
  O  O77  1  0.97297267  0.00048508  0.51258606  1
