# generated using pymatgen
data_Ca2Fe2Si5HO15
_symmetry_space_group_name_H-M   'P 1'
_cell_length_a   7.57843095
_cell_length_b   12.32518051
_cell_length_c   6.77975329
_cell_angle_alpha   85.89329444
_cell_angle_beta   93.76134656
_cell_angle_gamma   112.15654277
_symmetry_Int_Tables_number   1
_chemical_formula_structural   Ca2Fe2Si5HO15
_chemical_formula_sum   'Ca4 Fe4 Si10 H2 O30'
_cell_volume   584.48746949
_cell_formula_units_Z   2
loop_
 _symmetry_equiv_pos_site_id
 _symmetry_equiv_pos_as_xyz
  1  'x, y, z'
loop_
 _atom_site_type_symbol
 _atom_site_label
 _atom_site_symmetry_multiplicity
 _atom_site_fract_x
 _atom_site_fract_y
 _atom_site_fract_z
 _atom_site_occupancy
  Ca  Ca0  1  0.83894810  0.05823255  0.14165752  1
  Ca  Ca1  1  0.16105190  0.94176745  0.85834248  1
  Ca  Ca2  1  0.71630662  0.47862910  0.30007612  1
  Ca  Ca3  1  0.28369338  0.52137090  0.69992388  1
  Fe  Fe4  1  0.94896978  0.35586812  0.06364997  1
  Fe  Fe5  1  0.05103022  0.64413188  0.93635003  1
  Fe  Fe6  1  0.81067030  0.76507467  0.18349830  1
  Fe  Fe7  1  0.18932970  0.23492533  0.81650170  1
  Si  Si8  1  0.23371659  0.94698501  0.34053404  1
  Si  Si9  1  0.76628341  0.05301499  0.65946596  1
  Si  Si10  1  0.14784358  0.68643479  0.42561851  1
  Si  Si11  1  0.85215642  0.31356521  0.57438149  1
  Si  Si12  1  0.36058672  0.55376442  0.20980928  1
  Si  Si13  1  0.63941328  0.44623558  0.79019072  1
  Si  Si14  1  0.27336014  0.28553369  0.30955276  1
  Si  Si15  1  0.72663986  0.71446631  0.69044724  1
  Si  Si16  1  0.49135936  0.16449302  0.10661644  1
  Si  Si17  1  0.50864064  0.83550698  0.89338356  1
  H  H18  1  0.78930578  0.90444477  0.47767149  1
  H  H19  1  0.21069422  0.09555523  0.52232851  1
  O  O20  1  0.21030232  0.01229215  0.53400709  1
  O  O21  1  0.78969768  0.98770785  0.46599291  1
  O  O22  1  0.05003677  0.91966287  0.18356362  1
  O  O23  1  0.94996323  0.08033713  0.81643638  1
  O  O24  1  0.26203906  0.82864784  0.43342448  1
  O  O25  1  0.73796094  0.17135216  0.56657552  1
  O  O26  1  0.97858384  0.66034716  0.24716845  1
  O  O27  1  0.02141616  0.33965284  0.75283155  1
  O  O28  1  0.92733623  0.37935916  0.36225645  1
  O  O29  1  0.07266377  0.62064084  0.63774355  1
  O  O30  1  0.30520418  0.62792489  0.37378775  1
  O  O31  1  0.69479582  0.37207511  0.62621225  1
  O  O32  1  0.58437563  0.61477241  0.15886266  1
  O  O33  1  0.41562437  0.38522759  0.84113734  1
  O  O34  1  0.20336164  0.52503617  0.02874138  1
  O  O35  1  0.79663836  0.47496383  0.97125862  1
  O  O36  1  0.35527284  0.43007995  0.33855224  1
  O  O37  1  0.64472716  0.56992005  0.66144776  1
  O  O38  1  0.11553249  0.24398756  0.12572720  1
  O  O39  1  0.88446751  0.75601244  0.87427280  1
  O  O40  1  0.79955412  0.78055615  0.47879238  1
  O  O41  1  0.20044588  0.21944385  0.52120762  1
  O  O42  1  0.46682513  0.26353329  0.24898956  1
  O  O43  1  0.53317487  0.73646671  0.75101044  1
  O  O44  1  0.71046379  0.19999883  0.05765727  1
  O  O45  1  0.28953621  0.80000117  0.94234273  1
  O  O46  1  0.66326285  0.85782550  0.08160342  1
  O  O47  1  0.33673715  0.14217450  0.91839658  1
  O  O48  1  0.42680049  0.03271773  0.22723125  1
  O  O49  1  0.57319951  0.96728227  0.77276875  1
