# generated using pymatgen
data_FeP4O11
_symmetry_space_group_name_H-M   'P 1'
_cell_length_a   9.31529247
_cell_length_b   9.36464486
_cell_length_c   10.82460021
_cell_angle_alpha   70.91156320
_cell_angle_beta   108.22854943
_cell_angle_gamma   89.22563783
_symmetry_Int_Tables_number   1
_chemical_formula_structural   FeP4O11
_chemical_formula_sum   'Fe4 P16 O44'
_cell_volume   840.49007763
_cell_formula_units_Z   4
loop_
 _symmetry_equiv_pos_site_id
 _symmetry_equiv_pos_as_xyz
  1  'x, y, z'
loop_
 _atom_site_type_symbol
 _atom_site_label
 _atom_site_symmetry_multiplicity
 _atom_site_fract_x
 _atom_site_fract_y
 _atom_site_fract_z
 _atom_site_occupancy
  Fe  Fe0  1  0.77218756  0.76973129  0.49901256  1
  Fe  Fe1  1  0.22781244  0.23026871  0.50098744  1
  Fe  Fe2  1  0.25590762  0.72112425  0.02039258  1
  Fe  Fe3  1  0.74409238  0.27887575  0.97960742  1
  P  P4  1  0.41455425  0.39064627  0.28482602  1
  P  P5  1  0.58544575  0.60935373  0.71517398  1
  P  P6  1  0.91031333  0.94605298  0.24637888  1
  P  P7  1  0.08968667  0.05394702  0.75362112  1
  P  P8  1  0.23666186  0.92392093  0.38827453  1
  P  P9  1  0.76333814  0.07607907  0.61172547  1
  P  P10  1  0.44033507  0.91253917  0.22820924  1
  P  P11  1  0.55966493  0.08746083  0.77179076  1
  P  P12  1  0.90361136  0.72725711  0.08879076  1
  P  P13  1  0.09638864  0.27274289  0.91120924  1
  P  P14  1  0.43172511  0.25024504  0.07359086  1
  P  P15  1  0.56827489  0.74975496  0.92640914  1
  P  P16  1  0.73710963  0.41439943  0.44268044  1
  P  P17  1  0.26289037  0.58560057  0.55731956  1
  P  P18  1  0.90232515  0.40425140  0.24030513  1
  P  P19  1  0.09767485  0.59574860  0.75969487  1
  O  O20  1  0.05374389  0.31003358  0.30598664  1
  O  O21  1  0.94625611  0.68996642  0.69401336  1
  O  O22  1  0.18769198  0.90470872  0.82004054  1
  O  O23  1  0.81230802  0.09529128  0.17995946  1
  O  O24  1  0.70631616  0.48051758  0.80843764  1
  O  O25  1  0.29368384  0.51948242  0.19156236  1
  O  O26  1  0.18316516  0.63987466  0.64451975  1
  O  O27  1  0.81683484  0.36012534  0.35548025  1
  O  O28  1  0.63241643  0.02748508  0.67434836  1
  O  O29  1  0.36758357  0.97251492  0.32565164  1
  O  O30  1  0.08170859  0.16673987  0.61632751  1
  O  O31  1  0.91829141  0.83326013  0.38367249  1
  O  O32  1  0.26107352  0.74104815  0.43678759  1
  O  O33  1  0.73892648  0.25895185  0.56321241  1
  O  O34  1  0.41250648  0.18601485  0.68614184  1
  O  O35  1  0.58749352  0.81398515  0.31385816  1
  O  O36  1  0.68474885  0.13716287  0.86717399  1
  O  O37  1  0.31525115  0.86283713  0.13282601  1
  O  O38  1  0.80311773  0.53098856  0.49918226  1
  O  O39  1  0.19688227  0.46901144  0.50081774  1
  O  O40  1  0.08760702  0.97126173  0.25445259  1
  O  O41  1  0.91239298  0.02873827  0.74554741  1
  O  O42  1  0.75000798  0.72927753  0.96803740  1
  O  O43  1  0.24999202  0.27072247  0.03196260  1
  O  O44  1  0.48479145  0.31255635  0.19664688  1
  O  O45  1  0.51520855  0.68744365  0.80335312  1
  O  O46  1  0.08278688  0.41483714  0.77742552  1
  O  O47  1  0.91721312  0.58516286  0.22257448  1
  O  O48  1  0.20682989  0.59164966  0.89513146  1
  O  O49  1  0.79317011  0.40835034  0.10486854  1
  O  O50  1  0.38961455  0.26428805  0.39960224  1
  O  O51  1  0.61038545  0.73571195  0.60039776  1
  O  O52  1  0.96965538  0.26301853  0.96581146  1
  O  O53  1  0.03034462  0.73698147  0.03418854  1
  O  O54  1  0.43545694  0.53441580  0.65063217  1
  O  O55  1  0.56454306  0.46558420  0.34936783  1
  O  O56  1  0.50583125  0.68145270  0.03919735  1
  O  O57  1  0.49416875  0.31854730  0.96080265  1
  O  O58  1  0.48202305  0.07347717  0.14010859  1
  O  O59  1  0.51797695  0.92652283  0.85989141  1
  O  O60  1  0.86459442  0.86629074  0.12774099  1
  O  O61  1  0.13540558  0.13370926  0.87225901  1
  O  O62  1  0.23825359  0.98708157  0.49673835  1
  O  O63  1  0.76174641  0.01291843  0.50326165  1
