# generated using pymatgen
data_Li8(FeO2)5
_symmetry_space_group_name_H-M   'P 1'
_cell_length_a   3.61458385
_cell_length_b   5.45234276
_cell_length_c   14.02884189
_cell_angle_alpha   91.55705581
_cell_angle_beta   82.60362412
_cell_angle_gamma   70.64640651
_symmetry_Int_Tables_number   1
_chemical_formula_structural   Li8(FeO2)5
_chemical_formula_sum   'Li8 Fe5 O10'
_cell_volume   257.96417602
_cell_formula_units_Z   1
loop_
 _symmetry_equiv_pos_site_id
 _symmetry_equiv_pos_as_xyz
  1  'x, y, z'
loop_
 _atom_site_type_symbol
 _atom_site_label
 _atom_site_symmetry_multiplicity
 _atom_site_fract_x
 _atom_site_fract_y
 _atom_site_fract_z
 _atom_site_occupancy
  Li  Li0  1  0.32127709  0.89309820  0.46451503  1
  Li  Li1  1  0.87703396  0.90773701  0.33828624  1
  Li  Li2  1  0.53184322  0.69226192  0.24408801  1
  Li  Li3  1  0.70154681  0.52421475  0.07271087  1
  Li  Li4  1  0.26747656  0.51722562  0.94767027  1
  Li  Li5  1  0.48778057  0.28883276  0.73510586  1
  Li  Li6  1  0.93311139  0.27999848  0.85346743  1
  Li  Li7  1  0.66884110  0.10489066  0.55768717  1
  Fe  Fe8  1  0.70085733  0.79767982  0.80035255  1
  Fe  Fe9  1  0.09821611  0.40176202  0.40178104  1
  Fe  Fe10  1  0.90420633  0.59027873  0.60132874  1
  Fe  Fe11  1  0.49796587  0.00314264  0.00108715  1
  Fe  Fe12  1  0.29734507  0.20790920  0.19753811  1
  O  O13  1  0.49489498  0.88013004  0.13090149  1
  O  O14  1  0.69230330  0.93353574  0.68167181  1
  O  O15  1  0.09683898  0.53629120  0.26996032  1
  O  O16  1  0.88243895  0.76373813  0.47146682  1
  O  O17  1  0.28361425  0.35739188  0.07530444  1
  O  O18  1  0.71483990  0.64485639  0.92536968  1
  O  O19  1  0.11382995  0.24549467  0.52715272  1
  O  O20  1  0.89958756  0.46313642  0.73729287  1
  O  O21  1  0.31721279  0.04699415  0.31868905  1
  O  O22  1  0.49438492  0.14182258  0.86902932  1
