# generated using pymatgen
data_K2MnH4(SO5)2
_symmetry_space_group_name_H-M   'P 1'
_cell_length_a   6.61585080
_cell_length_b   7.44206930
_cell_length_c   10.84026766
_cell_angle_alpha   72.82861474
_cell_angle_beta   73.84513668
_cell_angle_gamma   69.79230165
_symmetry_Int_Tables_number   1
_chemical_formula_structural   K2MnH4(SO5)2
_chemical_formula_sum   'K4 Mn2 H8 S4 O20'
_cell_volume   469.21125946
_cell_formula_units_Z   2
loop_
 _symmetry_equiv_pos_site_id
 _symmetry_equiv_pos_as_xyz
  1  'x, y, z'
loop_
 _atom_site_type_symbol
 _atom_site_label
 _atom_site_symmetry_multiplicity
 _atom_site_fract_x
 _atom_site_fract_y
 _atom_site_fract_z
 _atom_site_occupancy
  K  K0  1  0.78917110  0.74927755  0.39995639  1
  K  K1  1  0.21082890  0.25072245  0.60004361  1
  K  K2  1  0.73543199  0.26559837  0.07382188  1
  K  K3  1  0.26456801  0.73440163  0.92617812  1
  Mn  Mn4  1  0.75424268  0.97280930  0.75122259  1
  Mn  Mn5  1  0.24575732  0.02719070  0.24877741  1
  H  H6  1  0.73086982  0.34044690  0.64266779  1
  H  H7  1  0.26913018  0.65955310  0.35733221  1
  H  H8  1  0.64443288  0.31918461  0.79769312  1
  H  H9  1  0.35556712  0.68081539  0.20230688  1
  H  H10  1  0.64316720  0.67718536  0.70504518  1
  H  H11  1  0.35683280  0.32281464  0.29495482  1
  H  H12  1  0.84089193  0.57715967  0.78556514  1
  H  H13  1  0.15910807  0.42284033  0.21443486  1
  S  S14  1  0.73220125  0.77244033  0.08463654  1
  S  S15  1  0.26779875  0.22755967  0.91536346  1
  S  S16  1  0.74446932  0.22454603  0.42482272  1
  S  S17  1  0.25553068  0.77545397  0.57517728  1
  O  O18  1  0.92634391  0.63249550  0.13685207  1
  O  O19  1  0.07365609  0.36750450  0.86314793  1
  O  O20  1  0.58521835  0.66841737  0.07243435  1
  O  O21  1  0.41478165  0.33158263  0.92756565  1
  O  O22  1  0.81021776  0.89382452  0.95302315  1
  O  O23  1  0.18978224  0.10617548  0.04697685  1
  O  O24  1  0.60648336  0.91066585  0.17605987  1
  O  O25  1  0.39351664  0.08933415  0.82394013  1
  O  O26  1  0.85685683  0.34178200  0.45625044  1
  O  O27  1  0.14314317  0.65821800  0.54374956  1
  O  O28  1  0.53804769  0.35081296  0.37928706  1
  O  O29  1  0.46195231  0.64918704  0.62071294  1
  O  O30  1  0.69032197  0.07104995  0.54512414  1
  O  O31  1  0.30967803  0.92895005  0.45487586  1
  O  O32  1  0.89098897  0.12003763  0.31762698  1
  O  O33  1  0.10901103  0.87996237  0.68237302  1
  O  O34  1  0.77238633  0.27159749  0.72894612  1
  O  O35  1  0.22761367  0.72840251  0.27105388  1
  O  O36  1  0.70903947  0.68822761  0.77361154  1
  O  O37  1  0.29096053  0.31177239  0.22638846  1
