# generated using pymatgen
data_MnTlH2OF4
_symmetry_space_group_name_H-M   'P 1'
_cell_length_a   7.69699508
_cell_length_b   7.69699508
_cell_length_c   10.75447896
_cell_angle_alpha   77.99378636
_cell_angle_beta   102.00621364
_cell_angle_gamma   128.16504487
_symmetry_Int_Tables_number   1
_chemical_formula_structural   MnTlH2OF4
_chemical_formula_sum   'Mn4 Tl4 H8 O4 F16'
_cell_volume   487.35593974
_cell_formula_units_Z   4
loop_
 _symmetry_equiv_pos_site_id
 _symmetry_equiv_pos_as_xyz
  1  'x, y, z'
loop_
 _atom_site_type_symbol
 _atom_site_label
 _atom_site_symmetry_multiplicity
 _atom_site_fract_x
 _atom_site_fract_y
 _atom_site_fract_z
 _atom_site_occupancy
  Mn  Mn0  1  0.00000000  0.50000000  0.00000000  1
  Mn  Mn1  1  0.50000000  0.00000000  0.50000000  1
  Mn  Mn2  1  0.75710982  0.75710982  0.75000000  1
  Mn  Mn3  1  0.24289018  0.24289018  0.25000000  1
  Tl  Tl4  1  0.34463672  0.17971962  0.93703576  1
  Tl  Tl5  1  0.17971962  0.34463672  0.56296424  1
  Tl  Tl6  1  0.65536328  0.82028038  0.06296424  1
  Tl  Tl7  1  0.82028038  0.65536328  0.43703576  1
  H  H8  1  0.91217938  0.27268433  0.79569429  1
  H  H9  1  0.27268433  0.91217938  0.70430571  1
  H  H10  1  0.08782062  0.72731567  0.20430571  1
  H  H11  1  0.72731567  0.08782062  0.29569429  1
  H  H12  1  0.82542614  0.41634925  0.74732539  1
  H  H13  1  0.41634925  0.82542614  0.75267461  1
  H  H14  1  0.17457386  0.58365075  0.25267461  1
  H  H15  1  0.58365075  0.17457386  0.24732539  1
  O  O16  1  0.95011086  0.42083228  0.79831481  1
  O  O17  1  0.42083228  0.95011086  0.70168519  1
  O  O18  1  0.04988914  0.57916772  0.20168519  1
  O  O19  1  0.57916772  0.04988914  0.29831481  1
  F  F20  1  0.85191788  0.63710542  0.93734813  1
  F  F21  1  0.63710542  0.85191788  0.56265187  1
  F  F22  1  0.14808212  0.36289458  0.06265187  1
  F  F23  1  0.36289458  0.14808212  0.43734813  1
  F  F24  1  0.27223995  0.77321185  0.96671446  1
  F  F25  1  0.77321185  0.27223995  0.53328554  1
  F  F26  1  0.72776005  0.22678815  0.03328554  1
  F  F27  1  0.22678815  0.72776005  0.46671446  1
  F  F28  1  0.02596409  0.88413409  0.68491727  1
  F  F29  1  0.88413409  0.02596409  0.81508273  1
  F  F30  1  0.97403591  0.11586591  0.31508273  1
  F  F31  1  0.11586591  0.97403591  0.18491727  1
  F  F32  1  0.63310100  0.48617914  0.68872508  1
  F  F33  1  0.48617914  0.63310100  0.81127492  1
  F  F34  1  0.36689900  0.51382086  0.31127492  1
  F  F35  1  0.51382086  0.36689900  0.18872508  1
