# generated using pymatgen
data_KBaCr2(PO4)3
_symmetry_space_group_name_H-M   'P 1'
_cell_length_a   9.94202148
_cell_length_b   9.94478900
_cell_length_c   19.88968901
_cell_angle_alpha   90.00000000
_cell_angle_beta   89.92930200
_cell_angle_gamma   90.00000000
_symmetry_Int_Tables_number   1
_chemical_formula_structural   KBaCr2(PO4)3
_chemical_formula_sum   'K8 Ba8 Cr16 P24 O96'
_cell_volume   1966.51802832
_cell_formula_units_Z   8
loop_
 _symmetry_equiv_pos_site_id
 _symmetry_equiv_pos_as_xyz
  1  'x, y, z'
loop_
 _atom_site_type_symbol
 _atom_site_label
 _atom_site_symmetry_multiplicity
 _atom_site_fract_x
 _atom_site_fract_y
 _atom_site_fract_z
 _atom_site_occupancy
  K  K0  1  0.06690266  0.06678487  0.53334519  1
  K  K1  1  0.29857648  0.29624123  0.14824675  1
  K  K2  1  0.43368757  0.93411238  0.28273234  1
  K  K3  1  0.43364758  0.93289459  0.78347413  1
  K  K4  1  0.56635242  0.43289459  0.46652587  1
  K  K5  1  0.56631243  0.43411238  0.96726766  1
  K  K6  1  0.70142352  0.79624123  0.10175325  1
  K  K7  1  0.93309734  0.56678487  0.71665481  1
  Ba  Ba8  1  0.06920529  0.06856924  0.03471699  1
  Ba  Ba9  1  0.20661959  0.70559719  0.39766672  1
  Ba  Ba10  1  0.20712045  0.70349141  0.89758666  1
  Ba  Ba11  1  0.29486314  0.29471424  0.64731862  1
  Ba  Ba12  1  0.70513686  0.79471424  0.60268138  1
  Ba  Ba13  1  0.79287955  0.20349141  0.35241334  1
  Ba  Ba14  1  0.79338041  0.20559719  0.85233328  1
  Ba  Ba15  1  0.93079471  0.56856924  0.21528301  1
  Cr  Cr16  1  0.08853205  0.91368035  0.20714044  1
  Cr  Cr17  1  0.08652136  0.91290342  0.70636351  1
  Cr  Cr18  1  0.14976140  0.35157444  0.32330388  1
  Cr  Cr19  1  0.14717371  0.35349171  0.82369561  1
  Cr  Cr20  1  0.35517502  0.64689315  0.07401574  1
  Cr  Cr21  1  0.35309358  0.64697203  0.57351363  1
  Cr  Cr22  1  0.41354743  0.08710043  0.45636651  1
  Cr  Cr23  1  0.41489908  0.08609360  0.95690363  1
  Cr  Cr24  1  0.58510092  0.58609360  0.29309637  1
  Cr  Cr25  1  0.58645257  0.58710043  0.79363349  1
  Cr  Cr26  1  0.64482498  0.14689315  0.17598426  1
  Cr  Cr27  1  0.64690642  0.14697203  0.67648637  1
  Cr  Cr28  1  0.85282629  0.85349171  0.42630439  1
  Cr  Cr29  1  0.85023860  0.85157444  0.92669612  1
  Cr  Cr30  1  0.91146795  0.41368035  0.04285956  1
  Cr  Cr31  1  0.91347864  0.41290342  0.54363649  1
  P  P32  1  0.03995365  0.72555486  0.06346390  1
  P  P33  1  0.04024042  0.72563053  0.56370952  1
  P  P34  1  0.12764546  0.04034683  0.36295495  1
  P  P35  1  0.12773416  0.04021879  0.86232669  1
  P  P36  1  0.22571500  0.37247189  0.47986576  1
  P  P37  1  0.22671765  0.37321776  0.98039519  1
  P  P38  1  0.27527748  0.62688607  0.22922898  1
  P  P39  1  0.27436920  0.62761126  0.72982297  1
  P  P40  1  0.37247011  0.95972921  0.61275926  1
  P  P41  1  0.37417133  0.95937093  0.11332626  1
  P  P42  1  0.45922361  0.27407048  0.31337214  1
  P  P43  1  0.45969632  0.27441342  0.81379099  1
  P  P44  1  0.54077639  0.77407048  0.93662786  1
  P  P45  1  0.54030368  0.77441342  0.43620901  1
  P  P46  1  0.62582867  0.45937093  0.13667374  1
  P  P47  1  0.62752989  0.45972921  0.63724074  1
  P  P48  1  0.72472252  0.12688607  0.02077102  1
  P  P49  1  0.72563080  0.12761126  0.52017703  1
  P  P50  1  0.77328235  0.87321776  0.26960481  1
  P  P51  1  0.77428500  0.87247189  0.77013424  1
  P  P52  1  0.87226584  0.54021879  0.38767331  1
  P  P53  1  0.87235454  0.54034683  0.88704505  1
  P  P54  1  0.96004635  0.22555486  0.18653610  1
  P  P55  1  0.95975958  0.22563053  0.68629048  1
  O  O56  1  0.00499689  0.57753506  0.07685415  1
  O  O57  1  0.00545341  0.57776977  0.57611279  1
  O  O58  1  0.01482705  0.80124780  0.13048425  1
  O  O59  1  0.01315777  0.80207852  0.63013422  1
  O  O60  1  0.02336416  0.94742079  0.39759711  1
  O  O61  1  0.02338060  0.94856898  0.89838249  1
  O  O62  1  0.04940304  0.29716519  0.23889605  1
  O  O63  1  0.05241809  0.29495661  0.73839774  1
  O  O64  1  0.07770845  0.34786018  0.49724037  1
  O  O65  1  0.07742126  0.34594560  0.99729602  1
  O  O66  1  0.07626811  0.18782201  0.37009627  1
  O  O67  1  0.07612567  0.18757841  0.87045790  1
  O  O68  1  0.15209038  0.00551079  0.28898104  1
  O  O69  1  0.15229468  0.00536940  0.78871089  1
  O  O70  1  0.18745173  0.74053094  0.03801314  1
  O  O71  1  0.18796085  0.74020526  0.53812722  1
  O  O72  1  0.19633916  0.75911858  0.24376867  1
  O  O73  1  0.19776408  0.76037581  0.74330864  1
  O  O74  1  0.20232209  0.52480360  0.27642378  1
  O  O75  1  0.20479503  0.52339009  0.77619770  1
  O  O76  1  0.23962919  0.98668667  0.65110130  1
  O  O77  1  0.23764404  0.98578418  0.14957053  1
  O  O78  1  0.23952399  0.42352593  0.90606940  1
  O  O79  1  0.24016905  0.42400376  0.40612570  1
  O  O80  1  0.25809685  0.57800484  0.15599536  1
  O  O81  1  0.25972080  0.57621129  0.65605971  1
  O  O82  1  0.26030184  0.01312326  0.40111253  1
  O  O83  1  0.25925971  0.01352223  0.90178205  1
  O  O84  1  0.29464697  0.47869687  0.02492317  1
  O  O85  1  0.29508160  0.47667388  0.52623297  1
  O  O86  1  0.30203360  0.23968338  0.49338048  1
  O  O87  1  0.29939695  0.23776988  0.99242950  1
  O  O88  1  0.31192997  0.25907765  0.28903336  1
  O  O89  1  0.31205889  0.25973712  0.78817577  1
  O  O90  1  0.34789534  0.99462058  0.53887556  1
  O  O91  1  0.34570940  0.99488060  0.03885244  1
  O  O92  1  0.42174595  0.81175578  0.12020708  1
  O  O93  1  0.42376147  0.81210924  0.62011106  1
  O  O94  1  0.42203108  0.65243136  0.24761262  1
  O  O95  1  0.42218034  0.65220256  0.74719029  1
  O  O96  1  0.44755749  0.70483943  0.48838263  1
  O  O97  1  0.44625620  0.70461140  0.98777175  1
  O  O98  1  0.47698010  0.05127005  0.14775605  1
  O  O99  1  0.47662142  0.05238717  0.64757485  1
  O  O100  1  0.48722321  0.19830729  0.38028574  1
  O  O101  1  0.48687939  0.19779980  0.88008069  1
  O  O102  1  0.49464928  0.42217816  0.32624881  1
  O  O103  1  0.49442536  0.42221595  0.82607025  1
  O  O104  1  0.50557464  0.92221595  0.42392975  1
  O  O105  1  0.50535072  0.92217816  0.92375119  1
  O  O106  1  0.51312061  0.69779980  0.36991931  1
  O  O107  1  0.51277679  0.69830729  0.86971426  1
  O  O108  1  0.52301990  0.55127005  0.10224395  1
  O  O109  1  0.52337858  0.55238717  0.60242515  1
  O  O110  1  0.55374380  0.20461140  0.26222825  1
  O  O111  1  0.55244251  0.20483943  0.76161737  1
  O  O112  1  0.57796892  0.15243136  0.00238738  1
  O  O113  1  0.57781966  0.15220256  0.50280971  1
  O  O114  1  0.57825405  0.31175578  0.12979292  1
  O  O115  1  0.57623853  0.31210924  0.62988894  1
  O  O116  1  0.65429060  0.49488060  0.21114756  1
  O  O117  1  0.65210466  0.49462058  0.71112444  1
  O  O118  1  0.68794111  0.75973712  0.46182423  1
  O  O119  1  0.68807003  0.75907765  0.96096664  1
  O  O120  1  0.70060305  0.73776988  0.25757050  1
  O  O121  1  0.69796640  0.73968338  0.75661952  1
  O  O122  1  0.70535303  0.97869687  0.22507683  1
  O  O123  1  0.70491840  0.97667388  0.72376703  1
  O  O124  1  0.74074029  0.51352223  0.34821795  1
  O  O125  1  0.73969816  0.51312326  0.84888747  1
  O  O126  1  0.74190315  0.07800484  0.09400464  1
  O  O127  1  0.74027920  0.07621129  0.59394029  1
  O  O128  1  0.76047601  0.92352593  0.34393060  1
  O  O129  1  0.75983095  0.92400376  0.84387430  1
  O  O130  1  0.76235596  0.48578418  0.10042947  1
  O  O131  1  0.76037081  0.48668667  0.59889870  1
  O  O132  1  0.79520497  0.02339009  0.47380230  1
  O  O133  1  0.79767791  0.02480360  0.97357622  1
  O  O134  1  0.80366084  0.25911858  0.00623133  1
  O  O135  1  0.80223592  0.26037581  0.50669136  1
  O  O136  1  0.81254827  0.24053094  0.21198686  1
  O  O137  1  0.81203915  0.24020526  0.71187278  1
  O  O138  1  0.84770532  0.50536940  0.46128911  1
  O  O139  1  0.84790962  0.50551079  0.96101896  1
  O  O140  1  0.92387433  0.68757841  0.37954210  1
  O  O141  1  0.92373189  0.68782201  0.87990373  1
  O  O142  1  0.92257874  0.84594560  0.25270398  1
  O  O143  1  0.92229155  0.84786018  0.75275963  1
  O  O144  1  0.95059696  0.79716519  0.01110395  1
  O  O145  1  0.94758191  0.79495661  0.51160226  1
  O  O146  1  0.97661940  0.44856898  0.35161751  1
  O  O147  1  0.97663584  0.44742079  0.85240289  1
  O  O148  1  0.98517295  0.30124780  0.11951575  1
  O  O149  1  0.98684223  0.30207852  0.61986578  1
  O  O150  1  0.99500311  0.07753506  0.17314585  1
  O  O151  1  0.99454659  0.07776977  0.67388721  1
