# generated using pymatgen
data_FeH8(ClO2)2
_symmetry_space_group_name_H-M   'P 1'
_cell_length_a   5.91381545
_cell_length_b   7.25478640
_cell_length_c   8.57493863
_cell_angle_alpha   90.00000000
_cell_angle_beta   111.21122399
_cell_angle_gamma   90.00000000
_symmetry_Int_Tables_number   1
_chemical_formula_structural   FeH8(ClO2)2
_chemical_formula_sum   'Fe2 H16 Cl4 O8'
_cell_volume   342.97082735
_cell_formula_units_Z   2
loop_
 _symmetry_equiv_pos_site_id
 _symmetry_equiv_pos_as_xyz
  1  'x, y, z'
loop_
 _atom_site_type_symbol
 _atom_site_label
 _atom_site_symmetry_multiplicity
 _atom_site_fract_x
 _atom_site_fract_y
 _atom_site_fract_z
 _atom_site_occupancy
  Fe  Fe0  1  0.00000000  0.50000000  0.50000000  1
  Fe  Fe1  1  0.00000000  0.00000000  0.00000000  1
  H  H2  1  0.10722001  0.42642368  0.84343457  1
  H  H3  1  0.89277999  0.92642368  0.65656543  1
  H  H4  1  0.89277999  0.57357632  0.15656543  1
  H  H5  1  0.10722001  0.07357632  0.34343457  1
  H  H6  1  0.89741770  0.57510503  0.79169048  1
  H  H7  1  0.10258230  0.07510503  0.70830952  1
  H  H8  1  0.10258230  0.42489497  0.20830952  1
  H  H9  1  0.89741770  0.92489497  0.29169048  1
  H  H10  1  0.38102025  0.71372071  0.68584357  1
  H  H11  1  0.61897975  0.21372071  0.81415643  1
  H  H12  1  0.61897975  0.28627929  0.31415643  1
  H  H13  1  0.38102025  0.78627929  0.18584357  1
  H  H14  1  0.38067752  0.71618953  0.50303756  1
  H  H15  1  0.61932248  0.21618953  0.99696244  1
  H  H16  1  0.61932248  0.28381047  0.49696244  1
  H  H17  1  0.38067752  0.78381047  0.00303756  1
  Cl  Cl18  1  0.31073786  0.23978843  0.57719152  1
  Cl  Cl19  1  0.68926214  0.73978843  0.92280848  1
  Cl  Cl20  1  0.68926214  0.76021157  0.42280848  1
  Cl  Cl21  1  0.31073786  0.26021157  0.07719152  1
  O  O22  1  0.00231690  0.50082986  0.74877186  1
  O  O23  1  0.99768310  0.00082986  0.75122814  1
  O  O24  1  0.99768310  0.49917014  0.25122814  1
  O  O25  1  0.00231690  0.99917014  0.24877186  1
  O  O26  1  0.27212072  0.70418252  0.56721582  1
  O  O27  1  0.72787928  0.20418252  0.93278418  1
  O  O28  1  0.72787928  0.29581748  0.43278418  1
  O  O29  1  0.27212072  0.79581748  0.06721582  1
