# generated using pymatgen
data_Li2Cr2H4O9
_symmetry_space_group_name_H-M   'P 1'
_cell_length_a   12.97302445
_cell_length_b   5.46645901
_cell_length_c   5.46645901
_cell_angle_alpha   88.28502544
_cell_angle_beta   85.57715605
_cell_angle_gamma   94.42284395
_symmetry_Int_Tables_number   1
_chemical_formula_structural   Li2Cr2H4O9
_chemical_formula_sum   'Li4 Cr4 H8 O18'
_cell_volume   385.10573315
_cell_formula_units_Z   2
loop_
 _symmetry_equiv_pos_site_id
 _symmetry_equiv_pos_as_xyz
  1  'x, y, z'
loop_
 _atom_site_type_symbol
 _atom_site_label
 _atom_site_symmetry_multiplicity
 _atom_site_fract_x
 _atom_site_fract_y
 _atom_site_fract_z
 _atom_site_occupancy
  Li  Li0  1  0.50000000  0.00000000  0.50000000  1
  Li  Li1  1  0.00000000  0.50000000  0.00000000  1
  Li  Li2  1  0.25000000  0.77719021  0.77719021  1
  Li  Li3  1  0.75000000  0.22280979  0.22280979  1
  Cr  Cr4  1  0.14010750  0.01104286  0.26091268  1
  Cr  Cr5  1  0.64010750  0.73908732  0.98895714  1
  Cr  Cr6  1  0.85989250  0.98895714  0.73908732  1
  Cr  Cr7  1  0.35989250  0.26091268  0.01104286  1
  H  H8  1  0.40097210  0.57864527  0.58079433  1
  H  H9  1  0.90097210  0.41920567  0.42135473  1
  H  H10  1  0.59902790  0.42135473  0.41920567  1
  H  H11  1  0.09902790  0.58079433  0.57864527  1
  H  H12  1  0.34953579  0.70108205  0.36613181  1
  H  H13  1  0.84953579  0.63386819  0.29891795  1
  H  H14  1  0.65046421  0.29891795  0.63386819  1
  H  H15  1  0.15046421  0.36613181  0.70108205  1
  O  O16  1  0.25000000  0.03454481  0.03454481  1
  O  O17  1  0.75000000  0.96545519  0.96545519  1
  O  O18  1  0.18098406  0.05811707  0.53321951  1
  O  O19  1  0.68098406  0.46678049  0.94188293  1
  O  O20  1  0.81901594  0.94188293  0.46678049  1
  O  O21  1  0.31901594  0.53321951  0.05811707  1
  O  O22  1  0.08342537  0.73403795  0.25385195  1
  O  O23  1  0.58342537  0.74614805  0.26596205  1
  O  O24  1  0.91657463  0.26596205  0.74614805  1
  O  O25  1  0.41657463  0.25385195  0.73403795  1
  O  O26  1  0.43880212  0.19189338  0.21407300  1
  O  O27  1  0.93880212  0.78592700  0.80810662  1
  O  O28  1  0.56119788  0.80810662  0.78592700  1
  O  O29  1  0.06119788  0.21407300  0.19189338  1
  O  O30  1  0.37040782  0.73122002  0.53244685  1
  O  O31  1  0.87040782  0.46755315  0.26877998  1
  O  O32  1  0.62959218  0.26877998  0.46755315  1
  O  O33  1  0.12959218  0.53244685  0.73122002  1
