# generated using pymatgen
data_LuNbO4
_symmetry_space_group_name_H-M   'P 1'
_cell_length_a   5.26268123
_cell_length_b   5.45244789
_cell_length_c   5.08400317
_cell_angle_alpha   90.00000000
_cell_angle_beta   84.84974075
_cell_angle_gamma   90.00000000
_symmetry_Int_Tables_number   1
_chemical_formula_structural   LuNbO4
_chemical_formula_sum   'Lu2 Nb2 O8'
_cell_volume   145.29393221
_cell_formula_units_Z   2
loop_
 _symmetry_equiv_pos_site_id
 _symmetry_equiv_pos_as_xyz
  1  'x, y, z'
loop_
 _atom_site_type_symbol
 _atom_site_label
 _atom_site_symmetry_multiplicity
 _atom_site_fract_x
 _atom_site_fract_y
 _atom_site_fract_z
 _atom_site_occupancy
  Lu  Lu0  1  0.25000000  0.76467813  0.50000000  1
  Lu  Lu1  1  0.75000000  0.23532187  0.50000000  1
  Nb  Nb2  1  0.25000000  0.29503924  0.00000000  1
  Nb  Nb3  1  0.75000000  0.70496076  0.00000000  1
  O  O4  1  0.99302606  0.56473196  0.23853591  1
  O  O5  1  0.08849437  0.07826907  0.25359983  1
  O  O6  1  0.41150563  0.07826907  0.74640017  1
  O  O7  1  0.50697394  0.56473196  0.76146409  1
  O  O8  1  0.49302606  0.43526804  0.23853591  1
  O  O9  1  0.58849437  0.92173093  0.25359983  1
  O  O10  1  0.91150563  0.92173093  0.74640017  1
  O  O11  1  0.00697394  0.43526804  0.76146409  1
