# generated using pymatgen
data_Pr2S2O
_symmetry_space_group_name_H-M   'P 1'
_cell_length_a   8.63732864
_cell_length_b   7.27930052
_cell_length_c   7.17555462
_cell_angle_alpha   90.00000000
_cell_angle_beta   98.61988347
_cell_angle_gamma   90.00000000
_symmetry_Int_Tables_number   1
_chemical_formula_structural   Pr2S2O
_chemical_formula_sum   'Pr8 S8 O4'
_cell_volume   446.05770674
_cell_formula_units_Z   4
loop_
 _symmetry_equiv_pos_site_id
 _symmetry_equiv_pos_as_xyz
  1  'x, y, z'
loop_
 _atom_site_type_symbol
 _atom_site_label
 _atom_site_symmetry_multiplicity
 _atom_site_fract_x
 _atom_site_fract_y
 _atom_site_fract_z
 _atom_site_occupancy
  Pr  Pr0  1  0.13604977  0.55591110  0.75276773  1
  Pr  Pr1  1  0.13604977  0.94408890  0.25276773  1
  Pr  Pr2  1  0.42068329  0.13931483  0.68547474  1
  Pr  Pr3  1  0.42068329  0.36068517  0.18547474  1
  Pr  Pr4  1  0.57931671  0.63931483  0.81452526  1
  Pr  Pr5  1  0.57931671  0.86068517  0.31452526  1
  Pr  Pr6  1  0.86395023  0.05591110  0.74723227  1
  Pr  Pr7  1  0.86395023  0.44408890  0.24723227  1
  S  S8  1  0.07851885  0.22488641  0.52811475  1
  S  S9  1  0.07851885  0.27511359  0.02811475  1
  S  S10  1  0.32128551  0.85974415  0.93217580  1
  S  S11  1  0.32128551  0.64025585  0.43217580  1
  S  S12  1  0.67871449  0.35974415  0.56782420  1
  S  S13  1  0.67871449  0.14025585  0.06782420  1
  S  S14  1  0.92148115  0.72488641  0.97188525  1
  S  S15  1  0.92148115  0.77511359  0.47188525  1
  O  O16  1  0.38199735  0.41499662  0.85171353  1
  O  O17  1  0.38199735  0.08500338  0.35171353  1
  O  O18  1  0.61800265  0.91499662  0.64828647  1
  O  O19  1  0.61800265  0.58500338  0.14828647  1
