# generated using pymatgen
data_Tl8Os8O27
_symmetry_space_group_name_H-M   'P 1'
_cell_length_a   7.37423810
_cell_length_b   7.37423810
_cell_length_c   10.44277249
_cell_angle_alpha   90.00000000
_cell_angle_beta   90.00000000
_cell_angle_gamma   90.00000000
_symmetry_Int_Tables_number   1
_chemical_formula_structural   Tl8Os8O27
_chemical_formula_sum   'Tl8 Os8 O27'
_cell_volume   567.87157313
_cell_formula_units_Z   1
loop_
 _symmetry_equiv_pos_site_id
 _symmetry_equiv_pos_as_xyz
  1  'x, y, z'
loop_
 _atom_site_type_symbol
 _atom_site_label
 _atom_site_symmetry_multiplicity
 _atom_site_fract_x
 _atom_site_fract_y
 _atom_site_fract_z
 _atom_site_occupancy
  Tl  Tl0  1  0.49907104  0.50000000  0.00240082  1
  Tl  Tl1  1  0.00092896  0.50000000  0.00240082  1
  Tl  Tl2  1  0.25000000  0.76326269  0.25741273  1
  Tl  Tl3  1  0.25000000  0.23673731  0.25741273  1
  Tl  Tl4  1  0.01326269  0.00000000  0.49258727  1
  Tl  Tl5  1  0.48673731  0.00000000  0.49258727  1
  Tl  Tl6  1  0.75000000  0.24907104  0.74759918  1
  Tl  Tl7  1  0.75000000  0.75092896  0.74759918  1
  Os  Os8  1  0.49975456  0.00000000  0.99894576  1
  Os  Os9  1  0.00024544  0.00000000  0.99894576  1
  Os  Os10  1  0.75000000  0.75018962  0.24901328  1
  Os  Os11  1  0.75000000  0.24981038  0.24901328  1
  Os  Os12  1  0.00018962  0.50000000  0.50098672  1
  Os  Os13  1  0.49981038  0.50000000  0.50098672  1
  Os  Os14  1  0.25000000  0.75024544  0.75105424  1
  Os  Os15  1  0.25000000  0.24975456  0.75105424  1
  O  O16  1  0.25000000  0.00000000  0.04852964  1
  O  O17  1  0.25000000  0.50000000  0.12345342  1
  O  O18  1  0.93745944  0.19450491  0.12108338  1
  O  O19  1  0.56254056  0.80549509  0.12108338  1
  O  O20  1  0.56254056  0.19450491  0.12108338  1
  O  O21  1  0.93745944  0.80549509  0.12108338  1
  O  O22  1  0.75000000  0.50000000  0.17422189  1
  O  O23  1  0.75000000  0.00000000  0.30547465  1
  O  O24  1  0.93369809  0.31630191  0.37500000  1
  O  O25  1  0.56630191  0.31630191  0.37500000  1
  O  O26  1  0.56630191  0.68369809  0.37500000  1
  O  O27  1  0.93369809  0.68369809  0.37500000  1
  O  O28  1  0.25000000  0.50000000  0.44452535  1
  O  O29  1  0.75000000  0.50000000  0.57577811  1
  O  O30  1  0.75000000  0.00000000  0.62654658  1
  O  O31  1  0.05549509  0.68745944  0.62891662  1
  O  O32  1  0.44450491  0.31254056  0.62891662  1
  O  O33  1  0.05549509  0.31254056  0.62891662  1
  O  O34  1  0.44450491  0.68745944  0.62891662  1
  O  O35  1  0.25000000  0.00000000  0.70147036  1
  O  O36  1  0.25000000  0.50000000  0.82296990  1
  O  O37  1  0.75000000  0.50000000  0.87500000  1
  O  O38  1  0.44874986  0.19874986  0.87500000  1
  O  O39  1  0.44874986  0.80125014  0.87500000  1
  O  O40  1  0.05125014  0.19874986  0.87500000  1
  O  O41  1  0.05125014  0.80125014  0.87500000  1
  O  O42  1  0.75000000  0.00000000  0.92703010  1
