# generated using pymatgen
data_Ti3N2O3
_symmetry_space_group_name_H-M   'P 1'
_cell_length_a   3.84596895
_cell_length_b   5.27597220
_cell_length_c   9.91796485
_cell_angle_alpha   90.00000000
_cell_angle_beta   90.00000000
_cell_angle_gamma   111.37556846
_symmetry_Int_Tables_number   1
_chemical_formula_structural   Ti3N2O3
_chemical_formula_sum   'Ti6 N4 O6'
_cell_volume   187.40409785
_cell_formula_units_Z   2
loop_
 _symmetry_equiv_pos_site_id
 _symmetry_equiv_pos_as_xyz
  1  'x, y, z'
loop_
 _atom_site_type_symbol
 _atom_site_label
 _atom_site_symmetry_multiplicity
 _atom_site_fract_x
 _atom_site_fract_y
 _atom_site_fract_z
 _atom_site_occupancy
  Ti  Ti0  1  0.20064158  0.40128416  0.25000000  1
  Ti  Ti1  1  0.14358195  0.28716390  0.94819715  1
  Ti  Ti2  1  0.14358195  0.28716390  0.55180285  1
  Ti  Ti3  1  0.79935842  0.59871584  0.75000000  1
  Ti  Ti4  1  0.85641805  0.71283610  0.05180285  1
  Ti  Ti5  1  0.85641805  0.71283610  0.44819715  1
  N  N6  1  0.30758293  0.61516686  0.42342526  1
  N  N7  1  0.30758293  0.61516686  0.07657474  1
  N  N8  1  0.69241707  0.38483314  0.57657474  1
  N  N9  1  0.69241707  0.38483314  0.92342526  1
  O  O10  1  0.24582393  0.49164786  0.75000000  1
  O  O11  1  0.04527765  0.09055431  0.11851617  1
  O  O12  1  0.04527765  0.09055431  0.38148383  1
  O  O13  1  0.95472235  0.90944569  0.88148383  1
  O  O14  1  0.75417607  0.50835214  0.25000000  1
  O  O15  1  0.95472235  0.90944569  0.61851617  1
