# generated using pymatgen
data_Cr3(OF)2
_symmetry_space_group_name_H-M   'P 1'
_cell_length_a   8.36895109
_cell_length_b   8.70024441
_cell_length_c   10.92516698
_cell_angle_alpha   90.00000000
_cell_angle_beta   73.79245178
_cell_angle_gamma   90.00000000
_symmetry_Int_Tables_number   1
_chemical_formula_structural   Cr3(OF)2
_chemical_formula_sum   'Cr24 O16 F16'
_cell_volume   763.86746509
_cell_formula_units_Z   8
loop_
 _symmetry_equiv_pos_site_id
 _symmetry_equiv_pos_as_xyz
  1  'x, y, z'
loop_
 _atom_site_type_symbol
 _atom_site_label
 _atom_site_symmetry_multiplicity
 _atom_site_fract_x
 _atom_site_fract_y
 _atom_site_fract_z
 _atom_site_occupancy
  Cr  Cr0  1  0.07642815  0.79722120  0.36173438  1
  Cr  Cr1  1  0.09967591  0.42581798  0.37835022  1
  Cr  Cr2  1  0.23397560  0.18511522  0.16814552  1
  Cr  Cr3  1  0.07642815  0.70277880  0.86173438  1
  Cr  Cr4  1  0.31041878  0.51899799  0.06704594  1
  Cr  Cr5  1  0.09967591  0.07418202  0.87835022  1
  Cr  Cr6  1  0.23397560  0.31488478  0.66814552  1
  Cr  Cr7  1  0.45587757  0.92275082  0.26790622  1
  Cr  Cr8  1  0.31041878  0.98100201  0.56704594  1
  Cr  Cr9  1  0.59693015  0.14670222  0.00853117  1
  Cr  Cr10  1  0.40306985  0.64670222  0.49146883  1
  Cr  Cr11  1  0.54412243  0.42275082  0.23209378  1
  Cr  Cr12  1  0.45587757  0.57724918  0.76790622  1
  Cr  Cr13  1  0.59693015  0.35329778  0.50853117  1
  Cr  Cr14  1  0.40306985  0.85329778  0.99146883  1
  Cr  Cr15  1  0.68958122  0.01899799  0.43295406  1
  Cr  Cr16  1  0.54412243  0.07724918  0.73209378  1
  Cr  Cr17  1  0.76602440  0.68511522  0.33185448  1
  Cr  Cr18  1  0.90032509  0.92581798  0.12164978  1
  Cr  Cr19  1  0.68958122  0.48100201  0.93295406  1
  Cr  Cr20  1  0.92357185  0.29722120  0.13826562  1
  Cr  Cr21  1  0.76602440  0.81488478  0.83185448  1
  Cr  Cr22  1  0.90032509  0.57418202  0.62164978  1
  Cr  Cr23  1  0.92357185  0.20277880  0.63826562  1
  O  O24  1  0.06518474  0.10579072  0.07526360  1
  O  O25  1  0.11933592  0.39440040  0.18572779  1
  O  O26  1  0.06518474  0.39420928  0.57526360  1
  O  O27  1  0.11933592  0.10559960  0.68572779  1
  O  O28  1  0.40515584  0.02163138  0.11753955  1
  O  O29  1  0.49763557  0.36628055  0.06576727  1
  O  O30  1  0.50236443  0.86628055  0.43423273  1
  O  O31  1  0.40515584  0.47836862  0.61753955  1
  O  O32  1  0.59484416  0.52163138  0.38246045  1
  O  O33  1  0.49763557  0.13371945  0.56576727  1
  O  O34  1  0.50236443  0.63371945  0.93423273  1
  O  O35  1  0.59484416  0.97836862  0.88246045  1
  O  O36  1  0.88066408  0.89440040  0.31427221  1
  O  O37  1  0.93481526  0.60579072  0.42473640  1
  O  O38  1  0.88066408  0.60559960  0.81427221  1
  O  O39  1  0.93481526  0.89420928  0.92473640  1
  F  F40  1  0.19140707  0.73169424  0.08742009  1
  F  F41  1  0.21627893  0.98987156  0.36347781  1
  F  F42  1  0.19140707  0.76830576  0.58742009  1
  F  F43  1  0.29284271  0.67017886  0.32127591  1
  F  F44  1  0.21627893  0.51012844  0.86347781  1
  F  F45  1  0.32718474  0.30385402  0.32253362  1
  F  F46  1  0.29284271  0.82982114  0.82127591  1
  F  F47  1  0.67281526  0.80385402  0.17746638  1
  F  F48  1  0.32718474  0.19614598  0.82253362  1
  F  F49  1  0.70715729  0.17017886  0.17872409  1
  F  F50  1  0.67281526  0.69614598  0.67746638  1
  F  F51  1  0.78372107  0.48987156  0.13652219  1
  F  F52  1  0.70715729  0.32982114  0.67872409  1
  F  F53  1  0.80859293  0.23169424  0.41257991  1
  F  F54  1  0.78372107  0.01012844  0.63652219  1
  F  F55  1  0.80859293  0.26830576  0.91257991  1
