# generated using pymatgen
data_NaLuO2
_symmetry_space_group_name_H-M   'P 1'
_cell_length_a   5.82255086
_cell_length_b   7.28594919
_cell_length_c   5.98072503
_cell_angle_alpha   75.00928441
_cell_angle_beta   112.31775920
_cell_angle_gamma   75.89552868
_symmetry_Int_Tables_number   1
_chemical_formula_structural   NaLuO2
_chemical_formula_sum   'Na4 Lu4 O8'
_cell_volume   209.47289521
_cell_formula_units_Z   4
loop_
 _symmetry_equiv_pos_site_id
 _symmetry_equiv_pos_as_xyz
  1  'x, y, z'
loop_
 _atom_site_type_symbol
 _atom_site_label
 _atom_site_symmetry_multiplicity
 _atom_site_fract_x
 _atom_site_fract_y
 _atom_site_fract_z
 _atom_site_occupancy
  Na  Na0  1  0.80586703  0.38843348  0.05573962  1
  Na  Na1  1  0.43048951  0.13897003  0.18047419  1
  Na  Na2  1  0.56953944  0.86101218  0.81956085  1
  Na  Na3  1  0.19410810  0.61156562  0.94420584  1
  Lu  Lu4  1  0.94305738  0.11385184  0.69306489  1
  Lu  Lu5  1  0.68318641  0.63359422  0.43313259  1
  Lu  Lu6  1  0.31681276  0.36642079  0.56685664  1
  Lu  Lu7  1  0.05695373  0.88615160  0.30694453  1
  O  O8  1  0.94029328  0.62720316  0.23469931  1
  O  O9  1  0.70902177  0.12405367  0.91661199  1
  O  O10  1  0.56740208  0.37270683  0.36194008  1
  O  O11  1  0.16703988  0.12401659  0.45953085  1
  O  O12  1  0.83294640  0.87598409  0.54047414  1
  O  O13  1  0.43259702  0.62727986  0.63806760  1
  O  O14  1  0.29097632  0.87596070  0.08339674  1
  O  O15  1  0.05970989  0.37279534  0.76530215  1
