# generated using pymatgen
data_K2CuPCO7
_symmetry_space_group_name_H-M   'P 1'
_cell_length_a   9.24440189
_cell_length_b   7.84340984
_cell_length_c   5.24060998
_cell_angle_alpha   90.00000000
_cell_angle_beta   90.00755327
_cell_angle_gamma   90.00000000
_symmetry_Int_Tables_number   1
_chemical_formula_structural   K2CuPCO7
_chemical_formula_sum   'K4 Cu2 P2 C2 O14'
_cell_volume   379.98422054
_cell_formula_units_Z   2
loop_
 _symmetry_equiv_pos_site_id
 _symmetry_equiv_pos_as_xyz
  1  'x, y, z'
loop_
 _atom_site_type_symbol
 _atom_site_label
 _atom_site_symmetry_multiplicity
 _atom_site_fract_x
 _atom_site_fract_y
 _atom_site_fract_z
 _atom_site_occupancy
  K  K0  1  0.25357454  0.02224195  0.24251763  1
  K  K1  1  0.25357454  0.47775805  0.24251763  1
  K  K2  1  0.74642546  0.52224195  0.75748237  1
  K  K3  1  0.74642546  0.97775805  0.75748237  1
  Cu  Cu4  1  0.35475271  0.75000000  0.77309803  1
  Cu  Cu5  1  0.64524729  0.25000000  0.22690197  1
  P  P6  1  0.42537028  0.25000000  0.71595518  1
  P  P7  1  0.57462972  0.75000000  0.28404482  1
  C  C8  1  0.09763036  0.75000000  0.72845980  1
  C  C9  1  0.90236964  0.25000000  0.27154020  1
  O  O10  1  0.03674558  0.25000000  0.28396329  1
  O  O11  1  0.17131501  0.75000000  0.94233099  1
  O  O12  1  0.18712018  0.75000000  0.53383922  1
  O  O13  1  0.33711413  0.08707750  0.75461878  1
  O  O14  1  0.33711413  0.41292250  0.75461878  1
  O  O15  1  0.43227718  0.75000000  0.11854992  1
  O  O16  1  0.47790963  0.25000000  0.42394536  1
  O  O17  1  0.52209037  0.75000000  0.57605464  1
  O  O18  1  0.56772282  0.25000000  0.88145008  1
  O  O19  1  0.66288587  0.58707750  0.24538122  1
  O  O20  1  0.66288587  0.91292250  0.24538122  1
  O  O21  1  0.81287982  0.25000000  0.46616078  1
  O  O22  1  0.82868499  0.25000000  0.05766901  1
  O  O23  1  0.96325442  0.75000000  0.71603671  1
