# generated using pymatgen
data_Ba2CaI6
_symmetry_space_group_name_H-M   'P 1'
_cell_length_a   7.93930891
_cell_length_b   9.08331753
_cell_length_c   11.25359634
_cell_angle_alpha   90.00000000
_cell_angle_beta   91.18066982
_cell_angle_gamma   90.00000000
_symmetry_Int_Tables_number   1
_chemical_formula_structural   Ba2CaI6
_chemical_formula_sum   'Ba4 Ca2 I12'
_cell_volume   811.38376886
_cell_formula_units_Z   2
loop_
 _symmetry_equiv_pos_site_id
 _symmetry_equiv_pos_as_xyz
  1  'x, y, z'
loop_
 _atom_site_type_symbol
 _atom_site_label
 _atom_site_symmetry_multiplicity
 _atom_site_fract_x
 _atom_site_fract_y
 _atom_site_fract_z
 _atom_site_occupancy
  Ba  Ba0  1  0.44694521  0.64042742  0.80000892  1
  Ba  Ba1  1  0.51656913  0.85866553  0.30628923  1
  Ba  Ba2  1  0.94694521  0.35957258  0.30000892  1
  Ba  Ba3  1  0.01656913  0.14133447  0.80628923  1
  Ca  Ca4  1  0.48123298  0.24969716  0.55394349  1
  Ca  Ca5  1  0.98123298  0.75030284  0.05394349  1
  I  I6  1  0.10655715  0.71623471  0.31570672  1
  I  I7  1  0.14278934  0.44167910  0.99509572  1
  I  I8  1  0.15436735  0.42286078  0.61626083  1
  I  I9  1  0.30929108  0.92031614  0.99211756  1
  I  I10  1  0.31963471  0.94156259  0.61307125  1
  I  I11  1  0.35482106  0.21370028  0.29234327  1
  I  I12  1  0.60655715  0.28376529  0.81570672  1
  I  I13  1  0.64278934  0.55832090  0.49509572  1
  I  I14  1  0.65436735  0.57713922  0.11626083  1
  I  I15  1  0.80929108  0.07968386  0.49211756  1
  I  I16  1  0.81963471  0.05843741  0.11307125  1
  I  I17  1  0.85482106  0.78629972  0.79234327  1
