# generated using pymatgen
data_Ba5Nb2O10
_symmetry_space_group_name_H-M   'P 1'
_cell_length_a   6.17795299
_cell_length_b   6.17873834
_cell_length_c   18.33528405
_cell_angle_alpha   89.99954479
_cell_angle_beta   90.00097362
_cell_angle_gamma   120.22517820
_symmetry_Int_Tables_number   1
_chemical_formula_structural   Ba5Nb2O10
_chemical_formula_sum   'Ba10 Nb4 O20'
_cell_volume   604.74566634
_cell_formula_units_Z   2
loop_
 _symmetry_equiv_pos_site_id
 _symmetry_equiv_pos_as_xyz
  1  'x, y, z'
loop_
 _atom_site_type_symbol
 _atom_site_label
 _atom_site_symmetry_multiplicity
 _atom_site_fract_x
 _atom_site_fract_y
 _atom_site_fract_z
 _atom_site_occupancy
  Ba  Ba0  1  0.33187367  0.66802477  0.24949870  1
  Ba  Ba1  1  0.30770483  0.69220179  0.01842485  1
  Ba  Ba2  1  0.99624029  0.00366172  0.13507836  1
  Ba  Ba3  1  0.00050985  0.99953250  0.36495391  1
  Ba  Ba4  1  0.00392709  0.99664345  0.63510168  1
  Ba  Ba5  1  0.99962694  0.00065633  0.86496636  1
  Ba  Ba6  1  0.35087869  0.64936780  0.48034153  1
  Ba  Ba7  1  0.69227583  0.30780098  0.51842113  1
  Ba  Ba8  1  0.66858858  0.33241597  0.74949551  1
  Ba  Ba9  1  0.64910135  0.35062635  0.98034117  1
  Nb  Nb10  1  0.33677989  0.66333882  0.66927504  1
  Nb  Nb11  1  0.33096985  0.66904718  0.83019357  1
  Nb  Nb12  1  0.66322346  0.33668003  0.16927134  1
  Nb  Nb13  1  0.66901627  0.33095892  0.33018682  1
  O  O14  1  0.06309971  0.93724796  0.00026695  1
  O  O15  1  0.01626312  0.52454590  0.61987640  1
  O  O16  1  0.02412575  0.49604015  0.88532805  1
  O  O17  1  0.18725916  0.81265953  0.75486517  1
  O  O18  1  0.18727299  0.37307385  0.74755621  1
  O  O19  1  0.47542253  0.98370872  0.61984344  1
  O  O20  1  0.50400066  0.97581688  0.88534007  1
  O  O21  1  0.62693166  0.81246114  0.74755676  1
  O  O22  1  0.48483950  0.51503935  0.61054358  1
  O  O23  1  0.49347925  0.50636725  0.87875224  1
  O  O24  1  0.50631429  0.49343384  0.37874993  1
  O  O25  1  0.51506833  0.48488067  0.11052552  1
  O  O26  1  0.37301945  0.18739380  0.24753779  1
  O  O27  1  0.52457621  0.01628635  0.11984980  1
  O  O28  1  0.81254948  0.62689388  0.24755742  1
  O  O29  1  0.49597349  0.02412180  0.38531087  1
  O  O30  1  0.81268591  0.18729608  0.25486305  1
  O  O31  1  0.98369224  0.47539444  0.11985809  1
  O  O32  1  0.97581755  0.50390185  0.38533205  1
  O  O33  1  0.93688912  0.06277997  0.50026364  1
