# generated using pymatgen
data_Li2FeSiO4
_symmetry_space_group_name_H-M   'P 1'
_cell_length_a   5.17273133
_cell_length_b   6.25236034
_cell_length_c   11.06309026
_cell_angle_alpha   89.86678835
_cell_angle_beta   89.86159626
_cell_angle_gamma   88.33804056
_symmetry_Int_Tables_number   1
_chemical_formula_structural   Li2FeSiO4
_chemical_formula_sum   'Li8 Fe4 Si4 O16'
_cell_volume   357.64756658
_cell_formula_units_Z   4
loop_
 _symmetry_equiv_pos_site_id
 _symmetry_equiv_pos_as_xyz
  1  'x, y, z'
loop_
 _atom_site_type_symbol
 _atom_site_label
 _atom_site_symmetry_multiplicity
 _atom_site_fract_x
 _atom_site_fract_y
 _atom_site_fract_z
 _atom_site_occupancy
  Li  Li0  1  0.30490255  0.49720334  0.34236711  1
  Li  Li1  1  0.20173002  0.76030169  0.07376494  1
  Li  Li2  1  0.29789889  0.73986012  0.57352223  1
  Li  Li3  1  0.19499149  0.00320750  0.84265112  1
  Li  Li4  1  0.70418747  0.24937827  0.42991137  1
  Li  Li5  1  0.69173337  0.49173353  0.66160447  1
  Li  Li6  1  0.80828729  0.00798577  0.16131562  1
  Li  Li7  1  0.79638546  0.25041921  0.92969364  1
  Fe  Fe8  1  0.69909599  0.99203496  0.66850066  1
  Fe  Fe9  1  0.80019810  0.50666336  0.16867909  1
  Fe  Fe10  1  0.19733824  0.50493273  0.83334353  1
  Fe  Fe11  1  0.30323067  0.99659992  0.33355379  1
  Si  Si12  1  0.19429533  0.24138105  0.59108068  1
  Si  Si13  1  0.30556344  0.25844967  0.09094562  1
  Si  Si14  1  0.69231009  0.75219345  0.91227867  1
  Si  Si15  1  0.80777779  0.74793027  0.41241023  1
  O  O16  1  0.12785445  0.74771763  0.41478001  1
  O  O17  1  0.20495716  0.47444351  0.16667346  1
  O  O18  1  0.20652682  0.03865308  0.15972571  1
  O  O19  1  0.30949049  0.24177559  0.45229081  1
  O  O20  1  0.19129347  0.25818071  0.95235094  1
  O  O21  1  0.29325074  0.46042708  0.65950803  1
  O  O22  1  0.29453638  0.02484439  0.66684068  1
  O  O23  1  0.37221919  0.75199239  0.91483474  1
  O  O24  1  0.62563811  0.25703167  0.08901717  1
  O  O25  1  0.70785777  0.96399577  0.33607145  1
  O  O26  1  0.69182700  0.74684890  0.55114214  1
  O  O27  1  0.79133981  0.97194529  0.84382185  1
  O  O28  1  0.70907793  0.52884065  0.34429795  1
  O  O29  1  0.80723622  0.75308277  0.05081172  1
  O  O30  1  0.79265762  0.53662454  0.83606274  1
  O  O31  1  0.87429463  0.24332617  0.58932884  1
