# generated using pymatgen
data_K3MnCrO8
_symmetry_space_group_name_H-M   'P 1'
_cell_length_a   5.95180681
_cell_length_b   5.95180681
_cell_length_c   7.91425857
_cell_angle_alpha   67.91275756
_cell_angle_beta   67.91275756
_cell_angle_gamma   60.00000014
_symmetry_Int_Tables_number   1
_chemical_formula_structural   K3MnCrO8
_chemical_formula_sum   'K3 Mn1 Cr1 O8'
_cell_volume   218.71451575
_cell_formula_units_Z   1
loop_
 _symmetry_equiv_pos_site_id
 _symmetry_equiv_pos_as_xyz
  1  'x, y, z'
loop_
 _atom_site_type_symbol
 _atom_site_label
 _atom_site_symmetry_multiplicity
 _atom_site_fract_x
 _atom_site_fract_y
 _atom_site_fract_z
 _atom_site_occupancy
  K  K0  1  0.69761292  0.69761292  0.90716124  1
  K  K1  1  0.50698727  0.50698727  0.47903819  1
  K  K2  1  0.29285371  0.29285371  0.12143886  1
  Mn  Mn3  1  0.09516984  0.09516984  0.71449048  1
  Cr  Cr4  1  0.90890011  0.90890011  0.27329966  1
  O  O5  1  0.17036514  0.17036514  0.48890457  1
  O  O6  1  0.77270159  0.21890883  0.78948076  1
  O  O7  1  0.21890883  0.21890883  0.78948076  1
  O  O8  1  0.21890883  0.77270159  0.78948076  1
  O  O9  1  0.83128230  0.83128230  0.50615310  1
  O  O10  1  0.24071451  0.78279747  0.19369054  1
  O  O11  1  0.78279747  0.78279747  0.19369054  1
  O  O12  1  0.78279747  0.24071451  0.19369054  1
