# generated using pymatgen
data_LiCoPO4
_symmetry_space_group_name_H-M   'P 1'
_cell_length_a   10.20263294
_cell_length_b   6.83051204
_cell_length_c   5.04508415
_cell_angle_alpha   90.00000000
_cell_angle_beta   90.00000000
_cell_angle_gamma   90.00000000
_symmetry_Int_Tables_number   1
_chemical_formula_structural   LiCoPO4
_chemical_formula_sum   'Li4 Co4 P4 O16'
_cell_volume   351.58791435
_cell_formula_units_Z   4
loop_
 _symmetry_equiv_pos_site_id
 _symmetry_equiv_pos_as_xyz
  1  'x, y, z'
loop_
 _atom_site_type_symbol
 _atom_site_label
 _atom_site_symmetry_multiplicity
 _atom_site_fract_x
 _atom_site_fract_y
 _atom_site_fract_z
 _atom_site_occupancy
  Li  Li0  1  0.14637229  0.50755749  0.24494384  1
  Li  Li1  1  0.35362771  0.00755749  0.74494384  1
  Li  Li2  1  0.64637229  0.99244251  0.24494384  1
  Li  Li3  1  0.85362771  0.49244251  0.74494384  1
  Co  Co4  1  0.16305183  0.00687498  0.24703058  1
  Co  Co5  1  0.33694817  0.50687498  0.74703058  1
  Co  Co6  1  0.66305183  0.49312502  0.24703058  1
  Co  Co7  1  0.83694817  0.99312502  0.74703058  1
  P  P8  1  0.09652357  0.76124063  0.74987655  1
  P  P9  1  0.40347643  0.26124063  0.24987655  1
  P  P10  1  0.59652357  0.73875937  0.74987655  1
  P  P11  1  0.90347643  0.23875937  0.24987655  1
  O  O12  1  0.05249997  0.24067822  0.18957721  1
  O  O13  1  0.12275807  0.76033133  0.05409234  1
  O  O14  1  0.15573142  0.57183004  0.62770637  1
  O  O15  1  0.16499767  0.94577731  0.63262311  1
  O  O16  1  0.33500233  0.44577731  0.13262311  1
  O  O17  1  0.34426858  0.07183004  0.12770637  1
  O  O18  1  0.37724193  0.26033133  0.55409234  1
  O  O19  1  0.44750003  0.74067822  0.68957721  1
  O  O20  1  0.55250097  0.25932178  0.18957721  1
  O  O21  1  0.62275807  0.73966867  0.05409234  1
  O  O22  1  0.65573142  0.92816996  0.62770637  1
  O  O23  1  0.66499767  0.55422269  0.63262311  1
  O  O24  1  0.83500233  0.05422269  0.13262311  1
  O  O25  1  0.84426858  0.42816896  0.12770637  1
  O  O26  1  0.87724193  0.23966867  0.55409234  1
  O  O27  1  0.94749903  0.75932178  0.68957721  1
