# generated using pymatgen
data_Li3Ni5O8
_symmetry_space_group_name_H-M   'P 1'
_cell_length_a   5.83591023
_cell_length_b   5.82234649
_cell_length_c   14.61791775
_cell_angle_alpha   78.75095882
_cell_angle_beta   95.26011045
_cell_angle_gamma   119.72159705
_symmetry_Int_Tables_number   1
_chemical_formula_structural   Li3Ni5O8
_chemical_formula_sum   'Li9 Ni15 O24'
_cell_volume   423.06015012
_cell_formula_units_Z   3
loop_
 _symmetry_equiv_pos_site_id
 _symmetry_equiv_pos_as_xyz
  1  'x, y, z'
loop_
 _atom_site_type_symbol
 _atom_site_label
 _atom_site_symmetry_multiplicity
 _atom_site_fract_x
 _atom_site_fract_y
 _atom_site_fract_z
 _atom_site_occupancy
  Li  Li0  1  0.83160066  0.24886591  0.83340123  1
  Li  Li1  1  0.66680105  0.74936957  0.16630071  1
  Li  Li2  1  0.33389427  0.75273757  0.83382061  1
  Li  Li3  1  0.66702876  0.25141427  0.16622880  1
  Li  Li4  1  0.50260533  0.25121056  0.50060982  1
  Li  Li5  1  0.33350551  0.24785105  0.83391286  1
  Li  Li6  1  0.16610536  0.74971706  0.16632507  1
  Li  Li7  1  0.99925382  0.74647080  0.50001601  1
  Li  Li8  1  0.99943116  0.25218297  0.49982699  1
  Ni  Ni9  1  0.83603072  0.75145545  0.83365756  1
  Ni  Ni10  1  0.83302047  0.49980107  0.33329482  1
  Ni  Ni11  1  0.66658349  0.49796140  0.66675832  1
  Ni  Ni12  1  0.49781441  0.74890414  0.50020030  1
  Ni  Ni13  1  0.83325741  -0.00001470  0.33327011  1
  Ni  Ni14  1  0.66661104  0.00181936  0.66650042  1
  Ni  Ni15  1  0.49991923  0.49995388  0.00015145  1
  Ni  Ni16  1  0.33320661  0.49994311  0.33325689  1
  Ni  Ni17  1  0.16528796  0.49832844  0.66883847  1
  Ni  Ni18  1  0.50023482  0.00001024  0.00039165  1
  Ni  Ni19  1  0.33317510  -0.00003575  0.33326240  1
  Ni  Ni20  1  0.16842205  0.00230273  0.66382211  1
  Ni  Ni21  1  0.16755453  0.25032185  0.16645445  1
  Ni  Ni22  1  0.00014877  0.49987426  0.00017103  1
  Ni  Ni23  1  0.00003638  0.00009188  0.00017087  1
  O  O24  1  0.82272199  0.87312187  0.58698671  1
  O  O25  1  0.66857069  0.87059194  0.91832863  1
  O  O26  1  0.83276988  0.63048795  0.07288366  1
  O  O27  1  0.82943383  0.37338633  0.59263412  1
  O  O28  1  0.66883136  0.38001903  0.91878258  1
  O  O29  1  0.66240250  0.62823377  0.41471852  1
  O  O30  1  0.51411192  0.62942568  0.74518745  1
  O  O31  1  0.49574481  0.86563550  0.26113942  1
  O  O32  1  0.33359740  0.86690435  0.58544403  1
  O  O33  1  0.16102091  0.87081533  0.91915395  1
  O  O34  1  0.83821000  0.12853413  0.08100979  1
  O  O35  1  0.66275146  0.11957783  0.41434024  1
  O  O36  1  0.50017406  0.12434309  0.74111354  1
  O  O37  1  0.49674330  0.37224415  0.25230575  1
  O  O38  1  0.33215413  0.62193211  0.08087451  1
  O  O39  1  0.33537200  0.38288751  0.58566886  1
  O  O40  1  0.16773177  0.36989594  0.92711836  1
  O  O41  1  0.16986518  0.62754919  0.41483623  1
  O  O42  1  0.99813912  0.63259126  0.74729474  1
  O  O43  1  0.00289458  0.87846233  0.25278081  1
  O  O44  1  0.33217828  0.12821719  0.08125309  1
  O  O45  1  0.17003928  0.13388201  0.40541113  1
  O  O46  1  0.99934819  0.11792254  0.74756267  1
  O  O47  1  0.00366545  0.37279883  0.25252525  1
