# generated using pymatgen
data_Nd2NiO4
_symmetry_space_group_name_H-M   'P 1'
_cell_length_a   3.95989247
_cell_length_b   6.72475562
_cell_length_c   4.06523454
_cell_angle_alpha   72.33855458
_cell_angle_beta   89.99828548
_cell_angle_gamma   107.06037778
_symmetry_Int_Tables_number   1
_chemical_formula_structural   Nd2NiO4
_chemical_formula_sum   'Nd2 Ni1 O4'
_cell_volume   98.14062354
_cell_formula_units_Z   1
loop_
 _symmetry_equiv_pos_site_id
 _symmetry_equiv_pos_as_xyz
  1  'x, y, z'
loop_
 _atom_site_type_symbol
 _atom_site_label
 _atom_site_symmetry_multiplicity
 _atom_site_fract_x
 _atom_site_fract_y
 _atom_site_fract_z
 _atom_site_occupancy
  Nd  Nd0  1  0.64745428  0.30100836  0.34930941  1
  Nd  Nd1  1  0.34744300  0.70261913  0.64743469  1
  Ni  Ni2  1  0.99654585  0.00134753  0.99730081  1
  O  O3  1  0.49661183  0.00166468  0.99585369  1
  O  O4  1  0.74548996  0.49772923  0.75040359  1
  O  O5  1  0.99590451  0.00125960  0.49698166  1
  O  O6  1  0.24929758  0.50572047  0.24650314  1
