# generated using pymatgen
data_V2Co(HO2)4
_symmetry_space_group_name_H-M   'P 1'
_cell_length_a   5.69300072
_cell_length_b   10.77121788
_cell_length_c   11.91821001
_cell_angle_alpha   90.00000000
_cell_angle_beta   90.00000000
_cell_angle_gamma   90.00000000
_symmetry_Int_Tables_number   1
_chemical_formula_structural   V2Co(HO2)4
_chemical_formula_sum   'V8 Co4 H16 O32'
_cell_volume   730.83120649
_cell_formula_units_Z   4
loop_
 _symmetry_equiv_pos_site_id
 _symmetry_equiv_pos_as_xyz
  1  'x, y, z'
loop_
 _atom_site_type_symbol
 _atom_site_label
 _atom_site_symmetry_multiplicity
 _atom_site_fract_x
 _atom_site_fract_y
 _atom_site_fract_z
 _atom_site_occupancy
  V  V0  1  0.19328189  0.03169308  0.17408197  1
  V  V1  1  0.19328189  0.46830692  0.17408197  1
  V  V2  1  0.30671811  0.53169308  0.67408197  1
  V  V3  1  0.30671811  0.96830692  0.67408197  1
  V  V4  1  0.69328189  0.03169308  0.32591803  1
  V  V5  1  0.69328189  0.46830692  0.32591803  1
  V  V6  1  0.80671811  0.53169308  0.82591803  1
  V  V7  1  0.80671811  0.96830692  0.82591803  1
  Co  Co8  1  0.01838798  0.75000000  0.04066189  1
  Co  Co9  1  0.48161202  0.25000000  0.54066189  1
  Co  Co10  1  0.51838798  0.75000000  0.45933811  1
  Co  Co11  1  0.98161202  0.25000000  0.95933811  1
  H  H12  1  0.05143328  0.75000000  0.41558957  1
  H  H13  1  0.12102958  0.17749949  0.40335414  1
  H  H14  1  0.12102958  0.32250051  0.40335414  1
  H  H15  1  0.17060789  0.75000000  0.29226497  1
  H  H16  1  0.32939211  0.25000000  0.79226497  1
  H  H17  1  0.37897042  0.82250051  0.90335414  1
  H  H18  1  0.37897042  0.67749949  0.90335414  1
  H  H19  1  0.44856672  0.25000000  0.91558957  1
  H  H20  1  0.55143328  0.75000000  0.08441043  1
  H  H21  1  0.62102958  0.17749949  0.09664586  1
  H  H22  1  0.62102958  0.32250051  0.09664586  1
  H  H23  1  0.67060789  0.75000000  0.20773503  1
  H  H24  1  0.82939211  0.25000000  0.70773503  1
  H  H25  1  0.87897042  0.67749949  0.59664586  1
  H  H26  1  0.87897042  0.82250051  0.59664586  1
  H  H27  1  0.94856672  0.25000000  0.58441043  1
  O  O28  1  0.00047790  0.07130518  0.29181948  1
  O  O29  1  0.00047790  0.42869482  0.29181948  1
  O  O30  1  0.11369453  0.11614661  0.06317018  1
  O  O31  1  0.11369453  0.38385339  0.06317018  1
  O  O32  1  0.15225652  0.25000000  0.45201181  1
  O  O33  1  0.16324198  0.62065058  0.14465877  1
  O  O34  1  0.16324198  0.87934942  0.14465877  1
  O  O35  1  0.19924977  0.75000000  0.37291087  1
  O  O36  1  0.30075023  0.25000000  0.87291087  1
  O  O37  1  0.33675802  0.12065058  0.64465877  1
  O  O38  1  0.33675802  0.37934942  0.64465877  1
  O  O39  1  0.34774348  0.75000000  0.95201181  1
  O  O40  1  0.38630547  0.88385339  0.56317018  1
  O  O41  1  0.38630547  0.61614661  0.56317018  1
  O  O42  1  0.49952210  0.92869482  0.79181948  1
  O  O43  1  0.49952210  0.57130518  0.79181948  1
  O  O44  1  0.50047790  0.07130518  0.20818052  1
  O  O45  1  0.50047790  0.42869482  0.20818052  1
  O  O46  1  0.61369453  0.11614661  0.43682982  1
  O  O47  1  0.61369453  0.38385339  0.43682982  1
  O  O48  1  0.65225652  0.25000000  0.04798819  1
  O  O49  1  0.66324198  0.62065058  0.35534123  1
  O  O50  1  0.66324198  0.87934942  0.35534123  1
  O  O51  1  0.69924977  0.75000000  0.12708913  1
  O  O52  1  0.80075023  0.25000000  0.62708913  1
  O  O53  1  0.83675802  0.12065058  0.85534123  1
  O  O54  1  0.83675802  0.37934942  0.85534123  1
  O  O55  1  0.84774348  0.75000000  0.54798819  1
  O  O56  1  0.88630547  0.61614661  0.93682982  1
  O  O57  1  0.88630547  0.88385339  0.93682982  1
  O  O58  1  0.99952210  0.57130518  0.70818052  1
  O  O59  1  0.99952210  0.92869482  0.70818052  1
