# generated using pymatgen
data_V2Bi4O11
_symmetry_space_group_name_H-M   'P 1'
_cell_length_a   5.70153056
_cell_length_b   8.32482554
_cell_length_c   11.31933161
_cell_angle_alpha   90.00000000
_cell_angle_beta   90.00000000
_cell_angle_gamma   68.10546963
_symmetry_Int_Tables_number   1
_chemical_formula_structural   V2Bi4O11
_chemical_formula_sum   'V4 Bi8 O22'
_cell_volume   498.51173072
_cell_formula_units_Z   2
loop_
 _symmetry_equiv_pos_site_id
 _symmetry_equiv_pos_as_xyz
  1  'x, y, z'
loop_
 _atom_site_type_symbol
 _atom_site_label
 _atom_site_symmetry_multiplicity
 _atom_site_fract_x
 _atom_site_fract_y
 _atom_site_fract_z
 _atom_site_occupancy
  V  V0  1  0.08329979  0.99666423  0.25739686  1
  V  V1  1  0.91670021  0.00333577  0.75739686  1
  V  V2  1  0.50838461  0.97316017  0.51187806  1
  V  V3  1  0.49161539  0.02683983  0.01187806  1
  Bi  Bi4  1  0.71763249  0.67002204  0.25039168  1
  Bi  Bi5  1  0.60693337  0.65141409  0.75529643  1
  Bi  Bi6  1  0.28236751  0.32997796  0.75039168  1
  Bi  Bi7  1  0.39306663  0.34858591  0.25529643  1
  Bi  Bi8  1  0.18366585  0.66559421  0.50695223  1
  Bi  Bi9  1  0.14002676  0.65337577  0.00006949  1
  Bi  Bi10  1  0.85997324  0.34662423  0.50006949  1
  Bi  Bi11  1  0.81633415  0.33440579  0.00695223  1
  O  O12  1  0.27410959  0.92649152  0.38214579  1
  O  O13  1  0.72143702  0.96986143  0.64502764  1
  O  O14  1  0.27856298  0.03013857  0.14502764  1
  O  O15  1  0.72589041  0.07350848  0.88214579  1
  O  O16  1  0.00169873  0.83012185  0.20278424  1
  O  O17  1  0.15081825  0.80335564  0.79243029  1
  O  O18  1  0.99830127  0.16987815  0.70278424  1
  O  O19  1  0.84918175  0.19664436  0.29243029  1
  O  O20  1  0.50422834  0.52753796  0.38488194  1
  O  O21  1  0.96893124  0.51144902  0.63036098  1
  O  O22  1  0.51947741  0.51417415  0.13606530  1
  O  O23  1  0.99611399  0.49202504  0.87931196  1
  O  O24  1  0.48052259  0.48582585  0.63606530  1
  O  O25  1  0.00388601  0.50797496  0.37931196  1
  O  O26  1  0.49577166  0.47246204  0.88488194  1
  O  O27  1  0.03106876  0.48855098  0.13036098  1
  O  O28  1  0.75076350  0.89359058  0.41379376  1
  O  O29  1  0.41875031  0.81903844  0.58806495  1
  O  O30  1  0.66563250  0.80381569  0.00614842  1
  O  O31  1  0.33436750  0.19618431  0.50614842  1
  O  O32  1  0.24923650  0.10640942  0.91379376  1
  O  O33  1  0.58124969  0.18096156  0.08806495  1
