# generated using pymatgen
data_Sb(SO4)2
_symmetry_space_group_name_H-M   'P 1'
_cell_length_a   9.54857389
_cell_length_b   9.37954471
_cell_length_c   14.13305337
_cell_angle_alpha   90.00000000
_cell_angle_beta   90.00000000
_cell_angle_gamma   90.00000000
_symmetry_Int_Tables_number   1
_chemical_formula_structural   Sb(SO4)2
_chemical_formula_sum   'Sb8 S16 O64'
_cell_volume   1265.77428961
_cell_formula_units_Z   8
loop_
 _symmetry_equiv_pos_site_id
 _symmetry_equiv_pos_as_xyz
  1  'x, y, z'
loop_
 _atom_site_type_symbol
 _atom_site_label
 _atom_site_symmetry_multiplicity
 _atom_site_fract_x
 _atom_site_fract_y
 _atom_site_fract_z
 _atom_site_occupancy
  Sb  Sb0  1  0.14130324  0.10202138  0.12522977  1
  Sb  Sb1  1  0.14130324  0.39797862  0.62522977  1
  Sb  Sb2  1  0.35869676  0.60202138  0.12522977  1
  Sb  Sb3  1  0.35869676  0.89797862  0.62522977  1
  Sb  Sb4  1  0.64130324  0.10202138  0.37477023  1
  Sb  Sb5  1  0.64130324  0.39797862  0.87477023  1
  Sb  Sb6  1  0.85869676  0.60202138  0.37477023  1
  Sb  Sb7  1  0.85869676  0.89797862  0.87477023  1
  S  S8  1  0.07379895  0.06771975  0.72434273  1
  S  S9  1  0.07379895  0.43228025  0.22434273  1
  S  S10  1  0.42620105  0.93228025  0.22434273  1
  S  S11  1  0.42620105  0.56771975  0.72434273  1
  S  S12  1  0.57379895  0.43228025  0.27565727  1
  S  S13  1  0.57379895  0.06771975  0.77565727  1
  S  S14  1  0.92620105  0.56771975  0.77565727  1
  S  S15  1  0.92620105  0.93228025  0.27565727  1
  S  S16  1  0.16115454  0.68803149  0.48686624  1
  S  S17  1  0.16115454  0.81196851  0.98686624  1
  S  S18  1  0.33884546  0.18803149  0.48686624  1
  S  S19  1  0.33884546  0.31196851  0.98686624  1
  S  S20  1  0.66115454  0.68803149  0.01313376  1
  S  S21  1  0.66115454  0.81196851  0.51313376  1
  S  S22  1  0.83884546  0.18803149  0.01313376  1
  S  S23  1  0.83884546  0.31196851  0.51313376  1
  O  O24  1  0.00312392  0.69465012  0.47808542  1
  O  O25  1  0.00312392  0.80534988  0.97808542  1
  O  O26  1  0.01311470  0.99278442  0.34758814  1
  O  O27  1  0.01311470  0.50721558  0.84758814  1
  O  O28  1  0.02444612  0.46554089  0.32521851  1
  O  O29  1  0.02444612  0.03445911  0.82521851  1
  O  O30  1  0.08020462  0.22957655  0.72533800  1
  O  O31  1  0.08020462  0.27042345  0.22533800  1
  O  O32  1  0.18686033  0.72983407  0.07883726  1
  O  O33  1  0.18686033  0.77016593  0.57883726  1
  O  O34  1  0.20081854  0.96612513  0.00861790  1
  O  O35  1  0.20081854  0.53387487  0.50861790  1
  O  O36  1  0.22527338  0.01549896  0.72221462  1
  O  O37  1  0.22527338  0.48450104  0.22221462  1
  O  O38  1  0.23699487  0.74071727  0.40716473  1
  O  O39  1  0.23699487  0.75928273  0.90716473  1
  O  O40  1  0.26300513  0.24071727  0.40716473  1
  O  O41  1  0.26300513  0.25928273  0.90716473  1
  O  O42  1  0.27472662  0.98450104  0.22221462  1
  O  O43  1  0.27472662  0.51549896  0.72221462  1
  O  O44  1  0.29918146  0.03387487  0.50861790  1
  O  O45  1  0.29918146  0.46612513  0.00861790  1
  O  O46  1  0.31313967  0.22983407  0.07883726  1
  O  O47  1  0.31313967  0.27016593  0.57883726  1
  O  O48  1  0.41979538  0.77042345  0.22533800  1
  O  O49  1  0.41979538  0.72957655  0.72533800  1
  O  O50  1  0.47555388  0.53445911  0.82521851  1
  O  O51  1  0.47555388  0.96554089  0.32521851  1
  O  O52  1  0.48688530  0.49278442  0.34758814  1
  O  O53  1  0.48688530  0.00721558  0.84758814  1
  O  O54  1  0.49687608  0.19465012  0.47808542  1
  O  O55  1  0.49687608  0.30534988  0.97808542  1
  O  O56  1  0.50312392  0.69465012  0.02191458  1
  O  O57  1  0.50312392  0.80534988  0.52191458  1
  O  O58  1  0.51311470  0.50721558  0.65241186  1
  O  O59  1  0.51311470  0.99278442  0.15241186  1
  O  O60  1  0.52444612  0.46554089  0.17478049  1
  O  O61  1  0.52444612  0.03445911  0.67478149  1
  O  O62  1  0.58020462  0.27042345  0.27466200  1
  O  O63  1  0.58020462  0.22957655  0.77466200  1
  O  O64  1  0.68686033  0.72983407  0.42116274  1
  O  O65  1  0.68686033  0.77016593  0.92116274  1
  O  O66  1  0.70081854  0.53387487  0.99138210  1
  O  O67  1  0.70081854  0.96612513  0.49138210  1
  O  O68  1  0.72527338  0.48450104  0.27778538  1
  O  O69  1  0.72527338  0.01549896  0.77778538  1
  O  O70  1  0.73699487  0.74071727  0.09283527  1
  O  O71  1  0.73699487  0.75928273  0.59283527  1
  O  O72  1  0.76300513  0.24071727  0.09283527  1
  O  O73  1  0.76300513  0.25928273  0.59283527  1
  O  O74  1  0.77472662  0.51549896  0.77778538  1
  O  O75  1  0.77472662  0.98450104  0.27778538  1
  O  O76  1  0.79918146  0.46612513  0.49138210  1
  O  O77  1  0.79918146  0.03387487  0.99138210  1
  O  O78  1  0.81313967  0.22983407  0.42116274  1
  O  O79  1  0.81313967  0.27016593  0.92116274  1
  O  O80  1  0.91979538  0.72957655  0.77466200  1
  O  O81  1  0.91979538  0.77042345  0.27466200  1
  O  O82  1  0.97555388  0.53445911  0.67478149  1
  O  O83  1  0.97555388  0.96554089  0.17478049  1
  O  O84  1  0.98688530  0.00721558  0.65241186  1
  O  O85  1  0.98688530  0.49278442  0.15241186  1
  O  O86  1  0.99687608  0.19465012  0.02191458  1
  O  O87  1  0.99687608  0.30534988  0.52191458  1
