# generated using pymatgen
data_BeAlSiHO5
_symmetry_space_group_name_H-M   'P 1'
_cell_length_a   4.82987173
_cell_length_b   14.51954012
_cell_length_c   4.67303389
_cell_angle_alpha   90.00000000
_cell_angle_beta   100.27165181
_cell_angle_gamma   90.00000000
_symmetry_Int_Tables_number   1
_chemical_formula_structural   BeAlSiHO5
_chemical_formula_sum   'Be4 Al4 Si4 H4 O20'
_cell_volume   322.45620603
_cell_formula_units_Z   4
loop_
 _symmetry_equiv_pos_site_id
 _symmetry_equiv_pos_as_xyz
  1  'x, y, z'
loop_
 _atom_site_type_symbol
 _atom_site_label
 _atom_site_symmetry_multiplicity
 _atom_site_fract_x
 _atom_site_fract_y
 _atom_site_fract_z
 _atom_site_occupancy
  Be  Be0  1  0.17636518  0.30140089  0.45920356  1
  Be  Be1  1  0.32363482  0.80140089  0.54079644  1
  Be  Be2  1  0.67636518  0.19859911  0.45920356  1
  Be  Be3  1  0.82363482  0.69859911  0.54079644  1
  Al  Al4  1  0.24980115  0.44532626  0.95942565  1
  Al  Al5  1  0.25019885  0.94532626  0.04057435  1
  Al  Al6  1  0.74980115  0.05467374  0.95942565  1
  Al  Al7  1  0.75019885  0.55467374  0.04057435  1
  Si  Si8  1  0.17786275  0.10063886  0.53799045  1
  Si  Si9  1  0.32213725  0.60063886  0.46200955  1
  Si  Si10  1  0.67786275  0.39936114  0.53799045  1
  Si  Si11  1  0.82213725  0.89936114  0.46200955  1
  H  H12  1  0.03778456  0.29538561  0.98730029  1
  H  H13  1  0.46221544  0.79538561  0.01269971  1
  H  H14  1  0.53778456  0.20461439  0.98730029  1
  H  H15  1  0.96221544  0.70461439  0.01269971  1
  O  O16  1  0.11896893  0.87634983  0.34476616  1
  O  O17  1  0.10109972  0.05211069  0.21418713  1
  O  O18  1  0.15511189  0.70018221  0.47344589  1
  O  O19  1  0.11741867  0.53338416  0.23404495  1
  O  O20  1  0.16418772  0.33322113  0.12635866  1
  O  O21  1  0.33581228  0.83322113  0.87364134  1
  O  O22  1  0.38258133  0.03338416  0.76595505  1
  O  O23  1  0.34488811  0.20018221  0.52655411  1
  O  O24  1  0.39890028  0.55211069  0.78581287  1
  O  O25  1  0.38103107  0.37634983  0.65523384  1
  O  O26  1  0.61896893  0.62365017  0.34476616  1
  O  O27  1  0.60109972  0.44788931  0.21418713  1
  O  O28  1  0.65511189  0.79981779  0.47344589  1
  O  O29  1  0.61741867  0.96661584  0.23404495  1
  O  O30  1  0.66418772  0.16677887  0.12635866  1
  O  O31  1  0.83581228  0.66677887  0.87364134  1
  O  O32  1  0.88258133  0.46661584  0.76595505  1
  O  O33  1  0.84488811  0.29981779  0.52655411  1
  O  O34  1  0.89890028  0.94788931  0.78581287  1
  O  O35  1  0.88103107  0.12365017  0.65523384  1
