# generated using pymatgen
data_Li8MnNi7O16
_symmetry_space_group_name_H-M   'P 1'
_cell_length_a   6.61461822
_cell_length_b   6.51854423
_cell_length_c   7.60713083
_cell_angle_alpha   75.44522959
_cell_angle_beta   115.40909651
_cell_angle_gamma   107.43012697
_symmetry_Int_Tables_number   1
_chemical_formula_structural   Li8MnNi7O16
_chemical_formula_sum   'Li8 Mn1 Ni7 O16'
_cell_volume   279.78589682
_cell_formula_units_Z   1
loop_
 _symmetry_equiv_pos_site_id
 _symmetry_equiv_pos_as_xyz
  1  'x, y, z'
loop_
 _atom_site_type_symbol
 _atom_site_label
 _atom_site_symmetry_multiplicity
 _atom_site_fract_x
 _atom_site_fract_y
 _atom_site_fract_z
 _atom_site_occupancy
  Li  Li0  1  0.00316125  0.99535736  0.99774192  1
  Li  Li1  1  0.62435792  0.61941450  0.87534628  1
  Li  Li2  1  0.24744637  0.24988618  0.75360395  1
  Li  Li3  1  0.87762056  0.87513457  0.62139705  1
  Li  Li4  1  0.50066751  0.50563698  0.49965385  1
  Li  Li5  1  0.12181456  0.12960511  0.37722595  1
  Li  Li6  1  0.75517837  0.75707157  0.25008280  1
  Li  Li7  1  0.36974200  0.36790779  0.12484338  1
  Mn  Mn8  1  0.56244228  0.06243964  0.68743098  1
  Ni  Ni9  1  0.31093384  0.81324417  0.93778314  1
  Ni  Ni10  1  0.81406190  0.31172734  0.43723215  1
  Ni  Ni11  1  0.18382397  0.68406952  0.56117321  1
  Ni  Ni12  1  0.94120082  0.44090524  0.81381202  1
  Ni  Ni13  1  0.43759048  0.93864041  0.31310604  1
  Ni  Ni14  1  0.06249264  0.56239638  0.18753980  1
  Ni  Ni15  1  0.68743046  0.18637273  0.06196783  1
  O  O16  1  0.65159167  0.92682374  0.96052670  1
  O  O17  1  0.27183410  0.54248197  0.82306154  1
  O  O18  1  0.23997140  0.96817683  0.65343440  1
  O  O19  1  0.97563626  0.70100084  0.92051414  1
  O  O20  1  0.59706432  0.32072647  0.78903161  1
  O  O21  1  0.52793712  0.80432783  0.58598945  1
  O  O22  1  0.14934961  0.42401172  0.45445481  1
  O  O23  1  0.09120319  0.81237236  0.29115536  1
  O  O24  1  0.88503360  0.15688984  0.72158441  1
  O  O25  1  0.85319148  0.58254299  0.55196665  1
  O  O26  1  0.47338507  0.19815943  0.41447984  1
  O  O27  1  0.38097594  0.66426833  0.22232027  1
  O  O28  1  0.03378529  0.31266685  0.08384957  1
  O  O29  1  0.77370595  0.04082549  0.32322314  1
  O  O30  1  0.74408970  0.46074878  0.15269136  1
  O  O31  1  0.35127739  0.08417107  0.05177840  1
