# generated using pymatgen
data_Li2P2WO8
_symmetry_space_group_name_H-M   'P 1'
_cell_length_a   7.75846449
_cell_length_b   8.09505059
_cell_length_c   5.12494112
_cell_angle_alpha   90.00000000
_cell_angle_beta   92.14879850
_cell_angle_gamma   90.00000000
_symmetry_Int_Tables_number   1
_chemical_formula_structural   Li2P2WO8
_chemical_formula_sum   'Li4 P4 W2 O16'
_cell_volume   321.64642606
_cell_formula_units_Z   2
loop_
 _symmetry_equiv_pos_site_id
 _symmetry_equiv_pos_as_xyz
  1  'x, y, z'
loop_
 _atom_site_type_symbol
 _atom_site_label
 _atom_site_symmetry_multiplicity
 _atom_site_fract_x
 _atom_site_fract_y
 _atom_site_fract_z
 _atom_site_occupancy
  Li  Li0  1  0.08844488  0.36970250  0.59867170  1
  Li  Li1  1  0.41155512  0.86970250  0.90132830  1
  Li  Li2  1  0.58844488  0.13029750  0.09867170  1
  Li  Li3  1  0.91155512  0.63029750  0.40132830  1
  P  P4  1  0.20268389  0.19379119  0.03311196  1
  P  P5  1  0.29731611  0.69379119  0.46688804  1
  P  P6  1  0.70268389  0.30620881  0.53311196  1
  P  P7  1  0.79731611  0.80620881  0.96688804  1
  W  W8  1  0.00000000  0.00000000  0.50000000  1
  W  W9  1  0.50000000  0.50000000  0.00000000  1
  O  O10  1  0.05810383  0.15779395  0.82199274  1
  O  O11  1  0.15141798  0.57237082  0.46334243  1
  O  O12  1  0.11412091  0.19374005  0.30596792  1
  O  O13  1  0.23425671  0.87423700  0.53238667  1
  O  O14  1  0.26574329  0.37423700  0.96761333  1
  O  O15  1  0.38587909  0.69374005  0.19403208  1
  O  O16  1  0.34858202  0.07237082  0.03665757  1
  O  O17  1  0.44189617  0.65779395  0.67800726  1
  O  O18  1  0.55810383  0.34220605  0.32199274  1
  O  O19  1  0.65141798  0.92762918  0.96334243  1
  O  O20  1  0.61412091  0.30625995  0.80596792  1
  O  O21  1  0.73425671  0.62576300  0.03238667  1
  O  O22  1  0.76574329  0.12576300  0.46761333  1
  O  O23  1  0.88587909  0.80625995  0.69403208  1
  O  O24  1  0.84858202  0.42762918  0.53665757  1
  O  O25  1  0.94189617  0.84220605  0.17800726  1
