# generated using pymatgen
data_Li2VOF4
_symmetry_space_group_name_H-M   'P 1'
_cell_length_a   5.09807956
_cell_length_b   5.78734536
_cell_length_c   7.05673852
_cell_angle_alpha   71.17302782
_cell_angle_beta   90.03434912
_cell_angle_gamma   63.90198807
_symmetry_Int_Tables_number   1
_chemical_formula_structural   Li2VOF4
_chemical_formula_sum   'Li4 V2 O2 F8'
_cell_volume   174.46587138
_cell_formula_units_Z   2
loop_
 _symmetry_equiv_pos_site_id
 _symmetry_equiv_pos_as_xyz
  1  'x, y, z'
loop_
 _atom_site_type_symbol
 _atom_site_label
 _atom_site_symmetry_multiplicity
 _atom_site_fract_x
 _atom_site_fract_y
 _atom_site_fract_z
 _atom_site_occupancy
  Li  Li0  1  0.64057511  0.71694087  0.74625954  1
  Li  Li1  1  0.64058407  0.71733769  0.24648902  1
  Li  Li2  1  0.34647626  0.28808913  0.75753232  1
  Li  Li3  1  0.36396051  0.28763858  0.25798135  1
  V  V4  1  0.01585032  0.99820599  0.47661544  1
  V  V5  1  0.98454094  0.99770933  0.97668012  1
  O  O6  1  0.85240999  0.99522799  0.75418803  1
  O  O7  1  0.15004660  0.99716656  0.25369598  1
  F  F8  1  0.40653641  0.82724048  0.96324266  1
  F  F9  1  0.76385704  0.82838325  0.46246272  1
  F  F10  1  0.33438615  0.64344059  0.64762446  1
  F  F11  1  0.97770332  0.35425998  0.86393029  1
  F  F12  1  0.02069809  0.64333133  0.14853452  1
  F  F13  1  0.66613867  0.35455015  0.36475010  1
  F  F14  1  0.23582156  0.17195813  0.54466586  1
  F  F15  1  0.59056997  0.17249096  0.04402860  1
