# generated using pymatgen
data_VOF2
_symmetry_space_group_name_H-M   'P 1'
_cell_length_a   5.21104506
_cell_length_b   11.89664020
_cell_length_c   5.39721417
_cell_angle_alpha   78.77589952
_cell_angle_beta   89.99779430
_cell_angle_gamma   102.66394500
_symmetry_Int_Tables_number   1
_chemical_formula_structural   VOF2
_chemical_formula_sum   'V6 O6 F12'
_cell_volume   319.89168293
_cell_formula_units_Z   6
loop_
 _symmetry_equiv_pos_site_id
 _symmetry_equiv_pos_as_xyz
  1  'x, y, z'
loop_
 _atom_site_type_symbol
 _atom_site_label
 _atom_site_symmetry_multiplicity
 _atom_site_fract_x
 _atom_site_fract_y
 _atom_site_fract_z
 _atom_site_occupancy
  V  V0  1  0.85370284  0.66485873  0.18375231  1
  V  V1  1  0.69761160  0.33675751  0.30321248  1
  V  V2  1  0.52784846  0.99661874  0.53017364  1
  V  V3  1  0.35554478  0.66846129  0.64919421  1
  V  V4  1  0.02254716  0.00354917  0.03321417  1
  V  V5  1  0.18515186  0.32975728  0.80028727  1
  O  O6  1  0.95628677  0.35875612  0.10422642  1
  O  O7  1  0.76472254  0.97487864  0.72929684  1
  O  O8  1  0.61308051  0.68862248  0.44299957  1
  O  O9  1  0.21931468  0.02263535  0.27153547  1
  O  O10  1  0.36243767  0.31054208  0.56176717  1
  O  O11  1  0.09111896  0.64477526  0.38989078  1
  F  F12  1  0.97924905  0.16664802  0.91727902  1
  F  F13  1  0.88619895  0.36949886  0.60627164  1
  F  F14  1  0.66998295  0.16671598  0.41660684  1
  F  F15  1  0.65418463  0.50016334  0.23919942  1
  F  F16  1  0.42296138  0.29325856  0.06997898  1
  F  F17  1  0.29674300  0.04016958  0.76335896  1
  F  F18  1  0.68408635  0.96361175  0.22763034  1
  F  F19  1  0.56127088  0.69557156  0.94697575  1
  F  F20  1  0.33722045  0.49894277  0.77077168  1
  F  F21  1  0.32124871  0.83314812  0.59442437  1
  F  F22  1  0.03226646  0.63765898  0.88603117  1
  F  F23  1  0.00522238  0.83440082  0.06192250  1
