# generated using pymatgen
data_Co(IO3)2
_symmetry_space_group_name_H-M   'P 1'
_cell_length_a   11.09103977
_cell_length_b   11.09564586
_cell_length_c   5.13910843
_cell_angle_alpha   89.98864740
_cell_angle_beta   89.99631364
_cell_angle_gamma   120.01195002
_symmetry_Int_Tables_number   1
_chemical_formula_structural   Co(IO3)2
_chemical_formula_sum   'Co4 I8 O24'
_cell_volume   547.63467238
_cell_formula_units_Z   4
loop_
 _symmetry_equiv_pos_site_id
 _symmetry_equiv_pos_as_xyz
  1  'x, y, z'
loop_
 _atom_site_type_symbol
 _atom_site_label
 _atom_site_symmetry_multiplicity
 _atom_site_fract_x
 _atom_site_fract_y
 _atom_site_fract_z
 _atom_site_occupancy
  Co  Co0  1  0.00318719  0.50866854  0.06642141  1
  Co  Co1  1  0.99979109  0.00001808  0.57324756  1
  Co  Co2  1  0.50552037  0.99676684  0.06643524  1
  Co  Co3  1  0.49132570  0.49453614  0.06681502  1
  I  I4  1  0.16528137  0.84737211  0.99708783  1
  I  I5  1  0.15224710  0.31769408  0.99703517  1
  I  I6  1  0.33346746  0.66665721  0.45925003  1
  I  I7  1  0.68237573  0.83480289  0.99726317  1
  I  I8  1  0.34579153  0.16670116  0.48584220  1
  I  I9  1  0.82118413  0.65408769  0.48551702  1
  I  I10  1  0.66657648  0.33324880  0.01125823  1
  I  I11  1  0.83311251  0.17911411  0.48542690  1
  O  O12  1  0.14715555  0.97162660  0.78273474  1
  O  O13  1  0.04179274  0.68182831  0.83742364  1
  O  O14  1  0.17857004  0.65243754  0.29664627  1
  O  O15  1  0.32758093  0.86937910  0.85416957  1
  O  O16  1  0.13072675  0.45824572  0.85434304  1
  O  O17  1  0.02758275  0.17558303  0.78250722  1
  O  O18  1  0.47415675  0.82148245  0.29635688  1
  O  O19  1  0.34760080  0.52604202  0.29646981  1
  O  O20  1  0.17710351  0.13004649  0.34802654  1
  O  O21  1  0.31784924  0.35964100  0.83760235  1
  O  O22  1  0.64026309  0.95818042  0.83736411  1
  O  O23  1  0.54218766  0.67257668  0.85429527  1
  O  O24  1  0.46192809  0.32132053  0.28929205  1
  O  O25  1  0.36649161  0.03685417  0.29683076  1
  O  O26  1  0.67029280  0.63330236  0.29741110  1
  O  O27  1  0.82491584  0.85288467  0.78312079  1
  O  O28  1  0.61897836  0.44843799  0.83404922  1
  O  O29  1  0.55153670  0.17060021  0.83348821  1
  O  O30  1  0.95277639  0.82268775  0.34677373  1
  O  O31  1  0.85942125  0.53778869  0.28912038  1
  O  O32  1  0.67842778  0.14050247  0.28888193  1
  O  O33  1  0.82932427  0.38101912  0.83348921  1
  O  O34  1  0.96309601  0.33008408  0.29721845  1
  O  O35  1  0.87037841  0.04778196  0.34641593  1
