# generated using pymatgen
data_Fe(CoO3)2
_symmetry_space_group_name_H-M   'P 1'
_cell_length_a   5.00320077
_cell_length_b   4.99442781
_cell_length_c   9.58140764
_cell_angle_alpha   90.00000000
_cell_angle_beta   90.00000000
_cell_angle_gamma   60.05799759
_symmetry_Int_Tables_number   1
_chemical_formula_structural   Fe(CoO3)2
_chemical_formula_sum   'Fe2 Co4 O12'
_cell_volume   207.46609611
_cell_formula_units_Z   2
loop_
 _symmetry_equiv_pos_site_id
 _symmetry_equiv_pos_as_xyz
  1  'x, y, z'
loop_
 _atom_site_type_symbol
 _atom_site_label
 _atom_site_symmetry_multiplicity
 _atom_site_fract_x
 _atom_site_fract_y
 _atom_site_fract_z
 _atom_site_occupancy
  Fe  Fe0  1  0.00000000  0.00000000  0.00000000  1
  Fe  Fe1  1  0.00000000  0.50000000  0.50000000  1
  Co  Co2  1  0.33335973  0.33332064  0.00000000  1
  Co  Co3  1  0.33335973  0.83332064  0.50000000  1
  Co  Co4  1  0.66664027  0.16667936  0.50000000  1
  Co  Co5  1  0.66664027  0.66667936  0.00000000  1
  O  O6  1  0.00000000  0.15537879  0.59900270  1
  O  O7  1  1.00000000  0.34462121  0.09900270  1
  O  O8  1  0.00000000  0.65537879  0.90099730  1
  O  O9  1  0.34455616  0.00003667  0.90087688  1
  O  O10  1  1.00000000  0.84462121  0.40099730  1
  O  O11  1  0.34455616  0.15540718  0.40087688  1
  O  O12  1  0.34455616  0.50003667  0.59912312  1
  O  O13  1  0.34455616  0.65540718  0.09912312  1
  O  O14  1  0.65544384  -0.00003667  0.09912312  1
  O  O15  1  0.65544384  0.34459282  0.90087688  1
  O  O16  1  0.65544384  0.49996333  0.40087688  1
  O  O17  1  0.65544384  0.84459282  0.59912312  1
