# generated using pymatgen
data_LiTi2V3O12
_symmetry_space_group_name_H-M   'P 1'
_cell_length_a   9.00573099
_cell_length_b   12.64713812
_cell_length_c   9.14654785
_cell_angle_alpha   90.00000000
_cell_angle_beta   90.00000000
_cell_angle_gamma   90.43182475
_symmetry_Int_Tables_number   1
_chemical_formula_structural   LiTi2V3O12
_chemical_formula_sum   'Li4 Ti8 V12 O48'
_cell_volume   1041.73224632
_cell_formula_units_Z   4
loop_
 _symmetry_equiv_pos_site_id
 _symmetry_equiv_pos_as_xyz
  1  'x, y, z'
loop_
 _atom_site_type_symbol
 _atom_site_label
 _atom_site_symmetry_multiplicity
 _atom_site_fract_x
 _atom_site_fract_y
 _atom_site_fract_z
 _atom_site_occupancy
  Li  Li0  1  0.19095967  0.18882052  0.77773084  1
  Li  Li1  1  0.30904033  0.31117948  0.27773084  1
  Li  Li2  1  0.69095967  0.68882052  0.72226916  1
  Li  Li3  1  0.80904033  0.81117948  0.22226916  1
  Ti  Ti4  1  0.24813797  0.61944923  0.51937309  1
  Ti  Ti5  1  0.25186203  0.88055077  0.01937309  1
  Ti  Ti6  1  0.25145551  0.11561756  0.46607983  1
  Ti  Ti7  1  0.24854449  0.38438244  0.96607983  1
  Ti  Ti8  1  0.75145551  0.61561756  0.03392017  1
  Ti  Ti9  1  0.74854449  0.88438244  0.53392017  1
  Ti  Ti10  1  0.74813797  0.11944923  0.98062691  1
  Ti  Ti11  1  0.75186203  0.38055077  0.48062691  1
  V  V12  1  0.03008169  0.48710065  0.24879517  1
  V  V13  1  0.10765545  0.85542904  0.38084597  1
  V  V14  1  0.11296552  0.14105736  0.10933919  1
  V  V15  1  0.39234455  0.64457096  0.88084597  1
  V  V16  1  0.38703448  0.35894264  0.60933919  1
  V  V17  1  0.46991831  0.01289935  0.74879517  1
  V  V18  1  0.53008169  0.98710065  0.25120483  1
  V  V19  1  0.61296552  0.64105736  0.39066081  1
  V  V20  1  0.60765545  0.35542904  0.11915403  1
  V  V21  1  0.88703448  0.85894264  0.89066081  1
  V  V22  1  0.89234455  0.14457096  0.61915403  1
  V  V23  1  0.96991831  0.51289935  0.75120483  1
  O  O24  1  0.07576553  0.44240119  0.87790639  1
  O  O25  1  0.07588053  0.89035756  0.89653405  1
  O  O26  1  0.08024273  0.60416214  0.66270753  1
  O  O27  1  0.07881277  0.17264751  0.58383991  1
  O  O28  1  0.10979358  0.57735165  0.36924263  1
  O  O29  1  0.12781945  0.84508485  0.19367929  1
  O  O30  1  0.14795836  0.98479719  0.43447093  1
  O  O31  1  0.15002335  0.24102177  0.98220303  1
  O  O32  1  0.17495546  0.17993358  0.28437565  1
  O  O33  1  0.17589140  0.41743561  0.16524913  1
  O  O34  1  0.22062629  0.76544465  0.47451299  1
  O  O35  1  0.27937371  0.73455535  0.97451299  1
  O  O36  1  0.28259023  0.46503269  0.55868328  1
  O  O37  1  0.21740977  0.03496731  0.05868328  1
  O  O38  1  0.32410860  0.08256439  0.66524913  1
  O  O39  1  0.32504454  0.32006642  0.78437565  1
  O  O40  1  0.35204164  0.51520281  0.93447093  1
  O  O41  1  0.34997665  0.25897823  0.48220303  1
  O  O42  1  0.37218055  0.65491515  0.69367929  1
  O  O43  1  0.39020642  0.92264835  0.86924263  1
  O  O44  1  0.41975727  0.89583786  0.16270753  1
  O  O45  1  0.42411947  0.60964244  0.39653405  1
  O  O46  1  0.42118723  0.32735249  0.08383991  1
  O  O47  1  0.42423447  0.05759881  0.37790639  1
  O  O48  1  0.57576553  0.94240119  0.62209361  1
  O  O49  1  0.57881277  0.67264751  0.91616009  1
  O  O50  1  0.57588053  0.39035756  0.60346595  1
  O  O51  1  0.58024273  0.10416214  0.83729247  1
  O  O52  1  0.60979358  0.07735165  0.13075737  1
  O  O53  1  0.62781945  0.34508485  0.30632071  1
  O  O54  1  0.65002335  0.74102177  0.51779697  1
  O  O55  1  0.64795836  0.48479719  0.06552907  1
  O  O56  1  0.67495546  0.67993358  0.21562435  1
  O  O57  1  0.67589140  0.91743561  0.33475087  1
  O  O58  1  0.78259023  0.96503269  0.94131672  1
  O  O59  1  0.71740977  0.53496731  0.44131672  1
  O  O60  1  0.72062629  0.26544465  0.02548701  1
  O  O61  1  0.77937371  0.23455535  0.52548701  1
  O  O62  1  0.82410860  0.58256439  0.83475087  1
  O  O63  1  0.82504454  0.82006642  0.71562435  1
  O  O64  1  0.84997665  0.75897823  0.01779697  1
  O  O65  1  0.85204164  0.01520281  0.56552907  1
  O  O66  1  0.87218055  0.15491515  0.80632071  1
  O  O67  1  0.89020642  0.42264835  0.63075737  1
  O  O68  1  0.92118723  0.82735249  0.41616009  1
  O  O69  1  0.91975727  0.39583786  0.33729247  1
  O  O70  1  0.92411947  0.10964244  0.10346595  1
  O  O71  1  0.92423447  0.55759881  0.12209361  1
