# generated using pymatgen
data_RbV4O10
_symmetry_space_group_name_H-M   'P 1'
_cell_length_a   3.67774092
_cell_length_b   6.22861020
_cell_length_c   9.81880448
_cell_angle_alpha   99.73275682
_cell_angle_beta   90.35591511
_cell_angle_gamma   107.16508215
_symmetry_Int_Tables_number   1
_chemical_formula_structural   RbV4O10
_chemical_formula_sum   'Rb1 V4 O10'
_cell_volume   211.43376375
_cell_formula_units_Z   1
loop_
 _symmetry_equiv_pos_site_id
 _symmetry_equiv_pos_as_xyz
  1  'x, y, z'
loop_
 _atom_site_type_symbol
 _atom_site_label
 _atom_site_symmetry_multiplicity
 _atom_site_fract_x
 _atom_site_fract_y
 _atom_site_fract_z
 _atom_site_occupancy
  Rb  Rb0  1  0.50000000  -0.00000000  0.50000000  1
  V  V1  1  0.21609366  0.42313454  0.84195765  1
  V  V2  1  0.92107809  0.83434486  0.84545892  1
  V  V3  1  0.07892191  0.16565514  0.15454108  1
  V  V4  1  0.78390634  0.57686546  0.15804235  1
  O  O5  1  0.07451921  0.13522730  0.90371240  1
  O  O6  1  0.17096235  0.33790251  0.67415190  1
  O  O7  1  0.38646554  0.76646705  0.87225337  1
  O  O8  1  0.74921652  0.48949196  0.88832819  1
  O  O9  1  0.90045347  0.80558757  0.67657236  1
  O  O10  1  0.09954653  0.19441243  0.32342764  1
  O  O11  1  0.25078348  0.51050804  0.11167181  1
  O  O12  1  0.61353446  0.23353295  0.12774663  1
  O  O13  1  0.82903765  0.66209749  0.32584810  1
  O  O14  1  0.92548079  0.86477270  0.09628760  1
