# generated using pymatgen
data_LiVCrP2(O4F)2
_symmetry_space_group_name_H-M   'P 1'
_cell_length_a   5.16460448
_cell_length_b   19.50791589
_cell_length_c   7.32919286
_cell_angle_alpha   93.70210754
_cell_angle_beta   106.06608970
_cell_angle_gamma   89.55184046
_symmetry_Int_Tables_number   1
_chemical_formula_structural   LiVCrP2(O4F)2
_chemical_formula_sum   'Li4 V4 Cr4 P8 O32 F8'
_cell_volume   708.06107065
_cell_formula_units_Z   4
loop_
 _symmetry_equiv_pos_site_id
 _symmetry_equiv_pos_as_xyz
  1  'x, y, z'
loop_
 _atom_site_type_symbol
 _atom_site_label
 _atom_site_symmetry_multiplicity
 _atom_site_fract_x
 _atom_site_fract_y
 _atom_site_fract_z
 _atom_site_occupancy
  Li  Li0  1  0.03363357  0.89083666  0.29078066  1
  Li  Li1  1  0.28348399  0.64144764  0.53984564  1
  Li  Li2  1  0.53207197  0.39175383  0.78841164  1
  Li  Li3  1  0.96894430  0.11029776  0.71113572  1
  V  V4  1  0.99987170  0.00030405  0.00020861  1
  V  V5  1  0.24965030  0.74887251  0.24440152  1
  V  V6  1  0.49925743  0.49895402  0.49429306  1
  V  V7  1  0.74936700  0.25041503  0.75012840  1
  Cr  Cr8  1  0.12970233  0.37471351  0.12799531  1
  Cr  Cr9  1  0.36876098  0.12609541  0.37128299  1
  Cr  Cr10  1  0.63026254  0.87485036  0.62804876  1
  Cr  Cr11  1  0.87838184  0.62478048  0.87716318  1
  P  P12  1  0.08923441  0.47164961  0.77156038  1
  P  P13  1  0.15533215  0.28011253  0.48001255  1
  P  P14  1  0.40987557  0.02777531  0.72545489  1
  P  P15  1  0.65607561  0.77916634  0.97709830  1
  P  P16  1  0.34371411  0.22013502  0.01936827  1
  P  P17  1  0.58931999  0.97247261  0.27409150  1
  P  P18  1  0.83985866  0.72161939  0.52164938  1
  P  P19  1  0.90615698  0.52919304  0.22721312  1
  O  O20  1  0.05498842  0.19496196  0.90106370  1
  O  O21  1  0.10907223  0.54635668  0.84800628  1
  O  O22  1  0.23194323  0.42014315  0.91702914  1
  O  O23  1  0.01168782  0.71347671  0.37290965  1
  O  O24  1  0.24435946  0.03411645  0.87874471  1
  O  O25  1  0.02806463  0.33000045  0.33095848  1
  O  O26  1  0.14801937  0.20511897  0.40516855  1
  O  O27  1  0.26118548  0.46351790  0.62282963  1
  O  O28  1  0.26625581  0.08025331  0.58426022  1
  O  O29  1  0.19535598  0.55344890  0.34763828  1
  O  O30  1  0.38868438  0.95410101  0.63958316  1
  O  O31  1  0.52294290  0.21510585  0.87532413  1
  O  O32  1  0.52765710  0.83070669  0.83240809  1
  O  O33  1  0.44432764  0.30474036  0.59863888  1
  O  O34  1  0.29193229  0.94907998  0.17607607  1
  O  O35  1  0.64655450  0.70553505  0.89363149  1
  O  O36  1  0.34982868  0.29470393  0.09416715  1
  O  O37  1  0.70756098  0.05054917  0.82381117  1
  O  O38  1  0.54257224  0.69836293  0.42565467  1
  O  O39  1  0.47125094  0.16978016  0.16871968  1
  O  O40  1  0.48317482  0.78271224  0.12634841  1
  O  O41  1  0.60935374  0.04582422  0.35923405  1
  O  O42  1  0.79197370  0.44839609  0.67561862  1
  O  O43  1  0.73321758  0.91966177  0.41585779  1
  O  O44  1  0.73309380  0.53278802  0.37646197  1
  O  O45  1  0.86061066  0.79629400  0.59876133  1
  O  O46  1  0.98221708  0.66999999  0.66683058  1
  O  O47  1  0.75596757  0.96538582  0.12163781  1
  O  O48  1  0.97687830  0.28451643  0.62468428  1
  O  O49  1  0.77733760  0.58053628  0.08217941  1
  O  O50  1  0.89774389  0.45545497  0.14452299  1
  O  O51  1  0.94534818  0.80337422  0.09771780  1
  F  F52  1  0.06250057  0.07911039  0.18014058  1
  F  F53  1  0.31470621  0.83115207  0.43001850  1
  F  F54  1  0.18564176  0.66986612  0.06732537  1
  F  F55  1  0.56272338  0.58139112  0.68012633  1
  F  F56  1  0.43699590  0.41972468  0.31744394  1
  F  F57  1  0.81230366  0.33204863  0.93226868  1
  F  F58  1  0.68482775  0.16816901  0.56742566  1
  F  F59  1  0.93559133  0.92082623  0.81978588  1
