# generated using pymatgen
data_Na8(NiO2)9
_symmetry_space_group_name_H-M   'P 1'
_cell_length_a   7.59193123
_cell_length_b   7.08358567
_cell_length_c   8.06400499
_cell_angle_alpha   89.67194339
_cell_angle_beta   66.05004860
_cell_angle_gamma   66.06612409
_symmetry_Int_Tables_number   1
_chemical_formula_structural   Na8(NiO2)9
_chemical_formula_sum   'Na8 Ni9 O18'
_cell_volume   355.63034281
_cell_formula_units_Z   1
loop_
 _symmetry_equiv_pos_site_id
 _symmetry_equiv_pos_as_xyz
  1  'x, y, z'
loop_
 _atom_site_type_symbol
 _atom_site_label
 _atom_site_symmetry_multiplicity
 _atom_site_fract_x
 _atom_site_fract_y
 _atom_site_fract_z
 _atom_site_occupancy
  Na  Na0  1  0.88768836  0.78904615  0.78932765  1
  Na  Na1  1  0.42477877  0.89177299  0.89674127  1
  Na  Na2  1  0.77825960  0.55393618  0.55561251  1
  Na  Na3  1  0.32164752  0.68185549  0.67806324  1
  Na  Na4  1  0.67835248  0.31814451  0.32193676  1
  Na  Na5  1  0.22174040  0.44606382  0.44438849  1
  Na  Na6  1  0.57522123  0.10822701  0.10325873  1
  Na  Na7  1  0.11231164  0.21095385  0.21067235  1
  Ni  Ni8  1  0.94657387  0.88250277  0.38822603  1
  Ni  Ni9  1  0.71932783  0.44938676  0.94741381  1
  Ni  Ni10  1  0.83244477  0.66589531  0.16667338  1
  Ni  Ni11  1  0.61570712  0.22139274  0.71622591  1
  Ni  Ni12  1  0.38429288  0.77860726  0.28377409  1
  Ni  Ni13  1  0.16755523  0.33410469  0.83332662  1
  Ni  Ni14  1  0.50000000  0.00000000  0.50000000  1
  Ni  Ni15  1  0.28067217  0.55061324  0.05258619  1
  Ni  Ni16  1  0.05342613  0.11749723  0.61177397  1
  O  O17  1  0.96603005  0.43163697  0.73141880  1
  O  O18  1  0.69766902  0.90734568  0.60468292  1
  O  O19  1  0.80790571  0.14147360  0.82490011  1
  O  O20  1  0.75130168  0.95483406  0.27835268  1
  O  O21  1  0.52526832  0.53367683  0.83592345  1
  O  O22  1  0.86136107  0.19844800  0.49943833  1
  O  O23  1  0.56258426  0.71151378  0.40852121  1
  O  O24  1  0.10239011  0.61599097  0.92983762  1
  O  O25  1  0.37140639  0.23749895  0.93316541  1
  O  O26  1  0.89760989  0.38400903  0.07016238  1
  O  O27  1  0.62859361  0.76250105  0.06683459  1
  O  O28  1  0.43741574  0.28848622  0.59147879  1
  O  O29  1  0.13863893  0.80155200  0.50056167  1
  O  O30  1  0.19209429  0.85852640  0.17509989  1
  O  O31  1  0.47473168  0.46632317  0.16407655  1
  O  O32  1  0.24869832  0.04516594  0.72164732  1
  O  O33  1  0.30233098  0.09265432  0.39531708  1
  O  O34  1  0.03396995  0.56836303  0.26858120  1
