# generated using pymatgen
data_VF5
_symmetry_space_group_name_H-M   'P 1'
_cell_length_a   12.94423742
_cell_length_b   5.76765941
_cell_length_c   5.06644542
_cell_angle_alpha   90.00000000
_cell_angle_beta   90.00000000
_cell_angle_gamma   90.00000000
_symmetry_Int_Tables_number   1
_chemical_formula_structural   VF5
_chemical_formula_sum   'V4 F20'
_cell_volume   378.25044283
_cell_formula_units_Z   4
loop_
 _symmetry_equiv_pos_site_id
 _symmetry_equiv_pos_as_xyz
  1  'x, y, z'
loop_
 _atom_site_type_symbol
 _atom_site_label
 _atom_site_symmetry_multiplicity
 _atom_site_fract_x
 _atom_site_fract_y
 _atom_site_fract_z
 _atom_site_occupancy
  V  V0  1  0.15593491  0.63988012  0.42971677  1
  V  V1  1  0.34406509  0.36011988  0.92971677  1
  V  V2  1  0.65593491  0.86011988  0.57028323  1
  V  V3  1  0.84406509  0.13988012  0.07028323  1
  F  F4  1  0.07453891  0.65858318  0.15599777  1
  F  F5  1  0.08650758  0.83477261  0.62234792  1
  F  F6  1  0.09825453  0.38915105  0.56389880  1
  F  F7  1  0.24032929  0.41342052  0.21816349  1
  F  F8  1  0.24735322  0.84765579  0.32445109  1
  F  F9  1  0.25264678  0.15234421  0.82445109  1
  F  F10  1  0.25967071  0.58657948  0.71816349  1
  F  F11  1  0.40174547  0.61084895  0.06389880  1
  F  F12  1  0.41349242  0.16522739  0.12234792  1
  F  F13  1  0.42546109  0.34141682  0.65599777  1
  F  F14  1  0.57453891  0.84141682  0.84400223  1
  F  F15  1  0.58650758  0.66522739  0.37765208  1
  F  F16  1  0.59825453  0.11084895  0.43610120  1
  F  F17  1  0.74032929  0.08657948  0.78183651  1
  F  F18  1  0.74735322  0.65234421  0.67554891  1
  F  F19  1  0.75264678  0.34765579  0.17554891  1
  F  F20  1  0.75967071  0.91342052  0.28183651  1
  F  F21  1  0.90174547  0.88915105  0.93610120  1
  F  F22  1  0.91349242  0.33477261  0.87765208  1
  F  F23  1  0.92546109  0.15858318  0.34400223  1
