# generated using pymatgen
data_Na5(NiO2)6
_symmetry_space_group_name_H-M   'P 1'
_cell_length_a   6.85380105
_cell_length_b   6.90597896
_cell_length_c   5.98443077
_cell_angle_alpha   76.84093460
_cell_angle_beta   112.78998226
_cell_angle_gamma   113.19305311
_symmetry_Int_Tables_number   1
_chemical_formula_structural   Na5(NiO2)6
_chemical_formula_sum   'Na5 Ni6 O12'
_cell_volume   239.09344954
_cell_formula_units_Z   1
loop_
 _symmetry_equiv_pos_site_id
 _symmetry_equiv_pos_as_xyz
  1  'x, y, z'
loop_
 _atom_site_type_symbol
 _atom_site_label
 _atom_site_symmetry_multiplicity
 _atom_site_fract_x
 _atom_site_fract_y
 _atom_site_fract_z
 _atom_site_occupancy
  Na  Na0  1  0.51002429  0.00627245  0.26308114  1
  Na  Na1  1  0.83334689  0.33333054  0.08331343  1
  Na  Na2  1  0.51890027  0.01608725  0.74502289  1
  Na  Na3  1  0.14776841  0.65058772  0.42164212  1
  Na  Na4  1  0.15663529  0.66037889  0.90358561  1
  Ni  Ni5  1  0.00195122  0.99955171  0.00277319  1
  Ni  Ni6  1  0.00148390  0.00031462  0.50319281  1
  Ni  Ni7  1  0.33620382  0.33186864  0.33500142  1
  Ni  Ni8  1  0.66472415  0.66713185  0.16387872  1
  Ni  Ni9  1  0.33047412  0.33481843  0.83168982  1
  Ni  Ni10  1  0.66517213  0.66633661  0.66348596  1
  O  O11  1  0.22899769  0.02911312  0.37340470  1
  O  O12  1  0.54880720  0.36479834  0.17892699  1
  O  O13  1  0.11729392  0.30154507  0.47873941  1
  O  O14  1  0.23011690  0.03225498  0.87378867  1
  O  O15  1  0.89021738  0.69470782  0.03353998  1
  O  O16  1  0.43655675  0.63444238  0.29288040  1
  O  O17  1  0.54938495  0.36513058  0.68811713  1
  O  O18  1  0.11783306  0.30185075  0.98755244  1
  O  O19  1  0.77644772  0.97196185  0.13312757  1
  O  O20  1  0.88745058  0.70005137  0.52903178  1
  O  O21  1  0.43766040  0.63752036  0.79326107  1
  O  O22  1  0.77921496  0.96660966  0.63762977  1
