# generated using pymatgen
data_V2Bi24O41
_symmetry_space_group_name_H-M   'P 1'
_cell_length_a   10.35213705
_cell_length_b   10.35524793
_cell_length_c   10.44411860
_cell_angle_alpha   90.00000000
_cell_angle_beta   90.00000000
_cell_angle_gamma   90.00000000
_symmetry_Int_Tables_number   1
_chemical_formula_structural   V2Bi24O41
_chemical_formula_sum   'V2 Bi24 O41'
_cell_volume   1119.59850329
_cell_formula_units_Z   1
loop_
 _symmetry_equiv_pos_site_id
 _symmetry_equiv_pos_as_xyz
  1  'x, y, z'
loop_
 _atom_site_type_symbol
 _atom_site_label
 _atom_site_symmetry_multiplicity
 _atom_site_fract_x
 _atom_site_fract_y
 _atom_site_fract_z
 _atom_site_occupancy
  V  V0  1  0.50000000  0.50000000  0.50000000  1
  V  V1  1  0.00000000  0.00000000  0.00000000  1
  Bi  Bi2  1  0.97706832  0.32050115  0.17970866  1
  Bi  Bi3  1  0.97706832  0.67949885  0.82029134  1
  Bi  Bi4  1  0.81992936  0.01982990  0.33023228  1
  Bi  Bi5  1  0.81992936  0.98017010  0.66976772  1
  Bi  Bi6  1  0.83540395  0.33277864  0.51838323  1
  Bi  Bi7  1  0.83540395  0.66722136  0.48161677  1
  Bi  Bi8  1  0.67926699  0.17760939  0.02456853  1
  Bi  Bi9  1  0.67926699  0.82239061  0.97543147  1
  Bi  Bi10  1  0.67641897  0.52468912  0.17740969  1
  Bi  Bi11  1  0.67641897  0.47531088  0.82259031  1
  Bi  Bi12  1  0.52604037  0.18056166  0.67849856  1
  Bi  Bi13  1  0.52604037  0.81943834  0.32150144  1
  Bi  Bi14  1  0.47395963  0.81943834  0.67849856  1
  Bi  Bi15  1  0.47395963  0.18056166  0.32150144  1
  Bi  Bi16  1  0.32358103  0.52468912  0.82259031  1
  Bi  Bi17  1  0.32358103  0.47531088  0.17740969  1
  Bi  Bi18  1  0.32073301  0.82239061  0.02456853  1
  Bi  Bi19  1  0.32073301  0.17760939  0.97543147  1
  Bi  Bi20  1  0.16459605  0.66722136  0.51838323  1
  Bi  Bi21  1  0.16459605  0.33277864  0.48161677  1
  Bi  Bi22  1  0.18007064  0.98017010  0.33023228  1
  Bi  Bi23  1  0.18007064  0.01982990  0.66976772  1
  Bi  Bi24  1  0.02293168  0.67949885  0.17970866  1
  Bi  Bi25  1  0.02293168  0.32050115  0.82029134  1
  O  O26  1  0.99611370  0.75356063  0.36870507  1
  O  O27  1  0.99611370  0.24643937  0.63129493  1
  O  O28  1  0.90214239  0.90086864  0.09537076  1
  O  O29  1  0.90214239  0.09913136  0.90462924  1
  O  O30  1  0.86719562  0.49256798  0.24161418  1
  O  O31  1  0.86719562  0.50743202  0.75838582  1
  O  O32  1  0.80030108  0.19894435  0.19928799  1
  O  O33  1  0.80030108  0.80105565  0.80071201  1
  O  O34  1  0.75657893  0.13086910  0.49607624  1
  O  O35  1  0.75657893  0.86913090  0.50392376  1
  O  O36  1  0.74711829  0.63217249  0.00762405  1
  O  O37  1  0.74711829  0.36782751  0.99237595  1
  O  O38  1  0.70124415  0.69747337  0.29858878  1
  O  O39  1  0.70124415  0.30252663  0.70141122  1
  O  O40  1  0.63146143  0.99241129  0.25349177  1
  O  O41  1  0.63146143  0.00758871  0.74650823  1
  O  O42  1  0.59660979  0.40331918  0.40089194  1
  O  O43  1  0.59660979  0.59668082  0.59910806  1
  O  O44  1  0.50706305  0.24679279  0.13127489  1
  O  O45  1  0.50706305  0.75320721  0.86872511  1
  O  O46  1  0.49293695  0.75320721  0.13127489  1
  O  O47  1  0.49293695  0.24679279  0.86872511  1
  O  O48  1  0.40339021  0.59668082  0.40089194  1
  O  O49  1  0.40339021  0.40331918  0.59910806  1
  O  O50  1  0.36853857  0.99241129  0.74650823  1
  O  O51  1  0.36853857  0.00758871  0.25349177  1
  O  O52  1  0.29875585  0.69747337  0.70141122  1
  O  O53  1  0.29875585  0.30252663  0.29858878  1
  O  O54  1  0.25288171  0.63217249  0.99237595  1
  O  O55  1  0.25288171  0.36782751  0.00762405  1
  O  O56  1  0.24342107  0.86913090  0.49607624  1
  O  O57  1  0.24342107  0.13086910  0.50392376  1
  O  O58  1  0.19969892  0.80105565  0.19928799  1
  O  O59  1  0.19969892  0.19894435  0.80071201  1
  O  O60  1  0.13280438  0.49256798  0.75838582  1
  O  O61  1  0.13280438  0.50743202  0.24161418  1
  O  O62  1  0.09785761  0.90086864  0.90462924  1
  O  O63  1  0.09785761  0.09913136  0.09537076  1
  O  O64  1  0.00388630  0.75356063  0.63129493  1
  O  O65  1  0.00388630  0.24643937  0.36870507  1
  O  O66  1  0.00000000  0.50000000  0.50000000  1
