# generated using pymatgen
data_VF5
_symmetry_space_group_name_H-M   'P 1'
_cell_length_a   9.30640592
_cell_length_b   7.80584702
_cell_length_c   10.65163087
_cell_angle_alpha   90.00000000
_cell_angle_beta   94.46041810
_cell_angle_gamma   90.00000000
_symmetry_Int_Tables_number   1
_chemical_formula_structural   VF5
_chemical_formula_sum   'V8 F40'
_cell_volume   771.43757781
_cell_formula_units_Z   8
loop_
 _symmetry_equiv_pos_site_id
 _symmetry_equiv_pos_as_xyz
  1  'x, y, z'
loop_
 _atom_site_type_symbol
 _atom_site_label
 _atom_site_symmetry_multiplicity
 _atom_site_fract_x
 _atom_site_fract_y
 _atom_site_fract_z
 _atom_site_occupancy
  V  V0  1  0.01960621  0.20695486  0.81716858  1
  V  V1  1  0.11917738  0.22454754  0.33697803  1
  V  V2  1  0.38082262  0.72454754  0.16302197  1
  V  V3  1  0.48039379  0.70695486  0.68283142  1
  V  V4  1  0.51960621  0.29304514  0.31716858  1
  V  V5  1  0.61917738  0.27545246  0.83697803  1
  V  V6  1  0.88082262  0.77545246  0.66302197  1
  V  V7  1  0.98039379  0.79304514  0.18283142  1
  F  F8  1  0.03333937  0.23770986  0.65356681  1
  F  F9  1  0.05800588  0.77678551  0.62171737  1
  F  F10  1  0.09728599  0.40432387  0.85624444  1
  F  F11  1  0.04310718  0.82748233  0.03233218  1
  F  F12  1  0.07853828  0.01676433  0.23425216  1
  F  F13  1  0.08929635  0.33016906  0.19073019  1
  F  F14  1  0.17506874  0.08372672  0.84481599  1
  F  F15  1  0.16865503  0.41074422  0.41990839  1
  F  F16  1  0.19036185  0.08086914  0.45376972  1
  F  F17  1  0.17680481  0.70484017  0.22150389  1
  F  F18  1  0.32493126  0.58372672  0.65518401  1
  F  F19  1  0.32319519  0.20484017  0.27849611  1
  F  F20  1  0.30963815  0.58086914  0.04623028  1
  F  F21  1  0.33134497  0.91074422  0.08009161  1
  F  F22  1  0.40271401  0.90432387  0.64375556  1
  F  F23  1  0.44199412  0.27678551  0.87828263  1
  F  F24  1  0.46666063  0.73770986  0.84643319  1
  F  F25  1  0.41070365  0.83016906  0.30926981  1
  F  F26  1  0.42146172  0.51676433  0.26574784  1
  F  F27  1  0.45689282  0.32748233  0.46766782  1
  F  F28  1  0.54310718  0.67251767  0.53233218  1
  F  F29  1  0.57853828  0.48323567  0.73425216  1
  F  F30  1  0.58929635  0.16983094  0.69073019  1
  F  F31  1  0.53333937  0.26229014  0.15356681  1
  F  F32  1  0.55800588  0.72321449  0.12171737  1
  F  F33  1  0.59728599  0.09567613  0.35624444  1
  F  F34  1  0.66865503  0.08925578  0.91990839  1
  F  F35  1  0.69036185  0.41913086  0.95376972  1
  F  F36  1  0.67680481  0.79515983  0.72150389  1
  F  F37  1  0.67506874  0.41627328  0.34481599  1
  F  F38  1  0.82319519  0.29515983  0.77849611  1
  F  F39  1  0.80963815  0.91913086  0.54623028  1
  F  F40  1  0.83134497  0.58925578  0.58009161  1
  F  F41  1  0.82493126  0.91627328  0.15518401  1
  F  F42  1  0.91070365  0.66983094  0.80926981  1
  F  F43  1  0.92146172  0.98323567  0.76574784  1
  F  F44  1  0.95689282  0.17251767  0.96766782  1
  F  F45  1  0.90271401  0.59567613  0.14375556  1
  F  F46  1  0.94199412  0.22321449  0.37828263  1
  F  F47  1  0.96666063  0.76229014  0.34643319  1
