# generated using pymatgen
data_Ca11Tl9O24
_symmetry_space_group_name_H-M   'P 1'
_cell_length_a   11.38991149
_cell_length_b   16.84262788
_cell_length_c   6.75746608
_cell_angle_alpha   90.00000000
_cell_angle_beta   90.00000000
_cell_angle_gamma   89.85111834
_symmetry_Int_Tables_number   1
_chemical_formula_structural   Ca11Tl9O24
_chemical_formula_sum   'Ca22 Tl18 O48'
_cell_volume   1296.32116258
_cell_formula_units_Z   2
loop_
 _symmetry_equiv_pos_site_id
 _symmetry_equiv_pos_as_xyz
  1  'x, y, z'
loop_
 _atom_site_type_symbol
 _atom_site_label
 _atom_site_symmetry_multiplicity
 _atom_site_fract_x
 _atom_site_fract_y
 _atom_site_fract_z
 _atom_site_occupancy
  Ca  Ca0  1  0.10359789  0.85864810  0.25000000  1
  Ca  Ca1  1  0.10550395  0.85513297  0.75000000  1
  Ca  Ca2  1  0.13398719  0.45866999  0.75000000  1
  Ca  Ca3  1  0.13459403  0.45907125  0.25000000  1
  Ca  Ca4  1  0.16900971  0.22410024  0.25000000  1
  Ca  Ca5  1  0.16885065  0.22360989  0.75000000  1
  Ca  Ca6  1  0.33109898  0.72470274  0.25000000  1
  Ca  Ca7  1  0.36643092  0.95931470  0.25000000  1
  Ca  Ca8  1  0.36482823  0.96025461  0.75000000  1
  Ca  Ca9  1  0.39315081  0.35207905  0.25000000  1
  Ca  Ca10  1  0.39085146  0.35220464  0.75000000  1
  Ca  Ca11  1  0.60914854  0.64779536  0.25000000  1
  Ca  Ca12  1  0.60684919  0.64792095  0.75000000  1
  Ca  Ca13  1  0.63517177  0.03974539  0.25000000  1
  Ca  Ca14  1  0.63356908  0.04068530  0.75000000  1
  Ca  Ca15  1  0.66890102  0.27529726  0.75000000  1
  Ca  Ca16  1  0.83114935  0.77639011  0.25000000  1
  Ca  Ca17  1  0.83099029  0.77589976  0.75000000  1
  Ca  Ca18  1  0.86601281  0.54133001  0.25000000  1
  Ca  Ca19  1  0.86540597  0.54092875  0.75000000  1
  Ca  Ca20  1  0.89449605  0.14486703  0.25000000  1
  Ca  Ca21  1  0.89640211  0.14135190  0.75000000  1
  Tl  Tl22  1  0.08295707  0.64621342  0.00056188  1
  Tl  Tl23  1  0.08295707  0.64621342  0.49943812  1
  Tl  Tl24  1  0.13490005  0.04535944  0.49967783  1
  Tl  Tl25  1  0.13490005  0.04535944  0.00032217  1
  Tl  Tl26  1  0.33009096  0.72660244  0.75000000  1
  Tl  Tl27  1  0.36512178  0.54384581  0.00069244  1
  Tl  Tl28  1  0.36512178  0.54384581  0.49930756  1
  Tl  Tl29  1  0.41420282  0.14764438  0.99872881  1
  Tl  Tl30  1  0.41420282  0.14764438  0.50127119  1
  Tl  Tl31  1  0.58579718  0.85235562  0.00127119  1
  Tl  Tl32  1  0.58579718  0.85235562  0.49872881  1
  Tl  Tl33  1  0.63487822  0.45615419  0.99930756  1
  Tl  Tl34  1  0.63487822  0.45615419  0.50069244  1
  Tl  Tl35  1  0.66990904  0.27339756  0.25000000  1
  Tl  Tl36  1  0.86509995  0.95464056  0.99967783  1
  Tl  Tl37  1  0.86509995  0.95464056  0.50032217  1
  Tl  Tl38  1  0.91704293  0.35378658  0.99943812  1
  Tl  Tl39  1  0.91704293  0.35378658  0.50056188  1
  O  O40  1  0.00028720  0.99920961  0.25000000  1
  O  O41  1  0.99971280  0.00079039  0.75000000  1
  O  O42  1  0.00000000  0.50000000  0.00000000  1
  O  O43  1  0.00000000  0.50000000  0.50000000  1
  O  O44  1  0.04437502  0.33377245  0.75000000  1
  O  O45  1  0.04362766  0.33408328  0.25000000  1
  O  O46  1  0.04911295  0.16050633  0.99999451  1
  O  O47  1  0.04911295  0.16050633  0.50000549  1
  O  O48  1  0.19429170  0.75884595  0.50404054  1
  O  O49  1  0.19429170  0.75884595  0.99595946  1
  O  O50  1  0.21911474  0.59439744  0.25000000  1
  O  O51  1  0.22153545  0.59635853  0.75000000  1
  O  O52  1  0.21960832  0.93041872  0.49936321  1
  O  O53  1  0.21960832  0.93041872  0.00063679  1
  O  O54  1  0.27915107  0.42943808  0.99929435  1
  O  O55  1  0.27915107  0.42943808  0.50070565  1
  O  O56  1  0.28214591  0.09430436  0.25000000  1
  O  O57  1  0.27970603  0.09358444  0.75000000  1
  O  O58  1  0.30638634  0.25999194  0.99975135  1
  O  O59  1  0.30638634  0.25999194  0.50024865  1
  O  O60  1  0.44818988  0.66080383  0.99756560  1
  O  O61  1  0.44818988  0.66080383  0.50243440  1
  O  O62  1  0.45664781  0.83346350  0.25000000  1
  O  O63  1  0.45345808  0.83275563  0.75000000  1
  O  O64  1  0.50000000  0.00000000  0.00000000  1
  O  O65  1  0.50000000  0.00000000  0.50000000  1
  O  O66  1  0.50047409  0.50122213  0.25000000  1
  O  O67  1  0.49952591  0.49877787  0.75000000  1
  O  O68  1  0.54654192  0.16724437  0.25000000  1
  O  O69  1  0.54335219  0.16653650  0.75000000  1
  O  O70  1  0.55181012  0.33919617  0.00243440  1
  O  O71  1  0.55181012  0.33919617  0.49756560  1
  O  O72  1  0.69361366  0.74000806  0.00024865  1
  O  O73  1  0.69361366  0.74000806  0.49975135  1
  O  O74  1  0.72029397  0.90641556  0.25000000  1
  O  O75  1  0.71785409  0.90569564  0.75000000  1
  O  O76  1  0.72084893  0.57056192  0.00070565  1
  O  O77  1  0.72084893  0.57056192  0.49929435  1
  O  O78  1  0.78039168  0.06958128  0.99936321  1
  O  O79  1  0.78039168  0.06958128  0.50063679  1
  O  O80  1  0.77846455  0.40364147  0.25000000  1
  O  O81  1  0.78088526  0.40560256  0.75000000  1
  O  O82  1  0.80570830  0.24115405  0.00404054  1
  O  O83  1  0.80570830  0.24115405  0.49595946  1
  O  O84  1  0.95088705  0.83949367  0.00000549  1
  O  O85  1  0.95088705  0.83949367  0.49999451  1
  O  O86  1  0.95562498  0.66622755  0.25000000  1
  O  O87  1  0.95637234  0.66591672  0.75000000  1
