# generated using pymatgen
data_Li3Co2NiO6
_symmetry_space_group_name_H-M   'P 1'
_cell_length_a   6.48372891
_cell_length_b   2.84239944
_cell_length_c   5.74903756
_cell_angle_alpha   90.43090361
_cell_angle_beta   103.49264524
_cell_angle_gamma   77.53821487
_symmetry_Int_Tables_number   1
_chemical_formula_structural   Li3Co2NiO6
_chemical_formula_sum   'Li3 Co2 Ni1 O6'
_cell_volume   100.49706780
_cell_formula_units_Z   1
loop_
 _symmetry_equiv_pos_site_id
 _symmetry_equiv_pos_as_xyz
  1  'x, y, z'
loop_
 _atom_site_type_symbol
 _atom_site_label
 _atom_site_symmetry_multiplicity
 _atom_site_fract_x
 _atom_site_fract_y
 _atom_site_fract_z
 _atom_site_occupancy
  Li  Li0  1  0.99493640  0.00335367  0.49329381  1
  Li  Li1  1  0.33509194  0.33352994  0.83211511  1
  Li  Li2  1  0.67145542  0.66031744  0.17179799  1
  Co  Co3  1  0.99502892  0.00127835  0.99732348  1
  Co  Co4  1  0.66872431  0.66365662  0.66466297  1
  Ni  Ni5  1  0.33202606  0.33219723  0.33033313  1
  O  O6  1  0.99920051  0.50515679  0.22546246  1
  O  O7  1  0.35601893  0.80635405  0.57153175  1
  O  O8  1  0.68114102  0.15956656  0.89653404  1
  O  O9  1  0.30771704  0.85820243  0.08885942  1
  O  O10  1  0.66526022  0.15933904  0.43681856  1
  O  O11  1  0.98217523  0.50577088  0.76565927  1
