# generated using pymatgen
data_RbH2O2F
_symmetry_space_group_name_H-M   'P 1'
_cell_length_a   12.20790826
_cell_length_b   12.20790826
_cell_length_c   4.49138258
_cell_angle_alpha   90.00000000
_cell_angle_beta   90.00000000
_cell_angle_gamma   90.00000000
_symmetry_Int_Tables_number   1
_chemical_formula_structural   RbH2O2F
_chemical_formula_sum   'Rb8 H16 O16 F8'
_cell_volume   669.36432822
_cell_formula_units_Z   8
loop_
 _symmetry_equiv_pos_site_id
 _symmetry_equiv_pos_as_xyz
  1  'x, y, z'
loop_
 _atom_site_type_symbol
 _atom_site_label
 _atom_site_symmetry_multiplicity
 _atom_site_fract_x
 _atom_site_fract_y
 _atom_site_fract_z
 _atom_site_occupancy
  Rb  Rb0  1  0.00000000  0.00000000  0.00000000  1
  Rb  Rb1  1  0.00000000  0.50000000  0.73411353  1
  Rb  Rb2  1  0.23643422  0.73643422  0.75218575  1
  Rb  Rb3  1  0.26356578  0.23643422  0.24781425  1
  Rb  Rb4  1  0.50000000  0.50000000  0.00000000  1
  Rb  Rb5  1  0.50000000  0.00000000  0.26588647  1
  Rb  Rb6  1  0.73643422  0.76356578  0.24781425  1
  Rb  Rb7  1  0.76356578  0.26356578  0.75218575  1
  H  H8  1  0.04036396  0.71503720  0.27154791  1
  H  H9  1  0.06969818  0.25789302  0.69377322  1
  H  H10  1  0.21503720  0.54036396  0.27154791  1
  H  H11  1  0.24210698  0.43030182  0.69377322  1
  H  H12  1  0.25789302  0.93030182  0.30622678  1
  H  H13  1  0.28496280  0.04036396  0.72845209  1
  H  H14  1  0.43030182  0.75789302  0.30622678  1
  H  H15  1  0.45963604  0.21503720  0.72845209  1
  H  H16  1  0.54036396  0.78496280  0.72845209  1
  H  H17  1  0.56969818  0.24210698  0.30622678  1
  H  H18  1  0.71503720  0.95963604  0.72845209  1
  H  H19  1  0.74210698  0.06969818  0.30622678  1
  H  H20  1  0.75789302  0.56969818  0.69377322  1
  H  H21  1  0.78496280  0.45963604  0.27154791  1
  H  H22  1  0.93030182  0.74210698  0.69377322  1
  H  H23  1  0.95963604  0.28496280  0.27154791  1
  O  O24  1  0.00298520  0.21215397  0.63894373  1
  O  O25  1  0.00701440  0.21750181  0.31094263  1
  O  O26  1  0.21215397  0.99701480  0.36105627  1
  O  O27  1  0.21750181  0.99298560  0.68905737  1
  O  O28  1  0.28249819  0.49298560  0.31094263  1
  O  O29  1  0.28784603  0.49701480  0.63894373  1
  O  O30  1  0.49298560  0.71750181  0.68905737  1
  O  O31  1  0.49701480  0.71215397  0.36105627  1
  O  O32  1  0.50298520  0.28784603  0.36105627  1
  O  O33  1  0.50701440  0.28249819  0.68905737  1
  O  O34  1  0.71215397  0.50298520  0.63894373  1
  O  O35  1  0.71750181  0.50701440  0.31094263  1
  O  O36  1  0.78249819  0.00701440  0.68905737  1
  O  O37  1  0.78784603  0.00298520  0.36105627  1
  O  O38  1  0.99298560  0.78249819  0.31094263  1
  O  O39  1  0.99701480  0.78784603  0.63894373  1
  F  F40  1  0.11356044  0.61356044  0.22748194  1
  F  F41  1  0.16660994  0.33339006  0.75819066  1
  F  F42  1  0.33339006  0.83339006  0.24180934  1
  F  F43  1  0.38643956  0.11356044  0.77251806  1
  F  F44  1  0.61356044  0.88643956  0.77251806  1
  F  F45  1  0.66660994  0.16660994  0.24180934  1
  F  F46  1  0.83339006  0.66660994  0.75819066  1
  F  F47  1  0.88643956  0.38643956  0.22748194  1
