# generated using pymatgen
data_LiVCrP2(O4F)2
_symmetry_space_group_name_H-M   'P 1'
_cell_length_a   5.16329543
_cell_length_b   24.55040814
_cell_length_c   7.32732282
_cell_angle_alpha   97.15341295
_cell_angle_beta   106.07198636
_cell_angle_gamma   91.39611784
_symmetry_Int_Tables_number   1
_chemical_formula_structural   LiVCrP2(O4F)2
_chemical_formula_sum   'Li5 V5 Cr5 P10 O40 F10'
_cell_volume   883.88059221
_cell_formula_units_Z   5
loop_
 _symmetry_equiv_pos_site_id
 _symmetry_equiv_pos_as_xyz
  1  'x, y, z'
loop_
 _atom_site_type_symbol
 _atom_site_label
 _atom_site_symmetry_multiplicity
 _atom_site_fract_x
 _atom_site_fract_y
 _atom_site_fract_z
 _atom_site_occupancy
  Li  Li0  1  0.01155615  0.91283881  0.26937419  1
  Li  Li1  1  0.21165716  0.71333584  0.46869654  1
  Li  Li2  1  0.41163115  0.51334773  0.66866788  1
  Li  Li3  1  0.61029012  0.31352171  0.86736409  1
  Li  Li4  1  0.99113593  0.08822709  0.73272942  1
  V  V5  1  -0.00002681  0.00034690  0.00029681  1
  V  V6  1  0.19960358  0.79914579  0.19412261  1
  V  V7  1  0.39922182  0.59917251  0.39392971  1
  V  V8  1  0.59941825  0.39921187  0.59411395  1
  V  V9  1  0.79948135  0.20044736  0.80026035  1
  Cr  Cr10  1  0.00313924  0.49985613  0.00222092  1
  Cr  Cr11  1  0.20472199  0.29987079  0.20309791  1
  Cr  Cr12  1  0.39415900  0.10094510  0.39616634  1
  Cr  Cr13  1  0.60502500  0.89994333  0.60326010  1
  Cr  Cr14  1  0.80314015  0.69984365  0.80213389  1
  P  P15  1  0.18365796  0.37728004  0.86572932  1
  P  P16  1  0.01220821  0.42337724  0.33323809  1
  P  P17  1  0.21130699  0.22414087  0.53589686  1
  P  P18  1  0.41559001  0.02243855  0.73146062  1
  P  P19  1  0.61189689  0.82341388  0.93316497  1
  P  P20  1  0.38774322  0.17615649  0.06343546  1
  P  P21  1  0.58375060  0.97789055  0.26822644  1
  P  P22  1  0.78394311  0.77720374  0.46555603  1
  P  P23  1  0.98355159  0.57723207  0.66536473  1
  P  P24  1  0.81159060  0.62341876  0.13292650  1
  O  O25  1  0.01776011  0.63690515  0.75686924  1
  O  O26  1  0.09353189  0.15610928  0.94086691  1
  O  O27  1  0.11594509  0.53596536  0.80098846  1
  O  O28  1  0.03478068  0.22779183  0.68233330  1
  O  O29  1  0.21803488  0.43700695  0.95710338  1
  O  O30  1  0.15462866  0.57057921  0.51547901  1
  O  O31  1  0.25030156  0.02777073  0.88569081  1
  O  O32  1  0.09316509  0.26403329  0.39674583  1
  O  O33  1  0.10611999  0.64263854  0.25755887  1
  O  O34  1  0.18861837  0.16421213  0.44616143  1
  O  O35  1  0.37991653  0.96339858  0.63164922  1
  O  O36  1  0.35425684  0.37069114  0.71551939  1
  O  O37  1  0.28222313  0.06434384  0.59989927  1
  O  O38  1  0.49294036  0.86440100  0.79824246  1
  O  O39  1  0.30651971  0.44273217  0.45792517  1
  O  O40  1  0.28208266  0.95906860  0.16510615  1
  O  O41  1  0.58719384  0.76426522  0.83548687  1
  O  O42  1  0.56451874  0.17216953  0.91727637  1
  O  O43  1  0.69256684  0.66433071  0.99795461  1
  O  O44  1  0.50572059  0.24392881  0.65887886  1
  O  O45  1  0.48215698  0.75835058  0.36446070  1
  O  O46  1  0.31626621  0.33608320  0.00129989  1
  O  O47  1  0.44062607  0.82639626  0.08380338  1
  O  O48  1  0.40929349  0.23594402  0.15319365  1
  O  O49  1  0.71741029  0.04088054  0.83485352  1
  O  O50  1  0.68184707  0.55832442  0.56425044  1
  O  O51  1  0.50619394  0.13606345  0.20276049  1
  O  O52  1  0.71712911  0.93577964  0.40017078  1
  O  O53  1  0.64049647  0.62637808  0.28369306  1
  O  O54  1  0.61829627  0.03676957  0.36749533  1
  O  O55  1  0.81893092  0.83689219  0.55743564  1
  O  O56  1  0.88182843  0.35846681  0.76480137  1
  O  O57  1  0.91606792  0.73589794  0.60090515  1
  O  O58  1  0.74994171  0.97206366  0.11466237  1
  O  O59  1  0.84059088  0.42634767  0.48369012  1
  O  O60  1  0.78683163  0.56420602  0.03533094  1
  O  O61  1  0.95467500  0.77056025  0.31544840  1
  O  O62  1  0.89282570  0.46422179  0.19792358  1
  O  O63  1  0.90634760  0.84270608  0.05795561  1
  O  O64  1  0.98857477  0.36419057  0.23613719  1
  F  F65  1  0.07778816  0.06360099  0.19599507  1
  F  F66  1  0.27967595  0.86493383  0.39648250  1
  F  F67  1  0.12023913  0.73570709  0.00127087  1
  F  F68  1  0.47809205  0.66507174  0.59639730  1
  F  F69  1  0.32023358  0.53570539  0.20128020  1
  F  F70  1  0.67809760  0.46507261  0.79652934  1
  F  F71  1  0.52168030  0.33562693  0.40150471  1
  F  F72  1  0.87797426  0.26571503  0.99887371  1
  F  F73  1  0.71942892  0.13463798  0.60108162  1
  F  F74  1  0.92037276  0.93654076  0.80390173  1
