# generated using pymatgen
data_Ba2B2O5
_symmetry_space_group_name_H-M   'P 1'
_cell_length_a   13.44142612
_cell_length_b   4.24823281
_cell_length_c   11.02514436
_cell_angle_alpha   90.00000000
_cell_angle_beta   105.89870145
_cell_angle_gamma   90.00000000
_symmetry_Int_Tables_number   1
_chemical_formula_structural   Ba2B2O5
_chemical_formula_sum   'Ba8 B8 O20'
_cell_volume   605.47890530
_cell_formula_units_Z   4
loop_
 _symmetry_equiv_pos_site_id
 _symmetry_equiv_pos_as_xyz
  1  'x, y, z'
loop_
 _atom_site_type_symbol
 _atom_site_label
 _atom_site_symmetry_multiplicity
 _atom_site_fract_x
 _atom_site_fract_y
 _atom_site_fract_z
 _atom_site_occupancy
  Ba  Ba0  1  0.08725504  0.72150002  0.41596169  1
  Ba  Ba1  1  0.13990787  0.26340238  0.10476790  1
  Ba  Ba2  1  0.36009213  0.76340238  0.89523210  1
  Ba  Ba3  1  0.41274496  0.22150002  0.58403831  1
  Ba  Ba4  1  0.58725504  0.77849998  0.41596169  1
  Ba  Ba5  1  0.63990787  0.23659762  0.10476790  1
  Ba  Ba6  1  0.86009213  0.73659762  0.89523210  1
  Ba  Ba7  1  0.91274496  0.27849998  0.58403831  1
  B  B8  1  0.07572306  0.84262539  0.82570780  1
  B  B9  1  0.18311665  0.17730437  0.69562311  1
  B  B10  1  0.31688335  0.67730437  0.30437689  1
  B  B11  1  0.42427694  0.34262539  0.17429220  1
  B  B12  1  0.57572306  0.65737461  0.82570780  1
  B  B13  1  0.68311665  0.32269563  0.69562311  1
  B  B14  1  0.81688335  0.82269563  0.30437689  1
  B  B15  1  0.92427694  0.15737461  0.17429220  1
  O  O16  1  0.01421703  0.21933584  0.26576562  1
  O  O17  1  0.11157170  0.21022617  0.58113078  1
  O  O18  1  0.15998814  0.01269750  0.79928395  1
  O  O19  1  0.09046366  0.76187639  0.94980352  1
  O  O20  1  0.21674298  0.78260996  0.27670402  1
  O  O21  1  0.28325702  0.28260996  0.72329598  1
  O  O22  1  0.34001186  0.51269750  0.20071605  1
  O  O23  1  0.38842830  0.71022617  0.41886922  1
  O  O24  1  0.48578297  0.71933584  0.73423438  1
  O  O25  1  0.40953634  0.26187639  0.05019648  1
  O  O26  1  0.51421703  0.28066416  0.26576562  1
  O  O27  1  0.61157170  0.28977383  0.58113078  1
  O  O28  1  0.65998814  0.48730250  0.79928395  1
  O  O29  1  0.59046366  0.73812361  0.94980352  1
  O  O30  1  0.71674298  0.71739004  0.27670402  1
  O  O31  1  0.78325702  0.21739004  0.72329598  1
  O  O32  1  0.84001186  0.98730250  0.20071605  1
  O  O33  1  0.88842830  0.78977383  0.41886922  1
  O  O34  1  0.98578297  0.78066416  0.73423438  1
  O  O35  1  0.90953634  0.23812361  0.05019648  1
