# generated using pymatgen
data_Na5Ni2P2(CO7)2
_symmetry_space_group_name_H-M   'P 1'
_cell_length_a   10.16022408
_cell_length_b   10.39632860
_cell_length_c   6.61901904
_cell_angle_alpha   90.00000000
_cell_angle_beta   90.00000000
_cell_angle_gamma   60.60339638
_symmetry_Int_Tables_number   1
_chemical_formula_structural   Na5Ni2P2(CO7)2
_chemical_formula_sum   'Na10 Ni4 P4 C4 O28'
_cell_volume   609.13867007
_cell_formula_units_Z   2
loop_
 _symmetry_equiv_pos_site_id
 _symmetry_equiv_pos_as_xyz
  1  'x, y, z'
loop_
 _atom_site_type_symbol
 _atom_site_label
 _atom_site_symmetry_multiplicity
 _atom_site_fract_x
 _atom_site_fract_y
 _atom_site_fract_z
 _atom_site_occupancy
  Na  Na0  1  0.00232797  0.26757987  0.48630892  1
  Na  Na1  1  0.00232797  0.26757987  0.01369108  1
  Na  Na2  1  0.48932274  0.25725587  0.99382677  1
  Na  Na3  1  0.48932274  0.25725587  0.50617323  1
  Na  Na4  1  0.84655112  0.06939371  0.75000000  1
  Na  Na5  1  0.15344888  0.93060629  0.25000000  1
  Na  Na6  1  0.51067826  0.74274413  0.00617323  1
  Na  Na7  1  0.51067826  0.74274413  0.49382677  1
  Na  Na8  1  0.99767203  0.73242013  0.98630892  1
  Na  Na9  1  0.99767203  0.73242013  0.51369108  1
  Ni  Ni10  1  0.28427600  0.06422051  0.75000000  1
  Ni  Ni11  1  0.21384488  0.43671474  0.25000000  1
  Ni  Ni12  1  0.78615512  0.56328526  0.75000000  1
  Ni  Ni13  1  0.71572400  0.93577949  0.25000000  1
  P  P14  1  0.35166706  0.06717514  0.25000000  1
  P  P15  1  0.14872925  0.43126914  0.75000000  1
  P  P16  1  0.85127075  0.56873086  0.25000000  1
  P  P17  1  0.64833294  0.93282486  0.75000000  1
  C  C18  1  0.82637929  0.10769375  0.25000000  1
  C  C19  1  0.32006823  0.61035880  0.25000000  1
  C  C20  1  0.67993177  0.38964120  0.75000000  1
  C  C21  1  0.17362071  0.89230625  0.75000000  1
  O  O22  1  0.09207902  0.03618102  0.75000000  1
  O  O23  1  0.26527762  0.05463724  0.06444279  1
  O  O24  1  0.26527762  0.05463724  0.43555721  1
  O  O25  1  0.14259782  0.28630229  0.75000000  1
  O  O26  1  0.01867352  0.43610473  0.25000000  1
  O  O27  1  0.48403456  0.06440334  0.75000000  1
  O  O28  1  0.35627921  0.21334116  0.25000000  1
  O  O29  1  0.22961257  0.44564884  0.93840071  1
  O  O30  1  0.22961257  0.44564884  0.56159929  1
  O  O31  1  0.68203630  0.15971285  0.25000000  1
  O  O32  1  0.17436746  0.66314172  0.25000000  1
  O  O33  1  0.39960495  0.46740465  0.25000000  1
  O  O34  1  0.62314889  0.30486745  0.75000000  1
  O  O35  1  0.10973948  0.81354536  0.75000000  1
  O  O36  1  0.89026052  0.18645464  0.25000000  1
  O  O37  1  0.37685111  0.69513255  0.25000000  1
  O  O38  1  0.60039505  0.53259535  0.75000000  1
  O  O39  1  0.82563254  0.33685828  0.75000000  1
  O  O40  1  0.31796370  0.84028715  0.75000000  1
  O  O41  1  0.77038743  0.55435116  0.06159929  1
  O  O42  1  0.77038743  0.55435116  0.43840071  1
  O  O43  1  0.64372079  0.78665884  0.75000000  1
  O  O44  1  0.51596544  0.93559666  0.25000000  1
  O  O45  1  0.98132648  0.56389527  0.75000000  1
  O  O46  1  0.85740218  0.71369771  0.25000000  1
  O  O47  1  0.73472238  0.94536276  0.56444279  1
  O  O48  1  0.73472238  0.94536276  0.93555721  1
  O  O49  1  0.90792098  0.96381898  0.25000000  1
