# generated using pymatgen
data_Mn2VFe3(PO4)6
_symmetry_space_group_name_H-M   'P 1'
_cell_length_a   8.62569800
_cell_length_b   8.64221383
_cell_length_c   8.64221442
_cell_angle_alpha   59.99999831
_cell_angle_beta   59.93663737
_cell_angle_gamma   59.93663916
_symmetry_Int_Tables_number   1
_chemical_formula_structural   Mn2VFe3(PO4)6
_chemical_formula_sum   'Mn2 V1 Fe3 P6 O24'
_cell_volume   455.10614154
_cell_formula_units_Z   1
loop_
 _symmetry_equiv_pos_site_id
 _symmetry_equiv_pos_as_xyz
  1  'x, y, z'
loop_
 _atom_site_type_symbol
 _atom_site_label
 _atom_site_symmetry_multiplicity
 _atom_site_fract_x
 _atom_site_fract_y
 _atom_site_fract_z
 _atom_site_occupancy
  Mn  Mn0  1  0.00639853  0.99786716  0.99786716  1
  Mn  Mn1  1  0.50352132  0.49882656  0.49882656  1
  V  V2  1  0.56414743  0.14528386  0.14528386  1
  Fe  Fe3  1  0.06408109  0.64530630  0.64530630  1
  Fe  Fe4  1  0.43837571  0.85387510  0.85387510  1
  Fe  Fe5  1  0.93157150  0.35614283  0.35614283  1
  P  P6  1  0.24732571  0.25196460  0.54353261  1
  P  P7  1  0.24732571  0.95717709  0.25196460  1
  P  P8  1  0.24732571  0.54353261  0.95717709  1
  P  P9  1  0.74828609  0.45590969  0.04366177  1
  P  P10  1  0.74828609  0.04366177  0.75214246  1
  P  P11  1  0.74828609  0.75214246  0.45590969  1
  O  O12  1  0.07003090  0.11258232  0.31649482  1
  O  O13  1  0.07003090  0.50089195  0.11258232  1
  O  O14  1  0.07003090  0.31649482  0.50089195  1
  O  O15  1  0.23735578  0.08667834  0.73372665  1
  O  O16  1  0.42840903  0.18473060  0.37503593  1
  O  O17  1  0.27599995  0.41190776  0.54754369  1
  O  O18  1  0.23735578  0.94223923  0.08667834  1
  O  O19  1  0.27599995  0.76454760  0.41190776  1
  O  O20  1  0.56816481  0.61097244  0.00418220  1
  O  O21  1  0.27599995  0.54754369  0.76454760  1
  O  O22  1  0.75565876  0.25807869  0.06596788  1
  O  O23  1  0.56816481  0.00418220  0.81668055  1
  O  O24  1  0.42840903  0.01182444  0.18473060  1
  O  O25  1  0.23735578  0.73372665  0.94223923  1
  O  O26  1  0.73477611  0.43469058  0.23848403  1
  O  O27  1  0.42840903  0.37503593  0.01182444  1
  O  O28  1  0.73477611  0.23848403  0.59204929  1
  O  O29  1  0.75565876  0.06596788  0.92029367  1
  O  O30  1  0.73477611  0.59204929  0.43469058  1
  O  O31  1  0.56816481  0.81668055  0.61097244  1
  O  O32  1  0.75565876  0.92029367  0.25807869  1
  O  O33  1  0.93129366  0.70026271  0.48520782  1
  O  O34  1  0.93129366  0.48520782  0.88323580  1
  O  O35  1  0.93129366  0.88323580  0.70026271  1
