# generated using pymatgen
data_TmGaO3
_symmetry_space_group_name_H-M   'P 1'
_cell_length_a   6.02950459
_cell_length_b   6.02955212
_cell_length_c   11.66974091
_cell_angle_alpha   90.00003542
_cell_angle_beta   90.00010901
_cell_angle_gamma   120.00071827
_symmetry_Int_Tables_number   1
_chemical_formula_structural   TmGaO3
_chemical_formula_sum   'Tm6 Ga6 O18'
_cell_volume   367.41373374
_cell_formula_units_Z   6
loop_
 _symmetry_equiv_pos_site_id
 _symmetry_equiv_pos_as_xyz
  1  'x, y, z'
loop_
 _atom_site_type_symbol
 _atom_site_label
 _atom_site_symmetry_multiplicity
 _atom_site_fract_x
 _atom_site_fract_y
 _atom_site_fract_z
 _atom_site_occupancy
  Tm  Tm0  1  0.33333426  0.66668163  0.23370424  1
  Tm  Tm1  1  -0.00000162  0.00000996  0.27514146  1
  Tm  Tm2  1  0.99999193  0.99999274  0.77514047  1
  Tm  Tm3  1  0.33331875  0.66664950  0.73370363  1
  Tm  Tm4  1  0.66665274  0.33331976  0.73370245  1
  Tm  Tm5  1  0.66666372  0.33334741  0.23370369  1
  Ga  Ga6  1  0.99998718  0.66581699  0.50080513  1
  Ga  Ga7  1  -0.00000003  0.33418171  0.00080813  1
  Ga  Ga8  1  0.33414412  0.33414095  0.50080501  1
  Ga  Ga9  1  0.33416363  0.00001485  0.00080612  1
  Ga  Ga10  1  0.66584024  0.66585436  0.00080648  1
  Ga  Ga11  1  0.66581959  0.99998389  0.50080626  1
  O  O12  1  0.99999053  0.69360781  0.66494091  1
  O  O13  1  0.99999861  0.64006348  0.33806370  1
  O  O14  1  0.99998949  0.35993484  0.83806447  1
  O  O15  1  0.99999491  0.30639252  0.16494279  1
  O  O16  1  0.33333605  0.66668811  0.02176018  1
  O  O17  1  0.99998594  0.99998289  0.47639869  1
  O  O18  1  0.00000399  0.00001452  0.97639650  1
  O  O19  1  0.33331456  0.66664300  0.52175774  1
  O  O20  1  0.30637390  0.30637465  0.66494132  1
  O  O21  1  0.35994037  0.35995265  0.33806425  1
  O  O22  1  0.30638400  0.00000948  0.16494234  1
  O  O23  1  0.64004694  0.64005196  0.83806504  1
  O  O24  1  0.69361218  0.69362666  0.16494183  1
  O  O25  1  0.35993747  0.99999189  0.83806415  1
  O  O26  1  0.66664579  0.33331392  0.52175764  1
  O  O27  1  0.66666888  0.33335735  0.02175983  1
  O  O28  1  0.64005501  0.00000771  0.33806459  1
  O  O29  1  0.69360490  0.99999183  0.66494195  1
