# generated using pymatgen
data_LiVF5
_symmetry_space_group_name_H-M   'P 1'
_cell_length_a   7.31356800
_cell_length_b   6.76892652
_cell_length_c   7.63146679
_cell_angle_alpha   90.00000000
_cell_angle_beta   90.87112696
_cell_angle_gamma   90.00000000
_symmetry_Int_Tables_number   1
_chemical_formula_structural   LiVF5
_chemical_formula_sum   'Li4 V4 F20'
_cell_volume   377.75213177
_cell_formula_units_Z   4
loop_
 _symmetry_equiv_pos_site_id
 _symmetry_equiv_pos_as_xyz
  1  'x, y, z'
loop_
 _atom_site_type_symbol
 _atom_site_label
 _atom_site_symmetry_multiplicity
 _atom_site_fract_x
 _atom_site_fract_y
 _atom_site_fract_z
 _atom_site_occupancy
  Li  Li0  1  0.25119718  0.74140182  0.96291071  1
  Li  Li1  1  0.25119718  0.75859818  0.46291071  1
  Li  Li2  1  0.74880282  0.24140182  0.53708929  1
  Li  Li3  1  0.74880282  0.25859818  0.03708929  1
  V  V4  1  0.25469926  0.23550458  0.60944225  1
  V  V5  1  0.25469926  0.26449542  0.10944225  1
  V  V6  1  0.74530074  0.73550458  0.89055775  1
  V  V7  1  0.74530074  0.76449542  0.39055775  1
  F  F8  1  0.99507216  0.75127382  0.89545995  1
  F  F9  1  0.99507216  0.74872618  0.39545995  1
  F  F10  1  0.25198714  0.31719258  0.85740014  1
  F  F11  1  0.25198714  0.18280742  0.35740014  1
  F  F12  1  0.23999699  0.96306637  0.64762386  1
  F  F13  1  0.23999699  0.53693363  0.14762386  1
  F  F14  1  0.27282027  0.50239141  0.55670399  1
  F  F15  1  0.27282027  0.99760859  0.05670399  1
  F  F16  1  0.49666710  0.70563163  0.87596086  1
  F  F17  1  0.49666710  0.79436837  0.37596086  1
  F  F18  1  0.50333290  0.20563163  0.62403914  1
  F  F19  1  0.50333290  0.29436837  0.12403914  1
  F  F20  1  0.72717973  0.00239141  0.94329601  1
  F  F21  1  0.72717973  0.49760859  0.44329601  1
  F  F22  1  0.76000301  0.46306637  0.85237614  1
  F  F23  1  0.76000301  0.03693363  0.35237614  1
  F  F24  1  0.74801286  0.81719258  0.64259986  1
  F  F25  1  0.74801286  0.68280742  0.14259986  1
  F  F26  1  0.00492784  0.25127382  0.60454005  1
  F  F27  1  0.00492784  0.24872618  0.10454005  1
