# generated using pymatgen
data_P2WO8
_symmetry_space_group_name_H-M   'P 1'
_cell_length_a   4.99142219
_cell_length_b   12.98852076
_cell_length_c   10.83769606
_cell_angle_alpha   90.00000000
_cell_angle_beta   95.58054792
_cell_angle_gamma   90.00000000
_symmetry_Int_Tables_number   1
_chemical_formula_structural   P2WO8
_chemical_formula_sum   'P8 W4 O32'
_cell_volume   699.29064978
_cell_formula_units_Z   4
loop_
 _symmetry_equiv_pos_site_id
 _symmetry_equiv_pos_as_xyz
  1  'x, y, z'
loop_
 _atom_site_type_symbol
 _atom_site_label
 _atom_site_symmetry_multiplicity
 _atom_site_fract_x
 _atom_site_fract_y
 _atom_site_fract_z
 _atom_site_occupancy
  P  P0  1  0.19116817  0.08696008  0.88380256  1
  P  P1  1  0.19972986  0.75066593  0.79351854  1
  P  P2  1  0.30027014  0.25066593  0.70648146  1
  P  P3  1  0.30883183  0.58696008  0.61619744  1
  P  P4  1  0.69116817  0.41303992  0.38380256  1
  P  P5  1  0.69972986  0.74933407  0.29351854  1
  P  P6  1  0.80027014  0.24933407  0.20648146  1
  P  P7  1  0.80883183  0.91303992  0.11619744  1
  W  W8  1  0.19348112  0.57296770  0.28759139  1
  W  W9  1  0.30651888  0.07296770  0.21240861  1
  W  W10  1  0.69348112  0.92703230  0.78759139  1
  W  W11  1  0.80651888  0.42703230  0.71240861  1
  O  O12  1  0.99124379  0.83821382  0.75207772  1
  O  O13  1  0.02556767  0.30816067  0.67482810  1
  O  O14  1  0.12239928  0.67652270  0.88537678  1
  O  O15  1  0.07019709  0.51624170  0.63746285  1
  O  O16  1  0.06179405  0.55418220  0.13709655  1
  O  O17  1  0.05984231  0.95039264  0.20008220  1
  O  O18  1  0.25879933  0.19988062  0.84137443  1
  O  O19  1  0.24120067  0.69988062  0.65862557  1
  O  O20  1  0.14497209  0.09459603  0.01852462  1
  O  O21  1  0.42980291  0.01624170  0.86253715  1
  O  O22  1  0.37760072  0.17652270  0.61462322  1
  O  O23  1  0.35502791  0.59459603  0.48147538  1
  O  O24  1  0.47443233  0.80816067  0.82517190  1
  O  O25  1  0.50875621  0.33821382  0.74792228  1
  O  O26  1  0.44015769  0.45039264  0.29991780  1
  O  O27  1  0.43820595  0.05418220  0.36290345  1
  O  O28  1  0.56179405  0.94581780  0.63709655  1
  O  O29  1  0.55984231  0.54960736  0.70008220  1
  O  O30  1  0.49124379  0.66178618  0.25207772  1
  O  O31  1  0.52556767  0.19183933  0.17482810  1
  O  O32  1  0.64497209  0.40540397  0.51852462  1
  O  O33  1  0.62239928  0.82347730  0.38537678  1
  O  O34  1  0.57019709  0.98375830  0.13746285  1
  O  O35  1  0.85502791  0.90540397  0.98147538  1
  O  O36  1  0.75879933  0.30011938  0.34137443  1
  O  O37  1  0.74120067  0.80011938  0.15862557  1
  O  O38  1  0.94015769  0.04960736  0.79991780  1
  O  O39  1  0.93820595  0.44581780  0.86290345  1
  O  O40  1  0.92980291  0.48375830  0.36253715  1
  O  O41  1  0.87760072  0.32347730  0.11462322  1
  O  O42  1  0.97443233  0.69183933  0.32517190  1
  O  O43  1  0.00875621  0.16178618  0.24792228  1
