# generated using pymatgen
data_Li2CuSiO4
_symmetry_space_group_name_H-M   'P 1'
_cell_length_a   6.89459973
_cell_length_b   5.14706992
_cell_length_c   10.09513323
_cell_angle_alpha   90.00000000
_cell_angle_beta   89.81344674
_cell_angle_gamma   90.00000000
_symmetry_Int_Tables_number   1
_chemical_formula_structural   Li2CuSiO4
_chemical_formula_sum   'Li8 Cu4 Si4 O16'
_cell_volume   358.24396153
_cell_formula_units_Z   4
loop_
 _symmetry_equiv_pos_site_id
 _symmetry_equiv_pos_as_xyz
  1  'x, y, z'
loop_
 _atom_site_type_symbol
 _atom_site_label
 _atom_site_symmetry_multiplicity
 _atom_site_fract_x
 _atom_site_fract_y
 _atom_site_fract_z
 _atom_site_occupancy
  Li  Li0  1  0.00364117  0.24367295  0.84419314  1
  Li  Li1  1  0.00364117  0.25632705  0.34419414  1
  Li  Li2  1  0.23943307  0.37891635  0.65793365  1
  Li  Li3  1  0.23943307  0.12108365  0.15793365  1
  Li  Li4  1  0.76056693  0.87891635  0.84206635  1
  Li  Li5  1  0.76056693  0.62108365  0.34206635  1
  Li  Li6  1  0.99635883  0.74367295  0.65580686  1
  Li  Li7  1  0.99635883  0.75632705  0.15580586  1
  Cu  Cu8  1  0.49897209  0.27380451  0.86632487  1
  Cu  Cu9  1  0.50102791  0.77380451  0.63367513  1
  Cu  Cu10  1  0.49897209  0.22619549  0.36632487  1
  Cu  Cu11  1  0.50102791  0.72619549  0.13367513  1
  Si  Si12  1  0.24147245  0.74885540  0.89830850  1
  Si  Si13  1  0.24147245  0.75114460  0.39830850  1
  Si  Si14  1  0.75852755  0.24885540  0.60169150  1
  Si  Si15  1  0.75852755  0.25114460  0.10169150  1
  O  O16  1  0.04144152  0.86219618  0.83936049  1
  O  O17  1  0.04144152  0.63780382  0.33936049  1
  O  O18  1  0.25238277  0.43428558  0.86007927  1
  O  O19  1  0.25107280  0.71182451  0.56096209  1
  O  O20  1  0.25238277  0.06571442  0.36007927  1
  O  O21  1  0.44030224  0.88885437  0.83285891  1
  O  O22  1  0.25107280  0.78817549  0.06096209  1
  O  O23  1  0.44030224  0.61114563  0.33285891  1
  O  O24  1  0.55969776  0.38885437  0.66714109  1
  O  O25  1  0.74892720  0.21182451  0.93903791  1
  O  O26  1  0.55969776  0.11114563  0.16714109  1
  O  O27  1  0.74761723  0.93428558  0.63992073  1
  O  O28  1  0.74892720  0.28817549  0.43903791  1
  O  O29  1  0.74761723  0.56571442  0.13992073  1
  O  O30  1  0.95855848  0.36219618  0.66063951  1
  O  O31  1  0.95855848  0.13780382  0.16063951  1
