# generated using pymatgen
data_Sb2(SO4)3
_symmetry_space_group_name_H-M   'P 1'
_cell_length_a   8.90087029
_cell_length_b   9.59807779
_cell_length_c   8.90086984
_cell_angle_alpha   117.62481436
_cell_angle_beta   59.99999834
_cell_angle_gamma   117.62481680
_symmetry_Int_Tables_number   1
_chemical_formula_structural   Sb2(SO4)3
_chemical_formula_sum   'Sb4 S6 O24'
_cell_volume   556.19424288
_cell_formula_units_Z   2
loop_
 _symmetry_equiv_pos_site_id
 _symmetry_equiv_pos_as_xyz
  1  'x, y, z'
loop_
 _atom_site_type_symbol
 _atom_site_label
 _atom_site_symmetry_multiplicity
 _atom_site_fract_x
 _atom_site_fract_y
 _atom_site_fract_z
 _atom_site_occupancy
  Sb  Sb0  1  0.14281872  0.42845516  0.14281872  1
  Sb  Sb1  1  0.34761451  0.04284254  0.34761451  1
  Sb  Sb2  1  0.65238549  0.95715746  0.65238549  1
  Sb  Sb3  1  0.85718128  0.57154484  0.85718128  1
  S  S4  1  0.04052021  0.24747409  0.45594151  1
  S  S5  1  0.54405849  0.75252591  0.24898764  1
  S  S6  1  0.24898764  0.75252591  0.95947979  1
  S  S7  1  0.75101236  0.24747409  0.04052021  1
  S  S8  1  0.45594151  0.24747409  0.75101236  1
  S  S9  1  0.95947979  0.75252591  0.54405849  1
  O  O10  1  0.20779863  0.88100450  0.14124718  1
  O  O11  1  0.14124718  0.88100450  0.53195968  1
  O  O12  1  0.01776129  0.41005558  0.59014361  1
  O  O13  1  0.13534316  0.26221283  0.26714453  1
  O  O14  1  0.53195968  0.88100450  0.20779863  1
  O  O15  1  0.14027486  0.73778717  0.86465684  1
  O  O16  1  0.40985639  0.58994442  0.19785032  1
  O  O17  1  0.15160292  0.19931204  0.49408045  1
  O  O18  1  0.50591955  0.80068796  0.44637134  1
  O  O19  1  0.19785032  0.58994442  0.98223871  1
  O  O20  1  0.73285547  0.73778717  0.14027486  1
  O  O21  1  0.44637134  0.80068796  0.84839708  1
  O  O22  1  0.55362866  0.19931204  0.15160292  1
  O  O23  1  0.26714453  0.26221283  0.85972514  1
  O  O24  1  0.80214968  0.41005558  0.01776129  1
  O  O25  1  0.49408045  0.19931204  0.55362866  1
  O  O26  1  0.84839708  0.80068796  0.50591955  1
  O  O27  1  0.59014361  0.41005558  0.80214968  1
  O  O28  1  0.85972514  0.26221283  0.13534316  1
  O  O29  1  0.46804032  0.11899550  0.79220137  1
  O  O30  1  0.86465684  0.73778717  0.73285547  1
  O  O31  1  0.98223871  0.58994442  0.40985639  1
  O  O32  1  0.85875282  0.11899550  0.46804032  1
  O  O33  1  0.79220137  0.11899550  0.85875282  1
