# generated using pymatgen
data_MgV3O8
_symmetry_space_group_name_H-M   'P 1'
_cell_length_a   6.83340132
_cell_length_b   6.83340132
_cell_length_c   13.95579082
_cell_angle_alpha   98.55454928
_cell_angle_beta   81.44545072
_cell_angle_gamma   101.01569587
_symmetry_Int_Tables_number   1
_chemical_formula_structural   MgV3O8
_chemical_formula_sum   'Mg4 V12 O32'
_cell_volume   627.66813691
_cell_formula_units_Z   4
loop_
 _symmetry_equiv_pos_site_id
 _symmetry_equiv_pos_as_xyz
  1  'x, y, z'
loop_
 _atom_site_type_symbol
 _atom_site_label
 _atom_site_symmetry_multiplicity
 _atom_site_fract_x
 _atom_site_fract_y
 _atom_site_fract_z
 _atom_site_occupancy
  Mg  Mg0  1  0.14931847  0.21336069  0.14547697  1
  Mg  Mg1  1  0.71336069  0.64931847  0.35452303  1
  Mg  Mg2  1  0.28663931  0.35068153  0.64547697  1
  Mg  Mg3  1  0.85068153  0.78663931  0.85452303  1
  V  V4  1  0.26641645  0.73506309  0.11155136  1
  V  V5  1  0.23506309  0.76641645  0.38844864  1
  V  V6  1  0.17088541  0.82832223  0.64645249  1
  V  V7  1  0.78715774  0.84881821  0.13373251  1
  V  V8  1  0.32832223  0.67088541  0.85354751  1
  V  V9  1  0.34881821  0.28715774  0.36626749  1
  V  V10  1  0.65118179  0.71284226  0.63373251  1
  V  V11  1  0.67167777  0.32911459  0.14645249  1
  V  V12  1  0.21284226  0.15118179  0.86626749  1
  V  V13  1  0.82911459  0.17167777  0.35354751  1
  V  V14  1  0.76493691  0.23358355  0.61155136  1
  V  V15  1  0.73358355  0.26493691  0.88844864  1
  O  O16  1  0.08955058  0.90185975  0.14198734  1
  O  O17  1  0.01205239  0.67014856  0.35111561  1
  O  O18  1  0.33318028  0.99154432  0.34682481  1
  O  O19  1  0.18297603  0.82683369  0.52048918  1
  O  O20  1  0.49154432  0.83318028  0.15317519  1
  O  O21  1  0.17014856  0.51205239  0.14888439  1
  O  O22  1  0.16740238  0.84340093  0.84209481  1
  O  O23  1  0.08276746  0.25162211  0.31243708  1
  O  O24  1  0.75397907  0.92809823  0.30660163  1
  O  O25  1  0.40185975  0.58955058  0.35801266  1
  O  O26  1  0.19413224  0.19411276  0.98795829  1
  O  O27  1  0.80586776  0.80588724  0.01204171  1
  O  O28  1  0.34340093  0.66740238  0.65790519  1
  O  O29  1  0.32683369  0.68297603  0.97951082  1
  O  O30  1  0.24837789  0.41723254  0.81243708  1
  O  O31  1  0.57190177  0.74602093  0.80660163  1
  O  O32  1  0.30588724  0.30586776  0.48795829  1
  O  O33  1  0.69411276  0.69413224  0.51204171  1
  O  O34  1  0.75162211  0.58276746  0.18756292  1
  O  O35  1  0.42809823  0.25397907  0.19339837  1
  O  O36  1  0.67316631  0.31702397  0.02048918  1
  O  O37  1  0.65659907  0.33259762  0.34209481  1
  O  O38  1  0.59814025  0.41044942  0.64198734  1
  O  O39  1  0.24602093  0.07190177  0.69339837  1
  O  O40  1  0.91723254  0.74837789  0.68756292  1
  O  O41  1  0.83259762  0.15659907  0.15790519  1
  O  O42  1  0.50845568  0.16681972  0.84682481  1
  O  O43  1  0.82985144  0.48794761  0.85111561  1
  O  O44  1  0.81702397  0.17316631  0.47951082  1
  O  O45  1  0.66681972  0.00845568  0.65317519  1
  O  O46  1  0.98794761  0.32985144  0.64888439  1
  O  O47  1  0.91044942  0.09814025  0.85801266  1
