# generated using pymatgen
data_Dy2Ge2O7
_symmetry_space_group_name_H-M   'P 1'
_cell_length_a   5.80222107
_cell_length_b   5.80222107
_cell_length_c   5.01305189
_cell_angle_alpha   82.57376656
_cell_angle_beta   97.42623344
_cell_angle_gamma   74.70859740
_symmetry_Int_Tables_number   1
_chemical_formula_structural   Dy2Ge2O7
_chemical_formula_sum   'Dy2 Ge2 O7'
_cell_volume   159.05680272
_cell_formula_units_Z   1
loop_
 _symmetry_equiv_pos_site_id
 _symmetry_equiv_pos_as_xyz
  1  'x, y, z'
loop_
 _atom_site_type_symbol
 _atom_site_label
 _atom_site_symmetry_multiplicity
 _atom_site_fract_x
 _atom_site_fract_y
 _atom_site_fract_z
 _atom_site_occupancy
  Dy  Dy0  1  0.69758134  0.69758134  0.00000000  1
  Dy  Dy1  1  0.31017902  0.31017902  0.00000000  1
  Ge  Ge2  1  0.23453018  0.77601780  0.40881569  1
  Ge  Ge3  1  0.77601780  0.23453018  0.59118431  1
  O  O4  1  0.08498500  0.60869946  0.21232308  1
  O  O5  1  0.40546452  0.92137599  0.21236236  1
  O  O6  1  0.40221674  0.60447126  0.72394735  1
  O  O7  1  0.01529570  0.01529570  0.50000000  1
  O  O8  1  0.60447126  0.40221674  0.27605265  1
  O  O9  1  0.92137599  0.40546452  0.78763764  1
  O  O10  1  0.60869946  0.08498500  0.78767692  1
