# generated using pymatgen
data_LiVF5
_symmetry_space_group_name_H-M   'P 1'
_cell_length_a   6.22491356
_cell_length_b   7.93424223
_cell_length_c   7.55559245
_cell_angle_alpha   90.00000000
_cell_angle_beta   90.00000000
_cell_angle_gamma   90.00000000
_symmetry_Int_Tables_number   1
_chemical_formula_structural   LiVF5
_chemical_formula_sum   'Li4 V4 F20'
_cell_volume   373.17049990
_cell_formula_units_Z   4
loop_
 _symmetry_equiv_pos_site_id
 _symmetry_equiv_pos_as_xyz
  1  'x, y, z'
loop_
 _atom_site_type_symbol
 _atom_site_label
 _atom_site_symmetry_multiplicity
 _atom_site_fract_x
 _atom_site_fract_y
 _atom_site_fract_z
 _atom_site_occupancy
  Li  Li0  1  0.21285710  0.42510149  0.75000000  1
  Li  Li1  1  0.28714290  0.92510149  0.25000000  1
  Li  Li2  1  0.71285710  0.07489851  0.75000000  1
  Li  Li3  1  0.78714290  0.57489851  0.25000000  1
  V  V4  1  0.23648313  0.40008154  0.25000000  1
  V  V5  1  0.26351687  0.90008154  0.75000000  1
  V  V6  1  0.73648313  0.09991846  0.25000000  1
  V  V7  1  0.76351687  0.59991846  0.75000000  1
  F  F8  1  0.00477334  0.01027746  0.75000000  1
  F  F9  1  0.09592309  0.60562898  0.25000000  1
  F  F10  1  0.08472975  0.68398255  0.75000000  1
  F  F11  1  0.22023370  0.37160890  0.01308834  1
  F  F12  1  0.22023370  0.37160890  0.48691166  1
  F  F13  1  0.27976630  0.87160890  0.98691166  1
  F  F14  1  0.27976630  0.87160890  0.51308834  1
  F  F15  1  0.41527025  0.18398255  0.25000000  1
  F  F16  1  0.40407691  0.10562898  0.75000000  1
  F  F17  1  0.49522666  0.51027746  0.25000000  1
  F  F18  1  0.50477334  0.48972254  0.75000000  1
  F  F19  1  0.59592309  0.89437102  0.25000000  1
  F  F20  1  0.58472975  0.81601745  0.75000000  1
  F  F21  1  0.72023370  0.12839110  0.48691166  1
  F  F22  1  0.72023370  0.12839110  0.01308834  1
  F  F23  1  0.77976630  0.62839110  0.98691166  1
  F  F24  1  0.77976630  0.62839110  0.51308834  1
  F  F25  1  0.91527025  0.31601745  0.25000000  1
  F  F26  1  0.90407691  0.39437102  0.75000000  1
  F  F27  1  0.99522666  0.98972254  0.25000000  1
