# generated using pymatgen
data_Li4V3CrO8
_symmetry_space_group_name_H-M   'P 1'
_cell_length_a   5.18574872
_cell_length_b   7.92026924
_cell_length_c   7.91083116
_cell_angle_alpha   81.72194374
_cell_angle_beta   70.94230579
_cell_angle_gamma   83.76866269
_symmetry_Int_Tables_number   1
_chemical_formula_structural   Li4V3CrO8
_chemical_formula_sum   'Li8 V6 Cr2 O16'
_cell_volume   303.25106513
_cell_formula_units_Z   2
loop_
 _symmetry_equiv_pos_site_id
 _symmetry_equiv_pos_as_xyz
  1  'x, y, z'
loop_
 _atom_site_type_symbol
 _atom_site_label
 _atom_site_symmetry_multiplicity
 _atom_site_fract_x
 _atom_site_fract_y
 _atom_site_fract_z
 _atom_site_occupancy
  Li  Li0  1  0.00023039  0.00217036  0.99875117  1
  Li  Li1  1  0.99981747  0.25001665  0.25010847  1
  Li  Li2  1  0.99932018  0.62588837  0.12567135  1
  Li  Li3  1  0.99788309  0.12704789  0.62616925  1
  Li  Li4  1  0.00001367  0.49857769  0.50107363  1
  Li  Li5  1  0.00057483  0.87373830  0.37464484  1
  Li  Li6  1  0.00247380  0.37352107  0.87366342  1
  Li  Li7  1  0.99962450  0.74907544  0.75004803  1
  V  V8  1  0.50018329  0.06216810  0.31225728  1
  V  V9  1  0.50065048  0.43770781  0.18809307  1
  V  V10  1  0.49917740  0.81315690  0.06210753  1
  V  V11  1  0.50041467  0.68636140  0.43789721  1
  V  V12  1  0.50067705  0.56252735  0.81262637  1
  V  V13  1  0.50003555  0.93770521  0.68694795  1
  Cr  Cr14  1  0.49973803  0.31219037  0.56347576  1
  Cr  Cr15  1  0.49921340  0.18818485  0.93632443  1
  O  O16  1  0.27315894  0.03113820  0.14790305  1
  O  O17  1  0.72518830  0.21911137  0.09711541  1
  O  O18  1  0.27428642  0.40513742  0.02563651  1
  O  O19  1  0.72708739  0.09575035  0.47550843  1
  O  O20  1  0.27513452  0.27928425  0.40247666  1
  O  O21  1  0.26928772  0.65490610  0.27905889  1
  O  O22  1  0.72776430  0.46785623  0.35077401  1
  O  O23  1  0.27370394  0.15819318  0.77638148  1
  O  O24  1  0.27210641  0.52785373  0.65150899  1
  O  O25  1  0.72965373  0.84573384  0.22196739  1
  O  O26  1  0.72393904  0.34396306  0.72388344  1
  O  O27  1  0.27058533  0.90519755  0.52730177  1
  O  O28  1  0.73097202  0.71638551  0.59756537  1
  O  O29  1  0.27019598  0.78084265  0.90181896  1
  O  O30  1  0.73122494  0.59596353  0.97529992  1
  O  O31  1  0.72568521  0.97264626  0.84593797  1
