# generated using pymatgen
data_Na2VPCO7
_symmetry_space_group_name_H-M   'P 1'
_cell_length_a   8.90111422
_cell_length_b   5.37722753
_cell_length_c   6.50473299
_cell_angle_alpha   90.00000000
_cell_angle_beta   90.00000000
_cell_angle_gamma   87.63654268
_symmetry_Int_Tables_number   1
_chemical_formula_structural   Na2VPCO7
_chemical_formula_sum   'Na4 V2 P2 C2 O14'
_cell_volume   311.07324912
_cell_formula_units_Z   2
loop_
 _symmetry_equiv_pos_site_id
 _symmetry_equiv_pos_as_xyz
  1  'x, y, z'
loop_
 _atom_site_type_symbol
 _atom_site_label
 _atom_site_symmetry_multiplicity
 _atom_site_fract_x
 _atom_site_fract_y
 _atom_site_fract_z
 _atom_site_occupancy
  Na  Na0  1  0.08689306  0.77483782  0.24297279  1
  Na  Na1  1  0.27866618  0.25916483  0.46731862  1
  Na  Na2  1  0.72133382  0.74083517  0.96731862  1
  Na  Na3  1  0.91310794  0.22516218  0.74297279  1
  V  V4  1  0.33451863  0.78398614  0.75838791  1
  V  V5  1  0.66548137  0.21601386  0.25838791  1
  P  P6  1  0.42719460  0.72380312  0.25302581  1
  P  P7  1  0.57280540  0.27619688  0.75302581  1
  C  C8  1  0.05942172  0.70556949  0.74727562  1
  C  C9  1  0.94057828  0.29443051  0.24727562  1
  O  O10  1  0.07804700  0.34318639  0.26200963  1
  O  O11  1  0.10849070  0.93303643  0.75507667  1
  O  O12  1  0.16715788  0.53088561  0.72688419  1
  O  O13  1  0.32224339  0.77398656  0.06415588  1
  O  O14  1  0.32439543  0.79877195  0.44012955  1
  O  O15  1  0.43213934  0.11779681  0.74331058  1
  O  O16  1  0.47296913  0.44399384  0.26746575  1
  O  O17  1  0.52703087  0.55600616  0.76746575  1
  O  O18  1  0.56786066  0.88220319  0.24331058  1
  O  O19  1  0.67560457  0.20122805  0.94012955  1
  O  O20  1  0.67775661  0.22601344  0.56415588  1
  O  O21  1  0.83284212  0.46911439  0.22688419  1
  O  O22  1  0.89150930  0.06696357  0.25507667  1
  O  O23  1  0.92195300  0.65681361  0.76200963  1
