# generated using pymatgen
data_Dy2TeO6
_symmetry_space_group_name_H-M   'P 1'
_cell_length_a   9.18215787
_cell_length_b   9.18204096
_cell_length_c   5.21642733
_cell_angle_alpha   90.00017843
_cell_angle_beta   90.00000000
_cell_angle_gamma   120.00042116
_symmetry_Int_Tables_number   1
_chemical_formula_structural   Dy2TeO6
_chemical_formula_sum   'Dy6 Te3 O18'
_cell_volume   380.87803788
_cell_formula_units_Z   3
loop_
 _symmetry_equiv_pos_site_id
 _symmetry_equiv_pos_as_xyz
  1  'x, y, z'
loop_
 _atom_site_type_symbol
 _atom_site_label
 _atom_site_symmetry_multiplicity
 _atom_site_fract_x
 _atom_site_fract_y
 _atom_site_fract_z
 _atom_site_occupancy
  Dy  Dy0  1  0.99998321  0.62085539  0.00000478  1
  Dy  Dy1  1  0.99998636  0.28332814  0.50002134  1
  Dy  Dy2  1  0.37912782  0.37914461  0.99999522  1
  Dy  Dy3  1  0.28332564  0.00000000  0.50000000  1
  Dy  Dy4  1  0.71665722  0.71667186  0.49997866  1
  Dy  Dy5  1  0.62086368  0.00000000  0.00000000  1
  Te  Te6  1  0.33334204  0.66667059  0.50400678  1
  Te  Te7  1  0.00006967  0.00000000  0.00000000  1
  Te  Te8  1  0.66667045  0.33332941  0.49599322  1
  O  O9  1  0.07930819  0.87910053  0.78936929  1
  O  O10  1  0.22333911  0.75914537  0.29022389  1
  O  O11  1  0.13314908  0.54301076  0.71757511  1
  O  O12  1  0.40986555  0.86684145  0.71755932  1
  O  O13  1  0.24082296  0.46420142  0.29021031  1
  O  O14  1  0.12090072  0.20020540  0.78934196  1
  O  O15  1  0.20020766  0.12089947  0.21063071  1
  O  O16  1  0.53577816  0.77663711  0.29020946  1
  O  O17  1  0.45697540  0.59015056  0.71754417  1
  O  O18  1  0.79978938  0.92069056  0.78932163  1
  O  O19  1  0.46419375  0.24085463  0.70977611  1
  O  O20  1  0.59013831  0.45698924  0.28242489  1
  O  O21  1  0.54302309  0.13315855  0.28244068  1
  O  O22  1  0.77662154  0.53579858  0.70978969  1
  O  O23  1  0.92069532  0.79979460  0.21065804  1
  O  O24  1  0.75914105  0.22336289  0.70979054  1
  O  O25  1  0.86682484  0.40984944  0.28245583  1
  O  O26  1  0.87909883  0.07930944  0.21067837  1
