# generated using pymatgen
data_KNdO2
_symmetry_space_group_name_H-M   'P 1'
_cell_length_a   3.63800389
_cell_length_b   3.63782177
_cell_length_c   12.69308825
_cell_angle_alpha   89.99338460
_cell_angle_beta   89.96182573
_cell_angle_gamma   119.99618173
_symmetry_Int_Tables_number   1
_chemical_formula_structural   KNdO2
_chemical_formula_sum   'K2 Nd2 O4'
_cell_volume   145.48528236
_cell_formula_units_Z   2
loop_
 _symmetry_equiv_pos_site_id
 _symmetry_equiv_pos_as_xyz
  1  'x, y, z'
loop_
 _atom_site_type_symbol
 _atom_site_label
 _atom_site_symmetry_multiplicity
 _atom_site_fract_x
 _atom_site_fract_y
 _atom_site_fract_z
 _atom_site_occupancy
  K  K0  1  0.33317453  0.66661979  0.75004668  1
  K  K1  1  0.66682942  0.33329519  0.24995355  1
  Nd  Nd2  1  0.00000056  0.99998730  0.00000191  1
  Nd  Nd3  1  -0.00000061  0.00004327  0.49999959  1
  O  O4  1  0.33381486  0.66699831  0.40488727  1
  O  O5  1  0.33297464  0.66635267  0.09512420  1
  O  O6  1  0.66617538  0.33309375  0.59511268  1
  O  O7  1  0.66703222  0.33360972  0.90487212  1
