# generated using pymatgen
data_Li4V3CrO8
_symmetry_space_group_name_H-M   'P 1'
_cell_length_a   5.18761217
_cell_length_b   5.99604494
_cell_length_c   10.75902600
_cell_angle_alpha   106.00932190
_cell_angle_beta   85.27810017
_cell_angle_gamma   73.02532897
_symmetry_Int_Tables_number   1
_chemical_formula_structural   Li4V3CrO8
_chemical_formula_sum   'Li8 V6 Cr2 O16'
_cell_volume   302.80287104
_cell_formula_units_Z   2
loop_
 _symmetry_equiv_pos_site_id
 _symmetry_equiv_pos_as_xyz
  1  'x, y, z'
loop_
 _atom_site_type_symbol
 _atom_site_label
 _atom_site_symmetry_multiplicity
 _atom_site_fract_x
 _atom_site_fract_y
 _atom_site_fract_z
 _atom_site_occupancy
  Li  Li0  1  0.00102888  0.12504517  0.74973491  1
  Li  Li1  1  0.00047771  0.99855618  0.00155995  1
  Li  Li2  1  0.00314069  0.24737515  0.49967288  1
  Li  Li3  1  0.99997461  0.37496717  0.25000635  1
  Li  Li4  1  0.99894427  0.62492669  0.75029742  1
  Li  Li5  1  0.99693745  0.50260445  0.00028646  1
  Li  Li6  1  0.99947242  0.75146233  0.49849160  1
  Li  Li7  1  0.00004309  0.87503024  0.24998085  1
  V  V8  1  0.49844642  0.06260504  0.87523090  1
  V  V9  1  0.50005069  0.18732058  0.62510166  1
  V  V10  1  0.50038585  0.31334977  0.37538467  1
  V  V11  1  0.49991286  0.56258269  0.87488189  1
  V  V12  1  0.49966077  0.43661090  0.12461771  1
  V  V13  1  0.50165705  0.68737588  0.62474702  1
  Cr  Cr14  1  0.50096055  0.81296097  0.37445700  1
  Cr  Cr15  1  0.49887461  0.93724388  0.12554098  1
  O  O16  1  0.27455852  0.08492107  0.31059887  1
  O  O17  1  0.72622259  0.03664577  0.43890238  1
  O  O18  1  0.26807707  0.33838685  0.81082214  1
  O  O19  1  0.72837766  0.28595400  0.93861901  1
  O  O20  1  0.72490112  0.16051412  0.18947930  1
  O  O21  1  0.27114038  0.21022175  0.06172063  1
  O  O22  1  0.27170022  0.46425992  0.56142890  1
  O  O23  1  0.73186650  0.41094912  0.68930879  1
  O  O24  1  0.27526152  0.58923065  0.31065691  1
  O  O25  1  0.72885211  0.54033677  0.43851558  1
  O  O26  1  0.27042061  0.83823035  0.81129952  1
  O  O27  1  0.72609519  0.78912521  0.94065099  1
  O  O28  1  0.27375290  0.71353917  0.06087408  1
  O  O29  1  0.27384279  0.96144339  0.55929260  1
  O  O30  1  0.72524110  0.66485841  0.18929951  1
  O  O31  1  0.72972281  0.91136836  0.68853951  1
