# generated using pymatgen
data_Sn2(SO4)3
_symmetry_space_group_name_H-M   'P 1'
_cell_length_a   8.85305333
_cell_length_b   9.23227096
_cell_length_c   12.47215989
_cell_angle_alpha   90.00000000
_cell_angle_beta   87.89206949
_cell_angle_gamma   90.00000000
_symmetry_Int_Tables_number   1
_chemical_formula_structural   Sn2(SO4)3
_chemical_formula_sum   'Sn8 S12 O48'
_cell_volume   1018.70704863
_cell_formula_units_Z   4
loop_
 _symmetry_equiv_pos_site_id
 _symmetry_equiv_pos_as_xyz
  1  'x, y, z'
loop_
 _atom_site_type_symbol
 _atom_site_label
 _atom_site_symmetry_multiplicity
 _atom_site_fract_x
 _atom_site_fract_y
 _atom_site_fract_z
 _atom_site_occupancy
  Sn  Sn0  1  0.25309785  0.97007260  0.37772759  1
  Sn  Sn1  1  0.24724826  0.53880463  0.60979170  1
  Sn  Sn2  1  0.24690215  0.47007260  0.12227241  1
  Sn  Sn3  1  0.25275174  0.03880463  0.89020830  1
  Sn  Sn4  1  0.74724826  0.96119537  0.10979170  1
  Sn  Sn5  1  0.75309785  0.52992740  0.87772759  1
  Sn  Sn6  1  0.75275174  0.46119537  0.39020830  1
  Sn  Sn7  1  0.74690215  0.02992740  0.62227241  1
  S  S8  1  0.03610464  0.27275700  0.50637020  1
  S  S9  1  0.09414983  0.11106699  0.13937717  1
  S  S10  1  0.12565245  0.37051283  0.84357195  1
  S  S11  1  0.37434755  0.87051283  0.65642805  1
  S  S12  1  0.40585017  0.61106699  0.36062283  1
  S  S13  1  0.46389536  0.77275700  0.99362980  1
  S  S14  1  0.53610464  0.22724300  0.00637020  1
  S  S15  1  0.59414983  0.38893301  0.63937717  1
  S  S16  1  0.62565245  0.12948717  0.34357195  1
  S  S17  1  0.87434755  0.62948717  0.15642805  1
  S  S18  1  0.90585017  0.88893301  0.86062283  1
  S  S19  1  0.96389536  0.72724300  0.49362980  1
  O  O20  1  0.04233924  0.61546608  0.56219583  1
  O  O21  1  0.03371206  0.65042400  0.12459794  1
  O  O22  1  0.06585685  0.93864418  0.83186489  1
  O  O23  1  0.05600001  0.76266760  0.39749301  1
  O  O24  1  0.07181639  0.14765836  0.43865302  1
  O  O25  1  0.10364717  0.25848646  0.18111524  1
  O  O26  1  0.11167577  0.11565046  0.01711215  1
  O  O27  1  0.12873491  0.47194041  0.74769854  1
  O  O28  1  0.18525146  0.34304452  0.53535738  1
  O  O29  1  0.19580812  0.22736443  0.80405958  1
  O  O30  1  0.21689717  0.43123448  0.92806260  1
  O  O31  1  0.20217723  0.00898362  0.18234503  1
  O  O32  1  0.29782277  0.50898362  0.31765497  1
  O  O33  1  0.28310283  0.93123448  0.57193740  1
  O  O34  1  0.30419188  0.72736443  0.69594042  1
  O  O35  1  0.31474854  0.84304452  0.96464262  1
  O  O36  1  0.38832423  0.61565046  0.48288785  1
  O  O37  1  0.37126509  0.97194041  0.75230146  1
  O  O38  1  0.39635283  0.75848646  0.31888476  1
  O  O39  1  0.42818361  0.64765836  0.06134698  1
  O  O40  1  0.44399999  0.26266760  0.10250699  1
  O  O41  1  0.46628794  0.15042400  0.37540206  1
  O  O42  1  0.43414315  0.43864418  0.66813511  1
  O  O43  1  0.45766076  0.11546608  0.93780417  1
  O  O44  1  0.54233924  0.88453392  0.06219583  1
  O  O45  1  0.56585685  0.56135582  0.33186489  1
  O  O46  1  0.53371206  0.84957600  0.62459794  1
  O  O47  1  0.55600001  0.73733240  0.89749301  1
  O  O48  1  0.57181639  0.35234164  0.93865302  1
  O  O49  1  0.60364717  0.24151354  0.68111524  1
  O  O50  1  0.62873491  0.02805959  0.24769854  1
  O  O51  1  0.61167577  0.38434954  0.51711215  1
  O  O52  1  0.68525146  0.15695548  0.03535738  1
  O  O53  1  0.69580812  0.27263557  0.30405958  1
  O  O54  1  0.71689717  0.06876552  0.42806260  1
  O  O55  1  0.70217723  0.49101638  0.68234503  1
  O  O56  1  0.79782277  0.99101638  0.81765497  1
  O  O57  1  0.78310283  0.56876552  0.07193740  1
  O  O58  1  0.80419188  0.77263557  0.19594042  1
  O  O59  1  0.81474854  0.65695548  0.46464262  1
  O  O60  1  0.87126509  0.52805959  0.25230146  1
  O  O61  1  0.88832423  0.88434954  0.98288785  1
  O  O62  1  0.89635283  0.74151354  0.81888476  1
  O  O63  1  0.92818361  0.85234164  0.56134698  1
  O  O64  1  0.94399999  0.23733240  0.60250699  1
  O  O65  1  0.93414315  0.06135582  0.16813511  1
  O  O66  1  0.96628794  0.34957600  0.87540206  1
  O  O67  1  0.95766076  0.38453392  0.43780417  1
