# generated using pymatgen
data_Li5Co5(CuO6)2
_symmetry_space_group_name_H-M   'P 1'
_cell_length_a   5.01715917
_cell_length_b   5.01716369
_cell_length_c   9.54342903
_cell_angle_alpha   94.62259376
_cell_angle_beta   94.62275638
_cell_angle_gamma   118.10277153
_symmetry_Int_Tables_number   1
_chemical_formula_structural   Li5Co5(CuO6)2
_chemical_formula_sum   'Li5 Co5 Cu2 O12'
_cell_volume   209.28631940
_cell_formula_units_Z   1
loop_
 _symmetry_equiv_pos_site_id
 _symmetry_equiv_pos_as_xyz
  1  'x, y, z'
loop_
 _atom_site_type_symbol
 _atom_site_label
 _atom_site_symmetry_multiplicity
 _atom_site_fract_x
 _atom_site_fract_y
 _atom_site_fract_z
 _atom_site_occupancy
  Li  Li0  1  0.82515251  0.66178761  0.49174309  1
  Li  Li1  1  0.67759351  0.84435282  0.00717304  1
  Li  Li2  1  0.33821139  0.17484649  0.00825791  1
  Li  Li3  1  0.15564818  0.32240649  0.49282796  1
  Li  Li4  1  0.08153740  0.91846660  0.25000100  1
  Co  Co5  1  0.92018239  0.07981761  0.75000000  1
  Co  Co6  1  0.00000047  0.51234201  0.00715241  1
  Co  Co7  1  0.48765799  0.00000053  0.49284859  1
  Co  Co8  1  0.58690839  0.41309161  0.75000100  1
  Co  Co9  1  0.41374578  0.58625522  0.25000000  1
  Cu  Cu10  1  0.74563274  0.25436826  0.25000100  1
  Cu  Cu11  1  0.25406007  0.74593993  0.75000000  1
  O  O12  1  0.83094148  0.32156956  0.62578262  1
  O  O13  1  0.94006548  0.76623561  0.86027026  1
  O  O14  1  0.69398844  0.53334229  0.13208032  1
  O  O15  1  0.67842944  0.16905752  0.87421838  1
  O  O16  1  0.46665771  0.30601056  0.36792068  1
  O  O17  1  0.74909982  0.94625568  0.36551803  1
  O  O18  1  0.56979798  0.72407887  0.64487005  1
  O  O19  1  0.23376439  0.05993552  0.63972974  1
  O  O20  1  0.34164751  0.82552951  0.11573829  1
  O  O21  1  0.27592213  0.43020502  0.85512995  1
  O  O22  1  0.05374432  0.25090218  0.13448297  1
  O  O23  1  0.17447149  0.65835349  0.38426171  1
