# generated using pymatgen
data_Na3Mn2P2(CO7)2
_symmetry_space_group_name_H-M   'P 1'
_cell_length_a   9.02480523
_cell_length_b   6.57663826
_cell_length_c   10.41287766
_cell_angle_alpha   89.58369103
_cell_angle_beta   88.12209388
_cell_angle_gamma   91.24930314
_symmetry_Int_Tables_number   1
_chemical_formula_structural   Na3Mn2P2(CO7)2
_chemical_formula_sum   'Na6 Mn4 P4 C4 O28'
_cell_volume   617.53581412
_cell_formula_units_Z   2
loop_
 _symmetry_equiv_pos_site_id
 _symmetry_equiv_pos_as_xyz
  1  'x, y, z'
loop_
 _atom_site_type_symbol
 _atom_site_label
 _atom_site_symmetry_multiplicity
 _atom_site_fract_x
 _atom_site_fract_y
 _atom_site_fract_z
 _atom_site_occupancy
  Na  Na0  1  0.24087247  0.02720616  0.61802337  1
  Na  Na1  1  0.23994928  0.00506601  0.12377886  1
  Na  Na2  1  0.23978656  0.48518905  0.12621580  1
  Na  Na3  1  0.76021344  0.51481095  0.87378420  1
  Na  Na4  1  0.76005072  0.99493399  0.87622114  1
  Na  Na5  1  0.75912753  0.97279384  0.38197663  1
  Mn  Mn6  1  0.34812920  0.74601575  0.88884516  1
  Mn  Mn7  1  0.34593361  0.74005207  0.39653817  1
  Mn  Mn8  1  0.65406639  0.25994793  0.60346183  1
  Mn  Mn9  1  0.65187080  0.25398425  0.11115484  1
  P  P10  1  0.42869676  0.24926924  0.85807959  1
  P  P11  1  0.42621870  0.24631049  0.35844155  1
  P  P12  1  0.57378130  0.75368951  0.64155845  1
  P  P13  1  0.57130324  0.75073076  0.14192041  1
  C  C14  1  0.07990501  0.75173258  0.86421291  1
  C  C15  1  0.07824867  0.74743520  0.36615550  1
  C  C16  1  0.92175133  0.25256480  0.63384450  1
  C  C17  1  0.92009499  0.24826742  0.13578709  1
  O  O18  1  0.05533925  0.24494222  0.65096190  1
  O  O19  1  0.05704623  0.24078945  0.14589738  1
  O  O20  1  0.14575054  0.73957092  0.97606135  1
  O  O21  1  0.14251801  0.74583538  0.47795971  1
  O  O22  1  0.17706783  0.75594785  0.76787041  1
  O  O23  1  0.18102400  0.74118487  0.27026207  1
  O  O24  1  0.33011501  0.06125824  0.89582223  1
  O  O25  1  0.33574304  0.43438926  0.89620806  1
  O  O26  1  0.32551383  0.05795475  0.39180987  1
  O  O27  1  0.33144685  0.43303665  0.38540968  1
  O  O28  1  0.46963106  0.24312321  0.71189676  1
  O  O29  1  0.42778602  0.75739176  0.56937776  1
  O  O30  1  0.46407248  0.24155340  0.20922227  1
  O  O31  1  0.42272204  0.75006693  0.06915828  1
  O  O32  1  0.57727796  0.24993307  0.93084172  1
  O  O33  1  0.53592752  0.75844660  0.79077773  1
  O  O34  1  0.57221398  0.24260824  0.43062224  1
  O  O35  1  0.53036894  0.75687679  0.28810324  1
  O  O36  1  0.66855315  0.56696335  0.61459032  1
  O  O37  1  0.67448617  0.94204525  0.60819013  1
  O  O38  1  0.66425696  0.56561074  0.10379194  1
  O  O39  1  0.66988499  0.93874176  0.10417777  1
  O  O40  1  0.81897600  0.25881513  0.72973793  1
  O  O41  1  0.82293217  0.24405215  0.23212959  1
  O  O42  1  0.85748199  0.25416462  0.52204029  1
  O  O43  1  0.85424946  0.26042908  0.02393865  1
  O  O44  1  0.94295377  0.75921055  0.85410262  1
  O  O45  1  0.94466075  0.75505778  0.34903810  1
