# generated using pymatgen
data_Na5Ni2P2(CO7)2
_symmetry_space_group_name_H-M   'P 1'
_cell_length_a   17.64704930
_cell_length_b   5.19858355
_cell_length_c   6.63543650
_cell_angle_alpha   90.00000000
_cell_angle_beta   90.00000000
_cell_angle_gamma   88.33421539
_symmetry_Int_Tables_number   1
_chemical_formula_structural   Na5Ni2P2(CO7)2
_chemical_formula_sum   'Na10 Ni4 P4 C4 O28'
_cell_volume   608.47543785
_cell_formula_units_Z   2
loop_
 _symmetry_equiv_pos_site_id
 _symmetry_equiv_pos_as_xyz
  1  'x, y, z'
loop_
 _atom_site_type_symbol
 _atom_site_label
 _atom_site_symmetry_multiplicity
 _atom_site_fract_x
 _atom_site_fract_y
 _atom_site_fract_z
 _atom_site_occupancy
  Na  Na0  1  0.13342315  0.25448145  0.01371366  1
  Na  Na1  1  0.13342315  0.25448145  0.48628634  1
  Na  Na2  1  0.36657685  0.74551855  0.51371366  1
  Na  Na3  1  0.36657685  0.74551855  0.98628634  1
  Na  Na4  1  0.53976590  0.77696759  0.25000000  1
  Na  Na5  1  0.63285210  0.25451187  0.00725101  1
  Na  Na6  1  0.63285210  0.25451187  0.49274899  1
  Na  Na7  1  0.86714790  0.74548813  0.50725101  1
  Na  Na8  1  0.86714790  0.74548813  0.99274899  1
  Na  Na9  1  0.96023410  0.22303241  0.75000000  1
  Ni  Ni10  1  0.17260037  0.77752685  0.75000000  1
  Ni  Ni11  1  0.32739963  0.22247315  0.25000000  1
  Ni  Ni12  1  0.67267663  0.77780790  0.75000000  1
  Ni  Ni13  1  0.82732337  0.22219210  0.25000000  1
  P  P14  1  0.20935597  0.71901026  0.25000000  1
  P  P15  1  0.29064403  0.28098974  0.75000000  1
  P  P16  1  0.70944610  0.71981289  0.25000000  1
  P  P17  1  0.79055390  0.28018711  0.75000000  1
  C  C18  1  0.03172463  0.71027332  0.75000000  1
  C  C19  1  0.46827537  0.28972668  0.25000000  1
  C  C20  1  0.53320058  0.71208329  0.75000000  1
  C  C21  1  0.96679942  0.28791671  0.25000000  1
  O  O22  1  0.03725271  0.31727802  0.25000000  1
  O  O23  1  0.06138188  0.93549872  0.75000000  1
  O  O24  1  0.07792162  0.51077606  0.75000000  1
  O  O25  1  0.16105093  0.79111351  0.06265409  1
  O  O26  1  0.16105093  0.79111351  0.43734591  1
  O  O27  1  0.21443256  0.14229199  0.75000000  1
  O  O28  1  0.22656593  0.42172082  0.25000000  1
  O  O29  1  0.27343407  0.57827918  0.75000000  1
  O  O30  1  0.28556744  0.85770801  0.25000000  1
  O  O31  1  0.33894907  0.20888649  0.56265409  1
  O  O32  1  0.33894907  0.20888649  0.93734591  1
  O  O33  1  0.42207838  0.48922394  0.25000000  1
  O  O34  1  0.43861812  0.06450128  0.25000000  1
  O  O35  1  0.46274729  0.68272198  0.75000000  1
  O  O36  1  0.54061726  0.31376584  0.25000000  1
  O  O37  1  0.56285241  0.93769704  0.75000000  1
  O  O38  1  0.58229533  0.51945710  0.75000000  1
  O  O39  1  0.65907582  0.78770581  0.06442798  1
  O  O40  1  0.65907582  0.78770581  0.43557202  1
  O  O41  1  0.71540486  0.13604285  0.75000000  1
  O  O42  1  0.72861898  0.42439811  0.25000000  1
  O  O43  1  0.77138102  0.57560189  0.75000000  1
  O  O44  1  0.78459514  0.86395715  0.25000000  1
  O  O45  1  0.84092418  0.21229419  0.56442798  1
  O  O46  1  0.84092418  0.21229419  0.93557202  1
  O  O47  1  0.91770467  0.48054290  0.25000000  1
  O  O48  1  0.93714759  0.06230296  0.25000000  1
  O  O49  1  0.95938274  0.68623416  0.75000000  1
