# generated using pymatgen
data_Li10FeNi9O20
_symmetry_space_group_name_H-M   'P 1'
_cell_length_a   7.67389424
_cell_length_b   7.69378276
_cell_length_c   6.48520478
_cell_angle_alpha   90.79690512
_cell_angle_beta   90.38803188
_cell_angle_gamma   65.43440073
_symmetry_Int_Tables_number   1
_chemical_formula_structural   Li10FeNi9O20
_chemical_formula_sum   'Li10 Fe1 Ni9 O20'
_cell_volume   348.20349018
_cell_formula_units_Z   1
loop_
 _symmetry_equiv_pos_site_id
 _symmetry_equiv_pos_as_xyz
  1  'x, y, z'
loop_
 _atom_site_type_symbol
 _atom_site_label
 _atom_site_symmetry_multiplicity
 _atom_site_fract_x
 _atom_site_fract_y
 _atom_site_fract_z
 _atom_site_occupancy
  Li  Li0  1  0.90007413  0.90011176  0.40089772  1
  Li  Li1  1  0.89459306  0.39621741  0.90184136  1
  Li  Li2  1  0.70032205  0.69710234  0.20247285  1
  Li  Li3  1  0.49967795  0.50289766  0.99752715  1
  Li  Li4  1  0.69635255  0.19874095  0.69581656  1
  Li  Li5  1  0.50364745  0.00125905  0.50418344  1
  Li  Li6  1  0.30540694  0.80378259  0.29815864  1
  Li  Li7  1  0.10000000  0.60000000  0.10000000  1
  Li  Li8  1  0.29992587  0.29988824  0.79910228  1
  Li  Li9  1  0.10000000  0.10000000  0.60000000  1
  Fe  Fe10  1  0.60000000  0.10000000  0.10000000  1
  Ni  Ni11  1  0.80134611  0.80023189  0.79762689  1
  Ni  Ni12  1  0.79953710  0.30194925  0.30033287  1
  Ni  Ni13  1  0.60000000  0.60000000  0.60000000  1
  Ni  Ni14  1  0.39865389  0.39976811  0.40237311  1
  Ni  Ni15  1  0.40046290  0.89805075  0.89966713  1
  Ni  Ni16  1  0.19687374  0.20098234  0.20091914  1
  Ni  Ni17  1  0.20093190  0.69845977  0.70068266  1
  Ni  Ni18  1  0.99906810  0.50154023  0.49931734  1
  Ni  Ni19  1  0.00312626  0.99901766  0.99908086  1
  O  O20  1  0.95465431  0.45169823  0.22292609  1
  O  O21  1  0.85858049  0.86352721  0.08796591  1
  O  O22  1  0.97357938  0.92875144  0.70951312  1
  O  O23  1  0.85295329  0.36651642  0.58584383  1
  O  O24  1  0.75018676  0.24676206  0.01016065  1
  O  O25  1  0.76742909  0.72643704  0.50542131  1
  O  O26  1  0.44981324  0.95323794  0.18983935  1
  O  O27  1  0.64817589  0.15503213  0.39516712  1
  O  O28  1  0.55279070  0.54748863  0.32380245  1
  O  O29  1  0.64720930  0.65251137  0.87619755  1
  O  O30  1  0.34704671  0.83348358  0.61415517  1
  O  O31  1  0.34141951  0.33647279  0.11203409  1
  O  O32  1  0.55182411  0.04496787  0.80483288  1
  O  O33  1  0.43257091  0.47356296  0.69457869  1
  O  O34  1  0.24534569  0.74830177  0.97707391  1
  O  O35  1  0.22642062  0.27124856  0.49048688  1
  O  O36  1  0.14575039  0.64281035  0.42647488  1
  O  O37  1  0.05424961  0.55718965  0.77352512  1
  O  O38  1  0.05409851  0.06364467  0.28256523  1
  O  O39  1  0.14590149  0.13635533  0.91743477  1
