# generated using pymatgen
data_Li2TiSn3(PO4)6
_symmetry_space_group_name_H-M   'P 1'
_cell_length_a   8.86718495
_cell_length_b   8.86718557
_cell_length_c   8.86718561
_cell_angle_alpha   58.91085769
_cell_angle_beta   58.91086185
_cell_angle_gamma   58.91086366
_symmetry_Int_Tables_number   1
_chemical_formula_structural   Li2TiSn3(PO4)6
_chemical_formula_sum   'Li2 Ti1 Sn3 P6 O24'
_cell_volume   480.74062709
_cell_formula_units_Z   1
loop_
 _symmetry_equiv_pos_site_id
 _symmetry_equiv_pos_as_xyz
  1  'x, y, z'
loop_
 _atom_site_type_symbol
 _atom_site_label
 _atom_site_symmetry_multiplicity
 _atom_site_fract_x
 _atom_site_fract_y
 _atom_site_fract_z
 _atom_site_occupancy
  Li  Li0  1  0.99682745  0.99682745  0.99682745  1
  Li  Li1  1  0.50026345  0.50026345  0.50026345  1
  Ti  Ti2  1  0.85551806  0.85551806  0.85551806  1
  Sn  Sn3  1  0.14513707  0.14513707  0.14513707  1
  Sn  Sn4  1  0.35651692  0.35651692  0.35651692  1
  Sn  Sn5  1  0.64521463  0.64521463  0.64521463  1
  P  P6  1  0.04311146  0.75058740  0.45904837  1
  P  P7  1  0.45904837  0.04311146  0.75058740  1
  P  P8  1  0.75058740  0.45904837  0.04311146  1
  P  P9  1  0.24788143  0.54716973  0.95461614  1
  P  P10  1  0.54716973  0.95461614  0.24788143  1
  P  P11  1  0.95461614  0.24788143  0.54716973  1
  O  O12  1  0.11973656  0.28514120  0.52084659  1
  O  O13  1  0.28514120  0.52084659  0.11973656  1
  O  O14  1  0.06470502  0.91528533  0.27094432  1
  O  O15  1  0.52084659  0.11973656  0.28514120  1
  O  O16  1  0.22960989  0.58154367  0.44978393  1
  O  O17  1  0.99520851  0.80172539  0.62439866  1
  O  O18  1  0.27094432  0.06470502  0.91528533  1
  O  O19  1  0.44978393  0.22960989  0.58154367  1
  O  O20  1  0.58154367  0.44978393  0.22960989  1
  O  O21  1  0.21256196  0.38028043  0.98442066  1
  O  O22  1  0.07828640  0.73082156  0.93049884  1
  O  O23  1  0.38028043  0.98442066  0.21256196  1
  O  O24  1  0.62439866  0.99520851  0.80172539  1
  O  O25  1  0.91528533  0.27094432  0.06470502  1
  O  O26  1  0.80172539  0.62439866  0.99520851  1
  O  O27  1  0.41407664  0.56814931  0.76738639  1
  O  O28  1  0.56814931  0.76738639  0.41407664  1
  O  O29  1  0.73082156  0.93049884  0.07828640  1
  O  O30  1  0.98442066  0.21256196  0.38028043  1
  O  O31  1  0.76738639  0.41407664  0.56814931  1
  O  O32  1  0.48289899  0.88641763  0.70337801  1
  O  O33  1  0.93049884  0.07828640  0.73082156  1
  O  O34  1  0.70337801  0.48289899  0.88641763  1
  O  O35  1  0.88641763  0.70337801  0.48289899  1
