# generated using pymatgen
data_Li2Co3NiO8
_symmetry_space_group_name_H-M   'P 1'
_cell_length_a   5.63730389
_cell_length_b   5.63919564
_cell_length_c   9.45501044
_cell_angle_alpha   89.97849815
_cell_angle_beta   90.01074833
_cell_angle_gamma   120.01109927
_symmetry_Int_Tables_number   1
_chemical_formula_structural   Li2Co3NiO8
_chemical_formula_sum   'Li4 Co6 Ni2 O16'
_cell_volume   260.27510986
_cell_formula_units_Z   2
loop_
 _symmetry_equiv_pos_site_id
 _symmetry_equiv_pos_as_xyz
  1  'x, y, z'
loop_
 _atom_site_type_symbol
 _atom_site_label
 _atom_site_symmetry_multiplicity
 _atom_site_fract_x
 _atom_site_fract_y
 _atom_site_fract_z
 _atom_site_occupancy
  Li  Li0  1  0.33328138  0.66663242  0.89332853  1
  Li  Li1  1  0.00003376  0.00007665  0.99801820  1
  Li  Li2  1  0.99996624  0.00004289  0.49801820  1
  Li  Li3  1  0.66671862  0.33335104  0.39332853  1
  Co  Co4  1  0.16849915  0.83155870  0.21431051  1
  Co  Co5  1  0.16850934  0.33696643  0.21432319  1
  Co  Co6  1  0.66309915  0.83155407  0.21430419  1
  Co  Co7  1  0.33690085  0.16845392  0.71430419  1
  Co  Co8  1  0.83150085  0.66305955  0.71431051  1
  Co  Co9  1  0.83149066  0.16845709  0.71432319  1
  Ni  Ni10  1  0.33331703  0.66667614  0.49040795  1
  Ni  Ni11  1  0.66668297  0.33335911  0.99040795  1
  O  O12  1  0.15811638  0.84186105  0.60968396  1
  O  O13  1  0.03609653  0.51803474  0.32635398  1
  O  O14  1  0.33338853  0.66672261  0.10838745  1
  O  O15  1  0.00000896  0.99998071  0.31268787  1
  O  O16  1  0.99999104  0.99997175  0.81268787  1
  O  O17  1  0.15810870  0.31630115  0.60969631  1
  O  O18  1  0.48201753  0.96396272  0.32635561  1
  O  O19  1  0.48200722  0.51803764  0.32635982  1
  O  O20  1  0.31630750  0.15818255  0.10970244  1
  O  O21  1  0.68369250  0.84187605  0.60970244  1
  O  O22  1  0.51798247  0.48194518  0.82635561  1
  O  O23  1  0.51799278  0.03603042  0.82635982  1
  O  O24  1  0.66661147  0.33333408  0.60838745  1
  O  O25  1  0.84188362  0.68374466  0.10968396  1
  O  O26  1  0.96390347  0.48193821  0.82635398  1
  O  O27  1  0.84189130  0.15819246  0.10969631  1
