# generated using pymatgen
data_V3BO6
_symmetry_space_group_name_H-M   'P 1'
_cell_length_a   10.31261006
_cell_length_b   8.71832895
_cell_length_c   4.49337447
_cell_angle_alpha   90.00000000
_cell_angle_beta   90.00000000
_cell_angle_gamma   90.00000000
_symmetry_Int_Tables_number   1
_chemical_formula_structural   V3BO6
_chemical_formula_sum   'V12 B4 O24'
_cell_volume   403.99357780
_cell_formula_units_Z   4
loop_
 _symmetry_equiv_pos_site_id
 _symmetry_equiv_pos_as_xyz
  1  'x, y, z'
loop_
 _atom_site_type_symbol
 _atom_site_label
 _atom_site_symmetry_multiplicity
 _atom_site_fract_x
 _atom_site_fract_y
 _atom_site_fract_z
 _atom_site_occupancy
  V  V0  1  0.09398395  0.75000000  0.46794131  1
  V  V1  1  0.12889185  0.07015879  0.97923573  1
  V  V2  1  0.12889185  0.42984121  0.97923573  1
  V  V3  1  0.37110815  0.57015879  0.47923573  1
  V  V4  1  0.37110815  0.92984121  0.47923573  1
  V  V5  1  0.40601605  0.25000000  0.96794131  1
  V  V6  1  0.59398395  0.75000000  0.03205869  1
  V  V7  1  0.62889185  0.07015879  0.52076427  1
  V  V8  1  0.62889185  0.42984121  0.52076427  1
  V  V9  1  0.87110815  0.57015879  0.02076427  1
  V  V10  1  0.87110815  0.92984121  0.02076427  1
  V  V11  1  0.90601605  0.25000000  0.53205869  1
  B  B12  1  0.21928121  0.25000000  0.40897443  1
  B  B13  1  0.28071879  0.75000000  0.90897443  1
  B  B14  1  0.71928121  0.25000000  0.09102557  1
  B  B15  1  0.78071879  0.75000000  0.59102557  1
  O  O16  1  0.03137416  0.58197704  0.23472448  1
  O  O17  1  0.03137416  0.91802296  0.23472448  1
  O  O18  1  0.08561339  0.25000000  0.27274953  1
  O  O19  1  0.21455973  0.88838090  0.76816982  1
  O  O20  1  0.21455973  0.61161910  0.76816982  1
  O  O21  1  0.22179133  0.25000000  0.73065262  1
  O  O22  1  0.27820867  0.75000000  0.23065262  1
  O  O23  1  0.28544027  0.11161910  0.26816982  1
  O  O24  1  0.28544027  0.38838090  0.26816982  1
  O  O25  1  0.41438661  0.75000000  0.77274953  1
  O  O26  1  0.46862584  0.08197704  0.73472448  1
  O  O27  1  0.46862584  0.41802296  0.73472448  1
  O  O28  1  0.53137416  0.58197704  0.26527552  1
  O  O29  1  0.53137416  0.91802296  0.26527552  1
  O  O30  1  0.58561339  0.25000000  0.22725047  1
  O  O31  1  0.71455973  0.61161910  0.73183018  1
  O  O32  1  0.71455973  0.88838090  0.73183018  1
  O  O33  1  0.72179133  0.25000000  0.76934738  1
  O  O34  1  0.77820867  0.75000000  0.26934738  1
  O  O35  1  0.78544027  0.11161910  0.23183018  1
  O  O36  1  0.78544027  0.38838090  0.23183018  1
  O  O37  1  0.91438661  0.75000000  0.72725047  1
  O  O38  1  0.96862584  0.08197704  0.76527552  1
  O  O39  1  0.96862584  0.41802296  0.76527552  1
