# generated using pymatgen
data_K3FePCO7
_symmetry_space_group_name_H-M   'P 1'
_cell_length_a   9.84749539
_cell_length_b   6.79984780
_cell_length_c   5.66613171
_cell_angle_alpha   90.00000000
_cell_angle_beta   90.36658937
_cell_angle_gamma   90.00000000
_symmetry_Int_Tables_number   1
_chemical_formula_structural   K3FePCO7
_chemical_formula_sum   'K6 Fe2 P2 C2 O14'
_cell_volume   379.40474182
_cell_formula_units_Z   2
loop_
 _symmetry_equiv_pos_site_id
 _symmetry_equiv_pos_as_xyz
  1  'x, y, z'
loop_
 _atom_site_type_symbol
 _atom_site_label
 _atom_site_symmetry_multiplicity
 _atom_site_fract_x
 _atom_site_fract_y
 _atom_site_fract_z
 _atom_site_occupancy
  K  K0  1  0.07769854  0.25000000  0.76172607  1
  K  K1  1  0.27120897  0.00957292  0.25611276  1
  K  K2  1  0.27120897  0.49042708  0.25611276  1
  K  K3  1  0.72879103  0.50957292  0.74388724  1
  K  K4  1  0.72879103  0.99042708  0.74388724  1
  K  K5  1  0.92230146  0.75000000  0.23827393  1
  Fe  Fe6  1  0.35887459  0.75000000  0.77258805  1
  Fe  Fe7  1  0.64112541  0.25000000  0.22741195  1
  P  P8  1  0.42426401  0.25000000  0.71478766  1
  P  P9  1  0.57573599  0.75000000  0.28521234  1
  C  C10  1  0.08201250  0.75000000  0.73925722  1
  C  C11  1  0.91798750  0.25000000  0.26074278  1
  O  O12  1  0.04934672  0.25000000  0.26395019  1
  O  O13  1  0.14903617  0.75000000  0.93915433  1
  O  O14  1  0.15133881  0.75000000  0.54364325  1
  O  O15  1  0.33309649  0.06430584  0.76091131  1
  O  O16  1  0.33309649  0.43569416  0.76091131  1
  O  O17  1  0.46749762  0.25000000  0.45057039  1
  O  O18  1  0.45068291  0.75000000  0.11948981  1
  O  O19  1  0.54931709  0.25000000  0.88051019  1
  O  O20  1  0.53250238  0.75000000  0.54942961  1
  O  O21  1  0.66690351  0.56430584  0.23908869  1
  O  O22  1  0.66690351  0.93569416  0.23908869  1
  O  O23  1  0.84866119  0.25000000  0.45635675  1
  O  O24  1  0.85096383  0.25000000  0.06084567  1
  O  O25  1  0.95065328  0.75000000  0.73604981  1
