# generated using pymatgen
data_Tm2GeO5
_symmetry_space_group_name_H-M   'P 1'
_cell_length_a   10.23691308
_cell_length_b   3.66023700
_cell_length_c   11.03297934
_cell_angle_alpha   90.00000000
_cell_angle_beta   90.00000000
_cell_angle_gamma   90.00000000
_symmetry_Int_Tables_number   1
_chemical_formula_structural   Tm2GeO5
_chemical_formula_sum   'Tm8 Ge4 O20'
_cell_volume   413.40052854
_cell_formula_units_Z   4
loop_
 _symmetry_equiv_pos_site_id
 _symmetry_equiv_pos_as_xyz
  1  'x, y, z'
loop_
 _atom_site_type_symbol
 _atom_site_label
 _atom_site_symmetry_multiplicity
 _atom_site_fract_x
 _atom_site_fract_y
 _atom_site_fract_z
 _atom_site_occupancy
  Tm  Tm0  1  0.10922290  0.25000000  0.77619469  1
  Tm  Tm1  1  0.13514858  0.25000000  0.44011671  1
  Tm  Tm2  1  0.36485142  0.75000000  0.94011671  1
  Tm  Tm3  1  0.39077710  0.75000000  0.27619469  1
  Tm  Tm4  1  0.60922290  0.25000000  0.72380531  1
  Tm  Tm5  1  0.63514858  0.25000000  0.05988329  1
  Tm  Tm6  1  0.86485142  0.75000000  0.55988329  1
  Tm  Tm7  1  0.89077710  0.75000000  0.22380531  1
  Ge  Ge8  1  0.17668417  0.25000000  0.11706624  1
  Ge  Ge9  1  0.32331583  0.75000000  0.61706624  1
  Ge  Ge10  1  0.67668417  0.25000000  0.38293376  1
  Ge  Ge11  1  0.82331583  0.75000000  0.88293376  1
  O  O12  1  0.99056919  0.25000000  0.60401604  1
  O  O13  1  0.00995977  0.25000000  0.15752765  1
  O  O14  1  0.23885047  0.75000000  0.11360063  1
  O  O15  1  0.24029440  0.75000000  0.76664349  1
  O  O16  1  0.22153875  0.25000000  0.95680791  1
  O  O17  1  0.27846125  0.75000000  0.45680791  1
  O  O18  1  0.25970560  0.25000000  0.26664349  1
  O  O19  1  0.26114953  0.25000000  0.61360063  1
  O  O20  1  0.49004023  0.75000000  0.65752765  1
  O  O21  1  0.50943081  0.75000000  0.10401604  1
  O  O22  1  0.49056919  0.25000000  0.89598396  1
  O  O23  1  0.50995977  0.25000000  0.34247235  1
  O  O24  1  0.73885047  0.75000000  0.38639937  1
  O  O25  1  0.74029440  0.75000000  0.73335651  1
  O  O26  1  0.72153875  0.25000000  0.54319209  1
  O  O27  1  0.77846125  0.75000000  0.04319209  1
  O  O28  1  0.75970560  0.25000000  0.23335651  1
  O  O29  1  0.76114953  0.25000000  0.88639937  1
  O  O30  1  0.99004023  0.75000000  0.84247235  1
  O  O31  1  0.00943081  0.75000000  0.39598396  1
