# generated using pymatgen
data_Li6Sb3S
_symmetry_space_group_name_H-M   'P 1'
_cell_length_a   8.06534596
_cell_length_b   5.88537168
_cell_length_c   8.88648373
_cell_angle_alpha   90.00000000
_cell_angle_beta   86.67515303
_cell_angle_gamma   90.00000000
_symmetry_Int_Tables_number   1
_chemical_formula_structural   Li6Sb3S
_chemical_formula_sum   'Li12 Sb6 S2'
_cell_volume   421.10966405
_cell_formula_units_Z   2
loop_
 _symmetry_equiv_pos_site_id
 _symmetry_equiv_pos_as_xyz
  1  'x, y, z'
loop_
 _atom_site_type_symbol
 _atom_site_label
 _atom_site_symmetry_multiplicity
 _atom_site_fract_x
 _atom_site_fract_y
 _atom_site_fract_z
 _atom_site_occupancy
  Li  Li0  1  0.14953730  0.96803542  0.77002573  1
  Li  Li1  1  0.20159105  0.75748781  0.10363309  1
  Li  Li2  1  0.28288227  0.73325544  0.43544532  1
  Li  Li3  1  0.21711773  0.23325544  0.06455568  1
  Li  Li4  1  0.29840895  0.25748781  0.39636691  1
  Li  Li5  1  0.35046270  0.46803542  0.72997427  1
  Li  Li6  1  0.64953730  0.53196458  0.27002573  1
  Li  Li7  1  0.70159105  0.74251219  0.60363309  1
  Li  Li8  1  0.78288227  0.76674456  0.93544432  1
  Li  Li9  1  0.71711773  0.26674456  0.56455568  1
  Li  Li10  1  0.79840895  0.24251219  0.89636691  1
  Li  Li11  1  0.85046270  0.03196458  0.22997427  1
  Sb  Sb12  1  0.00000000  0.00000000  0.50000000  1
  Sb  Sb13  1  0.99119387  0.49794732  0.33329499  1
  Sb  Sb14  1  0.50880613  0.99794732  0.16670501  1
  Sb  Sb15  1  0.50000000  0.50000000  0.00000000  1
  Sb  Sb16  1  0.49119387  0.00205268  0.83329499  1
  Sb  Sb17  1  0.00880613  0.50205268  0.66670501  1
  S  S18  1  0.00000000  0.00000000  0.00000000  1
  S  S19  1  0.50000000  0.50000000  0.50000000  1
