# generated using pymatgen
data_Li2VCrO4
_symmetry_space_group_name_H-M   'P 1'
_cell_length_a   5.15207467
_cell_length_b   5.99885385
_cell_length_c   7.87207593
_cell_angle_alpha   79.16976866
_cell_angle_beta   71.21257649
_cell_angle_gamma   89.96140584
_symmetry_Int_Tables_number   1
_chemical_formula_structural   Li2VCrO4
_chemical_formula_sum   'Li6 V3 Cr3 O12'
_cell_volume   225.76404636
_cell_formula_units_Z   3
loop_
 _symmetry_equiv_pos_site_id
 _symmetry_equiv_pos_as_xyz
  1  'x, y, z'
loop_
 _atom_site_type_symbol
 _atom_site_label
 _atom_site_symmetry_multiplicity
 _atom_site_fract_x
 _atom_site_fract_y
 _atom_site_fract_z
 _atom_site_occupancy
  Li  Li0  1  0.00201851  0.33751020  0.66340197  1
  Li  Li1  1  0.99802921  0.82910764  0.66993811  1
  Li  Li2  1  0.99974961  0.17354516  0.33434682  1
  Li  Li3  1  0.99905210  0.66323613  0.33339595  1
  Li  Li4  1  0.00024100  0.99314211  0.99896971  1
  Li  Li5  1  0.00093120  0.50343294  0.99991992  1
  V  V6  1  0.50000008  0.08334029  0.66666520  1
  V  V7  1  0.49972107  0.91948760  0.33315912  1
  V  V8  1  0.50024033  0.24719784  0.00017583  1
  Cr  Cr9  1  0.49999583  0.58331766  0.66669958  1
  Cr  Cr10  1  0.50117313  0.42031577  0.33328817  1
  Cr  Cr11  1  0.49876289  0.74640911  0.00004969  1
  O  O12  1  0.72691674  0.03285051  0.83870703  1
  O  O13  1  0.72468577  0.53777764  0.83935109  1
  O  O14  1  0.27444711  0.29313034  0.82565246  1
  O  O15  1  0.27179127  0.78603749  0.82971359  1
  O  O16  1  0.72824936  0.38059353  0.50359926  1
  O  O17  1  0.27309597  0.13379815  0.49461709  1
  O  O18  1  0.72560773  0.87349930  0.50766681  1
  O  O19  1  0.72748232  0.20943355  0.17339984  1
  O  O20  1  0.27534398  0.62888175  0.49401172  1
  O  O21  1  0.72582194  0.70649453  0.17117350  1
  O  O22  1  0.27414816  0.46020655  0.16216599  1
  O  O23  1  0.27249573  0.95725423  0.15993256  1
