# generated using pymatgen
data_K4TiO4
_symmetry_space_group_name_H-M   'P 1'
_cell_length_a   10.74997412
_cell_length_b   6.68765803
_cell_length_c   10.78702263
_cell_angle_alpha   90.00000000
_cell_angle_beta   111.76931767
_cell_angle_gamma   90.00000000
_symmetry_Int_Tables_number   1
_chemical_formula_structural   K4TiO4
_chemical_formula_sum   'K16 Ti4 O16'
_cell_volume   720.19697590
_cell_formula_units_Z   4
loop_
 _symmetry_equiv_pos_site_id
 _symmetry_equiv_pos_as_xyz
  1  'x, y, z'
loop_
 _atom_site_type_symbol
 _atom_site_label
 _atom_site_symmetry_multiplicity
 _atom_site_fract_x
 _atom_site_fract_y
 _atom_site_fract_z
 _atom_site_occupancy
  K  K0  1  0.06250245  0.40827617  0.69661639  1
  K  K1  1  0.15885214  0.88870735  0.58332454  1
  K  K2  1  0.06250245  0.09172383  0.19661639  1
  K  K3  1  0.36931358  0.66657257  0.89088602  1
  K  K4  1  0.42483461  0.18555521  0.79306189  1
  K  K5  1  0.15885214  0.61129265  0.08332454  1
  K  K6  1  0.36931358  0.83342743  0.39088602  1
  K  K7  1  0.57516539  0.68555421  0.70693811  1
  K  K8  1  0.42483461  0.31444479  0.29306189  1
  K  K9  1  0.63068642  0.16657257  0.60911398  1
  K  K10  1  0.84114786  0.38870735  0.91667546  1
  K  K11  1  0.57516539  0.81444579  0.20693811  1
  K  K12  1  0.63068642  0.33342743  0.10911398  1
  K  K13  1  0.93749755  0.90827617  0.80338361  1
  K  K14  1  0.84114786  0.11129265  0.41667546  1
  K  K15  1  0.93749755  0.59172383  0.30338361  1
  Ti  Ti16  1  0.24239000  0.12846915  0.99023682  1
  Ti  Ti17  1  0.24239000  0.37153085  0.49023682  1
  Ti  Ti18  1  0.75761000  0.62846915  0.50976318  1
  Ti  Ti19  1  0.75761000  0.87153085  0.00976318  1
  O  O20  1  0.08117132  0.24063918  0.97134640  1
  O  O21  1  0.21942023  0.98945561  0.83528250  1
  O  O22  1  0.08117132  0.25936082  0.47134640  1
  O  O23  1  0.30647219  0.53533544  0.64017249  1
  O  O24  1  0.21942023  0.51054439  0.33528250  1
  O  O25  1  0.36523554  0.16663299  0.51349639  1
  O  O26  1  0.30647219  0.96466456  0.14017249  1
  O  O27  1  0.63476446  0.66663299  0.98650361  1
  O  O28  1  0.36523554  0.33336701  0.01349639  1
  O  O29  1  0.69352781  0.03533544  0.85982751  1
  O  O30  1  0.63476446  0.83336701  0.48650361  1
  O  O31  1  0.78057977  0.48945561  0.66471750  1
  O  O32  1  0.69352781  0.46466456  0.35982751  1
  O  O33  1  0.91882868  0.74063918  0.52865360  1
  O  O34  1  0.78057977  0.01054439  0.16471750  1
  O  O35  1  0.91882868  0.75936082  0.02865360  1
