# generated using pymatgen
data_Li2VCrO4
_symmetry_space_group_name_H-M   'P 1'
_cell_length_a   5.16929171
_cell_length_b   5.99799546
_cell_length_c   7.87453476
_cell_angle_alpha   79.17740403
_cell_angle_beta   77.10468000
_cell_angle_gamma   73.28698279
_symmetry_Int_Tables_number   1
_chemical_formula_structural   Li2VCrO4
_chemical_formula_sum   'Li6 V3 Cr3 O12'
_cell_volume   225.93564513
_cell_formula_units_Z   3
loop_
 _symmetry_equiv_pos_site_id
 _symmetry_equiv_pos_as_xyz
  1  'x, y, z'
loop_
 _atom_site_type_symbol
 _atom_site_label
 _atom_site_symmetry_multiplicity
 _atom_site_fract_x
 _atom_site_fract_y
 _atom_site_fract_z
 _atom_site_occupancy
  Li  Li0  1  0.99998368  0.00001813  0.00001302  1
  Li  Li1  1  0.00275544  0.16210417  0.33574184  1
  Li  Li2  1  -0.00000029  0.50000947  0.00000530  1
  Li  Li3  1  0.00266274  0.32739033  0.66746074  1
  Li  Li4  1  0.99735019  0.67263303  0.33251840  1
  Li  Li5  1  0.99724710  0.83791638  0.66424495  1
  V  V6  1  0.49962016  0.33640957  0.16660686  1
  V  V7  1  0.50001279  0.49998310  0.49997988  1
  V  V8  1  0.50039074  0.66355816  0.83341431  1
  Cr  Cr9  1  0.50001013  0.00001991  0.49997991  1
  Cr  Cr10  1  0.50085689  0.16263638  0.83303232  1
  Cr  Cr11  1  0.49914053  0.83736212  0.16700702  1
  O  O12  1  0.72387659  0.00866635  0.25238520  1
  O  O13  1  0.27401399  0.16097342  0.07999036  1
  O  O14  1  0.27437580  0.32732357  0.41628856  1
  O  O15  1  0.72739266  0.16518535  0.58708284  1
  O  O16  1  0.27304368  0.66443567  0.08236489  1
  O  O17  1  0.72660006  0.51273754  0.25222016  1
  O  O18  1  0.27340969  0.48725344  0.74777664  1
  O  O19  1  0.72694056  0.33557325  0.91761806  1
  O  O20  1  0.27260587  0.83479439  0.41292973  1
  O  O21  1  0.72563724  0.67267284  0.58371430  1
  O  O22  1  0.72598571  0.83901399  0.92000082  1
  O  O23  1  0.27609105  0.99133147  0.74762389  1
