# generated using pymatgen
data_Zn(NiO2)2
_symmetry_space_group_name_H-M   'P 1'
_cell_length_a   5.86732692
_cell_length_b   5.87096615
_cell_length_c   5.86840444
_cell_angle_alpha   60.01445149
_cell_angle_beta   59.99715986
_cell_angle_gamma   60.01847961
_symmetry_Int_Tables_number   1
_chemical_formula_structural   Zn(NiO2)2
_chemical_formula_sum   'Zn2 Ni4 O8'
_cell_volume   142.97286348
_cell_formula_units_Z   2
loop_
 _symmetry_equiv_pos_site_id
 _symmetry_equiv_pos_as_xyz
  1  'x, y, z'
loop_
 _atom_site_type_symbol
 _atom_site_label
 _atom_site_symmetry_multiplicity
 _atom_site_fract_x
 _atom_site_fract_y
 _atom_site_fract_z
 _atom_site_occupancy
  Zn  Zn0  1  0.87501013  0.87515706  0.87512456  1
  Zn  Zn1  1  0.12499005  0.12484328  0.12487502  1
  Ni  Ni2  1  0.49999976  0.50000054  0.49999944  1
  Ni  Ni3  1  0.49999977  0.49999962  0.00000110  1
  Ni  Ni4  1  0.00000001  0.49999976  0.49999965  1
  Ni  Ni5  1  0.50000031  0.99999950  0.50000053  1
  O  O6  1  0.26250457  0.26227613  0.26231518  1
  O  O7  1  0.73769258  0.73791100  0.28671659  1
  O  O8  1  0.28667410  0.73788470  0.73782491  1
  O  O9  1  0.73770596  0.28672221  0.73788170  1
  O  O10  1  0.71332682  0.26211459  0.26217510  1
  O  O11  1  0.26229341  0.71327908  0.26211804  1
  O  O12  1  0.26230715  0.26208938  0.71328340  1
  O  O13  1  0.73749537  0.73772315  0.73768479  1
