# generated using pymatgen
data_Cs4GeO4
_symmetry_space_group_name_H-M   'P 1'
_cell_length_a   7.09125542
_cell_length_b   19.72817530
_cell_length_c   7.11213519
_cell_angle_alpha   90.00000000
_cell_angle_beta   113.12783376
_cell_angle_gamma   90.00000000
_symmetry_Int_Tables_number   1
_chemical_formula_structural   Cs4GeO4
_chemical_formula_sum   'Cs16 Ge4 O16'
_cell_volume   915.00518680
_cell_formula_units_Z   4
loop_
 _symmetry_equiv_pos_site_id
 _symmetry_equiv_pos_as_xyz
  1  'x, y, z'
loop_
 _atom_site_type_symbol
 _atom_site_label
 _atom_site_symmetry_multiplicity
 _atom_site_fract_x
 _atom_site_fract_y
 _atom_site_fract_z
 _atom_site_occupancy
  Cs  Cs0  1  0.18044139  0.18998514  0.67806452  1
  Cs  Cs1  1  0.21532562  0.98543564  0.75422186  1
  Cs  Cs2  1  0.30925660  0.78494397  0.82828543  1
  Cs  Cs3  1  0.33902694  0.57983667  0.78245762  1
  Cs  Cs4  1  0.18044139  0.31001486  0.17806452  1
  Cs  Cs5  1  0.21532562  0.51456436  0.25422186  1
  Cs  Cs6  1  0.30925660  0.71505603  0.32828543  1
  Cs  Cs7  1  0.33902694  0.92016333  0.28245762  1
  Cs  Cs8  1  0.66097306  0.07983667  0.71754238  1
  Cs  Cs9  1  0.69074340  0.28494397  0.67171457  1
  Cs  Cs10  1  0.78467438  0.48543564  0.74577814  1
  Cs  Cs11  1  0.81955861  0.68998514  0.82193548  1
  Cs  Cs12  1  0.66097306  0.42016333  0.21754238  1
  Cs  Cs13  1  0.69074340  0.21505603  0.17171457  1
  Cs  Cs14  1  0.78467438  0.01456436  0.24577814  1
  Cs  Cs15  1  0.81955861  0.81001486  0.32193548  1
  Ge  Ge16  1  0.25859140  0.37650621  0.70442575  1
  Ge  Ge17  1  0.25859140  0.12349379  0.20442575  1
  Ge  Ge18  1  0.74140860  0.87650621  0.79557425  1
  Ge  Ge19  1  0.74140860  0.62349379  0.29557425  1
  O  O20  1  0.01985666  0.33765072  0.53974593  1
  O  O21  1  0.21653544  0.44422774  0.85372347  1
  O  O22  1  0.01985666  0.16234928  0.03974593  1
  O  O23  1  0.21653544  0.05577226  0.35372347  1
  O  O24  1  0.42214968  0.31437874  0.88579860  1
  O  O25  1  0.39756369  0.40497810  0.55188653  1
  O  O26  1  0.60243631  0.90497810  0.94811347  1
  O  O27  1  0.42214968  0.18562126  0.38579860  1
  O  O28  1  0.57785032  0.81437874  0.61420140  1
  O  O29  1  0.39756369  0.09502190  0.05188653  1
  O  O30  1  0.60243631  0.59502190  0.44811347  1
  O  O31  1  0.57785032  0.68562126  0.11420140  1
  O  O32  1  0.78346456  0.94422774  0.64627653  1
  O  O33  1  0.98014334  0.83765072  0.96025407  1
  O  O34  1  0.78346456  0.55577226  0.14627653  1
  O  O35  1  0.98014334  0.66234928  0.46025407  1
