# generated using pymatgen
data_LiTiO2
_symmetry_space_group_name_H-M   'P 1'
_cell_length_a   10.19264804
_cell_length_b   10.19264754
_cell_length_c   14.44061696
_cell_angle_alpha   19.40768449
_cell_angle_beta   19.40768252
_cell_angle_gamma   33.33933552
_symmetry_Int_Tables_number   1
_chemical_formula_structural   LiTiO2
_chemical_formula_sum   'Li4 Ti4 O8'
_cell_volume   144.35640664
_cell_formula_units_Z   4
loop_
 _symmetry_equiv_pos_site_id
 _symmetry_equiv_pos_as_xyz
  1  'x, y, z'
loop_
 _atom_site_type_symbol
 _atom_site_label
 _atom_site_symmetry_multiplicity
 _atom_site_fract_x
 _atom_site_fract_y
 _atom_site_fract_z
 _atom_site_occupancy
  Li  Li0  1  0.50000000  0.50000000  0.00000000  1
  Li  Li1  1  0.00000000  0.50000000  0.50000000  1
  Li  Li2  1  0.50000000  0.00000000  0.50000000  1
  Li  Li3  1  0.50000000  0.50000000  0.50000000  1
  Ti  Ti4  1  0.00000000  0.00000000  0.00000000  1
  Ti  Ti5  1  0.00000000  0.50000000  0.00000000  1
  Ti  Ti6  1  0.50000000  0.00000000  0.00000000  1
  Ti  Ti7  1  0.00000000  0.00000000  0.50000000  1
  O  O8  1  0.02241815  0.02241815  0.22765123  1
  O  O9  1  0.99920439  0.49958680  0.25099211  1
  O  O10  1  0.49958680  0.99920439  0.25099211  1
  O  O11  1  0.97758185  0.97758185  0.77234877  1
  O  O12  1  0.49172333  0.49172333  0.25845126  1
  O  O13  1  0.00079561  0.50041320  0.74900789  1
  O  O14  1  0.50041320  0.00079561  0.74900789  1
  O  O15  1  0.50827667  0.50827667  0.74154874  1
