# generated using pymatgen
data_Li2CrPO4F
_symmetry_space_group_name_H-M   'P 1'
_cell_length_a   10.51695773
_cell_length_b   6.64179421
_cell_length_c   11.05740888
_cell_angle_alpha   90.00000000
_cell_angle_beta   90.00000000
_cell_angle_gamma   90.00000000
_symmetry_Int_Tables_number   1
_chemical_formula_structural   Li2CrPO4F
_chemical_formula_sum   'Li16 Cr8 P8 O32 F8'
_cell_volume   772.37625314
_cell_formula_units_Z   8
loop_
 _symmetry_equiv_pos_site_id
 _symmetry_equiv_pos_as_xyz
  1  'x, y, z'
loop_
 _atom_site_type_symbol
 _atom_site_label
 _atom_site_symmetry_multiplicity
 _atom_site_fract_x
 _atom_site_fract_y
 _atom_site_fract_z
 _atom_site_occupancy
  Li  Li0  1  0.02776248  0.75000000  0.27387286  1
  Li  Li1  1  0.23068286  0.25000000  0.08236596  1
  Li  Li2  1  0.24324910  0.52636040  0.33694288  1
  Li  Li3  1  0.24324910  0.97363960  0.33694288  1
  Li  Li4  1  0.25675090  0.02636040  0.83694288  1
  Li  Li5  1  0.25675090  0.47363960  0.83694288  1
  Li  Li6  1  0.26931714  0.75000000  0.58236596  1
  Li  Li7  1  0.47223752  0.25000000  0.77387286  1
  Li  Li8  1  0.52776248  0.75000000  0.22612714  1
  Li  Li9  1  0.73068286  0.25000000  0.41763404  1
  Li  Li10  1  0.74324910  0.52636040  0.16305712  1
  Li  Li11  1  0.74324910  0.97363960  0.16305712  1
  Li  Li12  1  0.75675090  0.02636040  0.66305712  1
  Li  Li13  1  0.75675090  0.47363960  0.66305712  1
  Li  Li14  1  0.76931714  0.75000000  0.91763404  1
  Li  Li15  1  0.97223752  0.25000000  0.72612714  1
  Cr  Cr16  1  0.00000000  0.00000000  0.00000000  1
  Cr  Cr17  1  0.00000000  0.50000000  0.00000000  1
  Cr  Cr18  1  0.00000000  0.00000000  0.50000000  1
  Cr  Cr19  1  0.00000000  0.50000000  0.50000000  1
  Cr  Cr20  1  0.50000000  0.00000000  0.50000000  1
  Cr  Cr21  1  0.50000000  0.50000000  0.50000000  1
  Cr  Cr22  1  0.50000000  0.00000000  0.00000000  1
  Cr  Cr23  1  0.50000000  0.50000000  0.00000000  1
  P  P24  1  0.02053808  0.75000000  0.74412422  1
  P  P25  1  0.24442356  0.75000000  0.07845700  1
  P  P26  1  0.25557644  0.25000000  0.57845700  1
  P  P27  1  0.47946192  0.25000000  0.24412422  1
  P  P28  1  0.52053808  0.75000000  0.75587578  1
  P  P29  1  0.74442356  0.75000000  0.42154300  1
  P  P30  1  0.75557644  0.25000000  0.92154300  1
  P  P31  1  0.97946192  0.25000000  0.25587578  1
  O  O32  1  0.03035209  0.25000000  0.12164203  1
  O  O33  1  0.03581004  0.05975563  0.31848924  1
  O  O34  1  0.03581004  0.44024437  0.31848924  1
  O  O35  1  0.10735195  0.25000000  0.55797854  1
  O  O36  1  0.16770033  0.75000000  0.74277472  1
  O  O37  1  0.19253901  0.55755875  0.01520129  1
  O  O38  1  0.19253901  0.94244125  0.01520129  1
  O  O39  1  0.21391604  0.75000000  0.21354888  1
  O  O40  1  0.28608396  0.25000000  0.71354888  1
  O  O41  1  0.30746099  0.05755875  0.51520129  1
  O  O42  1  0.30746099  0.44244125  0.51520129  1
  O  O43  1  0.33229967  0.25000000  0.24277472  1
  O  O44  1  0.39264805  0.75000000  0.05797854  1
  O  O45  1  0.46418996  0.55975563  0.81848924  1
  O  O46  1  0.46418996  0.94024437  0.81848924  1
  O  O47  1  0.46964791  0.75000000  0.62164203  1
  O  O48  1  0.53035209  0.25000000  0.37835797  1
  O  O49  1  0.53581004  0.05975563  0.18151076  1
  O  O50  1  0.53581004  0.44024437  0.18151076  1
  O  O51  1  0.60735195  0.25000000  0.94202146  1
  O  O52  1  0.66770033  0.75000000  0.75722528  1
  O  O53  1  0.69253901  0.55755875  0.48479871  1
  O  O54  1  0.69253901  0.94244125  0.48479871  1
  O  O55  1  0.71391604  0.75000000  0.28645112  1
  O  O56  1  0.78608396  0.25000000  0.78645112  1
  O  O57  1  0.80746099  0.05755875  0.98479871  1
  O  O58  1  0.80746099  0.44244125  0.98479871  1
  O  O59  1  0.83229967  0.25000000  0.25722528  1
  O  O60  1  0.89264805  0.75000000  0.44202146  1
  O  O61  1  0.96418996  0.55975563  0.68151076  1
  O  O62  1  0.96418996  0.94024437  0.68151076  1
  O  O63  1  0.96964791  0.75000000  0.87835797  1
  F  F64  1  0.06938813  0.25000000  0.86947161  1
  F  F65  1  0.15071239  0.75000000  0.44984197  1
  F  F66  1  0.34928761  0.25000000  0.94984197  1
  F  F67  1  0.43061187  0.75000000  0.36947161  1
  F  F68  1  0.56938813  0.25000000  0.63052839  1
  F  F69  1  0.65071239  0.75000000  0.05015803  1
  F  F70  1  0.84928761  0.25000000  0.55015803  1
  F  F71  1  0.93061187  0.75000000  0.13052839  1
