# generated using pymatgen
data_SbH(OF3)2
_symmetry_space_group_name_H-M   'P 1'
_cell_length_a   5.17411271
_cell_length_b   7.30153432
_cell_length_c   8.13495542
_cell_angle_alpha   90.93953180
_cell_angle_beta   97.22151282
_cell_angle_gamma   91.96796882
_symmetry_Int_Tables_number   1
_chemical_formula_structural   SbH(OF3)2
_chemical_formula_sum   'Sb2 H2 O4 F12'
_cell_volume   304.64595604
_cell_formula_units_Z   2
loop_
 _symmetry_equiv_pos_site_id
 _symmetry_equiv_pos_as_xyz
  1  'x, y, z'
loop_
 _atom_site_type_symbol
 _atom_site_label
 _atom_site_symmetry_multiplicity
 _atom_site_fract_x
 _atom_site_fract_y
 _atom_site_fract_z
 _atom_site_occupancy
  Sb  Sb0  1  0.53961233  0.73447509  0.77287077  1
  Sb  Sb1  1  0.46038767  0.26552491  0.22712923  1
  H  H2  1  0.15091386  0.91644720  0.14651708  1
  H  H3  1  0.84908614  0.08355280  0.85348292  1
  O  O4  1  0.01031174  0.74551055  0.22519953  1
  O  O5  1  0.08197105  0.73820279  0.37478328  1
  O  O6  1  0.91802895  0.26179721  0.62521672  1
  O  O7  1  0.98968826  0.25448945  0.77480047  1
  F  F8  1  0.15037747  0.38450404  0.14880972  1
  F  F9  1  0.28296595  0.91211710  0.72277626  1
  F  F10  1  0.22474231  0.02795595  0.10109553  1
  F  F11  1  0.34973404  0.52668689  0.67546296  1
  F  F12  1  0.30944064  0.19464804  0.41800064  1
  F  F13  1  0.43688063  0.71695151  0.98834135  1
  F  F14  1  0.56311937  0.28304849  0.01165865  1
  F  F15  1  0.69055936  0.80535196  0.58199936  1
  F  F16  1  0.65026596  0.47331311  0.32453704  1
  F  F17  1  0.77525769  0.97204405  0.89890447  1
  F  F18  1  0.71703405  0.08788290  0.27722374  1
  F  F19  1  0.84962253  0.61549596  0.85119028  1
