# generated using pymatgen
data_Li4Co3CuO8
_symmetry_space_group_name_H-M   'P 1'
_cell_length_a   5.83230639
_cell_length_b   5.83230680
_cell_length_c   5.93960729
_cell_angle_alpha   60.59581641
_cell_angle_beta   60.59582069
_cell_angle_gamma   60.00000442
_symmetry_Int_Tables_number   1
_chemical_formula_structural   Li4Co3CuO8
_chemical_formula_sum   'Li4 Co3 Cu1 O8'
_cell_volume   144.13732491
_cell_formula_units_Z   1
loop_
 _symmetry_equiv_pos_site_id
 _symmetry_equiv_pos_as_xyz
  1  'x, y, z'
loop_
 _atom_site_type_symbol
 _atom_site_label
 _atom_site_symmetry_multiplicity
 _atom_site_fract_x
 _atom_site_fract_y
 _atom_site_fract_z
 _atom_site_occupancy
  Li  Li0  1  0.00000000  0.00000000  0.50000000  1
  Li  Li1  1  0.50000000  0.00000000  0.50000000  1
  Li  Li2  1  0.00000000  0.50000000  0.50000000  1
  Li  Li3  1  0.50000000  0.50000000  0.50000000  1
  Co  Co4  1  0.50000000  0.00000000  0.00000000  1
  Co  Co5  1  0.00000000  0.50000000  0.00000000  1
  Co  Co6  1  0.50000000  0.50000000  0.00000000  1
  Cu  Cu7  1  0.00000000  0.00000000  0.00000000  1
  O  O8  1  0.24620499  0.24620499  0.76989053  1
  O  O9  1  0.73769850  0.24620499  0.76989053  1
  O  O10  1  0.24620499  0.73769850  0.76989053  1
  O  O11  1  0.74414837  0.74414837  0.76755590  1
  O  O12  1  0.25585163  0.25585163  0.23244410  1
  O  O13  1  0.75379501  0.26230150  0.23010947  1
  O  O14  1  0.26230150  0.75379501  0.23010947  1
  O  O15  1  0.75379501  0.75379501  0.23010947  1
