# generated using pymatgen
data_Ba2Sc2O5
_symmetry_space_group_name_H-M   'P 1'
_cell_length_a   6.13425647
_cell_length_b   16.53159339
_cell_length_c   5.99137469
_cell_angle_alpha   90.00000000
_cell_angle_beta   90.00000000
_cell_angle_gamma   90.00000000
_symmetry_Int_Tables_number   1
_chemical_formula_structural   Ba2Sc2O5
_chemical_formula_sum   'Ba8 Sc8 O20'
_cell_volume   607.57951792
_cell_formula_units_Z   4
loop_
 _symmetry_equiv_pos_site_id
 _symmetry_equiv_pos_as_xyz
  1  'x, y, z'
loop_
 _atom_site_type_symbol
 _atom_site_label
 _atom_site_symmetry_multiplicity
 _atom_site_fract_x
 _atom_site_fract_y
 _atom_site_fract_z
 _atom_site_occupancy
  Ba  Ba0  1  0.01578181  0.10900818  0.49542654  1
  Ba  Ba1  1  0.01578181  0.39099182  0.49542654  1
  Ba  Ba2  1  0.48421819  0.10900818  0.99542654  1
  Ba  Ba3  1  0.48421819  0.39099182  0.99542654  1
  Ba  Ba4  1  0.51578181  0.60900818  0.00457346  1
  Ba  Ba5  1  0.51578181  0.89099182  0.00457346  1
  Ba  Ba6  1  0.98421819  0.60900818  0.50457346  1
  Ba  Ba7  1  0.98421819  0.89099182  0.50457346  1
  Sc  Sc8  1  0.00000000  0.00000000  0.00000000  1
  Sc  Sc9  1  0.00000000  0.50000000  0.00000000  1
  Sc  Sc10  1  0.07058065  0.75000000  0.03667924  1
  Sc  Sc11  1  0.42941935  0.75000000  0.53667924  1
  Sc  Sc12  1  0.50000000  0.50000000  0.50000000  1
  Sc  Sc13  1  0.50000000  0.00000000  0.50000000  1
  Sc  Sc14  1  0.57058065  0.25000000  0.46332076  1
  Sc  Sc15  1  0.92941935  0.25000000  0.96332076  1
  O  O16  1  0.04606075  0.13785480  0.00709235  1
  O  O17  1  0.04606075  0.36214520  0.00709235  1
  O  O18  1  0.15399316  0.75000000  0.35891714  1
  O  O19  1  0.25226792  0.50683328  0.24817010  1
  O  O20  1  0.25226792  0.99316672  0.24817010  1
  O  O21  1  0.24773208  0.50683328  0.74817010  1
  O  O22  1  0.24773208  0.99316672  0.74817010  1
  O  O23  1  0.34600684  0.75000000  0.85891714  1
  O  O24  1  0.45393925  0.13785480  0.50709235  1
  O  O25  1  0.45393925  0.36214520  0.50709235  1
  O  O26  1  0.54606075  0.63785480  0.49290765  1
  O  O27  1  0.54606075  0.86214520  0.49290765  1
  O  O28  1  0.65399316  0.25000000  0.14108286  1
  O  O29  1  0.75226792  0.00683328  0.25182990  1
  O  O30  1  0.75226792  0.49316672  0.25182990  1
  O  O31  1  0.74773208  0.00683328  0.75182990  1
  O  O32  1  0.74773208  0.49316672  0.75182990  1
  O  O33  1  0.84600684  0.25000000  0.64108286  1
  O  O34  1  0.95393925  0.63785480  0.99290765  1
  O  O35  1  0.95393925  0.86214520  0.99290765  1
