# generated using pymatgen
data_Li4Mn3Sn5O16
_symmetry_space_group_name_H-M   'P 1'
_cell_length_a   6.25153648
_cell_length_b   6.11102907
_cell_length_c   9.92474173
_cell_angle_alpha   89.98091524
_cell_angle_beta   91.72089987
_cell_angle_gamma   119.25444597
_symmetry_Int_Tables_number   1
_chemical_formula_structural   Li4Mn3Sn5O16
_chemical_formula_sum   'Li4 Mn3 Sn5 O16'
_cell_volume   330.60562492
_cell_formula_units_Z   1
loop_
 _symmetry_equiv_pos_site_id
 _symmetry_equiv_pos_as_xyz
  1  'x, y, z'
loop_
 _atom_site_type_symbol
 _atom_site_label
 _atom_site_symmetry_multiplicity
 _atom_site_fract_x
 _atom_site_fract_y
 _atom_site_fract_z
 _atom_site_occupancy
  Li  Li0  1  0.32787146  0.66395558  0.89454661  1
  Li  Li1  1  0.97842363  0.98931513  0.98675504  1
  Li  Li2  1  0.99504017  0.99747862  0.49562155  1
  Li  Li3  1  0.66404691  0.33204637  0.40117045  1
  Mn  Mn4  1  0.66210204  0.83104834  0.21364976  1
  Mn  Mn5  1  0.83158212  0.66120329  0.71226821  1
  Mn  Mn6  1  0.83162947  0.17043300  0.71229470  1
  Sn  Sn7  1  0.17160277  0.83212730  0.21449447  1
  Sn  Sn8  1  0.34612986  0.67306943  0.49291963  1
  Sn  Sn9  1  0.17167357  0.33942289  0.21455399  1
  Sn  Sn10  1  0.33998872  0.16998338  0.71562512  1
  Sn  Sn11  1  0.67256525  0.33637423  0.98612243  1
  O  O12  1  0.17650308  0.84461093  0.59435435  1
  O  O13  1  0.03305510  0.51668944  0.34293636  1
  O  O14  1  0.32263153  0.66130738  0.10119822  1
  O  O15  1  0.00724642  0.00359178  0.31173879  1
  O  O16  1  0.99345938  0.99680648  0.80218056  1
  O  O17  1  0.17664723  0.33204093  0.59449140  1
  O  O18  1  0.47488337  0.96672029  0.34823821  1
  O  O19  1  0.47494068  0.50796211  0.34831933  1
  O  O20  1  0.32255989  0.16127957  0.09681053  1
  O  O21  1  0.68738780  0.84357423  0.59996005  1
  O  O22  1  0.50705781  0.47752210  0.84859819  1
  O  O23  1  0.50725790  0.02961706  0.84862864  1
  O  O24  1  0.67443589  0.33719703  0.61121696  1
  O  O25  1  0.84664527  0.67468265  0.09246991  1
  O  O26  1  0.95593500  0.47810022  0.83425272  1
  O  O27  1  0.84669867  0.17213622  0.09242379  1
