# generated using pymatgen
data_Ba6Li2Ta9Ti7O42
_symmetry_space_group_name_H-M   'P 1'
_cell_length_a   9.24502868
_cell_length_b   9.26430544
_cell_length_c   11.87978763
_cell_angle_alpha   89.94994313
_cell_angle_beta   90.02520523
_cell_angle_gamma   120.07081795
_symmetry_Int_Tables_number   1
_chemical_formula_structural   Ba6Li2Ta9Ti7O42
_chemical_formula_sum   'Ba6 Li2 Ta9 Ti7 O42'
_cell_volume   880.54166873
_cell_formula_units_Z   1
loop_
 _symmetry_equiv_pos_site_id
 _symmetry_equiv_pos_as_xyz
  1  'x, y, z'
loop_
 _atom_site_type_symbol
 _atom_site_label
 _atom_site_symmetry_multiplicity
 _atom_site_fract_x
 _atom_site_fract_y
 _atom_site_fract_z
 _atom_site_occupancy
  Ba  Ba0  1  0.00000938  0.59499781  0.24465526  1
  Ba  Ba1  1  0.00001053  0.41273522  0.75111822  1
  Ba  Ba2  1  0.40805120  0.40773734  0.24354231  1
  Ba  Ba3  1  0.59909363  0.59424571  0.74937548  1
  Ba  Ba4  1  0.40085067  0.99516814  0.74937994  1
  Ba  Ba5  1  0.59198289  0.99967729  0.24355306  1
  Li  Li6  1  0.00002040  0.99921012  0.23592681  1
  Li  Li7  1  0.00001843  0.99584116  0.74378841  1
  Ta  Ta8  1  0.99997986  0.24896451  0.41085494  1
  Ta  Ta9  1  0.33051838  0.66598128  0.00457611  1
  Ta  Ta10  1  0.33378993  0.66687736  0.50741339  1
  Ta  Ta11  1  0.24841289  0.24651970  0.91155159  1
  Ta  Ta12  1  0.24740305  0.99873108  0.40963221  1
  Ta  Ta13  1  0.75262398  0.75138955  0.40964475  1
  Ta  Ta14  1  0.66947483  0.33544311  0.00457622  1
  Ta  Ta15  1  0.66620379  0.33304776  0.50739377  1
  Ta  Ta16  1  0.75157515  0.99810082  0.91157091  1
  Ti  Ti17  1  0.99998370  0.74928357  0.91288825  1
  Ti  Ti18  1  0.99993887  0.75201113  0.59721244  1
  Ti  Ti19  1  0.00001377  0.24951444  0.09105513  1
  Ti  Ti20  1  0.24837468  0.24912083  0.59172562  1
  Ti  Ti21  1  0.24508845  0.99445164  0.08656244  1
  Ti  Ti22  1  0.75493143  0.74935742  0.08653981  1
  Ti  Ti23  1  0.75153013  0.00069911  0.59181557  1
  O  O24  1  0.00001051  0.80501857  0.07750393  1
  O  O25  1  0.00001128  0.80143376  0.42311968  1
  O  O26  1  0.99997195  0.79238338  0.75112304  1
  O  O27  1  0.16849612  0.68638996  0.90266397  1
  O  O28  1  0.16833914  0.68594157  0.60027489  1
  O  O29  1  0.99997534  0.20303015  0.25021183  1
  O  O30  1  0.99999881  0.20130532  0.57636539  1
  O  O31  1  0.99998782  0.19892122  0.92253941  1
  O  O32  1  0.31444804  0.83164237  0.10173608  1
  O  O33  1  0.31462943  0.83083670  0.40025475  1
  O  O34  1  0.16781450  0.48207972  0.10069530  1
  O  O35  1  0.16918452  0.48382828  0.40038747  1
  O  O36  1  0.31471653  0.48246537  0.59998787  1
  O  O37  1  0.31422682  0.48293423  0.90076308  1
  O  O38  1  0.51798723  0.83283389  0.60011561  1
  O  O39  1  0.51539383  0.83209974  0.89905296  1
  O  O40  1  0.19934839  0.20052547  0.07667426  1
  O  O41  1  0.19919045  0.19915610  0.42311977  1
  O  O42  1  0.20290263  0.20271619  0.74980568  1
  O  O43  1  0.51962981  0.68693660  0.09683814  1
  O  O44  1  0.51641804  0.68555284  0.40081838  1
  O  O45  1  0.20015716  0.99993078  0.57602236  1
  O  O46  1  0.19969861  0.00183824  0.92247950  1
  O  O47  1  0.20392390  0.99989152  0.24968497  1
  O  O48  1  0.48199150  0.31487290  0.60001509  1
  O  O49  1  0.48458350  0.31668147  0.89904555  1
  O  O50  1  0.79609561  0.79599996  0.24969852  1
  O  O51  1  0.80000587  0.79993222  0.57604512  1
  O  O52  1  0.80028971  0.80212814  0.92248177  1
  O  O53  1  0.48037933  0.16731060  0.09684385  1
  O  O54  1  0.48361804  0.16912621  0.40074781  1
  O  O55  1  0.68540129  0.51624952  0.40029284  1
  O  O56  1  0.68557420  0.51719545  0.10174330  1
  O  O57  1  0.83166673  0.51757849  0.60027524  1
  O  O58  1  0.83147552  0.51788413  0.90265737  1
  O  O59  1  0.68533459  0.16779717  0.60003449  1
  O  O60  1  0.68575208  0.16868878  0.90075672  1
  O  O61  1  0.83082058  0.31466808  0.40039016  1
  O  O62  1  0.83219595  0.31427051  0.10068467  1
  O  O63  1  0.79710976  0.99977952  0.74983798  1
  O  O64  1  0.80069167  0.99997309  0.42318246  1
  O  O65  1  0.80067419  0.00116668  0.07667612  1
