# generated using pymatgen
data_Cr(PO3)2
_symmetry_space_group_name_H-M   'P 1'
_cell_length_a   7.74694892
_cell_length_b   7.74694892
_cell_length_c   9.85614586
_cell_angle_alpha   84.76112729
_cell_angle_beta   68.41555945
_cell_angle_gamma   114.56986782
_symmetry_Int_Tables_number   1
_chemical_formula_structural   Cr(PO3)2
_chemical_formula_sum   'Cr4 P8 O24'
_cell_volume   478.91389360
_cell_formula_units_Z   4
loop_
 _symmetry_equiv_pos_site_id
 _symmetry_equiv_pos_as_xyz
  1  'x, y, z'
loop_
 _atom_site_type_symbol
 _atom_site_label
 _atom_site_symmetry_multiplicity
 _atom_site_fract_x
 _atom_site_fract_y
 _atom_site_fract_z
 _atom_site_occupancy
  Cr  Cr0  1  0.19763046  0.94763046  0.75000000  1
  Cr  Cr1  1  0.00000000  0.50000000  0.00000000  1
  Cr  Cr2  1  0.00000000  0.00000000  0.50000000  1
  Cr  Cr3  1  0.80236954  0.05236954  0.25000000  1
  P  P4  1  0.00254501  0.68302496  0.30967036  1
  P  P5  1  0.27007070  0.72644053  0.47837863  1
  P  P6  1  0.50730467  0.68778463  0.80967036  1
  P  P7  1  0.70481915  0.74844933  0.02162137  1
  P  P8  1  0.29518085  0.25155067  0.97837863  1
  P  P9  1  0.49269533  0.31221537  0.19032964  1
  P  P10  1  0.72992930  0.27355947  0.52162137  1
  P  P11  1  0.99745499  0.31697504  0.69032964  1
  O  O12  1  0.04710200  0.65261448  0.15639468  1
  O  O13  1  0.14150843  0.80014315  0.58897916  1
  O  O14  1  0.19237801  0.69195125  0.34693653  1
  O  O15  1  0.30612376  0.69306923  0.83223633  1
  O  O16  1  0.50521886  0.84254125  0.40671688  1
  O  O17  1  0.11087769  0.26951241  0.08897916  1
  O  O18  1  0.20934325  0.50498123  0.55787089  1
  O  O19  1  0.74925713  0.91193474  0.09328312  1
  O  O20  1  0.56285212  0.76721314  0.94212911  1
  O  O21  1  0.69098984  0.79650232  0.65639468  1
  O  O22  1  0.53888778  0.53931454  0.15306347  1
  O  O23  1  0.02530556  0.13836109  0.66776367  1
  O  O24  1  0.97469444  0.86163891  0.33223633  1
  O  O25  1  0.46111222  0.46068546  0.84693653  1
  O  O26  1  0.30901016  0.20349768  0.34360532  1
  O  O27  1  0.43714788  0.23278686  0.05787089  1
  O  O28  1  0.25074287  0.08806526  0.90671688  1
  O  O29  1  0.79065675  0.49501877  0.44213011  1
  O  O30  1  0.88912231  0.73048759  0.91102084  1
  O  O31  1  0.49478114  0.15745875  0.59328312  1
  O  O32  1  0.69387624  0.30693077  0.16776367  1
  O  O33  1  0.80762199  0.30804875  0.65306347  1
  O  O34  1  0.85849157  0.19985685  0.41102084  1
  O  O35  1  0.95289800  0.34738552  0.84360532  1
