# generated using pymatgen
data_Li11Ti24O48
_symmetry_space_group_name_H-M   'P 1'
_cell_length_a   10.36539178
_cell_length_b   10.36543010
_cell_length_c   10.36552794
_cell_angle_alpha   120.00031489
_cell_angle_beta   109.46374897
_cell_angle_gamma   80.40941486
_symmetry_Int_Tables_number   1
_chemical_formula_structural   Li11Ti24O48
_chemical_formula_sum   'Li11 Ti24 O48'
_cell_volume   909.36343463
_cell_formula_units_Z   1
loop_
 _symmetry_equiv_pos_site_id
 _symmetry_equiv_pos_as_xyz
  1  'x, y, z'
loop_
 _atom_site_type_symbol
 _atom_site_label
 _atom_site_symmetry_multiplicity
 _atom_site_fract_x
 _atom_site_fract_y
 _atom_site_fract_z
 _atom_site_occupancy
  Li  Li0  1  0.62505286  0.66670627  0.20834930  1
  Li  Li1  1  0.50006350  0.33328639  0.16669596  1
  Li  Li2  1  0.62505286  0.33329373  0.54164303  1
  Li  Li3  1  0.12468355  0.33263912  0.04156224  1
  Li  Li4  1  0.50006233  0.00000000  0.49995790  1
  Li  Li5  1  0.50006350  0.66671361  0.83340957  1
  Li  Li6  1  0.99993295  0.66666578  0.33330706  1
  Li  Li7  1  0.62578415  0.00000000  0.87530333  1
  Li  Li8  1  0.12468040  0.00000000  0.37420173  1
  Li  Li9  1  0.12468355  0.66736088  0.70892311  1
  Li  Li10  1  0.99993295  0.33333422  0.66664128  1
  Ti  Ti11  1  0.81391299  0.83377232  0.10303548  1
  Ti  Ti12  1  0.81390399  0.33131281  0.10424128  1
  Ti  Ti13  1  0.81391299  0.16622768  0.26926316  1
  Ti  Ti14  1  0.81389892  0.83494489  0.60664137  1
  Ti  Ti15  1  0.81205021  0.50003251  0.43740036  1
  Ti  Ti16  1  0.31083083  0.83494200  0.10357272  1
  Ti  Ti17  1  0.81204710  0.00000000  0.43726343  1
  Ti  Ti18  1  0.81390399  0.66868719  0.77292848  1
  Ti  Ti19  1  0.56279962  0.00000000  0.18797049  1
  Ti  Ti20  1  0.06133065  0.66865466  0.02042933  1
  Ti  Ti21  1  0.56302128  0.66627164  0.52061870  1
  Ti  Ti22  1  0.31250486  0.66624386  0.27019342  1
  Ti  Ti23  1  0.81389892  0.16505511  0.77169648  1
  Ti  Ti24  1  0.31083083  0.16505800  0.26863072  1
  Ti  Ti25  1  0.31250988  0.49980495  0.43797008  1
  Ti  Ti26  1  0.31254745  0.83395208  0.60437734  1
  Ti  Ti27  1  0.81205021  0.49996749  0.93736785  1
  Ti  Ti28  1  0.31250486  0.33375614  0.60394956  1
  Ti  Ti29  1  0.06133065  0.33134534  0.35177467  1
  Ti  Ti30  1  0.56302128  0.33372836  0.85434706  1
  Ti  Ti31  1  0.31254745  0.16604792  0.77042427  1
  Ti  Ti32  1  0.31250988  0.50019505  0.93816513  1
  Ti  Ti33  1  0.31085316  0.00000000  0.93863059  1
  Ti  Ti34  1  0.06131358  1.00000000  0.68913246  1
  O  O35  1  0.93138323  0.66629197  0.12756418  1
  O  O36  1  0.69365290  0.84993205  0.23131145  1
  O  O37  1  0.69362523  0.48355932  0.04795529  1
  O  O38  1  0.92972529  0.18733361  0.16391064  1
  O  O39  1  0.93131640  0.48418886  0.31082191  1
  O  O40  1  0.93132602  0.84950949  0.49296655  1
  O  O41  1  0.93138323  0.33370803  0.46127122  1
  O  O42  1  0.70551826  0.33363262  0.23539137  1
  O  O43  1  0.91881653  1.00000000  0.30670251  1
  O  O44  1  0.69356932  0.66653269  0.41434906  1
  O  O45  1  0.69327564  0.00000000  0.08116524  1
  O  O46  1  0.41895500  0.66653861  0.13968765  1
  O  O47  1  0.91878810  0.66624865  0.63923455  1
  O  O48  1  0.69365290  0.15006795  0.38137941  1
  O  O49  1  0.69362523  0.51644068  0.56439597  1
  O  O50  1  0.19380646  0.51633847  0.06455095  1
  O  O51  1  0.19395090  0.81660249  0.21499475  1
  O  O52  1  0.69328589  0.81662589  0.71437990  1
  O  O53  1  0.43178479  0.15054178  0.14393722  1
  O  O54  1  0.93132602  0.15049051  0.64345707  1
  O  O55  1  0.93131640  0.51581114  0.82663305  1
  O  O56  1  0.43134436  0.81684888  0.47708648  1
  O  O57  1  0.43127776  0.51634686  0.32686504  1
  O  O58  1  0.92972529  0.81266639  0.97657603  1
  O  O59  1  0.92977221  1.00000000  0.78922878  1
  O  O60  1  0.43174307  1.00000000  0.29445233  1
  O  O61  1  0.43139810  0.66670138  0.62733186  1
  O  O62  1  0.70552599  0.00000000  0.56824939  1
  O  O63  1  0.70551826  0.66636738  0.90175875  1
  O  O64  1  0.21078894  0.00000000  0.07022000  1
  O  O65  1  0.20608213  0.66663548  0.40196397  1
  O  O66  1  0.41895500  0.33346139  0.47315004  1
  O  O67  1  0.91878810  0.33375135  0.97298590  1
  O  O68  1  0.19389709  0.33375375  0.24804801  1
  O  O69  1  0.69356932  0.33346731  0.74781637  1
  O  O70  1  0.19395090  0.18339751  0.39839226  1
  O  O71  1  0.19380646  0.48366153  0.54821249  1
  O  O72  1  0.69328589  0.18337411  0.89775400  1
  O  O73  1  0.19394788  0.84963073  0.73088322  1
  O  O74  1  0.43134436  0.18315112  0.66023860  1
  O  O75  1  0.43127776  0.48365314  0.81051918  1
  O  O76  1  0.43178479  0.84945822  0.99339544  1
  O  O77  1  0.20608213  0.33336452  0.73532849  1
  O  O78  1  0.43139810  0.33329862  0.96063048  1
  O  O79  1  0.41902268  1.00000000  0.80627069  1
  O  O80  1  0.19375656  0.00000000  0.58101556  1
  O  O81  1  0.19389709  0.66624625  0.91429426  1
  O  O82  1  0.19394788  0.15036927  0.88125349  1
