# generated using pymatgen
data_Hg2W2O7
_symmetry_space_group_name_H-M   'P 1'
_cell_length_a   7.35538662
_cell_length_b   7.35538578
_cell_length_c   14.94653939
_cell_angle_alpha   76.65228479
_cell_angle_beta   103.34771690
_cell_angle_gamma   117.41337489
_symmetry_Int_Tables_number   1
_chemical_formula_structural   Hg2W2O7
_chemical_formula_sum   'Hg8 W8 O28'
_cell_volume   691.13723974
_cell_formula_units_Z   4
loop_
 _symmetry_equiv_pos_site_id
 _symmetry_equiv_pos_as_xyz
  1  'x, y, z'
loop_
 _atom_site_type_symbol
 _atom_site_label
 _atom_site_symmetry_multiplicity
 _atom_site_fract_x
 _atom_site_fract_y
 _atom_site_fract_z
 _atom_site_occupancy
  Hg  Hg0  1  0.07192302  0.23891605  0.93644878  1
  Hg  Hg1  1  0.60937809  0.74173633  0.93949275  1
  Hg  Hg2  1  0.25826367  0.39062191  0.43949275  1
  Hg  Hg3  1  0.23891605  0.07192302  0.56355122  1
  Hg  Hg4  1  0.76108395  0.92807698  0.43644878  1
  Hg  Hg5  1  0.74173633  0.60937809  0.56050725  1
  Hg  Hg6  1  0.39062191  0.25826367  0.06050725  1
  Hg  Hg7  1  0.92807698  0.76108395  0.06355122  1
  W  W8  1  0.15247560  0.84023932  0.81198837  1
  W  W9  1  0.15976068  0.84752440  0.31198837  1
  W  W10  1  0.33612703  0.64261125  0.69041812  1
  W  W11  1  0.35738875  0.66387297  0.19041812  1
  W  W12  1  0.64261125  0.33612703  0.80958188  1
  W  W13  1  0.66387297  0.35738875  0.30958188  1
  W  W14  1  0.84023932  0.15247560  0.68801163  1
  W  W15  1  0.84752440  0.15976068  0.18801163  1
  O  O16  1  0.18771359  0.89092771  0.92623784  1
  O  O17  1  0.16123376  0.79392964  0.66929829  1
  O  O18  1  0.10907229  0.81228641  0.42623784  1
  O  O19  1  0.11641395  0.38568705  0.72534686  1
  O  O20  1  0.35091350  0.71778944  0.82959018  1
  O  O21  1  0.20607036  0.83876624  0.16929829  1
  O  O22  1  0.31894760  0.61146274  0.57453386  1
  O  O23  1  0.07489796  0.42351119  0.17815351  1
  O  O24  1  0.28221056  0.64908650  0.32959018  1
  O  O25  1  0.57648881  0.92510204  0.67815351  1
  O  O26  1  0.02890263  0.02890263  0.25000000  1
  O  O27  1  0.38568705  0.11641395  0.77465314  1
  O  O28  1  0.54389175  0.54389175  0.75000000  1
  O  O29  1  0.61146274  0.31894760  0.92546614  1
  O  O30  1  0.38853726  0.68105240  0.07453386  1
  O  O31  1  0.45610825  0.45610825  0.25000000  1
  O  O32  1  0.61431295  0.88358605  0.22534686  1
  O  O33  1  0.97109737  0.97109737  0.75000000  1
  O  O34  1  0.42351119  0.07489796  0.32184649  1
  O  O35  1  0.71778944  0.35091350  0.67040982  1
  O  O36  1  0.92510204  0.57648881  0.82184649  1
  O  O37  1  0.68105240  0.38853726  0.42546614  1
  O  O38  1  0.79392964  0.16123376  0.83070171  1
  O  O39  1  0.64908650  0.28221056  0.17040982  1
  O  O40  1  0.88358605  0.61431295  0.27465314  1
  O  O41  1  0.89092771  0.18771359  0.57376216  1
  O  O42  1  0.83876624  0.20607036  0.33070171  1
  O  O43  1  0.81228641  0.10907229  0.07376216  1
