# generated using pymatgen
data_Zr2N2O
_symmetry_space_group_name_H-M   'P 1'
_cell_length_a   8.87402031
_cell_length_b   8.89282963
_cell_length_c   8.86812712
_cell_angle_alpha   109.36605013
_cell_angle_beta   109.43892939
_cell_angle_gamma   109.68223578
_symmetry_Int_Tables_number   1
_chemical_formula_structural   Zr2N2O
_chemical_formula_sum   'Zr16 N16 O8'
_cell_volume   538.23611106
_cell_formula_units_Z   8
loop_
 _symmetry_equiv_pos_site_id
 _symmetry_equiv_pos_as_xyz
  1  'x, y, z'
loop_
 _atom_site_type_symbol
 _atom_site_label
 _atom_site_symmetry_multiplicity
 _atom_site_fract_x
 _atom_site_fract_y
 _atom_site_fract_z
 _atom_site_occupancy
  Zr  Zr0  1  0.96400658  0.24982510  0.21743609  1
  Zr  Zr1  1  0.99771044  0.49953735  0.99989948  1
  Zr  Zr2  1  0.71952745  0.47201011  0.25115908  1
  Zr  Zr3  1  0.77986016  0.03050725  0.74877058  1
  Zr  Zr4  1  0.75051047  0.78921792  0.03956962  1
  Zr  Zr5  1  0.76088758  0.29566021  0.54792697  1
  Zr  Zr6  1  0.49845349  0.99937393  0.98556049  1
  Zr  Zr7  1  0.53279710  0.74834783  0.28989679  1
  Zr  Zr8  1  0.46602388  0.25243566  0.72261887  1
  Zr  Zr9  1  0.50417892  0.51049582  0.51348881  1
  Zr  Zr10  1  0.24557895  0.21057751  0.95278917  1
  Zr  Zr11  1  0.24758039  0.71100131  0.45946568  1
  Zr  Zr12  1  0.28410929  0.53225591  0.74259283  1
  Zr  Zr13  1  0.21628037  0.96532361  0.25818925  1
  Zr  Zr14  1  0.00857624  0.99713598  0.49975884  1
  Zr  Zr15  1  0.03452690  0.74440507  0.77516578  1
  N  N16  1  0.96169148  0.50481369  0.23470242  1
  N  N17  1  0.76472936  0.72584648  0.25938840  1
  N  N18  1  0.72687376  0.99339747  0.95624442  1
  N  N19  1  0.72738675  0.25919675  0.76917174  1
  N  N20  1  0.77026948  0.53949408  0.52919294  1
  N  N21  1  0.01329785  0.04303528  0.27127044  1
  N  N22  1  0.27190707  0.73680887  0.22101875  1
  N  N23  1  0.22863119  0.45231475  0.46612746  1
  N  N24  1  0.50870164  0.23802002  0.97050371  1
  N  N25  1  0.22484822  0.27320266  0.74057063  1
  N  N26  1  0.53741142  0.77070999  0.54113329  1
  N  N27  1  0.55103689  0.53762586  0.77494563  1
  N  N28  1  0.26315497  0.77622103  0.73015971  1
  N  N29  1  0.24032274  0.96767976  0.51213184  1
  N  N30  1  0.03358851  0.48865797  0.76302652  1
  N  N31  1  0.98844039  0.95769321  0.73226475  1
  O  O32  1  0.75692403  0.03365730  0.48170834  1
  O  O33  1  0.73781637  0.21937891  0.27467701  1
  O  O34  1  0.27451778  0.00911294  0.04903190  1
  O  O35  1  0.95703382  0.72868602  0.99149061  1
  O  O36  1  0.46220973  0.22612070  0.44929516  1
  O  O37  1  0.44466824  0.46299746  0.22411535  1
  O  O38  1  0.05080869  0.27871467  0.01646973  1
  O  O39  1  0.49312142  0.76850459  0.03707192  1
