# generated using pymatgen
data_Li2MnCr3O8
_symmetry_space_group_name_H-M   'P 1'
_cell_length_a   8.34946032
_cell_length_b   8.40898886
_cell_length_c   8.35815266
_cell_angle_alpha   90.52023300
_cell_angle_beta   89.99283141
_cell_angle_gamma   89.95833125
_symmetry_Int_Tables_number   1
_chemical_formula_structural   Li2MnCr3O8
_chemical_formula_sum   'Li8 Mn4 Cr12 O32'
_cell_volume   586.80588420
_cell_formula_units_Z   4
loop_
 _symmetry_equiv_pos_site_id
 _symmetry_equiv_pos_as_xyz
  1  'x, y, z'
loop_
 _atom_site_type_symbol
 _atom_site_label
 _atom_site_symmetry_multiplicity
 _atom_site_fract_x
 _atom_site_fract_y
 _atom_site_fract_z
 _atom_site_occupancy
  Li  Li0  1  0.99919986  0.00008922  0.00102901  1
  Li  Li1  1  0.25054216  0.24919431  0.24980838  1
  Li  Li2  1  0.25188271  0.75021686  0.75022247  1
  Li  Li3  1  0.49771468  0.00062191  0.50000072  1
  Li  Li4  1  0.49970911  0.49978503  0.99886304  1
  Li  Li5  1  0.75050124  0.25150027  0.75024621  1
  Li  Li6  1  0.75157475  0.74987540  0.24927115  1
  Li  Li7  1  0.99836273  0.49863143  0.50072339  1
  Mn  Mn8  1  0.12449856  0.87451343  0.37550868  1
  Mn  Mn9  1  0.37634196  0.12536440  0.87432021  1
  Mn  Mn10  1  0.62443992  0.62450501  0.62555110  1
  Mn  Mn11  1  0.87573087  0.37594910  0.12581650  1
  Cr  Cr12  1  0.12364870  0.12401723  0.62503285  1
  Cr  Cr13  1  0.12501701  0.37234283  0.87684916  1
  Cr  Cr14  1  0.12471016  0.62481245  0.12593847  1
  Cr  Cr15  1  0.37628428  0.37285977  0.62601688  1
  Cr  Cr16  1  0.37470728  0.62493146  0.37509766  1
  Cr  Cr17  1  0.37247539  0.87592372  0.12354073  1
  Cr  Cr18  1  0.62441313  0.37633258  0.37458411  1
  Cr  Cr19  1  0.62531409  0.12829962  0.12214897  1
  Cr  Cr20  1  0.62469574  0.87516949  0.87404155  1
  Cr  Cr21  1  0.87773810  0.12744813  0.37407949  1
  Cr  Cr22  1  0.87497871  0.87442938  0.62406680  1
  Cr  Cr23  1  0.87232839  0.62395276  0.87639126  1
  O  O24  1  0.12137183  0.10687741  0.39190280  1
  O  O25  1  0.11570300  0.88609666  0.60848386  1
  O  O26  1  0.11581242  0.61257440  0.89679213  1
  O  O27  1  0.14101259  0.13090436  0.85876070  1
  O  O28  1  0.10808043  0.38735342  0.11907545  1
  O  O29  1  0.13592283  0.35735915  0.63593595  1
  O  O30  1  0.13156091  0.64201701  0.36022310  1
  O  O31  1  0.13215405  0.86212656  0.14236953  1
  O  O32  1  0.35938673  0.13475391  0.64046332  1
  O  O33  1  0.36506386  0.35503085  0.86581713  1
  O  O34  1  0.35342263  0.63682563  0.13341629  1
  O  O35  1  0.39284964  0.61273537  0.61503677  1
  O  O36  1  0.35688705  0.86394350  0.36355097  1
  O  O37  1  0.39641799  0.38516782  0.38462796  1
  O  O38  1  0.38465137  0.11524719  0.10526528  1
  O  O39  1  0.39152199  0.89258348  0.88103852  1
  O  O40  1  0.61964711  0.39267470  0.61000179  1
  O  O41  1  0.61666105  0.61129458  0.39106445  1
  O  O42  1  0.61567428  0.88793904  0.10357898  1
  O  O43  1  0.64215323  0.36901335  0.13899405  1
  O  O44  1  0.60795959  0.11298346  0.88152531  1
  O  O45  1  0.63606958  0.14492897  0.36415306  1
  O  O46  1  0.63151299  0.85753973  0.63994056  1
  O  O47  1  0.63222139  0.63786595  0.85770337  1
  O  O48  1  0.85963217  0.36651289  0.35878312  1
  O  O49  1  0.86556152  0.14560297  0.13434562  1
  O  O50  1  0.85325601  0.86291686  0.86679258  1
  O  O51  1  0.89269318  0.88767729  0.38474005  1
  O  O52  1  0.85670942  0.63517962  0.63623142  1
  O  O53  1  0.89556747  0.11321331  0.61647136  1
  O  O54  1  0.88462094  0.38487317  0.89496336  1
  O  O55  1  0.89143126  0.60755959  0.11894136  1
