# generated using pymatgen
data_Na3Mn2P2(CO7)2
_symmetry_space_group_name_H-M   'P 1'
_cell_length_a   8.98087399
_cell_length_b   6.57844405
_cell_length_c   10.38662615
_cell_angle_alpha   89.61763352
_cell_angle_beta   88.50651607
_cell_angle_gamma   91.23872706
_symmetry_Int_Tables_number   1
_chemical_formula_structural   Na3Mn2P2(CO7)2
_chemical_formula_sum   'Na6 Mn4 P4 C4 O28'
_cell_volume   613.27581526
_cell_formula_units_Z   2
loop_
 _symmetry_equiv_pos_site_id
 _symmetry_equiv_pos_as_xyz
  1  'x, y, z'
loop_
 _atom_site_type_symbol
 _atom_site_label
 _atom_site_symmetry_multiplicity
 _atom_site_fract_x
 _atom_site_fract_y
 _atom_site_fract_z
 _atom_site_occupancy
  Na  Na0  1  0.24011565  0.00491087  0.61894173  1
  Na  Na1  1  0.23911857  0.48685029  0.62485720  1
  Na  Na2  1  0.24183436  0.02468555  0.12172003  1
  Na  Na3  1  0.76088143  0.51314971  0.87514280  1
  Na  Na4  1  0.75988435  0.99508913  0.88105827  1
  Na  Na5  1  0.75816564  0.97531445  0.37827997  1
  Mn  Mn6  1  0.34564232  0.74388514  0.89624266  1
  Mn  Mn7  1  0.34835303  0.74253171  0.38846755  1
  Mn  Mn8  1  0.65435768  0.25611486  0.60375734  1
  Mn  Mn9  1  0.65164697  0.25746829  0.11153245  1
  P  P10  1  0.42564405  0.24913486  0.85328560  1
  P  P11  1  0.42806285  0.24595468  0.36003008  1
  P  P12  1  0.57435595  0.75086514  0.64671440  1
  P  P13  1  0.57193715  0.75404532  0.13996992  1
  C  C14  1  0.07677092  0.75321435  0.86573345  1
  C  C15  1  0.07766248  0.74620600  0.36504152  1
  C  C16  1  0.92322908  0.24678565  0.63426655  1
  C  C17  1  0.92233752  0.25379400  0.13495848  1
  O  O18  1  0.06045704  0.24027590  0.64903204  1
  O  O19  1  0.05864947  0.24659547  0.14483533  1
  O  O20  1  0.14129316  0.75138668  0.97696044  1
  O  O21  1  0.14677142  0.73639649  0.47687469  1
  O  O22  1  0.17559173  0.74706937  0.76873922  1
  O  O23  1  0.17555568  0.74939804  0.26822795  1
  O  O24  1  0.32717096  0.06085446  0.88996409  1
  O  O25  1  0.33020224  0.43624261  0.87947178  1
  O  O26  1  0.32670529  0.05806343  0.39512999  1
  O  O27  1  0.33633251  0.43233050  0.39971591  1
  O  O28  1  0.46318948  0.24178828  0.70398938  1
  O  O29  1  0.42580555  0.74708954  0.57368014  1
  O  O30  1  0.46564422  0.24240816  0.21268100  1
  O  O31  1  0.42277634  0.76186821  0.06933496  1
  O  O32  1  0.57419445  0.25291046  0.92631986  1
  O  O33  1  0.53681052  0.75821172  0.79601062  1
  O  O34  1  0.57722366  0.23813179  0.43066504  1
  O  O35  1  0.53435578  0.75759184  0.28731900  1
  O  O36  1  0.66979776  0.56375739  0.62052822  1
  O  O37  1  0.67282904  0.93914554  0.61003591  1
  O  O38  1  0.66366749  0.56766950  0.10028409  1
  O  O39  1  0.67329471  0.94193657  0.10487001  1
  O  O40  1  0.82440827  0.25293063  0.73126078  1
  O  O41  1  0.82444432  0.25060196  0.23177205  1
  O  O42  1  0.85870684  0.24861332  0.52303956  1
  O  O43  1  0.85322858  0.26360351  0.02312531  1
  O  O44  1  0.93954296  0.75972410  0.85096796  1
  O  O45  1  0.94135053  0.75340453  0.35516467  1
