# generated using pymatgen
data_NaMnPCO7
_symmetry_space_group_name_H-M   'P 1'
_cell_length_a   18.36314802
_cell_length_b   6.24815254
_cell_length_c   5.24620392
_cell_angle_alpha   90.00000000
_cell_angle_beta   87.52387391
_cell_angle_gamma   90.00000000
_symmetry_Int_Tables_number   1
_chemical_formula_structural   NaMnPCO7
_chemical_formula_sum   'Na4 Mn4 P4 C4 O28'
_cell_volume   601.36512801
_cell_formula_units_Z   4
loop_
 _symmetry_equiv_pos_site_id
 _symmetry_equiv_pos_as_xyz
  1  'x, y, z'
loop_
 _atom_site_type_symbol
 _atom_site_label
 _atom_site_symmetry_multiplicity
 _atom_site_fract_x
 _atom_site_fract_y
 _atom_site_fract_z
 _atom_site_occupancy
  Na  Na0  1  0.11934284  0.02795328  0.24133751  1
  Na  Na1  1  0.38065716  0.52795328  0.75866249  1
  Na  Na2  1  0.61934284  0.47204672  0.24133751  1
  Na  Na3  1  0.88065716  0.97204672  0.75866249  1
  Mn  Mn4  1  0.17232821  0.73330698  0.78301818  1
  Mn  Mn5  1  0.32767179  0.23330698  0.21698182  1
  Mn  Mn6  1  0.67232821  0.76669302  0.78301818  1
  Mn  Mn7  1  0.82767179  0.26669302  0.21698182  1
  P  P8  1  0.21742427  0.23980392  0.72246109  1
  P  P9  1  0.28257573  0.73980392  0.27753891  1
  P  P10  1  0.71742427  0.26019608  0.72246109  1
  P  P11  1  0.78257573  0.76019608  0.27753891  1
  C  C12  1  0.04213099  0.74542263  0.72599104  1
  C  C13  1  0.45786901  0.24542263  0.27400896  1
  C  C14  1  0.54213099  0.75457737  0.72599104  1
  C  C15  1  0.95786901  0.25457737  0.27400896  1
  O  O16  1  0.02359126  0.24803402  0.30620110  1
  O  O17  1  0.07284320  0.74209388  0.94911414  1
  O  O18  1  0.09339700  0.74238892  0.53854415  1
  O  O19  1  0.16730111  0.04593597  0.79184522  1
  O  O20  1  0.16618831  0.43033998  0.78568662  1
  O  O21  1  0.23834802  0.23235781  0.43223326  1
  O  O22  1  0.21304138  0.74709461  0.12571095  1
  O  O23  1  0.28695862  0.24709461  0.87428905  1
  O  O24  1  0.26165198  0.73235781  0.56776674  1
  O  O25  1  0.33269889  0.54593597  0.20815478  1
  O  O26  1  0.33381169  0.93033998  0.21431338  1
  O  O27  1  0.40660300  0.24238892  0.46145585  1
  O  O28  1  0.42715680  0.24209388  0.05088586  1
  O  O29  1  0.47640874  0.74803402  0.69379890  1
  O  O30  1  0.52359126  0.25196598  0.30620110  1
  O  O31  1  0.57284320  0.75790612  0.94911414  1
  O  O32  1  0.59339700  0.75761108  0.53854415  1
  O  O33  1  0.66618831  0.06966002  0.78568662  1
  O  O34  1  0.66730111  0.45406403  0.79184522  1
  O  O35  1  0.73834802  0.26764219  0.43223326  1
  O  O36  1  0.71304138  0.75290539  0.12571095  1
  O  O37  1  0.78695862  0.25290539  0.87428905  1
  O  O38  1  0.76165198  0.76764219  0.56776674  1
  O  O39  1  0.83381169  0.56966002  0.21431338  1
  O  O40  1  0.83269889  0.95406403  0.20815478  1
  O  O41  1  0.90660300  0.25761108  0.46145585  1
  O  O42  1  0.92715680  0.25790612  0.05088586  1
  O  O43  1  0.97640874  0.75196598  0.69379890  1
