# generated using pymatgen
data_Ti3Mn2Cr(PO4)6
_symmetry_space_group_name_H-M   'P 1'
_cell_length_a   8.64513688
_cell_length_b   8.64513688
_cell_length_c   8.64513685
_cell_angle_alpha   60.07915668
_cell_angle_beta   60.07915672
_cell_angle_gamma   60.07915727
_symmetry_Int_Tables_number   1
_chemical_formula_structural   Ti3Mn2Cr(PO4)6
_chemical_formula_sum   'Ti3 Mn2 Cr1 P6 O24'
_cell_volume   457.69793819
_cell_formula_units_Z   1
loop_
 _symmetry_equiv_pos_site_id
 _symmetry_equiv_pos_as_xyz
  1  'x, y, z'
loop_
 _atom_site_type_symbol
 _atom_site_label
 _atom_site_symmetry_multiplicity
 _atom_site_fract_x
 _atom_site_fract_y
 _atom_site_fract_z
 _atom_site_occupancy
  Ti  Ti0  1  0.64514604  0.64514604  0.64514604  1
  Ti  Ti1  1  0.35480292  0.35480292  0.35480292  1
  Ti  Ti2  1  0.14437105  0.14437105  0.14437105  1
  Mn  Mn3  1  0.49883763  0.49883763  0.49883763  1
  Mn  Mn4  1  0.00032296  0.00032296  0.00032296  1
  Cr  Cr5  1  0.85738349  0.85738349  0.85738349  1
  P  P6  1  0.04142108  0.75072231  0.46101147  1
  P  P7  1  0.54360193  0.95670663  0.24844190  1
  P  P8  1  0.24844190  0.54360193  0.95670663  1
  P  P9  1  0.75072231  0.46101147  0.04142108  1
  P  P10  1  0.46101147  0.04142108  0.75072231  1
  P  P11  1  0.95670663  0.24844190  0.54360193  1
  O  O12  1  0.05641782  0.91334961  0.26592991  1
  O  O13  1  0.00696316  0.80610469  0.61855764  1
  O  O14  1  0.08620375  0.73597940  0.94223745  1
  O  O15  1  0.38140814  0.99695587  0.19081766  1
  O  O16  1  0.50072073  0.87901677  0.69100701  1
  O  O17  1  0.23465262  0.58580582  0.43984710  1
  O  O18  1  0.55795722  0.76429583  0.41445074  1
  O  O19  1  0.73597940  0.94223745  0.08620375  1
  O  O20  1  0.30890521  0.50206797  0.11757849  1
  O  O21  1  0.11757849  0.30890521  0.50206797  1
  O  O22  1  0.19081766  0.38140814  0.99695587  1
  O  O23  1  0.41445074  0.55795722  0.76429583  1
  O  O24  1  0.58580582  0.43984710  0.23465262  1
  O  O25  1  0.87901677  0.69100701  0.50072073  1
  O  O26  1  0.80610469  0.61855764  0.00696316  1
  O  O27  1  0.69100701  0.50072073  0.87901677  1
  O  O28  1  0.26592991  0.05641782  0.91334961  1
  O  O29  1  0.43984710  0.23465262  0.58580582  1
  O  O30  1  0.76429583  0.41445074  0.55795722  1
  O  O31  1  0.50206797  0.11757849  0.30890521  1
  O  O32  1  0.61855764  0.00696316  0.80610469  1
  O  O33  1  0.91334961  0.26592991  0.05641782  1
  O  O34  1  0.99695587  0.19081766  0.38140814  1
  O  O35  1  0.94223745  0.08620375  0.73597940  1
