# generated using pymatgen
data_LiVCoO4
_symmetry_space_group_name_H-M   'P 1'
_cell_length_a   5.95921714
_cell_length_b   5.95921711
_cell_length_c   5.95921714
_cell_angle_alpha   93.07826766
_cell_angle_beta   121.17083448
_cell_angle_gamma   57.58087928
_symmetry_Int_Tables_number   1
_chemical_formula_structural   LiVCoO4
_chemical_formula_sum   'Li2 V2 Co2 O8'
_cell_volume   145.33050506
_cell_formula_units_Z   2
loop_
 _symmetry_equiv_pos_site_id
 _symmetry_equiv_pos_as_xyz
  1  'x, y, z'
loop_
 _atom_site_type_symbol
 _atom_site_label
 _atom_site_symmetry_multiplicity
 _atom_site_fract_x
 _atom_site_fract_y
 _atom_site_fract_z
 _atom_site_occupancy
  Li  Li0  1  0.75000000  0.13332464  0.61667536  1
  Li  Li1  1  0.25000000  0.86667536  0.38332464  1
  V  V2  1  0.50000000  0.50000000  0.00000000  1
  V  V3  1  0.00000000  0.50000000  0.50000000  1
  Co  Co4  1  0.50000000  0.00000000  0.00000000  1
  Co  Co5  1  0.00000000  0.50000000  0.00000000  1
  O  O6  1  0.53120601  0.73063846  0.80056655  1
  O  O7  1  0.96879399  0.73063846  0.23815553  1
  O  O8  1  0.97133111  0.27702155  0.25164634  1
  O  O9  1  0.52866889  0.71968477  0.25164634  1
  O  O10  1  0.47133111  0.28031523  0.74835366  1
  O  O11  1  0.02866889  0.72297845  0.74835366  1
  O  O12  1  0.03120601  0.26936154  0.76184447  1
  O  O13  1  0.46879399  0.26936154  0.19943345  1
