# generated using pymatgen
data_Li3CoNi3O8
_symmetry_space_group_name_H-M   'P 1'
_cell_length_a   5.77462418
_cell_length_b   5.79252000
_cell_length_c   14.32579669
_cell_angle_alpha   89.13324220
_cell_angle_beta   90.93205085
_cell_angle_gamma   121.58554242
_symmetry_Int_Tables_number   1
_chemical_formula_structural   Li3CoNi3O8
_chemical_formula_sum   'Li9 Co3 Ni9 O24'
_cell_volume   408.13824983
_cell_formula_units_Z   3
loop_
 _symmetry_equiv_pos_site_id
 _symmetry_equiv_pos_as_xyz
  1  'x, y, z'
loop_
 _atom_site_type_symbol
 _atom_site_label
 _atom_site_symmetry_multiplicity
 _atom_site_fract_x
 _atom_site_fract_y
 _atom_site_fract_z
 _atom_site_occupancy
  Li  Li0  1  0.83322388  0.66656522  0.83332132  1
  Li  Li1  1  0.33334979  0.16680514  0.83330523  1
  Li  Li2  1  0.33329786  0.66656644  0.83329776  1
  Li  Li3  1  0.50017907  0.00062526  0.50030051  1
  Li  Li4  1  0.50100939  0.49745984  0.49934918  1
  Li  Li5  1  0.00014044  0.50034150  0.50152239  1
  Li  Li6  1  0.66642813  0.83283035  0.16518224  1
  Li  Li7  1  0.16654349  0.33277564  0.16637634  1
  Li  Li8  1  0.16560674  0.83572467  0.16737026  1
  Co  Co9  1  0.66847592  0.33362952  0.67007463  1
  Co  Co10  1  0.33336255  0.66664022  0.33335713  1
  Co  Co11  1  0.99824454  -0.00029916  0.99663791  1
  Ni  Ni12  1  0.66908808  0.83532608  0.66683486  1
  Ni  Ni13  1  0.16584359  0.33167841  0.66673370  1
  Ni  Ni14  1  0.16769241  0.83494605  0.66398860  1
  Ni  Ni15  1  0.83335247  0.16664940  0.33332607  1
  Ni  Ni16  1  0.83334534  0.66660779  0.33334316  1
  Ni  Ni17  1  0.33332682  0.16660964  0.33332373  1
  Ni  Ni18  1  0.50090496  0.00183046  0.99991966  1
  Ni  Ni19  1  0.49904903  0.49849624  0.00269443  1
  Ni  Ni20  1  0.99744097  0.49799571  0.99979863  1
  O  O21  1  0.64206007  0.33370420  0.93221679  1
  O  O22  1  0.66498702  0.80645570  0.92508114  1
  O  O23  1  0.16929466  0.85660650  0.92731024  1
  O  O24  1  0.18463177  0.33006997  0.92828891  1
  O  O25  1  0.00178398  0.52743019  0.74179852  1
  O  O26  1  0.48272098  0.00388324  0.73811559  1
  O  O27  1  0.49536182  0.47598563  0.73923803  1
  O  O28  1  0.02526879  0.00047214  0.73433343  1
  O  O29  1  0.83339146  0.19497875  0.59906409  1
  O  O30  1  0.83527373  0.64680871  0.59599593  1
  O  O31  1  0.31396569  0.66096840  0.59465330  1
  O  O32  1  0.35275312  0.15924732  0.59239967  1
  O  O33  1  0.65116713  0.84412018  0.40686958  1
  O  O34  1  0.65361364  0.33848434  0.40543952  1
  O  O35  1  0.17400353  0.34969384  0.40521549  1
  O  O36  1  0.16399973  0.80993518  0.40369295  1
  O  O37  1  0.01309903  0.99472118  0.26125319  1
  O  O38  1  0.50281459  0.52332075  0.26301934  1
  O  O39  1  0.49269345  0.98353247  0.26142790  1
  O  O40  1  0.01549791  0.48912566  0.25982588  1
  O  O41  1  0.83078380  0.68615843  0.07097939  1
  O  O42  1  0.83495436  0.13912200  0.06760922  1
  O  O43  1  0.31414134  0.17385141  0.07401662  1
  O  O44  1  0.35183994  0.67151640  0.07210056  1
