# generated using pymatgen
data_Li2V3CrO8
_symmetry_space_group_name_H-M   'P 1'
_cell_length_a   8.47753016
_cell_length_b   8.46114466
_cell_length_c   8.35828193
_cell_angle_alpha   90.03997090
_cell_angle_beta   90.37625378
_cell_angle_gamma   90.02213860
_symmetry_Int_Tables_number   1
_chemical_formula_structural   Li2V3CrO8
_chemical_formula_sum   'Li8 V12 Cr4 O32'
_cell_volume   599.52317678
_cell_formula_units_Z   4
loop_
 _symmetry_equiv_pos_site_id
 _symmetry_equiv_pos_as_xyz
  1  'x, y, z'
loop_
 _atom_site_type_symbol
 _atom_site_label
 _atom_site_symmetry_multiplicity
 _atom_site_fract_x
 _atom_site_fract_y
 _atom_site_fract_z
 _atom_site_occupancy
  Li  Li0  1  0.00175557  0.00443426  0.00491324  1
  Li  Li1  1  0.24595452  0.24760255  0.24708558  1
  Li  Li2  1  0.25623951  0.75776953  0.74478018  1
  Li  Li3  1  0.49487357  0.99763702  0.50519020  1
  Li  Li4  1  0.50518264  0.49760619  0.99418658  1
  Li  Li5  1  0.74365773  0.25758058  0.75499882  1
  Li  Li6  1  0.75376980  0.74804845  0.25232588  1
  Li  Li7  1  0.99731001  0.50400179  0.49481539  1
  V  V8  1  0.12139676  0.12802919  0.62843881  1
  V  V9  1  0.12410377  0.38083360  0.86797278  1
  V  V10  1  0.12937018  0.62147349  0.12283899  1
  V  V11  1  0.37170590  0.37301133  0.62159244  1
  V  V12  1  0.37788808  0.62650001  0.37235792  1
  V  V13  1  0.37805757  0.86969255  0.12574845  1
  V  V14  1  0.62133313  0.36903920  0.37374235  1
  V  V15  1  0.62165902  0.12684122  0.12920254  1
  V  V16  1  0.62840719  0.87424391  0.87874669  1
  V  V17  1  0.87191290  0.12145618  0.37709567  1
  V  V18  1  0.87605492  0.88066175  0.63229900  1
  V  V19  1  0.87867050  0.62826471  0.87236223  1
  Cr  Cr20  1  0.12602782  0.87520207  0.37425144  1
  Cr  Cr21  1  0.37701206  0.12425564  0.87494414  1
  Cr  Cr22  1  0.62322673  0.62440889  0.62489758  1
  Cr  Cr23  1  0.87401283  0.37500655  0.12535229  1
  O  O24  1  0.10872299  0.11497646  0.39402001  1
  O  O25  1  0.11077554  0.89272041  0.61448684  1
  O  O26  1  0.11583555  0.61933118  0.88307652  1
  O  O27  1  0.13555714  0.13778852  0.85572530  1
  O  O28  1  0.11399823  0.39717379  0.11641524  1
  O  O29  1  0.13713386  0.36134023  0.62450392  1
  O  O30  1  0.14125441  0.63696747  0.36047695  1
  O  O31  1  0.13900563  0.85073015  0.13185493  1
  O  O32  1  0.35656426  0.13975899  0.63256040  1
  O  O33  1  0.36520883  0.36716691  0.84973420  1
  O  O34  1  0.36628974  0.62117794  0.14264012  1
  O  O35  1  0.38382455  0.61174561  0.60438815  1
  O  O36  1  0.36472314  0.85709946  0.36644083  1
  O  O37  1  0.38368361  0.38392208  0.39119737  1
  O  O38  1  0.38964817  0.11397641  0.11625413  1
  O  O39  1  0.39307268  0.88842314  0.88767997  1
  O  O40  1  0.60696145  0.38860238  0.61228179  1
  O  O41  1  0.60998315  0.61217486  0.38311302  1
  O  O42  1  0.61582962  0.88555162  0.10954101  1
  O  O43  1  0.63520075  0.35656300  0.13201735  1
  O  O44  1  0.61561473  0.11178216  0.89475626  1
  O  O45  1  0.63456736  0.12073981  0.35865917  1
  O  O46  1  0.63497334  0.86683537  0.65023773  1
  O  O47  1  0.64352751  0.64029377  0.86741249  1
  O  O48  1  0.86021280  0.35048753  0.36784000  1
  O  O49  1  0.85913088  0.13652879  0.14007880  1
  O  O50  1  0.86280615  0.86180477  0.87587655  1
  O  O51  1  0.88590626  0.89684471  0.38404340  1
  O  O52  1  0.86440926  0.63763325  0.64467394  1
  O  O53  1  0.88487029  0.11913110  0.61689282  1
  O  O54  1  0.88953782  0.39246979  0.88534095  1
  O  O55  1  0.89158658  0.61479466  0.10578162  1
