# generated using pymatgen
data_Li2VCrO4
_symmetry_space_group_name_H-M   'P 1'
_cell_length_a   5.16749422
_cell_length_b   2.96941497
_cell_length_c   5.20646208
_cell_angle_alpha   90.03903317
_cell_angle_beta   70.03163556
_cell_angle_gamma   89.95756885
_symmetry_Int_Tables_number   1
_chemical_formula_structural   Li2VCrO4
_chemical_formula_sum   'Li2 V1 Cr1 O4'
_cell_volume   75.08726545
_cell_formula_units_Z   1
loop_
 _symmetry_equiv_pos_site_id
 _symmetry_equiv_pos_as_xyz
  1  'x, y, z'
loop_
 _atom_site_type_symbol
 _atom_site_label
 _atom_site_symmetry_multiplicity
 _atom_site_fract_x
 _atom_site_fract_y
 _atom_site_fract_z
 _atom_site_occupancy
  Li  Li0  1  0.00000000  0.50000000  0.50000000  1
  Li  Li1  1  0.00000000  0.00000000  0.99999900  1
  V  V2  1  0.50000000  0.00000000  0.50000000  1
  Cr  Cr3  1  0.49999900  0.50000000  0.00000100  1
  O  O4  1  0.72769470  0.99922581  0.75988531  1
  O  O5  1  0.27287582  0.50009370  0.74500086  1
  O  O6  1  0.72712418  0.49990630  0.25499914  1
  O  O7  1  0.27230530  0.00077419  0.24011569  1
