# generated using pymatgen
data_Zr2N2O
_symmetry_space_group_name_H-M   'P 1'
_cell_length_a   8.88389939
_cell_length_b   8.87997991
_cell_length_c   8.86938379
_cell_angle_alpha   109.41136259
_cell_angle_beta   109.40446881
_cell_angle_gamma   109.62147641
_symmetry_Int_Tables_number   1
_chemical_formula_structural   Zr2N2O
_chemical_formula_sum   'Zr16 N16 O8'
_cell_volume   538.46671169
_cell_formula_units_Z   8
loop_
 _symmetry_equiv_pos_site_id
 _symmetry_equiv_pos_as_xyz
  1  'x, y, z'
loop_
 _atom_site_type_symbol
 _atom_site_label
 _atom_site_symmetry_multiplicity
 _atom_site_fract_x
 _atom_site_fract_y
 _atom_site_fract_z
 _atom_site_occupancy
  Zr  Zr0  1  0.49974423  0.99874872  0.98749869  1
  Zr  Zr1  1  0.74957157  0.28493009  0.54352194  1
  Zr  Zr2  1  0.21471379  0.96527536  0.25150465  1
  Zr  Zr3  1  0.71902575  0.46789363  0.24301749  1
  Zr  Zr4  1  0.24638389  0.21127505  0.95139556  1
  Zr  Zr5  1  0.99936170  0.51009420  0.99815472  1
  Zr  Zr6  1  -0.00001063  0.99947603  0.49852452  1
  Zr  Zr7  1  0.49294592  0.49762345  0.50996016  1
  Zr  Zr8  1  0.53129143  0.74562507  0.29079561  1
  Zr  Zr9  1  0.96414679  0.25026345  0.21600417  1
  Zr  Zr10  1  0.47104075  0.25834024  0.71800809  1
  Zr  Zr11  1  0.03547631  0.74959712  0.78278347  1
  Zr  Zr12  1  0.75913798  0.79014004  0.04156835  1
  Zr  Zr13  1  0.78093955  0.02953532  0.75348441  1
  Zr  Zr14  1  0.28266644  0.53479049  0.74680299  1
  Zr  Zr15  1  0.24971698  0.70721442  0.46174899  1
  N  N16  1  0.72789898  0.99361286  0.95928041  1
  N  N17  1  0.51176406  0.23915000  0.97180354  1
  N  N18  1  0.76783378  0.72733014  0.26294118  1
  N  N19  1  0.72866492  0.25581915  0.77203224  1
  N  N20  1  0.46584930  0.22748352  0.45299359  1
  N  N21  1  0.01488173  0.04831541  0.27781038  1
  N  N22  1  0.53848629  0.77090855  0.54208066  1
  N  N23  1  0.22921391  0.45600467  0.46769299  1
  N  N24  1  0.95585950  0.72884635  0.98720566  1
  N  N25  1  0.98747889  0.95491502  0.72788831  1
  N  N26  1  0.22642780  0.27097155  0.73874128  1
  N  N27  1  0.96388146  0.50660568  0.23713556  1
  N  N28  1  0.54651760  0.53557912  0.77391937  1
  N  N29  1  0.27453802  0.74015735  0.22657087  1
  N  N30  1  0.03024302  0.48777496  0.75700739  1
  N  N31  1  0.26627987  0.78034954  0.73042126  1
  O  O32  1  0.76076666  0.03533918  0.48254448  1
  O  O33  1  0.27230375  0.00780019  0.04432171  1
  O  O34  1  0.73873995  0.22421747  0.27687769  1
  O  O35  1  0.77141433  0.54097133  0.52688901  1
  O  O36  1  0.44840056  0.46347023  0.22469473  1
  O  O37  1  0.48949185  0.76589425  0.03701030  1
  O  O38  1  0.23348854  0.96313790  0.50842296  1
  O  O39  1  0.05342378  0.27452191  0.01894064  1
