# generated using pymatgen
data_VOF2
_symmetry_space_group_name_H-M   'P 1'
_cell_length_a   5.18740496
_cell_length_b   13.41250429
_cell_length_c   5.18583240
_cell_angle_alpha   89.13714875
_cell_angle_beta   119.30083697
_cell_angle_gamma   91.31984338
_symmetry_Int_Tables_number   1
_chemical_formula_structural   VOF2
_chemical_formula_sum   'V6 O6 F12'
_cell_volume   314.56224477
_cell_formula_units_Z   6
loop_
 _symmetry_equiv_pos_site_id
 _symmetry_equiv_pos_as_xyz
  1  'x, y, z'
loop_
 _atom_site_type_symbol
 _atom_site_label
 _atom_site_symmetry_multiplicity
 _atom_site_fract_x
 _atom_site_fract_y
 _atom_site_fract_z
 _atom_site_occupancy
  V  V0  1  0.99476569  0.49303495  0.03024686  1
  V  V1  1  0.97732053  0.99247242  0.99514205  1
  V  V2  1  0.64385849  0.82653512  0.30043264  1
  V  V3  1  0.30973030  0.66078459  0.68118902  1
  V  V4  1  0.64193362  0.32599940  0.34075754  1
  V  V5  1  0.32686121  0.15891366  0.68814640  1
  O  O6  1  0.42479120  0.75287929  0.01001770  1
  O  O7  1  0.75791712  0.91927968  0.07809675  1
  O  O8  1  0.08940389  0.58575121  0.75120944  1
  O  O9  1  0.42191506  0.25116019  0.41296168  1
  O  O10  1  0.92134825  0.41842255  0.24849265  1
  O  O11  1  0.25278585  0.08352734  0.90729994  1
  F  F12  1  0.00963959  0.75325176  0.40639147  1
  F  F13  1  0.33427707  0.41748930  0.06485665  1
  F  F14  1  0.06672065  0.08894462  0.31674895  1
  F  F15  1  0.34079215  0.92007285  0.26490246  1
  F  F16  1  0.27097525  0.58604869  0.33587990  1
  F  F17  1  0.60611114  0.25055406  0.99862509  1
  F  F18  1  0.01236866  0.25536442  0.60069492  1
  F  F19  1  0.59392517  0.75051707  0.59534718  1
  F  F20  1  0.73284951  0.42227277  0.65843358  1
  F  F21  1  0.66627476  0.08402639  0.72188383  1
  F  F22  1  0.92632070  0.91487356  0.65724858  1
  F  F23  1  0.67711615  0.58782311  0.93499271  1
