# generated using pymatgen
data_Li32Ti13Cr3O48
_symmetry_space_group_name_H-M   'P 1'
_cell_length_a   5.08636258
_cell_length_b   8.82100197
_cell_length_c   19.60869810
_cell_angle_alpha   98.36024008
_cell_angle_beta   94.82437133
_cell_angle_gamma   89.88015853
_symmetry_Int_Tables_number   1
_chemical_formula_structural   Li32Ti13Cr3O48
_chemical_formula_sum   'Li32 Ti13 Cr3 O48'
_cell_volume   867.30117903
_cell_formula_units_Z   1
loop_
 _symmetry_equiv_pos_site_id
 _symmetry_equiv_pos_as_xyz
  1  'x, y, z'
loop_
 _atom_site_type_symbol
 _atom_site_label
 _atom_site_symmetry_multiplicity
 _atom_site_fract_x
 _atom_site_fract_y
 _atom_site_fract_z
 _atom_site_occupancy
  Li  Li0  1  0.99181558  0.17000797  0.24971839  1
  Li  Li1  1  0.87508783  0.37433419  0.37503247  1
  Li  Li2  1  0.75023711  0.24990503  0.99992119  1
  Li  Li3  1  0.74325821  0.91852698  0.99947102  1
  Li  Li4  1  0.99255536  0.16933411  0.74970885  1
  Li  Li5  1  0.76102874  0.58074787  0.49993629  1
  Li  Li6  1  0.87478486  0.37703689  0.87481908  1
  Li  Li7  1  0.75255422  0.25131783  0.50001903  1
  Li  Li8  1  0.74090474  0.91822619  0.50012025  1
  Li  Li9  1  0.62511706  0.12496174  0.12497184  1
  Li  Li10  1  0.75966752  0.58066926  0.99919552  1
  Li  Li11  1  0.50992146  0.33019747  0.25063015  1
  Li  Li12  1  0.62311694  0.12541901  0.62523807  1
  Li  Li13  1  0.50087935  0.00079227  0.25034245  1
  Li  Li14  1  0.49100307  0.66877825  0.25002866  1
  Li  Li15  1  0.50505632  0.32956227  0.74972354  1
  Li  Li16  1  0.37486435  0.87452956  0.37501590  1
  Li  Li17  1  0.49989040  0.00055330  0.75003263  1
  Li  Li18  1  0.24482820  0.75099253  0.99963037  1
  Li  Li19  1  0.49590798  0.67035835  0.75060557  1
  Li  Li20  1  0.24196046  0.41988454  0.00029345  1
  Li  Li21  1  0.37446192  0.87414283  0.87512156  1
  Li  Li22  1  0.25672758  0.08160103  0.49971090  1
  Li  Li23  1  0.24935956  0.75028322  0.49996981  1
  Li  Li24  1  0.12491177  0.62501304  0.12492611  1
  Li  Li25  1  0.23851748  0.41787433  0.50007634  1
  Li  Li26  1  0.00823626  0.82938540  0.24960507  1
  Li  Li27  1  0.25940627  0.07983437  0.99996233  1
  Li  Li28  1  0.12413610  0.62295681  0.62485273  1
  Li  Li29  1  0.99784604  0.50088051  0.24965977  1
  Li  Li30  1  0.00798811  0.83006863  0.75079580  1
  Li  Li31  1  0.99903884  0.50052067  0.75037983  1
  Ti  Ti32  1  0.87385580  0.70973319  0.37497016  1
  Ti  Ti33  1  0.87589463  0.04585843  0.37507298  1
  Ti  Ti34  1  0.87863745  0.04017562  0.87590533  1
  Ti  Ti35  1  0.62609155  0.79118544  0.12478815  1
  Ti  Ti36  1  0.62381589  0.45880284  0.12486403  1
  Ti  Ti37  1  0.63120057  0.79099348  0.62468361  1
  Ti  Ti38  1  0.62038885  0.45769470  0.62348314  1
  Ti  Ti39  1  0.37628204  0.53879924  0.37518620  1
  Ti  Ti40  1  0.37600175  0.54155473  0.87409576  1
  Ti  Ti41  1  0.37462814  0.20854394  0.87486877  1
  Ti  Ti42  1  0.12379169  0.95869020  0.12495466  1
  Ti  Ti43  1  0.12664616  0.29117755  0.12496175  1
  Ti  Ti44  1  0.13069422  0.96074717  0.62720752  1
  Cr  Cr45  1  0.87128246  0.70953488  0.87501921  1
  Cr  Cr46  1  0.37368031  0.20685720  0.37494074  1
  Cr  Cr47  1  0.12016506  0.29028878  0.62505276  1
  O  O48  1  0.96260803  0.10626948  0.06824867  1
  O  O49  1  0.92868514  0.78435799  0.06841855  1
  O  O50  1  0.92787594  0.42753155  0.06712483  1
  O  O51  1  0.96381643  0.11223510  0.56908501  1
  O  O52  1  0.82197461  0.96573600  0.18186723  1
  O  O53  1  0.82277466  0.32248254  0.18279706  1
  O  O54  1  0.92758296  0.78599511  0.56826316  1
  O  O55  1  0.92410564  0.42870574  0.56700864  1
  O  O56  1  0.78775927  0.64350146  0.18165039  1
  O  O57  1  0.71417677  0.85720654  0.31824638  1
  O  O58  1  0.82116332  0.96602689  0.68183859  1
  O  O59  1  0.83129678  0.32095257  0.68210691  1
  O  O60  1  0.67822211  0.53445695  0.31829644  1
  O  O61  1  0.68004048  0.17805864  0.31707356  1
  O  O62  1  0.78479748  0.64315904  0.68168356  1
  O  O63  1  0.71303208  0.85236591  0.81889370  1
  O  O64  1  0.46234562  0.60641797  0.06816480  1
  O  O65  1  0.57104851  0.71448650  0.43180336  1
  O  O66  1  0.56725778  0.07577823  0.43221724  1
  O  O67  1  0.67651680  0.53394575  0.81824367  1
  O  O68  1  0.67703605  0.17620412  0.81724653  1
  O  O69  1  0.42768824  0.92731155  0.06717398  1
  O  O70  1  0.42883193  0.28437144  0.06830443  1
  O  O71  1  0.53656688  0.38978444  0.43099306  1
  O  O72  1  0.46307147  0.60582252  0.56786180  1
  O  O73  1  0.57942073  0.71670336  0.93091475  1
  O  O74  1  0.57235487  0.07221701  0.93273880  1
  O  O75  1  0.32248526  0.82253307  0.18286673  1
  O  O76  1  0.32153301  0.46554944  0.18173756  1
  O  O77  1  0.42725038  0.92783487  0.56713025  1
  O  O78  1  0.42399890  0.28292102  0.56942943  1
  O  O79  1  0.53595479  0.39464852  0.93188610  1
  O  O80  1  0.28773223  0.14354271  0.18157559  1
  O  O81  1  0.21350177  0.35312061  0.31928880  1
  O  O82  1  0.32159748  0.82331191  0.68302140  1
  O  O83  1  0.31900094  0.46259114  0.68084985  1
  O  O84  1  0.17785454  0.67625243  0.31715888  1
  O  O85  1  0.18440063  0.03811869  0.31915108  1
  O  O86  1  0.29093672  0.14232703  0.68197773  1
  O  O87  1  0.21383149  0.35701248  0.81831093  1
  O  O88  1  0.07247823  0.57268743  0.43286028  1
  O  O89  1  0.06891143  0.21616327  0.43178231  1
  O  O90  1  0.17336058  0.67950276  0.81810139  1
  O  O91  1  0.17842323  0.03403653  0.81818910  1
  O  O92  1  0.03549932  0.89462278  0.43191497  1
  O  O93  1  0.06999411  0.57410789  0.93191757  1
  O  O94  1  0.07138539  0.21444402  0.93166209  1
  O  O95  1  0.03969666  0.89325516  0.93135310  1
