# generated using pymatgen
data_Mn2(SO4)3
_symmetry_space_group_name_H-M   'P 1'
_cell_length_a   8.36469342
_cell_length_b   9.04432926
_cell_length_c   8.36469371
_cell_angle_alpha   117.54386018
_cell_angle_beta   60.00000114
_cell_angle_gamma   117.54386189
_symmetry_Int_Tables_number   1
_chemical_formula_structural   Mn2(SO4)3
_chemical_formula_sum   'Mn4 S6 O24'
_cell_volume   463.36579432
_cell_formula_units_Z   2
loop_
 _symmetry_equiv_pos_site_id
 _symmetry_equiv_pos_as_xyz
  1  'x, y, z'
loop_
 _atom_site_type_symbol
 _atom_site_label
 _atom_site_symmetry_multiplicity
 _atom_site_fract_x
 _atom_site_fract_y
 _atom_site_fract_z
 _atom_site_occupancy
  Mn  Mn0  1  0.14432580  0.43297640  0.14432580  1
  Mn  Mn1  1  0.34592227  0.03776782  0.34592227  1
  Mn  Mn2  1  0.65407773  0.96223218  0.65407773  1
  Mn  Mn3  1  0.85567420  0.56702360  0.85567420  1
  S  S4  1  0.04364212  0.24435502  0.45671245  1
  S  S5  1  0.54328755  0.75564498  0.25599955  1
  S  S6  1  0.25599955  0.75564498  0.95635788  1
  S  S7  1  0.74400045  0.24435502  0.04364212  1
  S  S8  1  0.45671245  0.24435502  0.74400045  1
  S  S9  1  0.95635788  0.75564498  0.54328755  1
  O  O10  1  0.21835307  0.89567533  0.14991227  1
  O  O11  1  0.14991227  0.89567533  0.52740999  1
  O  O12  1  0.02054974  0.41117839  0.60442949  1
  O  O13  1  0.12672458  0.25684279  0.25963021  1
  O  O14  1  0.52740999  0.89567533  0.21835307  1
  O  O15  1  0.12951201  0.74315721  0.87327542  1
  O  O16  1  0.39557051  0.58882161  0.21380084  1
  O  O17  1  0.17225089  0.19617126  0.48783930  1
  O  O18  1  0.51216070  0.80382874  0.46391894  1
  O  O19  1  0.21380084  0.58882161  0.97945026  1
  O  O20  1  0.74036979  0.74315721  0.12951201  1
  O  O21  1  0.46391894  0.80382874  0.82774911  1
  O  O22  1  0.53608106  0.19617126  0.17225089  1
  O  O23  1  0.25963021  0.25684279  0.87048799  1
  O  O24  1  0.78619916  0.41117839  0.02054974  1
  O  O25  1  0.48783930  0.19617126  0.53608106  1
  O  O26  1  0.82774911  0.80382874  0.51216070  1
  O  O27  1  0.60442949  0.41117839  0.78619916  1
  O  O28  1  0.87048799  0.25684279  0.12672458  1
  O  O29  1  0.47259001  0.10432467  0.78164693  1
  O  O30  1  0.87327542  0.74315721  0.74036979  1
  O  O31  1  0.97945026  0.58882161  0.39557051  1
  O  O32  1  0.85008773  0.10432467  0.47259001  1
  O  O33  1  0.78164693  0.10432467  0.85008773  1
