# generated using pymatgen
data_LiMnF4
_symmetry_space_group_name_H-M   'P 1'
_cell_length_a   3.19117763
_cell_length_b   6.78551298
_cell_length_c   6.40399855
_cell_angle_alpha   90.03928054
_cell_angle_beta   90.00746977
_cell_angle_gamma   93.82483326
_symmetry_Int_Tables_number   1
_chemical_formula_structural   LiMnF4
_chemical_formula_sum   'Li2 Mn2 F8'
_cell_volume   138.36185515
_cell_formula_units_Z   2
loop_
 _symmetry_equiv_pos_site_id
 _symmetry_equiv_pos_as_xyz
  1  'x, y, z'
loop_
 _atom_site_type_symbol
 _atom_site_label
 _atom_site_symmetry_multiplicity
 _atom_site_fract_x
 _atom_site_fract_y
 _atom_site_fract_z
 _atom_site_occupancy
  Li  Li0  1  0.49606265  0.25083464  0.22719421  1
  Li  Li1  1  0.50489464  0.75158070  0.72696276  1
  Mn  Mn2  1  0.99830918  0.75210857  0.22694175  1
  Mn  Mn3  1  0.00059522  0.25225842  0.72727088  1
  F  F4  1  0.99992494  0.75193290  0.51811236  1
  F  F5  1  0.99987100  0.75206839  0.93571016  1
  F  F6  1  0.46225916  0.44556002  0.72764271  1
  F  F7  1  0.53062175  0.56019896  0.22685011  1
  F  F8  1  0.53961690  0.05906596  0.72711139  1
  F  F9  1  0.46622740  0.94400797  0.22726707  1
  F  F10  1  0.00105990  0.25155873  0.43595269  1
  F  F11  1  0.00055727  0.25140374  0.01858391  1
