# generated using pymatgen
data_Li32Ti13Cr3O48
_symmetry_space_group_name_H-M   'P 1'
_cell_length_a   5.08462561
_cell_length_b   8.83329728
_cell_length_c   19.63116739
_cell_angle_alpha   98.32689571
_cell_angle_beta   94.70945267
_cell_angle_gamma   89.81915066
_symmetry_Int_Tables_number   1
_chemical_formula_structural   Li32Ti13Cr3O48
_chemical_formula_sum   'Li32 Ti13 Cr3 O48'
_cell_volume   869.43981650
_cell_formula_units_Z   1
loop_
 _symmetry_equiv_pos_site_id
 _symmetry_equiv_pos_as_xyz
  1  'x, y, z'
loop_
 _atom_site_type_symbol
 _atom_site_label
 _atom_site_symmetry_multiplicity
 _atom_site_fract_x
 _atom_site_fract_y
 _atom_site_fract_z
 _atom_site_occupancy
  Li  Li0  1  0.98948054  0.16790357  0.25034532  1
  Li  Li1  1  0.87429589  0.37339873  0.37478721  1
  Li  Li2  1  0.75217932  0.24899754  0.99939875  1
  Li  Li3  1  0.74317424  0.92106520  0.99980063  1
  Li  Li4  1  0.99036163  0.16882933  0.74998983  1
  Li  Li5  1  0.75613660  0.58029513  0.49964315  1
  Li  Li6  1  0.87567716  0.37349384  0.87511605  1
  Li  Li7  1  0.75541077  0.24843351  0.49971937  1
  Li  Li8  1  0.74312687  0.92043582  0.49964913  1
  Li  Li9  1  0.62492386  0.12504277  0.12494100  1
  Li  Li10  1  0.75735273  0.58013685  0.99954654  1
  Li  Li11  1  0.50930337  0.33168232  0.25008893  1
  Li  Li12  1  0.62640609  0.12524091  0.62478770  1
  Li  Li13  1  0.50340497  -0.00003327  0.25002748  1
  Li  Li14  1  0.48968577  0.66751079  0.24940496  1
  Li  Li15  1  0.50533011  0.33186424  0.74994704  1
  Li  Li16  1  0.37360500  0.87548922  0.37520636  1
  Li  Li17  1  0.50564224  0.99809492  0.75064441  1
  Li  Li18  1  0.25138099  0.74930380  0.00035553  1
  Li  Li19  1  0.48954520  0.66900681  0.74974940  1
  Li  Li20  1  0.24261502  0.42067286  0.00050625  1
  Li  Li21  1  0.37604116  0.87559553  0.87487866  1
  Li  Li22  1  0.25218144  0.07971808  0.49985152  1
  Li  Li23  1  0.25149762  0.75004236  0.50015458  1
  Li  Li24  1  0.12487268  0.62505562  0.12503250  1
  Li  Li25  1  0.24281845  0.42059955  0.50076199  1
  Li  Li26  1  0.00879660  0.83268213  0.25060578  1
  Li  Li27  1  0.25370406  0.07960842  0.99948580  1
  Li  Li28  1  0.12576200  0.62385226  0.62523478  1
  Li  Li29  1  0.99953158  0.50029082  0.25018625  1
  Li  Li30  1  0.00787955  0.83291400  0.75053910  1
  Li  Li31  1  0.00229568  0.49901105  0.74946449  1
  Ti  Ti32  1  0.87919767  0.71113232  0.37687056  1
  Ti  Ti33  1  0.86837073  0.70961727  0.87331568  1
  Ti  Ti34  1  0.62683487  0.79107563  0.12492255  1
  Ti  Ti35  1  0.62409308  0.45852656  0.12481424  1
  Ti  Ti36  1  0.62278354  0.79131775  0.62518293  1
  Ti  Ti37  1  0.62675939  0.45855916  0.62667491  1
  Ti  Ti38  1  0.37967828  0.54116782  0.37467263  1
  Ti  Ti39  1  0.37163694  0.20775895  0.37345088  1
  Ti  Ti40  1  0.37263090  0.54129997  0.87516921  1
  Ti  Ti41  1  0.37542906  0.20889056  0.87661575  1
  Ti  Ti42  1  0.12418872  0.95882800  0.12504055  1
  Ti  Ti43  1  0.12657665  0.29107751  0.12506270  1
  Ti  Ti44  1  0.11864544  0.95955489  0.62343872  1
  Cr  Cr45  1  0.87088698  0.04044154  0.37513394  1
  Cr  Cr46  1  0.88030353  0.04056504  0.87468364  1
  Cr  Cr47  1  0.13130778  0.29010337  0.62492957  1
  O  O48  1  0.96264473  0.10653700  0.06850085  1
  O  O49  1  0.92896950  0.78475537  0.06826520  1
  O  O50  1  0.92777896  0.42734420  0.06723724  1
  O  O51  1  0.96027680  0.10582020  0.56841702  1
  O  O52  1  0.82133636  0.96544635  0.18159836  1
  O  O53  1  0.82233531  0.32271952  0.18274131  1
  O  O54  1  0.92964667  0.78532550  0.56833380  1
  O  O55  1  0.93027627  0.42459529  0.56821121  1
  O  O56  1  0.78694889  0.64366656  0.18163350  1
  O  O57  1  0.71489177  0.86236991  0.31932793  1
  O  O58  1  0.82153934  0.96564183  0.68167196  1
  O  O59  1  0.82536108  0.32062372  0.68193592  1
  O  O60  1  0.67747054  0.53598452  0.31830494  1
  O  O61  1  0.67440306  0.17846128  0.31714869  1
  O  O62  1  0.78632429  0.64296917  0.68187143  1
  O  O63  1  0.71010696  0.85606556  0.81828822  1
  O  O64  1  0.46262009  0.60651986  0.06836752  1
  O  O65  1  0.57088582  0.71581795  0.43161826  1
  O  O66  1  0.58094614  0.07099112  0.43203653  1
  O  O67  1  0.67911599  0.53530070  0.81816921  1
  O  O68  1  0.68014342  0.17494561  0.81811743  1
  O  O69  1  0.42740257  0.92730673  0.06712015  1
  O  O70  1  0.42863877  0.28456902  0.06834339  1
  O  O71  1  0.53459865  0.39292992  0.43189664  1
  O  O72  1  0.46520013  0.60596531  0.56829064  1
  O  O73  1  0.57164020  0.71554318  0.93162946  1
  O  O74  1  0.57584203  0.07062790  0.93176146  1
  O  O75  1  0.32277854  0.82282031  0.18288119  1
  O  O76  1  0.32142205  0.46546965  0.18164188  1
  O  O77  1  0.42799959  0.92772659  0.56724113  1
  O  O78  1  0.42017764  0.28333046  0.56885010  1
  O  O79  1  0.53652265  0.39307602  0.93189727  1
  O  O80  1  0.28724272  0.14337152  0.18167664  1
  O  O81  1  0.21332255  0.35618490  0.31815755  1
  O  O82  1  0.32367744  0.82423504  0.68288510  1
  O  O83  1  0.32406293  0.46598466  0.68159161  1
  O  O84  1  0.17705414  0.67747770  0.31720565  1
  O  O85  1  0.17434604  0.03315949  0.31932898  1
  O  O86  1  0.28481552  0.14851854  0.68107998  1
  O  O87  1  0.21507435  0.35603591  0.81845814  1
  O  O88  1  0.07136538  0.57340010  0.43297228  1
  O  O89  1  0.06829375  0.21210141  0.43054778  1
  O  O90  1  0.17784354  0.67766681  0.81719792  1
  O  O91  1  0.17096823  0.03340963  0.81882688  1
  O  O92  1  0.04018793  0.89252385  0.43185428  1
  O  O93  1  0.07320455  0.57422021  0.93277983  1
  O  O94  1  0.07349795  0.21578482  0.93148586  1
  O  O95  1  0.03505845  0.89850511  0.93076970  1
