# generated using pymatgen
data_Li32Ti13Cr3O48
_symmetry_space_group_name_H-M   'P 1'
_cell_length_a   5.09105742
_cell_length_b   8.81240876
_cell_length_c   19.60622411
_cell_angle_alpha   98.30384535
_cell_angle_beta   94.92536147
_cell_angle_gamma   89.79577522
_symmetry_Int_Tables_number   1
_chemical_formula_structural   Li32Ti13Cr3O48
_chemical_formula_sum   'Li32 Ti13 Cr3 O48'
_cell_volume   867.15226941
_cell_formula_units_Z   1
loop_
 _symmetry_equiv_pos_site_id
 _symmetry_equiv_pos_as_xyz
  1  'x, y, z'
loop_
 _atom_site_type_symbol
 _atom_site_label
 _atom_site_symmetry_multiplicity
 _atom_site_fract_x
 _atom_site_fract_y
 _atom_site_fract_z
 _atom_site_occupancy
  Li  Li0  1  0.99301411  0.16755389  0.25035179  1
  Li  Li1  1  0.87521051  0.37511487  0.37500756  1
  Li  Li2  1  0.74960797  0.24995008  -0.00002605  1
  Li  Li3  1  0.74283068  0.91883496  0.99979259  1
  Li  Li4  1  0.99229668  0.16925755  0.74944340  1
  Li  Li5  1  0.75617337  0.58016435  0.49941869  1
  Li  Li6  1  0.87500089  0.37514515  0.87491116  1
  Li  Li7  1  0.75309994  0.24825413  0.49971782  1
  Li  Li8  1  0.74141438  0.92111959  0.49934510  1
  Li  Li9  1  0.62497966  0.12500697  0.12504138  1
  Li  Li10  1  0.75629037  0.58059480  0.99946765  1
  Li  Li11  1  0.50770892  0.33237524  0.24992049  1
  Li  Li12  1  0.62572584  0.12575813  0.62473983  1
  Li  Li13  1  0.50125988  0.99902934  0.25009656  1
  Li  Li14  1  0.48956168  0.66770438  0.24951199  1
  Li  Li15  1  0.50456035  0.33037956  0.74953493  1
  Li  Li16  1  0.37512938  0.87644954  0.37500253  1
  Li  Li17  1  0.49952014  0.00008922  0.74993594  1
  Li  Li18  1  0.24844459  0.75076660  0.00012028  1
  Li  Li19  1  0.49199410  0.66918274  0.74973196  1
  Li  Li20  1  0.24377412  0.41948591  0.00058463  1
  Li  Li21  1  0.37497471  0.87420595  0.87505930  1
  Li  Li22  1  0.25497633  0.08002751  0.50022920  1
  Li  Li23  1  0.25196540  0.74930064  0.50016617  1
  Li  Li24  1  0.12487061  0.62510855  0.12511569  1
  Li  Li25  1  0.24282253  0.42088085  0.50109133  1
  Li  Li26  1  0.00921387  0.83337283  0.25109243  1
  Li  Li27  1  0.25862506  0.08051616  0.00015730  1
  Li  Li28  1  0.12548553  0.62325274  0.62514418  1
  Li  Li29  1  0.00021994  0.50008258  0.25023376  1
  Li  Li30  1  0.00916865  0.83104946  0.75046689  1
  Li  Li31  1  0.00231427  0.49958396  0.74970379  1
  Ti  Ti32  1  0.87282524  0.71107207  0.37483404  1
  Ti  Ti33  1  0.87707466  0.03967100  0.87529521  1
  Ti  Ti34  1  0.62675158  0.79139043  0.12512558  1
  Ti  Ti35  1  0.62413356  0.45866949  0.12507826  1
  Ti  Ti36  1  0.62401602  0.79177830  0.62504180  1
  Ti  Ti37  1  0.62516781  0.45871505  0.62622919  1
  Ti  Ti38  1  0.37560477  0.54026595  0.37512544  1
  Ti  Ti39  1  0.37504352  0.20380970  0.37494480  1
  Ti  Ti40  1  0.37584435  0.54572249  0.87495996  1
  Ti  Ti41  1  0.37411917  0.20958836  0.87473043  1
  Ti  Ti42  1  0.12399261  0.95860618  0.12530807  1
  Ti  Ti43  1  0.12648498  0.29115134  0.12528158  1
  Ti  Ti44  1  0.11926490  0.95944217  0.62341332  1
  Cr  Cr45  1  0.87663672  0.04380002  0.37534599  1
  Cr  Cr46  1  0.87316094  0.70663643  0.87464430  1
  Cr  Cr47  1  0.12996153  0.29025179  0.62463598  1
  O  O48  1  0.96253522  0.10641612  0.06833170  1
  O  O49  1  0.92898965  0.78427040  0.06858619  1
  O  O50  1  0.92763034  0.42772381  0.06724994  1
  O  O51  1  0.95974972  0.10566657  0.56821483  1
  O  O52  1  0.82146360  0.96574725  0.18170645  1
  O  O53  1  0.82263556  0.32234456  0.18287111  1
  O  O54  1  0.92904451  0.78519654  0.56818904  1
  O  O55  1  0.93005686  0.42524072  0.56805403  1
  O  O56  1  0.78720589  0.64351204  0.18177931  1
  O  O57  1  0.71312788  0.86072527  0.31940536  1
  O  O58  1  0.82149486  0.96579236  0.68178776  1
  O  O59  1  0.82665864  0.32020203  0.68163732  1
  O  O60  1  0.67874052  0.53539947  0.31831778  1
  O  O61  1  0.68339327  0.17434818  0.31797758  1
  O  O62  1  0.78694870  0.64292408  0.68169867  1
  O  O63  1  0.71346256  0.85299561  0.81917071  1
  O  O64  1  0.46148499  0.60643311  0.06818866  1
  O  O65  1  0.57157262  0.71568654  0.43167090  1
  O  O66  1  0.56932130  0.07222790  0.43325375  1
  O  O67  1  0.68357997  0.53739854  0.81879669  1
  O  O68  1  0.67723333  0.17634256  0.81683563  1
  O  O69  1  0.42718496  0.92764256  0.06723002  1
  O  O70  1  0.42853347  0.28428379  0.06843545  1
  O  O71  1  0.53617670  0.39264820  0.43202901  1
  O  O72  1  0.46416977  0.60570098  0.56802623  1
  O  O73  1  0.56973750  0.71572044  0.93177670  1
  O  O74  1  0.57290701  0.07261134  0.93281314  1
  O  O75  1  0.32321057  0.82243569  0.18294314  1
  O  O76  1  0.32171390  0.46576404  0.18176209  1
  O  O77  1  0.42719039  0.92777655  0.56709096  1
  O  O78  1  0.41883446  0.28314605  0.56878564  1
  O  O79  1  0.53601861  0.39406050  0.93180811  1
  O  O80  1  0.28845489  0.14352268  0.18190082  1
  O  O81  1  0.21393855  0.35581278  0.31849983  1
  O  O82  1  0.32401481  0.82376937  0.68282478  1
  O  O83  1  0.32524801  0.46650293  0.68179350  1
  O  O84  1  0.17699750  0.67760321  0.31726562  1
  O  O85  1  0.18164100  0.03404825  0.31816279  1
  O  O86  1  0.28648642  0.14817725  0.68091519  1
  O  O87  1  0.21359561  0.35697875  0.81817729  1
  O  O88  1  0.07202736  0.57357775  0.43298569  1
  O  O89  1  0.06405553  0.21168761  0.43074387  1
  O  O90  1  0.17959503  0.67786117  0.81689656  1
  O  O91  1  0.17808591  0.03455961  0.81797303  1
  O  O92  1  0.03643884  0.89705779  0.43076597  1
  O  O93  1  0.06709086  0.57557284  0.93192810  1
  O  O94  1  0.07077500  0.21445910  0.93174366  1
  O  O95  1  0.03722555  0.89025915  0.93089325  1
