# generated using pymatgen
data_Li32Ti13Cr3O48
_symmetry_space_group_name_H-M   'P 1'
_cell_length_a   5.08123461
_cell_length_b   8.82920098
_cell_length_c   19.60196177
_cell_angle_alpha   98.37144377
_cell_angle_beta   94.66808728
_cell_angle_gamma   89.96630210
_symmetry_Int_Tables_number   1
_chemical_formula_structural   Li32Ti13Cr3O48
_chemical_formula_sum   'Li32 Ti13 Cr3 O48'
_cell_volume   867.09490427
_cell_formula_units_Z   1
loop_
 _symmetry_equiv_pos_site_id
 _symmetry_equiv_pos_as_xyz
  1  'x, y, z'
loop_
 _atom_site_type_symbol
 _atom_site_label
 _atom_site_symmetry_multiplicity
 _atom_site_fract_x
 _atom_site_fract_y
 _atom_site_fract_z
 _atom_site_occupancy
  Li  Li0  1  0.99091568  0.16864484  0.24984839  1
  Li  Li1  1  0.87540011  0.37699958  0.37513436  1
  Li  Li2  1  0.75138814  0.25013520  0.00012996  1
  Li  Li3  1  0.74290100  0.92106943  0.00039638  1
  Li  Li4  1  0.98886776  0.16881493  0.74925414  1
  Li  Li5  1  0.75952719  0.58088430  0.49904278  1
  Li  Li6  1  0.87401565  0.37577074  0.87514767  1
  Li  Li7  1  0.75459592  0.24895448  0.50004490  1
  Li  Li8  1  0.74114255  0.91894470  0.49968939  1
  Li  Li9  1  0.62492701  0.12499383  0.12500504  1
  Li  Li10  1  0.75422119  0.57847063  0.99920816  1
  Li  Li11  1  0.50906989  0.33061683  0.24994574  1
  Li  Li12  1  0.62646187  0.12539761  0.62485691  1
  Li  Li13  1  0.49873791  0.99992496  0.24977980  1
  Li  Li14  1  0.49543506  0.66981587  0.25024962  1
  Li  Li15  1  0.50637920  0.33248935  0.75061855  1
  Li  Li16  1  0.37623583  0.87452032  0.37484726  1
  Li  Li17  1  0.50102311  0.99947947  0.75067372  1
  Li  Li18  1  0.25102028  0.74918596  0.99946041  1
  Li  Li19  1  0.48885396  0.66871059  0.75074461  1
  Li  Li20  1  0.24354493  0.42080969  0.99974391  1
  Li  Li21  1  0.37451062  0.87340274  0.87484909  1
  Li  Li22  1  0.25853436  0.08140791  0.50050068  1
  Li  Li23  1  0.24573366  0.75005139  0.49987922  1
  Li  Li24  1  0.12494137  0.62499914  0.12499819  1
  Li  Li25  1  0.24072050  0.41967359  0.50066505  1
  Li  Li26  1  0.00736843  0.83052349  0.25057519  1
  Li  Li27  1  0.25733910  0.07974509  0.99973365  1
  Li  Li28  1  0.12589405  0.62355766  0.62515132  1
  Li  Li29  1  0.99734368  0.50084898  0.25040690  1
  Li  Li30  1  0.00996328  0.83169210  0.74984009  1
  Li  Li31  1  0.00594177  0.49887574  0.74962229  1
  Ti  Ti32  1  0.87296698  0.03924146  0.37366734  1
  Ti  Ti33  1  0.87278757  0.70718435  0.87341946  1
  Ti  Ti34  1  0.87966103  0.04103146  0.87449693  1
  Ti  Ti35  1  0.62635194  0.79089748  0.12496862  1
  Ti  Ti36  1  0.62398795  0.45885206  0.12500807  1
  Ti  Ti37  1  0.62205509  0.79109314  0.62516336  1
  Ti  Ti38  1  0.62680305  0.45916638  0.62667729  1
  Ti  Ti39  1  0.37614114  0.54145772  0.37599820  1
  Ti  Ti40  1  0.37261609  0.20858151  0.37545028  1
  Ti  Ti41  1  0.37919456  0.21127540  0.87681814  1
  Ti  Ti42  1  0.12402024  0.95846603  0.12498969  1
  Ti  Ti43  1  0.12644942  0.29137984  0.12507009  1
  Ti  Ti44  1  0.11827997  0.95965090  0.62330487  1
  Cr  Cr45  1  0.87748391  0.70982293  0.37509306  1
  Cr  Cr46  1  0.37187582  0.54070793  0.87511822  1
  Cr  Cr47  1  0.13105741  0.29027298  0.62483421  1
  O  O48  1  0.96232750  0.10642303  0.06836092  1
  O  O49  1  0.92862319  0.78444636  0.06808907  1
  O  O50  1  0.92807937  0.42743274  0.06721799  1
  O  O51  1  0.95994215  0.10506409  0.56799558  1
  O  O52  1  0.82123196  0.96536830  0.18174884  1
  O  O53  1  0.82200244  0.32255578  0.18299199  1
  O  O54  1  0.92966949  0.78528311  0.56826878  1
  O  O55  1  0.93066365  0.42506268  0.56824469  1
  O  O56  1  0.78773154  0.64343698  0.18155531  1
  O  O57  1  0.70985004  0.85724390  0.31842893  1
  O  O58  1  0.82143075  0.96585780  0.68183971  1
  O  O59  1  0.82606811  0.32032760  0.68182021  1
  O  O60  1  0.68076593  0.53712685  0.31908456  1
  O  O61  1  0.67808168  0.17651428  0.31710685  1
  O  O62  1  0.78646398  0.64317189  0.68208272  1
  O  O63  1  0.71277879  0.85588487  0.81805856  1
  O  O64  1  0.46236159  0.60636431  0.06836259  1
  O  O65  1  0.57679882  0.71663492  0.43057390  1
  O  O66  1  0.57219308  0.07237724  0.43301338  1
  O  O67  1  0.67487751  0.53306866  0.81896413  1
  O  O68  1  0.67711911  0.17765833  0.81693521  1
  O  O69  1  0.42803926  0.92729554  0.06701318  1
  O  O70  1  0.42891838  0.28457051  0.06834238  1
  O  O71  1  0.53629830  0.39382379  0.43208084  1
  O  O72  1  0.46559610  0.60594047  0.56811298  1
  O  O73  1  0.56713140  0.71209511  0.93061674  1
  O  O74  1  0.57104961  0.07347192  0.93283006  1
  O  O75  1  0.32206574  0.82242607  0.18281258  1
  O  O76  1  0.32134449  0.46567262  0.18194804  1
  O  O77  1  0.42821479  0.92763258  0.56700880  1
  O  O78  1  0.41996775  0.28312594  0.56893927  1
  O  O79  1  0.54031140  0.39326390  0.93182030  1
  O  O80  1  0.28754373  0.14340177  0.18162129  1
  O  O81  1  0.21486255  0.35732594  0.31824097  1
  O  O82  1  0.32307549  0.82420404  0.68291284  1
  O  O83  1  0.32457810  0.46634032  0.68186335  1
  O  O84  1  0.16863974  0.67937104  0.31811809  1
  O  O85  1  0.17908336  0.03407522  0.31827790  1
  O  O86  1  0.28503867  0.14901531  0.68114606  1
  O  O87  1  0.21391309  0.36280788  0.81948457  1
  O  O88  1  0.07468373  0.57158862  0.43299701  1
  O  O89  1  0.07148934  0.21409149  0.43158285  1
  O  O90  1  0.17609594  0.67836553  0.81702012  1
  O  O91  1  0.17770077  0.03630159  0.81797609  1
  O  O92  1  0.03656604  0.88851056  0.43093657  1
  O  O93  1  0.07882075  0.57072856  0.93222549  1
  O  O94  1  0.07083397  0.21577766  0.93162003  1
  O  O95  1  0.03438953  0.89297859  0.93158550  1
