# generated using pymatgen
data_Li3Sb3P8O29
_symmetry_space_group_name_H-M   'P 1'
_cell_length_a   9.75666993
_cell_length_b   9.75662942
_cell_length_c   14.49297554
_cell_angle_alpha   89.34356506
_cell_angle_beta   89.34391297
_cell_angle_gamma   60.66179062
_symmetry_Int_Tables_number   1
_chemical_formula_structural   Li3Sb3P8O29
_chemical_formula_sum   'Li6 Sb6 P16 O58'
_cell_volume   1202.56641197
_cell_formula_units_Z   2
loop_
 _symmetry_equiv_pos_site_id
 _symmetry_equiv_pos_as_xyz
  1  'x, y, z'
loop_
 _atom_site_type_symbol
 _atom_site_label
 _atom_site_symmetry_multiplicity
 _atom_site_fract_x
 _atom_site_fract_y
 _atom_site_fract_z
 _atom_site_occupancy
  Li  Li0  1  0.99999193  0.00000222  0.50000182  1
  Li  Li1  1  0.99999055  0.00001273  0.00000101  1
  Li  Li2  1  0.10241863  0.66609126  0.04944547  1
  Li  Li3  1  0.66607603  0.10243197  0.54943946  1
  Li  Li4  1  0.33390943  0.89759154  0.45055637  1
  Li  Li5  1  0.89758663  0.33391938  0.95055736  1
  Sb  Sb6  1  0.00249096  0.43569855  0.74164977  1
  Sb  Sb7  1  0.99751574  0.56430527  0.25835218  1
  Sb  Sb8  1  0.43569857  0.00248837  0.24165288  1
  Sb  Sb9  1  0.56430479  0.99751243  0.75835313  1
  Sb  Sb10  1  0.44102510  0.55897031  0.74998926  1
  Sb  Sb11  1  0.55898103  0.44102467  0.25000141  1
  P  P12  1  0.08188375  0.21177382  0.34014978  1
  P  P13  1  0.21178054  0.08187312  0.84014731  1
  P  P14  1  0.08669709  0.68927478  0.84241796  1
  P  P15  1  0.32766215  0.34125074  0.13216979  1
  P  P16  1  0.34124497  0.32765035  0.63215835  1
  P  P17  1  0.21953215  0.70027023  0.34424345  1
  P  P18  1  0.29973142  0.78047083  0.15576014  1
  P  P19  1  0.68927231  0.08669626  0.34242499  1
  P  P20  1  0.31073306  0.91330958  0.65757735  1
  P  P21  1  0.70027342  0.21952907  0.84423659  1
  P  P22  1  0.78047536  0.29972478  0.65575464  1
  P  P23  1  0.67234727  0.65874244  0.86783314  1
  P  P24  1  0.65875421  0.67233633  0.36783757  1
  P  P25  1  0.91331890  0.31072791  0.15757740  1
  P  P26  1  0.78822251  0.91813007  0.15985524  1
  P  P27  1  0.91811345  0.78822963  0.65985493  1
  O  O28  1  0.01024494  0.19974075  0.24243226  1
  O  O29  1  0.98408148  0.23197880  0.06879347  1
  O  O30  1  0.07850919  0.25907006  0.83444605  1
  O  O31  1  0.19974775  0.01021548  0.74243711  1
  O  O32  1  0.23197959  0.98407678  0.56879488  1
  O  O33  1  0.25908079  0.07850086  0.33445247  1
  O  O34  1  0.07889716  0.37463483  0.34041069  1
  O  O35  1  0.19856967  0.31045516  0.67100263  1
  O  O36  1  0.08945276  0.52895264  0.82982996  1
  O  O37  1  0.99511628  0.82109465  0.58159837  1
  O  O38  1  0.98974759  0.80026994  0.75757154  1
  O  O39  1  0.08200132  0.66231052  0.34426070  1
  O  O40  1  0.31045366  0.19858111  0.17101418  1
  O  O41  1  0.37464366  0.07887545  0.84041559  1
  O  O42  1  0.18799547  0.49441255  0.17868411  1
  O  O43  1  0.31903186  0.35998407  0.03091492  1
  O  O44  1  0.35998141  0.31898863  0.53090127  1
  O  O45  1  0.32118451  0.48100689  0.67918357  1
  O  O46  1  0.52895915  0.08943370  0.32983816  1
  O  O47  1  0.49439862  0.18799800  0.67868528  1
  O  O48  1  0.25802920  0.65928117  0.83421682  1
  O  O49  1  0.20412475  0.79587600  0.25000066  1
  O  O50  1  0.19815368  0.79406471  0.07677481  1
  O  O51  1  0.20594091  0.80184948  0.42322609  1
  O  O52  1  0.37813961  0.54209281  0.33861660  1
  O  O53  1  0.48100931  0.32118220  0.17921103  1
  O  O54  1  0.34074700  0.74196860  0.66576233  1
  O  O55  1  0.54209635  0.37813523  0.83860502  1
  O  O56  1  0.66231487  0.08199857  0.84425784  1
  O  O57  1  0.17891516  0.00487318  0.91840404  1
  O  O58  1  0.82109436  0.99512105  0.08159822  1
  O  O59  1  0.80025576  0.98978610  0.25756501  1
  O  O60  1  0.33768423  0.91800577  0.15574708  1
  O  O61  1  0.45790763  0.62186128  0.16138470  1
  O  O62  1  0.65926309  0.25803602  0.33423536  1
  O  O63  1  0.51900483  0.67880579  0.82079327  1
  O  O64  1  0.62186519  0.45790002  0.66137805  1
  O  O65  1  0.79406547  0.19814451  0.57677047  1
  O  O66  1  0.80184697  0.20594690  0.92322337  1
  O  O67  1  0.79588653  0.20411245  0.74999685  1
  O  O68  1  0.74198072  0.34073666  0.16577164  1
  O  O69  1  0.50559309  0.81201036  0.32132643  1
  O  O70  1  0.47104778  0.91056754  0.67016673  1
  O  O71  1  0.67881986  0.51899371  0.32079312  1
  O  O72  1  0.68100382  0.63998682  0.96909190  1
  O  O73  1  0.64002211  0.68095868  0.46909365  1
  O  O74  1  0.81202023  0.50558784  0.82131970  1
  O  O75  1  0.62535474  0.92113333  0.15958477  1
  O  O76  1  0.68953996  0.80142771  0.82900216  1
  O  O77  1  0.91800016  0.33768951  0.65574140  1
  O  O78  1  0.00488399  0.17891556  0.41840336  1
  O  O79  1  0.91057652  0.47104401  0.17016493  1
  O  O80  1  0.80142624  0.68954083  0.32899540  1
  O  O81  1  0.92110965  0.62536695  0.65959018  1
  O  O82  1  0.74091907  0.92150103  0.66555166  1
  O  O83  1  0.76802905  0.01593283  0.43120677  1
  O  O84  1  0.92149229  0.74093168  0.16555562  1
  O  O85  1  0.01594203  0.76801259  0.93120600  1
