# generated using pymatgen
data_LiNi2(PO4)2
_symmetry_space_group_name_H-M   'P 1'
_cell_length_a   8.43747339
_cell_length_b   5.05317372
_cell_length_c   16.60288288
_cell_angle_alpha   90.00000000
_cell_angle_beta   80.66141062
_cell_angle_gamma   90.00000000
_symmetry_Int_Tables_number   1
_chemical_formula_structural   LiNi2(PO4)2
_chemical_formula_sum   'Li4 Ni8 P8 O32'
_cell_volume   698.49903445
_cell_formula_units_Z   4
loop_
 _symmetry_equiv_pos_site_id
 _symmetry_equiv_pos_as_xyz
  1  'x, y, z'
loop_
 _atom_site_type_symbol
 _atom_site_label
 _atom_site_symmetry_multiplicity
 _atom_site_fract_x
 _atom_site_fract_y
 _atom_site_fract_z
 _atom_site_occupancy
  Li  Li0  1  0.00842322  0.32962921  0.25186189  1
  Li  Li1  1  0.00842322  0.67037079  0.75186189  1
  Li  Li2  1  0.61145189  0.83294102  0.49436917  1
  Li  Li3  1  0.61145189  0.16705898  0.99436917  1
  Ni  Ni4  1  0.36445184  0.33129091  0.12458190  1
  Ni  Ni5  1  0.36445184  0.66870909  0.62458190  1
  Ni  Ni6  1  0.47106582  0.19090000  0.36414057  1
  Ni  Ni7  1  0.47106582  0.80910000  0.86414057  1
  Ni  Ni8  1  0.87534149  0.69220454  0.11840247  1
  Ni  Ni9  1  0.87534149  0.30779546  0.61840247  1
  Ni  Ni10  1  0.97329553  0.82356103  0.37337019  1
  Ni  Ni11  1  0.97329553  0.17643897  0.87337019  1
  P  P12  1  0.18060742  0.81983966  0.18819852  1
  P  P13  1  0.18060742  0.18016034  0.68819852  1
  P  P14  1  0.29336748  0.69380902  0.43302582  1
  P  P15  1  0.29336748  0.30619098  0.93302582  1
  P  P16  1  0.68589167  0.19316320  0.18228862  1
  P  P17  1  0.68589167  0.80683680  0.68228862  1
  P  P18  1  0.78946736  0.31795208  0.43265300  1
  P  P19  1  0.78946736  0.68204792  0.93265300  1
  O  O20  1  0.09162046  0.74986308  0.11411434  1
  O  O21  1  0.07228452  0.70583474  0.26522649  1
  O  O22  1  0.11665182  0.77522687  0.45144517  1
  O  O23  1  0.19344979  0.12448622  0.19702159  1
  O  O24  1  0.09162046  0.25013692  0.61411434  1
  O  O25  1  0.07228452  0.29416526  0.76522649  1
  O  O26  1  0.38101925  0.27115781  0.00685807  1
  O  O27  1  0.29764699  0.39802865  0.40325027  1
  O  O28  1  0.11665182  0.22477313  0.95144517  1
  O  O29  1  0.34636459  0.68994613  0.16847490  1
  O  O30  1  0.19344979  0.87551378  0.69702159  1
  O  O31  1  0.39058023  0.85265544  0.36000303  1
  O  O32  1  0.38101925  0.72884219  0.50685807  1
  O  O33  1  0.29764699  0.60197135  0.90325027  1
  O  O34  1  0.34636459  0.31005387  0.66847490  1
  O  O35  1  0.59746777  0.24496478  0.10956061  1
  O  O36  1  0.57811783  0.27968868  0.26180989  1
  O  O37  1  0.39058023  0.14734456  0.86000303  1
  O  O38  1  0.62001107  0.18333787  0.43740072  1
  O  O39  1  0.73236044  0.89687854  0.18917328  1
  O  O40  1  0.59746777  0.75503522  0.60956061  1
  O  O41  1  0.57811783  0.72031132  0.76180989  1
  O  O42  1  0.84602771  0.76389865  0.01276593  1
  O  O43  1  0.77468990  0.62048293  0.42357404  1
  O  O44  1  0.62001107  0.81666213  0.93740072  1
  O  O45  1  0.84657731  0.35605896  0.16999084  1
  O  O46  1  0.73236044  0.10312146  0.68917328  1
  O  O47  1  0.90761661  0.19699297  0.36012764  1
  O  O48  1  0.84602771  0.23610135  0.51276593  1
  O  O49  1  0.77468990  0.37951707  0.92357404  1
  O  O50  1  0.84657731  0.64394104  0.66999084  1
  O  O51  1  0.90761661  0.80300703  0.86012764  1
