# generated using pymatgen
data_Li2MnV(P2O7)2
_symmetry_space_group_name_H-M   'P 1'
_cell_length_a   4.84970672
_cell_length_b   16.60966949
_cell_length_c   7.04796529
_cell_angle_alpha   90.02954278
_cell_angle_beta   108.77967873
_cell_angle_gamma   90.08378990
_symmetry_Int_Tables_number   1
_chemical_formula_structural   Li2MnV(P2O7)2
_chemical_formula_sum   'Li4 Mn2 V2 P8 O28'
_cell_volume   537.50316920
_cell_formula_units_Z   2
loop_
 _symmetry_equiv_pos_site_id
 _symmetry_equiv_pos_as_xyz
  1  'x, y, z'
loop_
 _atom_site_type_symbol
 _atom_site_label
 _atom_site_symmetry_multiplicity
 _atom_site_fract_x
 _atom_site_fract_y
 _atom_site_fract_z
 _atom_site_occupancy
  Li  Li0  1  0.17326615  0.93038681  0.67526004  1
  Li  Li1  1  0.17723897  0.43075415  0.67469774  1
  Li  Li2  1  0.82370946  0.18052607  0.32385318  1
  Li  Li3  1  0.82524740  0.68080079  0.32583519  1
  Mn  Mn4  1  0.21347707  0.74921484  0.73119526  1
  Mn  Mn5  1  0.78534801  0.99983239  0.27159777  1
  V  V6  1  0.21625797  0.25003368  0.72672466  1
  V  V7  1  0.78632967  0.49965477  0.27089181  1
  P  P8  1  0.40106214  0.08896563  0.52160427  1
  P  P9  1  0.39877282  0.59008920  0.51796566  1
  P  P10  1  0.21276496  0.39207837  0.08535335  1
  P  P11  1  0.21224144  0.89351898  0.09007418  1
  P  P12  1  0.78893072  0.14308882  0.91354502  1
  P  P13  1  0.78671855  0.64272795  0.91135528  1
  P  P14  1  0.59930932  0.83870655  0.48353585  1
  P  P15  1  0.59999779  0.34015590  0.47647240  1
  O  O16  1  0.05061442  0.16261060  0.84638678  1
  O  O17  1  0.05776449  0.66309825  0.85425802  1
  O  O18  1  0.13215003  0.34806719  0.88436476  1
  O  O19  1  0.12610004  0.85133745  0.88892031  1
  O  O20  1  0.18610119  0.01816592  0.48199201  1
  O  O21  1  0.18937185  0.51796834  0.48219258  1
  O  O22  1  0.24457509  0.67057239  0.49588657  1
  O  O23  1  0.25018921  0.17108940  0.50477228  1
  O  O24  1  0.39619964  0.33885146  0.60405120  1
  O  O25  1  0.39216138  0.83599899  0.61011044  1
  O  O26  1  0.60193585  0.21791005  0.91390175  1
  O  O27  1  0.60236497  0.71729897  0.91568939  1
  O  O28  1  0.59598402  0.07676024  0.75315777  1
  O  O29  1  0.59565727  0.57773294  0.75054532  1
  O  O30  1  0.40448961  0.32651355  0.24618247  1
  O  O31  1  0.40205540  0.82784703  0.25006052  1
  O  O32  1  0.39734383  0.46656516  0.08277178  1
  O  O33  1  0.40106966  0.96825184  0.08900296  1
  O  O34  1  0.60769793  0.58755344  0.39425214  1
  O  O35  1  0.60365741  0.08748780  0.39244997  1
  O  O36  1  0.75334493  0.42167446  0.49340516  1
  O  O37  1  0.75051915  0.92017651  0.50610683  1
  O  O38  1  0.80976664  0.76704921  0.51833282  1
  O  O39  1  0.81309271  0.26910239  0.51608858  1
  O  O40  1  0.87391682  0.10154225  0.11526176  1
  O  O41  1  0.86903300  0.59794268  0.11166353  1
  O  O42  1  0.94894249  0.41182323  0.14802990  1
  O  O43  1  0.94323052  0.91405037  0.15020172  1
