# generated using pymatgen
data_V4O5F7
_symmetry_space_group_name_H-M   'P 1'
_cell_length_a   5.18751515
_cell_length_b   5.39628060
_cell_length_c   9.06078973
_cell_angle_alpha   73.56155665
_cell_angle_beta   90.21197679
_cell_angle_gamma   60.27944438
_symmetry_Int_Tables_number   1
_chemical_formula_structural   V4O5F7
_chemical_formula_sum   'V4 O5 F7'
_cell_volume   208.09092420
_cell_formula_units_Z   1
loop_
 _symmetry_equiv_pos_site_id
 _symmetry_equiv_pos_as_xyz
  1  'x, y, z'
loop_
 _atom_site_type_symbol
 _atom_site_label
 _atom_site_symmetry_multiplicity
 _atom_site_fract_x
 _atom_site_fract_y
 _atom_site_fract_z
 _atom_site_occupancy
  V  V0  1  0.73296128  0.51749625  0.26380666  1
  V  V1  1  0.47031812  0.00206039  0.49733723  1
  V  V2  1  0.29280492  0.49743183  0.75902016  1
  V  V3  1  0.03443157  0.99044459  0.00443787  1
  O  O4  1  0.55264433  0.73338253  0.37481216  1
  O  O5  1  0.40378300  0.75603319  0.07999869  1
  O  O6  1  0.41384101  0.73171367  0.67079369  1
  O  O7  1  0.57451383  0.25330347  0.91120676  1
  O  O8  1  0.10092273  0.23402510  0.41680029  1
  F  F9  1  0.90677889  0.75474818  0.58487583  1
  F  F10  1  0.91453669  0.75914235  0.16882682  1
  F  F11  1  0.95432662  0.26747108  0.12037402  1
  F  F12  1  0.58696156  0.23967149  0.32955621  1
  F  F13  1  0.45771246  0.25654373  0.62451060  1
  F  F14  1  0.02640233  0.74927440  0.87151716  1
  F  F15  1  0.07706067  0.25725776  0.82212484  1
