# generated using pymatgen
data_LiFeF4
_symmetry_space_group_name_H-M   'P 1'
_cell_length_a   7.47995152
_cell_length_b   7.37307651
_cell_length_c   5.08075838
_cell_angle_alpha   90.00000000
_cell_angle_beta   90.00000000
_cell_angle_gamma   101.51716596
_symmetry_Int_Tables_number   1
_chemical_formula_structural   LiFeF4
_chemical_formula_sum   'Li4 Fe4 F16'
_cell_volume   274.56316980
_cell_formula_units_Z   4
loop_
 _symmetry_equiv_pos_site_id
 _symmetry_equiv_pos_as_xyz
  1  'x, y, z'
loop_
 _atom_site_type_symbol
 _atom_site_label
 _atom_site_symmetry_multiplicity
 _atom_site_fract_x
 _atom_site_fract_y
 _atom_site_fract_z
 _atom_site_occupancy
  Li  Li0  1  0.14499009  0.84135606  0.24124878  1
  Li  Li1  1  0.14499009  0.34135606  0.25875122  1
  Li  Li2  1  0.85500991  0.65864394  0.74124878  1
  Li  Li3  1  0.85500991  0.15864394  0.75875122  1
  Fe  Fe4  1  0.31704036  0.68232750  0.74306260  1
  Fe  Fe5  1  0.31704036  0.18232750  0.75693740  1
  Fe  Fe6  1  0.68295964  0.81767250  0.24306260  1
  Fe  Fe7  1  0.68295964  0.31767250  0.25693740  1
  F  F8  1  0.09216026  0.69642460  0.91455821  1
  F  F9  1  0.09216026  0.19642460  0.58544179  1
  F  F10  1  0.19773973  0.58814633  0.42862565  1
  F  F11  1  0.19773973  0.08814633  0.07137435  1
  F  F12  1  0.31537061  0.43744339  0.90404561  1
  F  F13  1  0.44111701  0.80127048  0.06927189  1
  F  F14  1  0.31537061  0.93744339  0.59595439  1
  F  F15  1  0.44111701  0.30127048  0.43072811  1
  F  F16  1  0.55888299  0.69872952  0.56927189  1
  F  F17  1  0.68462939  0.06255661  0.40404561  1
  F  F18  1  0.55888299  0.19872952  0.93072811  1
  F  F19  1  0.68462939  0.56255661  0.09595439  1
  F  F20  1  0.80226027  0.91185367  0.92862565  1
  F  F21  1  0.80226027  0.41185367  0.57137435  1
  F  F22  1  0.90783974  0.80357540  0.41455821  1
  F  F23  1  0.90783974  0.30357540  0.08544179  1
