# generated using pymatgen
data_Hf2N2O
_symmetry_space_group_name_H-M   'P 1'
_cell_length_a   8.73981064
_cell_length_b   8.73152215
_cell_length_c   8.72074215
_cell_angle_alpha   109.41691596
_cell_angle_beta   109.41174089
_cell_angle_gamma   109.62097777
_symmetry_Int_Tables_number   1
_chemical_formula_structural   Hf2N2O
_chemical_formula_sum   'Hf16 N16 O8'
_cell_volume   512.06980685
_cell_formula_units_Z   8
loop_
 _symmetry_equiv_pos_site_id
 _symmetry_equiv_pos_as_xyz
  1  'x, y, z'
loop_
 _atom_site_type_symbol
 _atom_site_label
 _atom_site_symmetry_multiplicity
 _atom_site_fract_x
 _atom_site_fract_y
 _atom_site_fract_z
 _atom_site_occupancy
  Hf  Hf0  1  0.49981742  0.99880014  0.98740711  1
  Hf  Hf1  1  0.74945440  0.28425106  0.54320443  1
  Hf  Hf2  1  0.21528300  0.96581060  0.25161860  1
  Hf  Hf3  1  0.71957090  0.46844390  0.24321845  1
  Hf  Hf4  1  0.24609535  0.21118825  0.95158219  1
  Hf  Hf5  1  0.96534910  0.25039192  0.21700468  1
  Hf  Hf6  1  0.03528038  0.74951718  0.78213581  1
  Hf  Hf7  1  0.53091795  0.74548932  0.29008900  1
  Hf  Hf8  1  0.49304752  0.49789336  0.51023182  1
  Hf  Hf9  1  0.47158280  0.25830804  0.71902978  1
  Hf  Hf10  1  0.99908604  0.51013205  0.99829995  1
  Hf  Hf11  1  -0.00006876  0.99952267  0.49824717  1
  Hf  Hf12  1  0.75906369  0.78932350  0.04053094  1
  Hf  Hf13  1  0.28188428  0.53405985  0.74667038  1
  Hf  Hf14  1  0.78027328  0.02861510  0.75393865  1
  Hf  Hf15  1  0.24974592  0.70746496  0.46185146  1
  N  N16  1  0.72837590  0.99354224  0.95975227  1
  N  N17  1  0.51156935  0.23944063  0.97151432  1
  N  N18  1  0.72843353  0.25500804  0.77222161  1
  N  N19  1  0.76684411  0.72678758  0.26218031  1
  N  N20  1  0.01562844  0.04879951  0.27847453  1
  N  N21  1  0.46597938  0.22761770  0.45264836  1
  N  N22  1  0.27439443  0.74024005  0.22637983  1
  N  N23  1  0.22904010  0.45571207  0.46743883  1
  N  N24  1  0.96366127  0.50666428  0.23677217  1
  N  N25  1  0.53894231  0.77105301  0.54239281  1
  N  N26  1  0.95573520  0.72937199  0.98652939  1
  N  N27  1  0.98717662  0.95462474  0.72823088  1
  N  N28  1  0.22570574  0.27105724  0.73795928  1
  N  N29  1  0.54721848  0.53640159  0.77555915  1
  N  N30  1  0.03020428  0.48729617  0.75649281  1
  N  N31  1  0.26616796  0.78092049  0.72974567  1
  O  O32  1  0.27318920  0.00834251  0.04514243  1
  O  O33  1  0.73899870  0.22395044  0.27757969  1
  O  O34  1  0.76055500  0.03535776  0.48082313  1
  O  O35  1  0.48827788  0.76627826  0.03720628  1
  O  O36  1  0.77186396  0.54134800  0.52642585  1
  O  O37  1  0.23370914  0.96283948  0.50861449  1
  O  O38  1  0.05497193  0.27512025  0.02042126  1
  O  O39  1  0.44697681  0.46301506  0.22443324  1
