# generated using pymatgen
data_Sr2SmNbO6
_symmetry_space_group_name_H-M   'P 1'
_cell_length_a   5.89447559
_cell_length_b   6.03564965
_cell_length_c   8.41159313
_cell_angle_alpha   90.00000000
_cell_angle_beta   90.26791363
_cell_angle_gamma   90.00000000
_symmetry_Int_Tables_number   1
_chemical_formula_structural   Sr2SmNbO6
_chemical_formula_sum   'Sr4 Sm2 Nb2 O12'
_cell_volume   299.25588914
_cell_formula_units_Z   2
loop_
 _symmetry_equiv_pos_site_id
 _symmetry_equiv_pos_as_xyz
  1  'x, y, z'
loop_
 _atom_site_type_symbol
 _atom_site_label
 _atom_site_symmetry_multiplicity
 _atom_site_fract_x
 _atom_site_fract_y
 _atom_site_fract_z
 _atom_site_occupancy
  O  O0  1  0.68673402  0.22414995  0.05264349  1
  O  O1  1  0.81326598  0.72414995  0.44735651  1
  O  O2  1  0.31326598  0.77585005  0.94735651  1
  O  O3  1  0.18673402  0.27585005  0.55264349  1
  O  O4  1  0.90817092  0.96699145  0.73161418  1
  O  O5  1  0.59182908  0.46699145  0.76838582  1
  O  O6  1  0.09182908  0.03300855  0.26838582  1
  O  O7  1  0.40817092  0.53300855  0.23161418  1
  O  O8  1  0.22357485  0.30985814  0.95437935  1
  O  O9  1  0.27642515  0.80985814  0.54562065  1
  O  O10  1  0.77642515  0.69014186  0.04562065  1
  O  O11  1  0.72357485  0.19014186  0.45437935  1
  Sr  Sr12  1  0.51101784  0.95640857  0.25134311  1
  Sr  Sr13  1  0.98898216  0.45640857  0.24865689  1
  Sr  Sr14  1  0.48898216  0.04359143  0.74865689  1
  Sr  Sr15  1  0.01101784  0.54359143  0.75134311  1
  Nb  Nb16  1  0.50000000  0.50000000  0.00000000  1
  Nb  Nb17  1  0.00000000  0.00000000  0.50000000  1
  Sm  Sm18  1  0.50000000  0.50000000  0.50000000  1
  Sm  Sm19  1  0.00000000  0.00000000  0.00000000  1
