# generated using pymatgen
data_CeReO4
_symmetry_space_group_name_H-M   'P 1'
_cell_length_a   7.68183940
_cell_length_b   5.40183400
_cell_length_c   7.59291484
_cell_angle_alpha   90.00000000
_cell_angle_beta   99.86505789
_cell_angle_gamma   90.00000000
_symmetry_Int_Tables_number   1
_chemical_formula_structural   CeReO4
_chemical_formula_sum   'Ce4 Re4 O16'
_cell_volume   310.41704394
_cell_formula_units_Z   4
loop_
 _symmetry_equiv_pos_site_id
 _symmetry_equiv_pos_as_xyz
  1  'x, y, z'
loop_
 _atom_site_type_symbol
 _atom_site_label
 _atom_site_symmetry_multiplicity
 _atom_site_fract_x
 _atom_site_fract_y
 _atom_site_fract_z
 _atom_site_occupancy
  Ce  Ce0  1  0.34210767  0.72022191  0.60278799  1
  Ce  Ce1  1  0.34210767  0.77977809  0.10278799  1
  Ce  Ce2  1  0.65789233  0.22022191  0.89721201  1
  Ce  Ce3  1  0.65789233  0.27977809  0.39721201  1
  Re  Re4  1  0.16461861  0.22036665  0.80136855  1
  Re  Re5  1  0.16461861  0.27963335  0.30136855  1
  Re  Re6  1  0.83538139  0.72036665  0.69863145  1
  Re  Re7  1  0.83538139  0.77963335  0.19863145  1
  O  O8  1  0.05004328  0.91551707  0.70721698  1
  O  O9  1  0.05004328  0.58448293  0.20721698  1
  O  O10  1  0.17200049  0.34566267  0.55792099  1
  O  O11  1  0.17200049  0.15433733  0.05792099  1
  O  O12  1  0.32444189  0.50771949  0.87682287  1
  O  O13  1  0.39285456  0.01334529  0.82957724  1
  O  O14  1  0.32444189  0.99228051  0.37682287  1
  O  O15  1  0.39285456  0.48665471  0.32957724  1
  O  O16  1  0.60714544  0.51334529  0.67042276  1
  O  O17  1  0.67555811  0.00771949  0.62317713  1
  O  O18  1  0.60714544  0.98665471  0.17042276  1
  O  O19  1  0.67555811  0.49228051  0.12317713  1
  O  O20  1  0.82799951  0.84566267  0.94207901  1
  O  O21  1  0.82799951  0.65433733  0.44207901  1
  O  O22  1  0.94995672  0.41551707  0.79278302  1
  O  O23  1  0.94995672  0.08448293  0.29278302  1
