# generated using pymatgen
data_V2O3F
_symmetry_space_group_name_H-M   'P 1'
_cell_length_a   8.96415095
_cell_length_b   5.55627809
_cell_length_c   5.55627809
_cell_angle_alpha   72.08205636
_cell_angle_beta   87.76605721
_cell_angle_gamma   87.76605721
_symmetry_Int_Tables_number   1
_chemical_formula_structural   V2O3F
_chemical_formula_sum   'V8 O12 F4'
_cell_volume   263.01457847
_cell_formula_units_Z   4
loop_
 _symmetry_equiv_pos_site_id
 _symmetry_equiv_pos_as_xyz
  1  'x, y, z'
loop_
 _atom_site_type_symbol
 _atom_site_label
 _atom_site_symmetry_multiplicity
 _atom_site_fract_x
 _atom_site_fract_y
 _atom_site_fract_z
 _atom_site_occupancy
  V  V0  1  0.89596034  0.60822135  0.60822135  1
  V  V1  1  0.60403966  0.89177865  0.89177865  1
  V  V2  1  0.75000000  0.25000000  0.25000000  1
  V  V3  1  0.51263273  0.50847172  0.50847172  1
  V  V4  1  0.25000000  0.75000000  0.75000000  1
  V  V5  1  0.38564400  0.14715504  0.14715504  1
  V  V6  1  0.11435600  0.35284496  0.35284496  1
  V  V7  1  0.98736727  0.99152828  0.99152828  1
  O  O8  1  0.49122228  0.19942610  0.81190636  1
  O  O9  1  0.96996779  0.22111998  0.22111998  1
  O  O10  1  0.47879233  0.73071914  0.73071914  1
  O  O11  1  0.73544524  0.47778270  0.47778270  1
  O  O12  1  0.76455476  0.02221730  0.02221730  1
  O  O13  1  0.02120767  0.76928086  0.76928086  1
  O  O14  1  0.53003221  0.27888002  0.27888002  1
  O  O15  1  0.49122228  0.81190636  0.19942610  1
  O  O16  1  0.00877772  0.30057390  0.68809364  1
  O  O17  1  0.25000000  0.05662769  0.44337231  1
  O  O18  1  0.00877772  0.68809364  0.30057390  1
  O  O19  1  0.25000000  0.44337231  0.05662769  1
  F  F20  1  0.75000000  0.55950801  0.94049199  1
  F  F21  1  0.75000000  0.94049199  0.55950801  1
  F  F22  1  0.22213622  0.97927790  0.97927790  1
  F  F23  1  0.27786378  0.52072210  0.52072210  1
