# generated using pymatgen
data_V4(OF3)3
_symmetry_space_group_name_H-M   'P 1'
_cell_length_a   5.26727703
_cell_length_b   5.37148401
_cell_length_c   17.35462387
_cell_angle_alpha   92.33590881
_cell_angle_beta   98.70234711
_cell_angle_gamma   61.07598511
_symmetry_Int_Tables_number   1
_chemical_formula_structural   V4(OF3)3
_chemical_formula_sum   'V8 O6 F18'
_cell_volume   424.52164898
_cell_formula_units_Z   2
loop_
 _symmetry_equiv_pos_site_id
 _symmetry_equiv_pos_as_xyz
  1  'x, y, z'
loop_
 _atom_site_type_symbol
 _atom_site_label
 _atom_site_symmetry_multiplicity
 _atom_site_fract_x
 _atom_site_fract_y
 _atom_site_fract_z
 _atom_site_occupancy
  V  V0  1  0.74892080  0.63117883  0.12527116  1
  V  V1  1  0.75010779  0.11976359  0.62476707  1
  V  V2  1  0.49840599  0.23162181  0.24644035  1
  V  V3  1  0.49747411  0.71885986  0.74707281  1
  V  V4  1  0.26769790  0.84976450  0.36983760  1
  V  V5  1  0.26606536  0.39219372  0.87255434  1
  V  V6  1  0.00240620  0.03085801  0.00382675  1
  V  V7  1  0.00158538  0.51738315  0.50337916  1
  O  O8  1  0.95992942  0.30620350  0.06022457  1
  O  O9  1  0.96242177  0.79078456  0.56003733  1
  O  O10  1  0.54194859  0.95119832  0.19091889  1
  O  O11  1  0.44611806  0.57609347  0.31297906  1
  O  O12  1  0.53689249  0.44854226  0.68928017  1
  O  O13  1  0.40815546  0.57535733  0.83562395  1
  F  F14  1  0.93124613  0.83358183  0.08562320  1
  F  F15  1  0.92044010  0.06094626  0.29035471  1
  F  F16  1  0.93148463  0.32082743  0.58510948  1
  F  F17  1  0.91956305  0.53779314  0.79047672  1
  F  F18  1  0.41993438  0.79336627  0.03488609  1
  F  F19  1  0.56752580  0.42535330  0.16415216  1
  F  F20  1  0.57175243  0.91907650  0.66556313  1
  F  F21  1  0.57399307  0.69963341  0.46202901  1
  F  F22  1  0.42835452  0.09008703  0.33976482  1
  F  F23  1  0.42877868  0.28154851  0.53684897  1
  F  F24  1  0.57708124  0.20459703  0.96141773  1
  F  F25  1  0.06376182  0.67087789  0.41107708  1
  F  F26  1  0.07903820  0.46103188  0.21461956  1
  F  F27  1  0.07250077  0.96393876  0.71261123  1
  F  F28  1  0.46454304  0.05133013  0.81277146  1
  F  F29  1  0.03293680  0.69320340  0.94017604  1
  F  F30  1  0.04696870  0.18336311  0.43764443  1
  F  F31  1  0.08196831  0.16964423  0.91265999  1
