# generated using pymatgen
data_Li2FeP2O7
_symmetry_space_group_name_H-M   'P 1'
_cell_length_a   5.09850621
_cell_length_b   7.12039490
_cell_length_c   8.36088614
_cell_angle_alpha   90.00000000
_cell_angle_beta   90.00000000
_cell_angle_gamma   70.46787339
_symmetry_Int_Tables_number   1
_chemical_formula_structural   Li2FeP2O7
_chemical_formula_sum   'Li4 Fe2 P4 O14'
_cell_volume   286.06161326
_cell_formula_units_Z   2
loop_
 _symmetry_equiv_pos_site_id
 _symmetry_equiv_pos_as_xyz
  1  'x, y, z'
loop_
 _atom_site_type_symbol
 _atom_site_label
 _atom_site_symmetry_multiplicity
 _atom_site_fract_x
 _atom_site_fract_y
 _atom_site_fract_z
 _atom_site_occupancy
  Li  Li0  1  0.16823103  0.34934117  0.14693801  1
  Li  Li1  1  0.28935012  0.90404149  0.83048480  1
  Li  Li2  1  0.71065088  0.09595851  0.33048480  1
  Li  Li3  1  0.83176897  0.65065883  0.64693801  1
  Fe  Fe4  1  0.20530131  0.27699390  0.50437727  1
  Fe  Fe5  1  0.79469869  0.72300610  0.00437727  1
  P  P6  1  0.39316698  0.47933878  0.81451472  1
  P  P7  1  0.20553199  0.91692587  0.20768238  1
  P  P8  1  0.79446801  0.08307413  0.70768238  1
  P  P9  1  0.60683302  0.52066122  0.31451472  1
  O  O10  1  0.07072145  0.12055082  0.68036755  1
  O  O11  1  0.13907624  0.11336648  0.30163112  1
  O  O12  1  0.20751427  0.50671919  0.96206918  1
  O  O13  1  0.23147175  0.49861460  0.65725157  1
  O  O14  1  0.43307431  0.37961678  0.31305298  1
  O  O15  1  0.63023919  0.08075381  0.55494909  1
  O  O16  1  0.60484859  0.25112745  0.82923132  1
  O  O17  1  0.39515141  0.74887255  0.32923132  1
  O  O18  1  0.36976081  0.91924619  0.05494909  1
  O  O19  1  0.56692569  0.62038322  0.81305298  1
  O  O20  1  0.76852825  0.50138540  0.15725157  1
  O  O21  1  0.79248573  0.49328081  0.46206918  1
  O  O22  1  0.86092376  0.88663352  0.80163112  1
  O  O23  1  0.92927855  0.87944918  0.18036755  1
