# generated using pymatgen
data_Rb3HoO3
_symmetry_space_group_name_H-M   'P 1'
_cell_length_a   11.76358553
_cell_length_b   7.38657076
_cell_length_c   7.99294514
_cell_angle_alpha   90.00000000
_cell_angle_beta   94.08056019
_cell_angle_gamma   90.00000000
_symmetry_Int_Tables_number   1
_chemical_formula_structural   Rb3HoO3
_chemical_formula_sum   'Rb12 Ho4 O12'
_cell_volume   692.76680166
_cell_formula_units_Z   4
loop_
 _symmetry_equiv_pos_site_id
 _symmetry_equiv_pos_as_xyz
  1  'x, y, z'
loop_
 _atom_site_type_symbol
 _atom_site_label
 _atom_site_symmetry_multiplicity
 _atom_site_fract_x
 _atom_site_fract_y
 _atom_site_fract_z
 _atom_site_occupancy
  Rb  Rb0  1  0.07878840  0.33080793  0.64166270  1
  Rb  Rb1  1  0.15499404  0.62196381  0.06781860  1
  Rb  Rb2  1  0.19231374  0.80386780  0.62495564  1
  Rb  Rb3  1  0.30768626  0.30386780  0.37504436  1
  Rb  Rb4  1  0.34500596  0.12196381  0.93218140  1
  Rb  Rb5  1  0.42121160  0.83080793  0.35833730  1
  Rb  Rb6  1  0.57878840  0.16919207  0.64166270  1
  Rb  Rb7  1  0.65499404  0.87803619  0.06781860  1
  Rb  Rb8  1  0.69231374  0.69613220  0.62495564  1
  Rb  Rb9  1  0.80768626  0.19613220  0.37504436  1
  Rb  Rb10  1  0.84500596  0.37803619  0.93218140  1
  Rb  Rb11  1  0.92121160  0.66919207  0.35833730  1
  Ho  Ho12  1  0.06708129  0.08890827  0.16161472  1
  Ho  Ho13  1  0.43291871  0.58890827  0.83838528  1
  Ho  Ho14  1  0.56708129  0.41109173  0.16161472  1
  Ho  Ho15  1  0.93291871  0.91109173  0.83838528  1
  O  O16  1  0.04276352  0.35479908  0.25330926  1
  O  O17  1  0.09608928  0.04938286  0.89371903  1
  O  O18  1  0.18915000  0.94090378  0.31059712  1
  O  O19  1  0.31085000  0.44090378  0.68940288  1
  O  O20  1  0.40391072  0.54938286  0.10628097  1
  O  O21  1  0.45723648  0.85479908  0.74669074  1
  O  O22  1  0.54276352  0.14520092  0.25330926  1
  O  O23  1  0.59608928  0.45061714  0.89371903  1
  O  O24  1  0.68915000  0.55909622  0.31059712  1
  O  O25  1  0.81085000  0.05909622  0.68940288  1
  O  O26  1  0.90391072  0.95061714  0.10628097  1
  O  O27  1  0.95723648  0.64520092  0.74669074  1
