# generated using pymatgen
data_SiH9C3Cl
_symmetry_space_group_name_H-M   'P 1'
_cell_length_a   6.25113944
_cell_length_b   7.75453800
_cell_length_c   6.73545324
_cell_angle_alpha   90.00000000
_cell_angle_beta   91.22027895
_cell_angle_gamma   90.00000000
_symmetry_Int_Tables_number   1
_chemical_formula_structural   SiH9C3Cl
_chemical_formula_sum   'Si2 H18 C6 Cl2'
_cell_volume   326.42501641
_cell_formula_units_Z   2
loop_
 _symmetry_equiv_pos_site_id
 _symmetry_equiv_pos_as_xyz
  1  'x, y, z'
loop_
 _atom_site_type_symbol
 _atom_site_label
 _atom_site_symmetry_multiplicity
 _atom_site_fract_x
 _atom_site_fract_y
 _atom_site_fract_z
 _atom_site_occupancy
  Si  Si0  1  0.67824553  0.25000000  0.31561806  1
  Si  Si1  1  0.32175447  0.75000000  0.68438194  1
  H  H2  1  0.70266051  0.05067529  0.02714369  1
  H  H3  1  0.70266051  0.44932571  0.02714369  1
  H  H4  1  0.93819962  0.04536911  0.17974076  1
  H  H5  1  0.93819962  0.45463189  0.17974076  1
  H  H6  1  0.70480531  0.56709732  0.25469244  1
  H  H7  1  0.70480531  0.93290268  0.25469244  1
  H  H8  1  0.29077942  0.63444267  0.34051073  1
  H  H9  1  0.29077942  0.86555633  0.34051073  1
  H  H10  1  0.05686108  0.75000000  0.40726351  1
  H  H11  1  0.94313792  0.25000000  0.59273649  1
  H  H12  1  0.70922058  0.13444367  0.65948927  1
  H  H13  1  0.70922058  0.36555733  0.65948927  1
  H  H14  1  0.29519569  0.06709732  0.74530756  1
  H  H15  1  0.29519569  0.43290268  0.74530756  1
  H  H16  1  0.06180038  0.54536811  0.82025824  1
  H  H17  1  0.06180038  0.95463089  0.82025824  1
  H  H18  1  0.29733949  0.55067429  0.97285631  1
  H  H19  1  0.29733949  0.94932471  0.97285631  1
  C  C20  1  0.76200533  0.05064656  0.18152905  1
  C  C21  1  0.76200533  0.44935444  0.18152905  1
  C  C22  1  0.23304912  0.75000000  0.41750673  1
  C  C23  1  0.76695088  0.25000000  0.58249327  1
  C  C24  1  0.23799467  0.55064556  0.81847095  1
  C  C25  1  0.23799467  0.94935344  0.81847095  1
  Cl  Cl26  1  0.33841635  0.25000000  0.31365054  1
  Cl  Cl27  1  0.66158365  0.75000000  0.68634946  1
