# generated using pymatgen
data_V4Cr2O13
_symmetry_space_group_name_H-M   'P 1'
_cell_length_a   8.59376440
_cell_length_b   9.41057001
_cell_length_c   14.72341396
_cell_angle_alpha   90.00000000
_cell_angle_beta   104.03220829
_cell_angle_gamma   90.00000000
_symmetry_Int_Tables_number   1
_chemical_formula_structural   V4Cr2O13
_chemical_formula_sum   'V16 Cr8 O52'
_cell_volume   1155.18375286
_cell_formula_units_Z   4
loop_
 _symmetry_equiv_pos_site_id
 _symmetry_equiv_pos_as_xyz
  1  'x, y, z'
loop_
 _atom_site_type_symbol
 _atom_site_label
 _atom_site_symmetry_multiplicity
 _atom_site_fract_x
 _atom_site_fract_y
 _atom_site_fract_z
 _atom_site_occupancy
  V  V0  1  0.11972307  0.24179832  0.92658124  1
  V  V1  1  0.28565519  0.72339384  0.84242818  1
  V  V2  1  0.20833645  0.30535149  0.66129891  1
  V  V3  1  0.11972307  0.25820168  0.42658124  1
  V  V4  1  0.50823506  0.25384753  0.92694419  1
  V  V5  1  0.28565519  0.77660616  0.34242818  1
  V  V6  1  0.20833645  0.19464851  0.16129891  1
  V  V7  1  0.49176494  0.75384753  0.57305581  1
  V  V8  1  0.50823506  0.24615247  0.42694419  1
  V  V9  1  0.79166355  0.80535149  0.83870109  1
  V  V10  1  0.71434481  0.22339384  0.65757182  1
  V  V11  1  0.49176494  0.74615247  0.07305581  1
  V  V12  1  0.88027693  0.74179832  0.57341876  1
  V  V13  1  0.79166355  0.69464851  0.33870109  1
  V  V14  1  0.71434481  0.27660616  0.15757182  1
  V  V15  1  0.88027693  0.75820168  0.07341876  1
  Cr  Cr16  1  0.05601492  0.00202247  0.72374806  1
  Cr  Cr17  1  0.05601492  0.49797753  0.22374806  1
  Cr  Cr18  1  0.42993157  0.99765878  0.74022350  1
  Cr  Cr19  1  0.57006843  0.49765878  0.75977650  1
  Cr  Cr20  1  0.42993157  0.50234122  0.24022350  1
  Cr  Cr21  1  0.57006843  0.00234122  0.25977650  1
  Cr  Cr22  1  0.94398508  0.50202247  0.77625194  1
  Cr  Cr23  1  0.94398508  0.99797753  0.27625194  1
  O  O24  1  0.99291118  0.38071080  0.89224812  1
  O  O25  1  0.09435894  0.11201518  0.84494614  1
  O  O26  1  0.10774115  0.64152492  0.83679149  1
  O  O27  1  0.10082963  0.38602943  0.72879006  1
  O  O28  1  0.99291118  0.11928920  0.39224812  1
  O  O29  1  0.10983880  0.33123793  0.53862562  1
  O  O30  1  0.31897774  0.31420959  0.94444858  1
  O  O31  1  0.25188825  0.88092198  0.77299631  1
  O  O32  1  0.22951097  0.11789313  0.68502009  1
  O  O33  1  0.09435894  0.38798482  0.34494614  1
  O  O34  1  0.36606238  0.78693581  0.96034431  1
  O  O35  1  0.10774115  0.85847508  0.33679149  1
  O  O36  1  0.10082963  0.11397057  0.22879006  1
  O  O37  1  0.41284220  0.61555140  0.80402357  1
  O  O38  1  0.46879149  0.10842948  0.85849625  1
  O  O39  1  0.39822653  0.37050858  0.68814671  1
  O  O40  1  0.10983880  0.16876207  0.03862562  1
  O  O41  1  0.31897774  0.18579041  0.44444858  1
  O  O42  1  0.25188825  0.61907802  0.27299631  1
  O  O43  1  0.22951097  0.38210687  0.18502009  1
  O  O44  1  0.40943732  0.88546339  0.62401629  1
  O  O45  1  0.36606238  0.71306419  0.46034431  1
  O  O46  1  0.59056268  0.38546339  0.87598371  1
  O  O47  1  0.60177347  0.87050858  0.81185329  1
  O  O48  1  0.53120851  0.60842948  0.64150375  1
  O  O49  1  0.41284220  0.88444860  0.30402357  1
  O  O50  1  0.58715780  0.11555140  0.69597643  1
  O  O51  1  0.46879149  0.39157052  0.35849625  1
  O  O52  1  0.39822653  0.12949142  0.18814671  1
  O  O53  1  0.40943732  0.61453661  0.12401629  1
  O  O54  1  0.63393762  0.28693581  0.53965569  1
  O  O55  1  0.59056268  0.11453661  0.37598371  1
  O  O56  1  0.77048903  0.61789313  0.81497991  1
  O  O57  1  0.74811175  0.38092198  0.72700369  1
  O  O58  1  0.68102226  0.81420959  0.55555142  1
  O  O59  1  0.89016120  0.83123793  0.96137438  1
  O  O60  1  0.60177347  0.62949142  0.31185329  1
  O  O61  1  0.53120851  0.89157052  0.14150375  1
  O  O62  1  0.58715780  0.38444860  0.19597643  1
  O  O63  1  0.89917037  0.88602943  0.77120994  1
  O  O64  1  0.89225885  0.14152492  0.66320851  1
  O  O65  1  0.63393762  0.21306419  0.03965569  1
  O  O66  1  0.90564106  0.61201518  0.65505386  1
  O  O67  1  0.77048903  0.88210687  0.31497991  1
  O  O68  1  0.74811175  0.11907802  0.22700369  1
  O  O69  1  0.68102226  0.68579041  0.05555142  1
  O  O70  1  0.89016120  0.66876207  0.46137438  1
  O  O71  1  0.00708882  0.88071080  0.60775188  1
  O  O72  1  0.89917037  0.61397057  0.27120994  1
  O  O73  1  0.89225885  0.35847508  0.16320851  1
  O  O74  1  0.90564106  0.88798482  0.15505386  1
  O  O75  1  0.00708882  0.61928920  0.10775188  1
