# generated using pymatgen
data_Ta7BiO19
_symmetry_space_group_name_H-M   'P 1'
_cell_length_a   6.29948029
_cell_length_b   6.29949916
_cell_length_c   20.28602834
_cell_angle_alpha   89.99989571
_cell_angle_beta   89.99930202
_cell_angle_gamma   120.00003084
_symmetry_Int_Tables_number   1
_chemical_formula_structural   Ta7BiO19
_chemical_formula_sum   'Ta14 Bi2 O38'
_cell_volume   697.16932167
_cell_formula_units_Z   2
loop_
 _symmetry_equiv_pos_site_id
 _symmetry_equiv_pos_as_xyz
  1  'x, y, z'
loop_
 _atom_site_type_symbol
 _atom_site_label
 _atom_site_symmetry_multiplicity
 _atom_site_fract_x
 _atom_site_fract_y
 _atom_site_fract_z
 _atom_site_occupancy
  Ta  Ta0  1  0.99711492  0.64146178  0.15573239  1
  Ta  Ta1  1  0.00288805  0.64437930  0.34436681  1
  Ta  Ta2  1  0.99710888  0.35564143  0.84426843  1
  Ta  Ta3  1  0.00284991  0.35849784  0.65562952  1
  Ta  Ta4  1  0.33338633  0.66670426  0.50001388  1
  Ta  Ta5  1  0.35853207  0.35565302  0.15572950  1
  Ta  Ta6  1  0.35564735  0.35852554  0.34436936  1
  Ta  Ta7  1  0.64146961  0.64432599  0.65563747  1
  Ta  Ta8  1  0.64434428  0.64145764  0.84427789  1
  Ta  Ta9  1  0.35563886  0.99712385  0.65562009  1
  Ta  Ta10  1  0.35853308  0.00287684  0.84425947  1
  Ta  Ta11  1  0.66660331  0.33332066  0.00000186  1
  Ta  Ta12  1  0.64434485  0.00288306  0.15572524  1
  Ta  Ta13  1  0.64149657  0.99713531  0.34436521  1
  Bi  Bi14  1  0.33320080  0.66666162  0.99998966  1
  Bi  Bi15  1  0.66678304  0.33344768  0.49995406  1
  O  O16  1  0.00243398  0.75711316  0.84682656  1
  O  O17  1  0.99755075  0.75466181  0.65318513  1
  O  O18  1  0.99999152  0.60885759  0.24994423  1
  O  O19  1  0.95255895  0.57153760  0.05619745  1
  O  O20  1  0.04741328  0.61899317  0.44379172  1
  O  O21  1  0.04743825  0.42845872  0.55621050  1
  O  O22  1  0.95255098  0.38103461  0.94380376  1
  O  O23  1  0.99997790  0.39112232  0.75005889  1
  O  O24  1  0.00243758  0.24532706  0.15317802  1
  O  O25  1  0.99756852  0.24289410  0.34681624  1
  O  O26  1  0.33332580  0.66666586  0.13901048  1
  O  O27  1  0.33332818  0.66665582  0.65947519  1
  O  O28  1  0.33332365  0.66666191  0.86099826  1
  O  O29  1  0.33334008  0.66667457  0.34052766  1
  O  O30  1  0.24288174  0.24531998  0.84682113  1
  O  O31  1  0.24532038  0.24288156  0.65318891  1
  O  O32  1  0.39114319  0.39113173  0.24994351  1
  O  O33  1  0.42845470  0.38101544  0.05620225  1
  O  O34  1  0.38104684  0.42846868  0.44378466  1
  O  O35  1  0.24288046  0.99756093  0.15318012  1
  O  O36  1  0.24533685  0.00244599  0.34681447  1
  O  O37  1  0.57158768  0.61899508  0.55620734  1
  O  O38  1  0.61896004  0.57151729  0.94380229  1
  O  O39  1  0.60887158  0.60885784  0.75006293  1
  O  O40  1  0.75467614  0.75711852  0.15318012  1
  O  O41  1  0.75712405  0.75468109  0.34681218  1
  O  O42  1  0.39113531  0.99999754  0.75005482  1
  O  O43  1  0.42844121  0.04743195  0.94380460  1
  O  O44  1  0.38103176  0.95256062  0.55621315  1
  O  O45  1  0.66665739  0.33332406  0.63900230  1
  O  O46  1  0.66665966  0.33332409  0.84052470  1
  O  O47  1  0.66666915  0.33334005  0.15948193  1
  O  O48  1  0.66667653  0.33334387  0.36101328  1
  O  O49  1  0.61894748  0.04745268  0.05620335  1
  O  O50  1  0.57156404  0.95257742  0.44378433  1
  O  O51  1  0.60887572  0.00002023  0.24994230  1
  O  O52  1  0.75466629  0.99755489  0.84682530  1
  O  O53  1  0.75711053  0.00242634  0.65318915  1
