# generated using pymatgen
data_Sr2V3O9
_symmetry_space_group_name_H-M   'P 1'
_cell_length_a   7.05465825
_cell_length_b   7.39493341
_cell_length_c   16.48215109
_cell_angle_alpha   90.00000000
_cell_angle_beta   90.00000000
_cell_angle_gamma   64.00311354
_symmetry_Int_Tables_number   1
_chemical_formula_structural   Sr2V3O9
_chemical_formula_sum   'Sr8 V12 O36'
_cell_volume   772.85111012
_cell_formula_units_Z   4
loop_
 _symmetry_equiv_pos_site_id
 _symmetry_equiv_pos_as_xyz
  1  'x, y, z'
loop_
 _atom_site_type_symbol
 _atom_site_label
 _atom_site_symmetry_multiplicity
 _atom_site_fract_x
 _atom_site_fract_y
 _atom_site_fract_z
 _atom_site_occupancy
  Sr  Sr0  1  0.74983629  0.49883434  0.45140024  1
  Sr  Sr1  1  0.75088278  0.49892654  0.87410186  1
  Sr  Sr2  1  0.74983629  0.99883434  0.04859976  1
  Sr  Sr3  1  0.75088278  0.99892654  0.62589814  1
  Sr  Sr4  1  0.24911722  0.50107346  0.12589814  1
  Sr  Sr5  1  0.25016371  0.50116566  0.54859976  1
  Sr  Sr6  1  0.25016371  0.00116566  0.95140024  1
  Sr  Sr7  1  0.24911722  0.00107346  0.37410186  1
  V  V8  1  0.75020672  0.72031453  0.25437689  1
  V  V9  1  0.74976776  0.50001619  0.65954031  1
  V  V10  1  0.75005090  0.49928446  0.07908286  1
  V  V11  1  0.75020672  0.22031453  0.24562311  1
  V  V12  1  0.75005090  0.99928446  0.42091714  1
  V  V13  1  0.74976776  0.00001619  0.84045969  1
  V  V14  1  0.24979328  0.77968547  0.75437689  1
  V  V15  1  0.24994910  0.50071554  0.92091714  1
  V  V16  1  0.25023224  0.49998381  0.34045969  1
  V  V17  1  0.24979328  0.27968547  0.74562311  1
  V  V18  1  0.25023224  -0.00001619  0.15954031  1
  V  V19  1  0.24994910  0.00071554  0.57908286  1
  O  O20  1  0.94398546  0.83590365  0.48161697  1
  O  O21  1  0.94730354  0.83234447  0.77601988  1
  O  O22  1  0.86119498  0.61418510  0.59714390  1
  O  O23  1  0.84824075  0.64022636  0.14009684  1
  O  O24  1  0.94398546  0.33590365  0.01838303  1
  O  O25  1  0.94730354  0.33234447  0.72398012  1
  O  O26  1  0.65030905  0.85808292  0.36099051  1
  O  O27  1  0.63797354  0.88513364  0.90238727  1
  O  O28  1  0.75445558  0.49861276  0.28677009  1
  O  O29  1  0.86119498  0.11418510  0.90285610  1
  O  O30  1  0.84824075  0.14022636  0.35990316  1
  O  O31  1  0.55500070  0.66902562  0.72461501  1
  O  O32  1  0.55667989  0.66417002  0.01866215  1
  O  O33  1  0.44332011  0.83582998  0.51866215  1
  O  O34  1  0.44499930  0.83097438  0.22461501  1
  O  O35  1  0.65030905  0.35808292  0.13900949  1
  O  O36  1  0.63797354  0.38513364  0.59761273  1
  O  O37  1  0.75445558  0.99861276  0.21322991  1
  O  O38  1  0.36202646  0.61486636  0.40238727  1
  O  O39  1  0.34969095  0.64191708  0.86099051  1
  O  O40  1  0.55500070  0.16902562  0.77538499  1
  O  O41  1  0.55667989  0.16417002  0.48133785  1
  O  O42  1  0.44332011  0.33582998  0.98133785  1
  O  O43  1  0.44499930  0.33097438  0.27538499  1
  O  O44  1  0.15175925  0.85977364  0.64009684  1
  O  O45  1  0.13880502  0.88581490  0.09714390  1
  O  O46  1  0.24554442  0.50138724  0.71322991  1
  O  O47  1  0.36202646  0.11486636  0.09761273  1
  O  O48  1  0.34969095  0.14191708  0.63900949  1
  O  O49  1  0.05269646  0.66765553  0.27601988  1
  O  O50  1  0.05601454  0.66409635  0.98161697  1
  O  O51  1  0.15175925  0.35977364  0.85990316  1
  O  O52  1  0.13880502  0.38581490  0.40285610  1
  O  O53  1  0.24554442  0.00138724  0.78677009  1
  O  O54  1  0.05269646  0.16765553  0.22398012  1
  O  O55  1  0.05601454  0.16409635  0.51838303  1
