# generated using pymatgen
data_Sm3Y5O12
_symmetry_space_group_name_H-M   'P 1'
_cell_length_a   9.37116456
_cell_length_b   9.37116456
_cell_length_c   9.37116456
_cell_angle_alpha   109.49091808
_cell_angle_beta   109.43742144
_cell_angle_gamma   109.48532771
_symmetry_Int_Tables_number   1
_chemical_formula_structural   Sm3Y5O12
_chemical_formula_sum   'Sm6 Y10 O24'
_cell_volume   633.51760417
_cell_formula_units_Z   2
loop_
 _symmetry_equiv_pos_site_id
 _symmetry_equiv_pos_as_xyz
  1  'x, y, z'
loop_
 _atom_site_type_symbol
 _atom_site_label
 _atom_site_symmetry_multiplicity
 _atom_site_fract_x
 _atom_site_fract_y
 _atom_site_fract_z
 _atom_site_occupancy
  Sm  Sm0  1  0.50151567  0.00070357  0.00280875  1
  Sm  Sm1  1  0.00210518  0.49929643  0.00081210  1
  Sm  Sm2  1  0.99848433  0.00129308  0.49918790  1
  Sm  Sm3  1  0.49789482  0.49870692  0.49719125  1
  Sm  Sm4  1  0.46916823  0.25000000  0.71916823  1
  Sm  Sm5  1  0.03083177  0.75000000  0.78083177  1
  Y  Y6  1  0.96844640  0.25000000  0.21844640  1
  Y  Y7  1  0.78153345  0.03153345  0.75000000  1
  Y  Y8  1  0.71846655  0.46846655  0.25000000  1
  Y  Y9  1  0.75000000  0.78258450  0.03258450  1
  Y  Y10  1  0.75000000  0.28008653  0.53008653  1
  Y  Y11  1  0.53155360  0.75000000  0.28155360  1
  Y  Y12  1  0.25000000  0.71741550  0.46741550  1
  Y  Y13  1  0.25000000  0.21991347  0.96991347  1
  Y  Y14  1  0.21749609  0.96749609  0.25000000  1
  Y  Y15  1  0.28250391  0.53250391  0.75000000  1
  O  O16  1  0.75491491  0.02901170  0.48612798  1
  O  O17  1  0.74508509  0.23121307  0.27409679  1
  O  O18  1  0.27015825  0.01514366  0.04506155  1
  O  O19  1  0.96983024  0.51174901  0.24324087  1
  O  O20  1  0.47008212  0.22509770  0.45493845  1
  O  O21  1  0.76850815  0.72658937  0.25675913  1
  O  O22  1  0.45711628  0.47098830  0.22590321  1
  O  O23  1  0.04288372  0.26878693  0.01387202  1
  O  O24  1  0.76881951  0.53793817  0.52555561  1
  O  O25  1  0.73118049  0.25673510  0.76911866  1
  O  O26  1  0.01216776  0.04278534  0.26863977  1
  O  O27  1  0.48783224  0.75647201  0.03061658  1
  O  O28  1  0.51238356  0.24326490  0.97444439  1
  O  O29  1  0.22585543  0.45721466  0.46938342  1
  O  O30  1  0.98761644  0.96206183  0.73088134  1
  O  O31  1  0.27414457  0.74352799  0.23136023  1
  O  O32  1  0.95739429  0.72993153  0.99170297  1
  O  O33  1  0.54260571  0.53430868  0.77253624  1
  O  O34  1  0.22984175  0.27490230  0.74498541  1
  O  O35  1  0.53016976  0.77341063  0.54191878  1
  O  O36  1  0.02991788  0.48485634  0.75501459  1
  O  O37  1  0.73149185  0.98825099  0.95808122  1
  O  O38  1  0.26177244  0.77006847  0.72746376  1
  O  O39  1  0.23822756  0.96569132  0.50829703  1
