# generated using pymatgen
data_Sc7V9O24
_symmetry_space_group_name_H-M   'P 1'
_cell_length_a   8.38269792
_cell_length_b   8.46818774
_cell_length_c   8.46754290
_cell_angle_alpha   109.53931905
_cell_angle_beta   109.50327251
_cell_angle_gamma   109.60011476
_symmetry_Int_Tables_number   1
_chemical_formula_structural   Sc7V9O24
_chemical_formula_sum   'Sc7 V9 O24'
_cell_volume   461.39814529
_cell_formula_units_Z   1
loop_
 _symmetry_equiv_pos_site_id
 _symmetry_equiv_pos_as_xyz
  1  'x, y, z'
loop_
 _atom_site_type_symbol
 _atom_site_label
 _atom_site_symmetry_multiplicity
 _atom_site_fract_x
 _atom_site_fract_y
 _atom_site_fract_z
 _atom_site_occupancy
  Sc  Sc0  1  0.74909148  0.28541891  0.53480999  1
  Sc  Sc1  1  0.54049251  0.74940634  0.28792166  1
  Sc  Sc2  1  0.24927350  0.71282424  0.46257953  1
  Sc  Sc3  1  0.25005690  0.21462129  0.96404791  1
  Sc  Sc4  1  0.21229496  0.96542402  0.25169574  1
  Sc  Sc5  1  0.28907997  0.53533996  0.74973944  1
  Sc  Sc6  1  0.03419623  0.75092671  0.78789546  1
  V  V7  1  0.50374381  0.00259199  0.99719922  1
  V  V8  1  0.96195414  0.24810063  0.21127336  1
  V  V9  1  0.78295370  0.03383615  0.75176262  1
  V  V10  1  0.71570896  0.46587465  0.24661305  1
  V  V11  1  0.74996835  0.78879322  0.03734205  1
  V  V12  1  0.50184318  0.50046822  0.50033636  1
  V  V13  1  0.99854468  0.99890471  0.50107222  1
  V  V14  1  0.46755333  0.25243589  0.71832480  1
  V  V15  1  0.99478898  0.49755263  0.99981510  1
  O  O16  1  0.73332394  0.22384504  0.26388674  1
  O  O17  1  0.77172657  0.03843724  0.49455088  1
  O  O18  1  0.95950175  0.50483298  0.23105141  1
  O  O19  1  0.28256485  0.01150878  0.04882359  1
  O  O20  1  0.46206861  0.23531061  0.45813588  1
  O  O21  1  0.78587281  0.72927220  0.27090259  1
  O  O22  1  0.45601854  0.46412610  0.23110170  1
  O  O23  1  0.04070060  0.27609644  0.01216785  1
  O  O24  1  0.99482508  0.03996990  0.26335470  1
  O  O25  1  0.50157930  0.76755696  0.03826590  1
  O  O26  1  0.77049961  0.54494616  0.52721001  1
  O  O27  1  0.72286715  0.25539753  0.76990691  1
  O  O28  1  0.22578611  0.44905852  0.45932885  1
  O  O29  1  0.27109066  0.73649954  0.22522775  1
  O  O30  1  0.51469036  0.24477756  0.96634059  1
  O  O31  1  0.98324214  0.95544348  0.73020095  1
  O  O32  1  0.55117934  0.53408610  0.77477101  1
  O  O33  1  0.94937009  0.72279862  0.99157511  1
  O  O34  1  0.22113383  0.26687832  0.72989732  1
  O  O35  1  0.53881052  0.76956769  0.54735719  1
  O  O36  1  0.03597697  0.49074470  0.77122513  1
  O  O37  1  0.72078851  0.98993617  0.94673265  1
  O  O38  1  0.23789162  0.97028644  0.51489127  1
  O  O39  1  0.26694838  0.77610535  0.73066452  1
