# generated using pymatgen
data_Sb2S2O
_symmetry_space_group_name_H-M   'P 1'
_cell_length_a   4.06163864
_cell_length_b   10.77341945
_cell_length_c   5.95504510
_cell_angle_alpha   102.41601245
_cell_angle_beta   109.90362676
_cell_angle_gamma   100.88336184
_symmetry_Int_Tables_number   1
_chemical_formula_structural   Sb2S2O
_chemical_formula_sum   'Sb4 S4 O2'
_cell_volume   229.33681200
_cell_formula_units_Z   2
loop_
 _symmetry_equiv_pos_site_id
 _symmetry_equiv_pos_as_xyz
  1  'x, y, z'
loop_
 _atom_site_type_symbol
 _atom_site_label
 _atom_site_symmetry_multiplicity
 _atom_site_fract_x
 _atom_site_fract_y
 _atom_site_fract_z
 _atom_site_occupancy
  Sb  Sb0  1  0.34402210  0.63576449  0.05012998  1
  Sb  Sb1  1  0.66135990  0.36445451  0.95667102  1
  Sb  Sb2  1  0.27050325  0.88390764  0.65545768  1
  Sb  Sb3  1  0.73488375  0.11631036  0.35134232  1
  S  S4  1  0.07837936  0.91569078  0.23885742  1
  S  S5  1  0.92700464  0.08452822  0.76794558  1
  S  S6  1  0.61394398  0.70198525  0.52458800  1
  S  S7  1  0.39144002  0.29823375  0.48221200  1
  O  O8  1  0.82265756  0.56847809  0.07484220  1
  O  O9  1  0.18272244  0.43173891  0.93195980  1
