# generated using pymatgen
data_Er2OsPd
_symmetry_space_group_name_H-M   'P 1'
_cell_length_a   4.83833430
_cell_length_b   4.83832924
_cell_length_c   4.83835885
_cell_angle_alpha   59.99967894
_cell_angle_beta   59.99979376
_cell_angle_gamma   60.00024071
_symmetry_Int_Tables_number   1
_chemical_formula_structural   Er2OsPd
_chemical_formula_sum   'Er2 Os1 Pd1'
_cell_volume   80.08910250
_cell_formula_units_Z   1
loop_
 _symmetry_equiv_pos_site_id
 _symmetry_equiv_pos_as_xyz
  1  'x, y, z'
loop_
 _atom_site_type_symbol
 _atom_site_label
 _atom_site_symmetry_multiplicity
 _atom_site_fract_x
 _atom_site_fract_y
 _atom_site_fract_z
 _atom_site_occupancy
  Er  Er0  1  0.99999975  0.00000022  0.99999968  1
  Er  Er1  1  0.50000138  0.49999830  0.50000051  1
  Os  Os2  1  0.25000087  0.24999964  0.25000105  1
  Pd  Pd3  1  0.74999799  0.75000184  0.74999876  1
