# generated using pymatgen
data_LiHo2Rh
_symmetry_space_group_name_H-M   'P 1'
_cell_length_a   4.92217900
_cell_length_b   4.92217900
_cell_length_c   4.92217900
_cell_angle_alpha   59.96890607
_cell_angle_beta   59.96890607
_cell_angle_gamma   59.96890607
_symmetry_Int_Tables_number   1
_chemical_formula_structural   LiHo2Rh
_chemical_formula_sum   'Li1 Ho2 Rh1'
_cell_volume   84.26570867
_cell_formula_units_Z   1
loop_
 _symmetry_equiv_pos_site_id
 _symmetry_equiv_pos_as_xyz
  1  'x, y, z'
loop_
 _atom_site_type_symbol
 _atom_site_label
 _atom_site_symmetry_multiplicity
 _atom_site_fract_x
 _atom_site_fract_y
 _atom_site_fract_z
 _atom_site_occupancy
  Li  Li0  1  0.24999722  0.24999722  0.24999722  1
  Ho  Ho1  1  0.00002071  0.00002071  0.00002071  1
  Ho  Ho2  1  0.49997341  0.49997341  0.49997341  1
  Rh  Rh3  1  0.75000866  0.75000866  0.75000866  1
