# generated using pymatgen
data_YLu3
_symmetry_space_group_name_H-M   'P 1'
_cell_length_a   7.11845522
_cell_length_b   7.11845386
_cell_length_c   5.56532958
_cell_angle_alpha   90.00000000
_cell_angle_beta   90.00000000
_cell_angle_gamma   119.99999704
_symmetry_Int_Tables_number   1
_chemical_formula_structural   YLu3
_chemical_formula_sum   'Y2 Lu6'
_cell_volume   244.22660069
_cell_formula_units_Z   2
loop_
 _symmetry_equiv_pos_site_id
 _symmetry_equiv_pos_as_xyz
  1  'x, y, z'
loop_
 _atom_site_type_symbol
 _atom_site_label
 _atom_site_symmetry_multiplicity
 _atom_site_fract_x
 _atom_site_fract_y
 _atom_site_fract_z
 _atom_site_occupancy
  Y  Y0  1  0.33333300  0.66666600  0.74999900  1
  Y  Y1  1  0.66666700  0.33333300  0.25000000  1
  Lu  Lu2  1  0.16522707  0.33045513  0.25000000  1
  Lu  Lu3  1  0.66954587  0.83477293  0.25000000  1
  Lu  Lu4  1  0.16522807  0.83477293  0.25000000  1
  Lu  Lu5  1  0.83477393  0.66954687  0.74999900  1
  Lu  Lu6  1  0.33045313  0.16522607  0.74999900  1
  Lu  Lu7  1  0.83477193  0.16522607  0.74999900  1
