# generated using pymatgen
data_TmSb(PbO3)2
_symmetry_space_group_name_H-M   'P 1'
_cell_length_a   5.88072784
_cell_length_b   5.88074485
_cell_length_c   10.21978505
_cell_angle_alpha   74.03011671
_cell_angle_beta   105.97010327
_cell_angle_gamma   120.34340457
_symmetry_Int_Tables_number   1
_chemical_formula_structural   TmSb(PbO3)2
_chemical_formula_sum   'Tm2 Sb2 Pb4 O12'
_cell_volume   289.26963560
_cell_formula_units_Z   2
loop_
 _symmetry_equiv_pos_site_id
 _symmetry_equiv_pos_as_xyz
  1  'x, y, z'
loop_
 _atom_site_type_symbol
 _atom_site_label
 _atom_site_symmetry_multiplicity
 _atom_site_fract_x
 _atom_site_fract_y
 _atom_site_fract_z
 _atom_site_occupancy
  Tm  Tm0  1  0.24294661  0.24294767  0.25000142  1
  Tm  Tm1  1  0.75704775  0.75705128  0.75000045  1
  Sb  Sb2  1  0.50000057  0.00000007  -0.00000037  1
  Sb  Sb3  1  0.00000088  0.50000070  0.50000099  1
  Pb  Pb4  1  0.89146399  0.62983231  0.12540856  1
  Pb  Pb5  1  0.62983291  0.89146422  0.37459044  1
  Pb  Pb6  1  0.10853606  0.37016737  0.87459111  1
  Pb  Pb7  1  0.37016669  0.10853795  0.62540876  1
  O  O8  1  0.36319998  0.67329358  0.61842765  1
  O  O9  1  0.67329189  0.36319561  0.88157357  1
  O  O10  1  0.63680159  0.32670674  0.38157281  1
  O  O11  1  0.32670735  0.63680328  0.11842700  1
  O  O12  1  0.18390403  0.88189072  0.84851103  1
  O  O13  1  0.88189562  0.18390115  0.65149029  1
  O  O14  1  0.81609953  0.11811132  0.15148839  1
  O  O15  1  0.11810419  0.81609763  0.34851030  1
  O  O16  1  0.30968446  0.11743705  0.08304517  1
  O  O17  1  0.11744185  0.30968789  0.41695234  1
  O  O18  1  0.69031106  0.88255852  0.91695558  1
  O  O19  1  0.88256097  0.69031095  0.58304551  1
