# generated using pymatgen
data_Np(SiOs)2
_symmetry_space_group_name_H-M   'P 1'
_cell_length_a   4.12583466
_cell_length_b   4.12583465
_cell_length_c   5.62034713
_cell_angle_alpha   111.53345707
_cell_angle_beta   111.53345699
_cell_angle_gamma   90.00000004
_symmetry_Int_Tables_number   1
_chemical_formula_structural   Np(SiOs)2
_chemical_formula_sum   'Np1 Si2 Os2'
_cell_volume   81.77371869
_cell_formula_units_Z   1
loop_
 _symmetry_equiv_pos_site_id
 _symmetry_equiv_pos_as_xyz
  1  'x, y, z'
loop_
 _atom_site_type_symbol
 _atom_site_label
 _atom_site_symmetry_multiplicity
 _atom_site_fract_x
 _atom_site_fract_y
 _atom_site_fract_z
 _atom_site_occupancy
  Si  Si0  1  0.62249379  0.62249379  0.24498758  1
  Si  Si1  1  0.37750621  0.37750621  0.75501242  1
  Os  Os2  1  0.75000000  0.25000000  0.50000000  1
  Os  Os3  1  0.25000000  0.75000000  0.50000000  1
  Np  Np4  1  0.00000000  0.00000000  0.00000000  1
