# generated using pymatgen
data_V2Co3Te3O16
_symmetry_space_group_name_H-M   'P 1'
_cell_length_a   6.16928772
_cell_length_b   6.12232511
_cell_length_c   9.21539550
_cell_angle_alpha   89.98511295
_cell_angle_beta   91.28015569
_cell_angle_gamma   119.75517716
_symmetry_Int_Tables_number   1
_chemical_formula_structural   V2Co3Te3O16
_chemical_formula_sum   'V2 Co3 Te3 O16'
_cell_volume   302.07858608
_cell_formula_units_Z   1
loop_
 _symmetry_equiv_pos_site_id
 _symmetry_equiv_pos_as_xyz
  1  'x, y, z'
loop_
 _atom_site_type_symbol
 _atom_site_label
 _atom_site_symmetry_multiplicity
 _atom_site_fract_x
 _atom_site_fract_y
 _atom_site_fract_z
 _atom_site_occupancy
  V  V0  1  0.36262218  0.68135521  0.50570608  1
  V  V1  1  0.71585404  0.35797483  0.96238703  1
  Co  Co2  1  0.65359311  0.82679169  0.20497849  1
  Co  Co3  1  0.84162583  0.67043266  0.69944722  1
  Co  Co4  1  0.84172293  0.17126798  0.69953104  1
  Te  Te5  1  0.15452945  0.82603832  0.21468274  1
  Te  Te6  1  0.15451629  0.32852950  0.21475130  1
  Te  Te7  1  0.34307982  0.17149273  0.71159340  1
  O  O8  1  0.19468159  0.84222199  0.60142223  1
  O  O9  1  0.02862959  0.51429444  0.34075977  1
  O  O10  1  0.29395851  0.64703014  0.09512267  1
  O  O11  1  0.00524129  0.00254617  0.32489583  1
  O  O12  1  0.02029515  0.01007276  0.80070774  1
  O  O13  1  0.19468936  0.35240143  0.60139748  1
  O  O14  1  0.45146964  0.94465077  0.33454928  1
  O  O15  1  0.45148697  0.50687659  0.33459537  1
  O  O16  1  0.30962005  0.15492213  0.10701690  1
  O  O17  1  0.64871603  0.82442842  0.59372022  1
  O  O18  1  0.51726051  0.46455040  0.85070129  1
  O  O19  1  0.51719176  0.05266987  0.85085298  1
  O  O20  1  0.65125536  0.32561293  0.60229488  1
  O  O21  1  0.84170117  0.66929641  0.10671167  1
  O  O22  1  0.96455569  0.48227933  0.85112253  1
  O  O23  1  0.84170370  0.17246531  0.10677284  1
