# generated using pymatgen
data_LiGaPdF6
_symmetry_space_group_name_H-M   'P 1'
_cell_length_a   5.16362909
_cell_length_b   5.16362908
_cell_length_c   9.35780189
_cell_angle_alpha   90.00000000
_cell_angle_beta   90.00000000
_cell_angle_gamma   119.99999999
_symmetry_Int_Tables_number   1
_chemical_formula_structural   LiGaPdF6
_chemical_formula_sum   'Li2 Ga2 Pd2 F12'
_cell_volume   216.07999206
_cell_formula_units_Z   2
loop_
 _symmetry_equiv_pos_site_id
 _symmetry_equiv_pos_as_xyz
  1  'x, y, z'
loop_
 _atom_site_type_symbol
 _atom_site_label
 _atom_site_symmetry_multiplicity
 _atom_site_fract_x
 _atom_site_fract_y
 _atom_site_fract_z
 _atom_site_occupancy
  Li  Li0  1  0.66666667  0.33333333  0.25000000  1
  Li  Li1  1  0.33333333  0.66666667  0.75000000  1
  F  F2  1  0.01668502  0.36154834  0.36369251  1
  F  F3  1  0.98331498  0.34486332  0.86369251  1
  F  F4  1  0.65513668  0.63845166  0.86369251  1
  F  F5  1  0.36154834  0.01668502  0.86369251  1
  F  F6  1  0.63845166  0.98331498  0.13630749  1
  F  F7  1  0.63845166  0.65513668  0.36369251  1
  F  F8  1  0.34486332  0.98331498  0.36369251  1
  F  F9  1  0.34486332  0.36154834  0.13630749  1
  F  F10  1  0.36154834  0.34486332  0.63630749  1
  F  F11  1  0.01668502  0.65513668  0.13630749  1
  F  F12  1  0.98331498  0.63845166  0.63630749  1
  F  F13  1  0.65513668  0.01668502  0.63630749  1
  Ga  Ga14  1  0.33333333  0.66666667  0.25000000  1
  Ga  Ga15  1  0.66666667  0.33333333  0.75000000  1
  Pd  Pd16  1  0.00000000  0.00000000  0.00000000  1
  Pd  Pd17  1  0.00000000  0.00000000  0.50000000  1
