# generated using pymatgen
data_Li7La3Zr2O12
_symmetry_space_group_name_H-M   'P 1'
_cell_length_a   11.31061906
_cell_length_b   11.31061906
_cell_length_c   11.31061906
_cell_angle_alpha   108.37749935
_cell_angle_beta   108.37749935
_cell_angle_gamma   111.68153130
_symmetry_Int_Tables_number   1
_chemical_formula_structural   Li7La3Zr2O12
_chemical_formula_sum   'Li28 La12 Zr8 O48'
_cell_volume   1112.62842101
_cell_formula_units_Z   4
loop_
 _symmetry_equiv_pos_site_id
 _symmetry_equiv_pos_as_xyz
  1  'x, y, z'
loop_
 _atom_site_type_symbol
 _atom_site_label
 _atom_site_symmetry_multiplicity
 _atom_site_fract_x
 _atom_site_fract_y
 _atom_site_fract_z
 _atom_site_occupancy
  Li  Li0  1  0.12500000  0.87500000  0.75000000  1
  Li  Li1  1  0.62500000  0.37500000  0.75000000  1
  Li  Li2  1  0.37500000  0.62500000  0.25000000  1
  Li  Li3  1  0.87500000  0.12500000  0.25000000  1
  Li  Li4  1  0.69378903  0.44378903  0.38757806  1
  Li  Li5  1  0.55621097  0.94378903  0.75000000  1
  Li  Li6  1  0.94378903  0.19378903  0.88757806  1
  Li  Li7  1  0.80621097  0.69378903  0.25000000  1
  Li  Li8  1  0.30621097  0.55621097  0.61242194  1
  Li  Li9  1  0.44378903  0.05621097  0.25000000  1
  Li  Li10  1  0.05621097  0.80621097  0.11242194  1
  Li  Li11  1  0.19378903  0.30621097  0.75000000  1
  Li  Li12  1  0.71832229  0.22534078  0.83194999  1
  Li  Li13  1  0.89339079  0.72534078  0.50701848  1
  Li  Li14  1  0.72534078  0.21832229  0.33194999  1
  Li  Li15  1  0.38637231  0.71832229  0.49298152  1
  Li  Li16  1  0.28167771  0.77465922  0.16805001  1
  Li  Li17  1  0.10660921  0.27465922  0.49298152  1
  Li  Li18  1  0.27465922  0.78167771  0.66805001  1
  Li  Li19  1  0.61362769  0.28167771  0.50701848  1
  Li  Li20  1  0.21832229  0.88637231  0.99298152  1
  Li  Li21  1  0.39339079  0.38637231  0.66805001  1
  Li  Li22  1  0.22534078  0.39339079  0.00701848  1
  Li  Li23  1  0.88637231  0.89339079  0.16805001  1
  Li  Li24  1  0.78167771  0.11362769  0.00701848  1
  Li  Li25  1  0.60660921  0.61362769  0.33194999  1
  Li  Li26  1  0.77465922  0.60660921  0.99298152  1
  Li  Li27  1  0.11362769  0.10660921  0.83194999  1
  La  La28  1  0.87500000  0.62500000  0.75000000  1
  La  La29  1  0.37500000  0.12500000  0.75000000  1
  La  La30  1  0.12500000  0.37500000  0.25000000  1
  La  La31  1  0.62500000  0.87500000  0.25000000  1
  La  La32  1  0.25000000  0.62263015  0.87263015  1
  La  La33  1  0.25000000  0.12263015  0.37263015  1
  La  La34  1  0.12263015  0.75000000  0.37263015  1
  La  La35  1  0.87736985  0.25000000  0.62736985  1
  La  La36  1  0.75000000  0.37736985  0.12736985  1
  La  La37  1  0.75000000  0.87736985  0.62736985  1
  La  La38  1  0.62263015  0.75000000  0.87263015  1
  La  La39  1  0.37736985  0.25000000  0.12736985  1
  Zr  Zr40  1  -0.00000000  0.50000000  -0.00000000  1
  Zr  Zr41  1  -0.00000000  -0.00000000  0.50000000  1
  Zr  Zr42  1  -0.00000000  0.50000000  0.50000000  1
  Zr  Zr43  1  0.50000000  -0.00000000  0.50000000  1
  Zr  Zr44  1  0.50000000  -0.00000000  -0.00000000  1
  Zr  Zr45  1  0.50000000  0.50000000  0.50000000  1
  Zr  Zr46  1  0.50000000  0.50000000  -0.00000000  1
  Zr  Zr47  1  -0.00000000  -0.00000000  -0.00000000  1
  O  O48  1  0.09822096  0.68832018  0.97913341  1
  O  O49  1  0.20918676  0.18832018  0.59009922  1
  O  O50  1  0.18832018  0.59822096  0.47913341  1
  O  O51  1  0.61908754  0.09822096  0.40990078  1
  O  O52  1  0.90177904  0.31167982  0.02086659  1
  O  O53  1  0.79081324  0.81167982  0.40990078  1
  O  O54  1  0.81167982  0.40177904  0.52086659  1
  O  O55  1  0.38091246  0.90177904  0.59009922  1
  O  O56  1  0.59822096  0.11908754  0.90990078  1
  O  O57  1  0.70918676  0.61908754  0.52086659  1
  O  O58  1  0.68832018  0.70918676  0.09009922  1
  O  O59  1  0.11908754  0.20918676  0.02086659  1
  O  O60  1  0.40177904  0.88091246  0.09009922  1
  O  O61  1  0.29081324  0.38091246  0.47913341  1
  O  O62  1  0.31167982  0.29081324  0.90990078  1
  O  O63  1  0.88091246  0.79081324  0.97913341  1
  O  O64  1  0.68189042  0.97937015  0.09259399  1
  O  O65  1  0.38677616  0.47937015  0.29747972  1
  O  O66  1  0.47937015  0.18189042  0.59259399  1
  O  O67  1  0.08929643  0.68189042  0.70252028  1
  O  O68  1  0.31810958  0.02062985  0.90740601  1
  O  O69  1  0.61322384  0.52062985  0.70252028  1
  O  O70  1  0.52062985  0.81810958  0.40740601  1
  O  O71  1  0.91070357  0.31810958  0.29747972  1
  O  O72  1  0.18189042  0.58929643  0.20252028  1
  O  O73  1  0.88677616  0.08929643  0.40740601  1
  O  O74  1  0.97937015  0.88677616  0.79747972  1
  O  O75  1  0.58929643  0.38677616  0.90740601  1
  O  O76  1  0.81810958  0.41070357  0.79747972  1
  O  O77  1  0.11322384  0.91070357  0.59259399  1
  O  O78  1  0.02062985  0.11322384  0.20252028  1
  O  O79  1  0.41070357  0.61322384  0.09259399  1
  O  O80  1  0.41946316  0.79541315  0.82240428  1
  O  O81  1  0.47300887  0.29541315  0.37595000  1
  O  O82  1  0.29541315  0.91946316  0.32240428  1
  O  O83  1  0.09705887  0.41946316  0.62405000  1
  O  O84  1  0.58053684  0.20458685  0.17759572  1
  O  O85  1  0.52699113  0.70458685  0.62405000  1
  O  O86  1  0.70458685  0.08053684  0.67759572  1
  O  O87  1  0.90294113  0.58053684  0.37595000  1
  O  O88  1  0.91946316  0.59705887  0.12405000  1
  O  O89  1  0.97300887  0.09705887  0.67759572  1
  O  O90  1  0.79541315  0.97300887  0.87595000  1
  O  O91  1  0.59705887  0.47300887  0.17759572  1
  O  O92  1  0.08053684  0.40294113  0.87595000  1
  O  O93  1  0.02699113  0.90294113  0.32240428  1
  O  O94  1  0.20458685  0.02699113  0.12405000  1
  O  O95  1  0.40294113  0.52699113  0.82240428  1
