# generated using pymatgen
data_Sm2S2O
_symmetry_space_group_name_H-M   'P 1'
_cell_length_a   7.02292310
_cell_length_b   7.10010312
_cell_length_c   8.47212386
_cell_angle_alpha   90.00000000
_cell_angle_beta   98.86437639
_cell_angle_gamma   90.00000000
_symmetry_Int_Tables_number   1
_chemical_formula_structural   Sm2S2O
_chemical_formula_sum   'Sm8 S8 O4'
_cell_volume   417.40376916
_cell_formula_units_Z   4
loop_
 _symmetry_equiv_pos_site_id
 _symmetry_equiv_pos_as_xyz
  1  'x, y, z'
loop_
 _atom_site_type_symbol
 _atom_site_label
 _atom_site_symmetry_multiplicity
 _atom_site_fract_x
 _atom_site_fract_y
 _atom_site_fract_z
 _atom_site_occupancy
  O  O0  1  0.35077492  0.08772764  0.38260665  1
  O  O1  1  0.85077492  0.41227236  0.38260665  1
  O  O2  1  0.64922508  0.91227236  0.61739335  1
  O  O3  1  0.14922508  0.58772764  0.61739335  1
  S  S4  1  0.97088684  0.72399736  0.92310386  1
  S  S5  1  0.43115042  0.64042362  0.32230076  1
  S  S6  1  0.56884958  0.35957638  0.67769924  1
  S  S7  1  0.93115042  0.85957638  0.32230076  1
  S  S8  1  0.52911316  0.22399736  0.07689614  1
  S  S9  1  0.02911316  0.27600264  0.07689614  1
  S  S10  1  0.47088684  0.77600264  0.92310386  1
  S  S11  1  0.06884958  0.14042362  0.67769924  1
  Sm  Sm12  1  0.74923713  0.05498084  0.86231267  1
  Sm  Sm13  1  0.75076287  0.55498084  0.13768733  1
  Sm  Sm14  1  0.25076287  0.94501916  0.13768733  1
  Sm  Sm15  1  0.24923713  0.44501916  0.86231267  1
  Sm  Sm16  1  0.68322881  0.13848024  0.42093298  1
  Sm  Sm17  1  0.81677119  0.63848024  0.57906702  1
  Sm  Sm18  1  0.31677119  0.86151976  0.57906702  1
  Sm  Sm19  1  0.18322881  0.36151976  0.42093298  1
