# generated using pymatgen
data_K3CO3F
_symmetry_space_group_name_H-M   'P 1'
_cell_length_a   7.02067872
_cell_length_b   7.02067872
_cell_length_c   7.02067872
_cell_angle_alpha   65.34563208
_cell_angle_beta   65.34563210
_cell_angle_gamma   65.34563209
_symmetry_Int_Tables_number   1
_chemical_formula_structural   K3CO3F
_chemical_formula_sum   'K6 C2 O6 F2'
_cell_volume   273.16977741
_cell_formula_units_Z   2
loop_
 _symmetry_equiv_pos_site_id
 _symmetry_equiv_pos_as_xyz
  1  'x, y, z'
loop_
 _atom_site_type_symbol
 _atom_site_label
 _atom_site_symmetry_multiplicity
 _atom_site_fract_x
 _atom_site_fract_y
 _atom_site_fract_z
 _atom_site_occupancy
  C  C0  1  0.75000000  0.75000000  0.75000000  1
  C  C1  1  0.25000000  0.25000000  0.25000000  1
  O  O2  1  0.25000000  0.42270415  0.07729585  1
  O  O3  1  0.42270415  0.07729585  0.25000000  1
  O  O4  1  0.07729585  0.25000000  0.42270415  1
  O  O5  1  0.75000000  0.57729585  0.92270415  1
  O  O6  1  0.92270415  0.75000000  0.57729585  1
  O  O7  1  0.57729585  0.92270415  0.75000000  1
  F  F8  1  0.50000000  0.50000000  0.50000000  1
  F  F9  1  0.00000000  0.00000000  0.00000000  1
  K  K10  1  0.25000000  0.82494775  0.67505225  1
  K  K11  1  0.82494775  0.67505225  0.25000000  1
  K  K12  1  0.67505225  0.25000000  0.82494775  1
  K  K13  1  0.75000000  0.17505225  0.32494775  1
  K  K14  1  0.17505225  0.32494775  0.75000000  1
  K  K15  1  0.32494775  0.75000000  0.17505225  1
