# generated using pymatgen
data_TiCrO3
_symmetry_space_group_name_H-M   'P 1'
_cell_length_a   5.23251386
_cell_length_b   5.24485477
_cell_length_c   14.20909874
_cell_angle_alpha   87.26019440
_cell_angle_beta   92.12797001
_cell_angle_gamma   120.36943964
_symmetry_Int_Tables_number   1
_chemical_formula_structural   TiCrO3
_chemical_formula_sum   'Ti6 Cr6 O18'
_cell_volume   336.02092356
_cell_formula_units_Z   6
loop_
 _symmetry_equiv_pos_site_id
 _symmetry_equiv_pos_as_xyz
  1  'x, y, z'
loop_
 _atom_site_type_symbol
 _atom_site_label
 _atom_site_symmetry_multiplicity
 _atom_site_fract_x
 _atom_site_fract_y
 _atom_site_fract_z
 _atom_site_occupancy
  Ti  Ti0  1  0.32768820  0.65929249  0.15170976  1
  Ti  Ti1  1  0.98734145  0.99519090  0.20008117  1
  Ti  Ti2  1  0.99804891  0.99201272  0.69987873  1
  Ti  Ti3  1  0.34821413  0.68779216  0.36616627  1
  Ti  Ti4  1  0.67660137  0.32819360  0.65176888  1
  Ti  Ti5  1  0.65963344  0.34657069  0.86649751  1
  Cr  Cr6  1  0.32388735  0.66936673  0.85139296  1
  Cr  Cr7  1  0.99320001  0.99840491  0.99398209  1
  Cr  Cr8  1  0.01407789  0.00916255  0.49389185  1
  Cr  Cr9  1  0.34143590  0.65782459  0.64603409  1
  Cr  Cr10  1  0.65670443  0.32236205  0.14653351  1
  Cr  Cr11  1  0.67079206  0.34964023  0.35211446  1
  O  O12  1  0.31692473  0.01998910  0.59635279  1
  O  O13  1  0.33099976  0.03716315  0.91716348  1
  O  O14  1  0.97111028  0.62940525  0.75703342  1
  O  O15  1  0.98006244  0.27495165  0.59606143  1
  O  O16  1  0.97221142  0.32024340  0.91901592  1
  O  O17  1  0.65053860  0.99304650  0.74748256  1
  O  O18  1  0.36257388  0.33454973  0.74111252  1
  O  O19  1  0.74855242  0.69646190  0.59564899  1
  O  O20  1  0.67115086  0.66197023  0.91936595  1
  O  O21  1  0.27341050  0.30338030  0.09667486  1
  O  O22  1  0.32449642  0.35364781  0.41983317  1
  O  O23  1  0.63396209  0.66281319  0.25899987  1
  O  O24  1  0.34188978  0.98040165  0.24289187  1
  O  O25  1  0.01431193  0.71062009  0.09633896  1
  O  O26  1  0.04468950  0.70808409  0.41574597  1
  O  O27  1  0.00265965  0.34703664  0.24474875  1
  O  O28  1  0.67202627  -0.00047131  0.42007604  1
  O  O29  1  0.69103233  0.95132202  0.09540219  1
