# generated using pymatgen
data_Sm2Mg
_symmetry_space_group_name_H-M   'P 1'
_cell_length_a   3.77073612
_cell_length_b   8.90225152
_cell_length_c   5.59005761
_cell_angle_alpha   90.00000000
_cell_angle_beta   90.00000000
_cell_angle_gamma   77.77298391
_symmetry_Int_Tables_number   1
_chemical_formula_structural   Sm2Mg
_chemical_formula_sum   'Sm4 Mg2'
_cell_volume   183.39072065
_cell_formula_units_Z   2
loop_
 _symmetry_equiv_pos_site_id
 _symmetry_equiv_pos_as_xyz
  1  'x, y, z'
loop_
 _atom_site_type_symbol
 _atom_site_label
 _atom_site_symmetry_multiplicity
 _atom_site_fract_x
 _atom_site_fract_y
 _atom_site_fract_z
 _atom_site_occupancy
  Sm  Sm0  1  0.97886893  0.04226414  0.00000000  1
  Sm  Sm1  1  0.66137800  0.67724500  0.00000000  1
  Sm  Sm2  1  0.79891007  0.40217986  0.49999900  1
  Sm  Sm3  1  0.11639900  0.76719900  0.49999900  1
  Mg  Mg4  1  0.32145876  0.35707948  0.00000000  1
  Mg  Mg5  1  0.45631624  0.08736552  0.49999900  1
