# generated using pymatgen
data_Tm2AlZn
_symmetry_space_group_name_H-M   'P 1'
_cell_length_a   5.01397904
_cell_length_b   5.01399032
_cell_length_c   5.01397306
_cell_angle_alpha   60.00013384
_cell_angle_beta   60.00005841
_cell_angle_gamma   59.99987045
_symmetry_Int_Tables_number   1
_chemical_formula_structural   Tm2AlZn
_chemical_formula_sum   'Tm2 Al1 Zn1'
_cell_volume   89.13190919
_cell_formula_units_Z   1
loop_
 _symmetry_equiv_pos_site_id
 _symmetry_equiv_pos_as_xyz
  1  'x, y, z'
loop_
 _atom_site_type_symbol
 _atom_site_label
 _atom_site_symmetry_multiplicity
 _atom_site_fract_x
 _atom_site_fract_y
 _atom_site_fract_z
 _atom_site_occupancy
  Tm  Tm0  1  0.50000039  0.50000129  0.50000050  1
  Tm  Tm1  1  -0.00000345  0.99999872  0.00000141  1
  Al  Al2  1  0.25000050  0.25000068  0.24999906  1
  Zn  Zn3  1  0.75000257  0.74999932  0.74999903  1
