# generated using pymatgen
data_V3O8
_symmetry_space_group_name_H-M   'P 1'
_cell_length_a   3.68336843
_cell_length_b   17.39361775
_cell_length_c   9.48081014
_cell_angle_alpha   90.00000000
_cell_angle_beta   90.00000000
_cell_angle_gamma   90.00000000
_symmetry_Int_Tables_number   1
_chemical_formula_structural   V3O8
_chemical_formula_sum   'V12 O32'
_cell_volume   607.40803506
_cell_formula_units_Z   4
loop_
 _symmetry_equiv_pos_site_id
 _symmetry_equiv_pos_as_xyz
  1  'x, y, z'
loop_
 _atom_site_type_symbol
 _atom_site_label
 _atom_site_symmetry_multiplicity
 _atom_site_fract_x
 _atom_site_fract_y
 _atom_site_fract_z
 _atom_site_occupancy
  V  V0  1  0.25000000  0.54401897  0.37311850  1
  V  V1  1  0.25000000  0.04401897  0.12688150  1
  V  V2  1  0.75000000  0.45598103  0.62688150  1
  V  V3  1  0.75000000  0.95598103  0.87311850  1
  V  V4  1  0.25000000  0.34787061  0.44839835  1
  V  V5  1  0.25000000  0.84787061  0.05160165  1
  V  V6  1  0.75000000  0.65212939  0.55160165  1
  V  V7  1  0.75000000  0.15212939  0.94839835  1
  V  V8  1  0.25000000  0.94852085  0.40998117  1
  V  V9  1  0.25000000  0.44852085  0.09001883  1
  V  V10  1  0.75000000  0.05147915  0.59001883  1
  V  V11  1  0.75000000  0.55147915  0.90998117  1
  O  O12  1  0.25000000  0.45817807  0.57217067  1
  O  O13  1  0.25000000  0.95817807  0.92782933  1
  O  O14  1  0.75000000  0.54182193  0.42782933  1
  O  O15  1  0.75000000  0.04182193  0.07217067  1
  O  O16  1  0.25000000  0.59485315  0.23046098  1
  O  O17  1  0.25000000  0.09485315  0.26953902  1
  O  O18  1  0.75000000  0.40514685  0.76953902  1
  O  O19  1  0.75000000  0.90514685  0.73046098  1
  O  O20  1  0.25000000  0.61991445  0.52944288  1
  O  O21  1  0.25000000  0.11991445  0.97055712  1
  O  O22  1  0.75000000  0.38008555  0.47055712  1
  O  O23  1  0.75000000  0.88008555  0.02944288  1
  O  O24  1  0.25000000  0.44540644  0.28565429  1
  O  O25  1  0.25000000  0.94540644  0.21434571  1
  O  O26  1  0.75000000  0.55459356  0.71434571  1
  O  O27  1  0.75000000  0.05459356  0.78565429  1
  O  O28  1  0.25000000  0.28184687  0.31970981  1
  O  O29  1  0.25000000  0.78184687  0.18029019  1
  O  O30  1  0.75000000  0.71815313  0.68029019  1
  O  O31  1  0.75000000  0.21815313  0.81970981  1
  O  O32  1  0.25000000  0.27979987  0.57521190  1
  O  O33  1  0.25000000  0.77979987  0.92478810  1
  O  O34  1  0.75000000  0.72020013  0.42478810  1
  O  O35  1  0.75000000  0.22020013  0.07521190  1
  O  O36  1  0.25000000  0.02001809  0.57398459  1
  O  O37  1  0.25000000  0.52001809  0.92601541  1
  O  O38  1  0.75000000  0.97998191  0.42601541  1
  O  O39  1  0.75000000  0.47998191  0.07398459  1
  O  O40  1  0.25000000  0.86108296  0.46228494  1
  O  O41  1  0.25000000  0.36108296  0.03771506  1
  O  O42  1  0.75000000  0.13891704  0.53771506  1
  O  O43  1  0.75000000  0.63891704  0.96228494  1
