# generated using pymatgen
data_HoP5
_symmetry_space_group_name_H-M   'P 1'
_cell_length_a   4.94189900
_cell_length_b   5.34410635
_cell_length_c   9.40703393
_cell_angle_alpha   90.00000000
_cell_angle_beta   90.00000000
_cell_angle_gamma   102.25462935
_symmetry_Int_Tables_number   1
_chemical_formula_structural   HoP5
_chemical_formula_sum   'Ho2 P10'
_cell_volume   242.77911863
_cell_formula_units_Z   2
loop_
 _symmetry_equiv_pos_site_id
 _symmetry_equiv_pos_as_xyz
  1  'x, y, z'
loop_
 _atom_site_type_symbol
 _atom_site_label
 _atom_site_symmetry_multiplicity
 _atom_site_fract_x
 _atom_site_fract_y
 _atom_site_fract_z
 _atom_site_occupancy
  P  P0  1  0.27429348  0.89227894  0.25000000  1
  P  P1  1  0.72570652  0.10772106  0.75000000  1
  P  P2  1  0.61628535  0.95586058  0.40709227  1
  P  P3  1  0.38371465  0.04413942  0.90709227  1
  P  P4  1  0.38371465  0.04413942  0.59290773  1
  P  P5  1  0.61628535  0.95586058  0.09290773  1
  P  P6  1  0.71508006  0.59481810  0.47137413  1
  P  P7  1  0.28491994  0.40518190  0.97137413  1
  P  P8  1  0.28491994  0.40518190  0.52862587  1
  P  P9  1  0.71508006  0.59481810  0.02862587  1
  Ho  Ho10  1  0.00351531  0.34667535  0.25000000  1
  Ho  Ho11  1  0.99648469  0.65332465  0.75000000  1
