# generated using pymatgen
data_TmMg2
_symmetry_space_group_name_H-M   'P 1'
_cell_length_a   3.25585502
_cell_length_b   5.20392787
_cell_length_c   5.20178125
_cell_angle_alpha   120.01363279
_cell_angle_beta   90.26028722
_cell_angle_gamma   90.00000000
_symmetry_Int_Tables_number   1
_chemical_formula_structural   TmMg2
_chemical_formula_sum   'Tm1 Mg2'
_cell_volume   76.31561162
_cell_formula_units_Z   1
loop_
 _symmetry_equiv_pos_site_id
 _symmetry_equiv_pos_as_xyz
  1  'x, y, z'
loop_
 _atom_site_type_symbol
 _atom_site_label
 _atom_site_symmetry_multiplicity
 _atom_site_fract_x
 _atom_site_fract_y
 _atom_site_fract_z
 _atom_site_occupancy
  Tm  Tm0  1  0.66666600  0.41666700  0.66666700  1
  Mg  Mg1  1  0.16250232  0.08332405  0.99998310  1
  Mg  Mg2  1  0.17082968  0.75000795  0.33335190  1
