# generated using pymatgen
data_Ti2Mn3Fe3O16
_symmetry_space_group_name_H-M   'P 1'
_cell_length_a   5.89936244
_cell_length_b   5.86343587
_cell_length_c   9.03491634
_cell_angle_alpha   90.06491957
_cell_angle_beta   88.48127700
_cell_angle_gamma   119.69754078
_symmetry_Int_Tables_number   1
_chemical_formula_structural   Ti2Mn3Fe3O16
_chemical_formula_sum   'Ti2 Mn3 Fe3 O16'
_cell_volume   271.35233621
_cell_formula_units_Z   1
loop_
 _symmetry_equiv_pos_site_id
 _symmetry_equiv_pos_as_xyz
  1  'x, y, z'
loop_
 _atom_site_type_symbol
 _atom_site_label
 _atom_site_symmetry_multiplicity
 _atom_site_fract_x
 _atom_site_fract_y
 _atom_site_fract_z
 _atom_site_occupancy
  Ti  Ti0  1  0.34824937  0.67395159  0.49980813  1
  Ti  Ti1  1  0.67541934  0.33746581  0.00085712  1
  Mn  Mn2  1  0.65734293  0.82888140  0.21303926  1
  Mn  Mn3  1  0.83228876  0.66294871  0.71182284  1
  Mn  Mn4  1  0.83242383  0.16954861  0.71160799  1
  Fe  Fe5  1  0.16495906  0.83365446  0.20988339  1
  Fe  Fe6  1  0.16545105  0.33166986  0.21023884  1
  Fe  Fe7  1  0.33060054  0.16538979  0.70925877  1
  O  O8  1  0.16582051  0.82957200  0.59931940  1
  O  O9  1  0.04794005  0.52208498  0.33936318  1
  O  O10  1  0.34394525  0.67386315  0.10043253  1
  O  O11  1  0.98333564  0.99033027  0.31379040  1
  O  O12  1  0.98595748  0.99310639  0.81457415  1
  O  O13  1  0.16624575  0.33597240  0.59938023  1
  O  O14  1  0.48145295  0.95447549  0.33975385  1
  O  O15  1  0.48252640  0.52792289  0.33926217  1
  O  O16  1  0.33467575  0.16840741  0.09831648  1
  O  O17  1  0.66656445  0.83330411  0.60389307  1
  O  O18  1  0.52534525  0.47745370  0.83608238  1
  O  O19  1  0.52529690  0.04846391  0.83589836  1
  O  O20  1  0.68052953  0.34023788  0.60046889  1
  O  O21  1  0.82385135  0.66016981  0.09791437  1
  O  O22  1  0.95641659  0.47811960  0.83262156  1
  O  O23  1  0.82336127  0.16320678  0.09813265  1
