# generated using pymatgen
data_CaNiF5
_symmetry_space_group_name_H-M   'P 1'
_cell_length_a   5.48546641
_cell_length_b   5.47788060
_cell_length_c   7.73575451
_cell_angle_alpha   96.77652059
_cell_angle_beta   110.76676951
_cell_angle_gamma   109.32027120
_symmetry_Int_Tables_number   1
_chemical_formula_structural   CaNiF5
_chemical_formula_sum   'Ca2 Ni2 F10'
_cell_volume   197.68006120
_cell_formula_units_Z   2
loop_
 _symmetry_equiv_pos_site_id
 _symmetry_equiv_pos_as_xyz
  1  'x, y, z'
loop_
 _atom_site_type_symbol
 _atom_site_label
 _atom_site_symmetry_multiplicity
 _atom_site_fract_x
 _atom_site_fract_y
 _atom_site_fract_z
 _atom_site_occupancy
  Ca  Ca0  1  0.29731399  0.54726669  0.74808557  1
  Ca  Ca1  1  0.70296730  0.45087709  0.25009241  1
  Ni  Ni2  1  0.00355895  0.00095751  0.00121549  1
  Ni  Ni3  1  0.49998182  0.99859214  0.50019472  1
  F  F4  1  0.33722120  0.08010691  0.24929975  1
  F  F5  1  0.66631530  0.91679879  0.74996173  1
  F  F6  1  0.59716268  0.76134463  0.38941000  1
  F  F7  1  0.88485171  0.21018654  0.11789310  1
  F  F8  1  0.74810204  0.69967998  0.02978778  1
  F  F9  1  0.16804258  0.71259389  0.46913980  1
  F  F10  1  0.25549184  0.30269871  0.97018904  1
  F  F11  1  0.83149808  0.28521434  0.53155975  1
  F  F12  1  0.12730136  0.79545598  0.88573944  1
  F  F13  1  0.40134415  0.23332581  0.61079741  1
