# generated using pymatgen
data_Cu3OF5
_symmetry_space_group_name_H-M   'P 1'
_cell_length_a   7.80440689
_cell_length_b   5.52355355
_cell_length_c   5.39306693
_cell_angle_alpha   71.10850252
_cell_angle_beta   106.98041865
_cell_angle_gamma   105.56887066
_symmetry_Int_Tables_number   1
_chemical_formula_structural   Cu3OF5
_chemical_formula_sum   'Cu6 O2 F10'
_cell_volume   206.45361066
_cell_formula_units_Z   2
loop_
 _symmetry_equiv_pos_site_id
 _symmetry_equiv_pos_as_xyz
  1  'x, y, z'
loop_
 _atom_site_type_symbol
 _atom_site_label
 _atom_site_symmetry_multiplicity
 _atom_site_fract_x
 _atom_site_fract_y
 _atom_site_fract_z
 _atom_site_occupancy
  Cu  Cu0  1  0.66294209  0.62282064  0.69782477  1
  Cu  Cu1  1  0.82119460  0.32354144  0.31649635  1
  Cu  Cu2  1  0.17880540  0.67645856  0.68350365  1
  Cu  Cu3  1  0.33705791  0.37717936  0.30217523  1
  Cu  Cu4  1  0.50000000  0.00000000  0.00000000  1
  Cu  Cu5  1  0.00000000  0.00000000  0.00000000  1
  O  O6  1  0.65852785  0.32786200  0.98551188  1
  O  O7  1  0.34147215  0.67213800  0.01448812  1
  F  F8  1  0.99412234  0.76618274  0.79776235  1
  F  F9  1  0.69290912  0.85535576  0.90942691  1
  F  F10  1  0.65522818  0.91932957  0.39444209  1
  F  F11  1  0.97943719  0.28169432  0.67603900  1
  F  F12  1  0.65434219  0.43242140  0.45201354  1
  F  F13  1  0.34565781  0.56757860  0.54798646  1
  F  F14  1  0.02056281  0.71830568  0.32396100  1
  F  F15  1  0.34477182  0.08067043  0.60555791  1
  F  F16  1  0.30709088  0.14464424  0.09057309  1
  F  F17  1  0.00587766  0.23381726  0.20223765  1
