# generated using pymatgen
data_CaMn8O16
_symmetry_space_group_name_H-M   'P 1'
_cell_length_a   5.96712515
_cell_length_b   9.79869616
_cell_length_c   10.02349553
_cell_angle_alpha   89.67290217
_cell_angle_beta   89.99804178
_cell_angle_gamma   89.99991797
_symmetry_Int_Tables_number   1
_chemical_formula_structural   CaMn8O16
_chemical_formula_sum   'Ca2 Mn16 O32'
_cell_volume   586.06469692
_cell_formula_units_Z   2
loop_
 _symmetry_equiv_pos_site_id
 _symmetry_equiv_pos_as_xyz
  1  'x, y, z'
loop_
 _atom_site_type_symbol
 _atom_site_label
 _atom_site_symmetry_multiplicity
 _atom_site_fract_x
 _atom_site_fract_y
 _atom_site_fract_z
 _atom_site_occupancy
  Ca  Ca0  1  0.99882426  0.49158349  0.42502056  1
  Ca  Ca1  1  0.75112039  0.99124394  0.92505938  1
  Mn  Mn2  1  0.49793838  0.17279459  0.35044709  1
  Mn  Mn3  1  0.99588029  0.16346195  0.34298327  1
  Mn  Mn4  1  0.50558376  0.34702701  0.83051361  1
  Mn  Mn5  1  0.00181552  0.34619066  0.83137844  1
  Mn  Mn6  1  0.99914870  0.65664215  0.15537216  1
  Mn  Mn7  1  0.50045644  0.64701114  0.16525388  1
  Mn  Mn8  1  0.99974605  0.83174424  0.64484285  1
  Mn  Mn9  1  0.50152633  0.82902557  0.64273796  1
  Mn  Mn10  1  0.75394293  0.66330254  0.84266916  1
  Mn  Mn11  1  0.25198693  0.67264946  0.85048298  1
  Mn  Mn12  1  0.74827421  0.84624567  0.33149664  1
  Mn  Mn13  1  0.24466669  0.84725893  0.33053311  1
  Mn  Mn14  1  0.75090024  0.15650084  0.65544203  1
  Mn  Mn15  1  0.24930583  0.14720796  0.66509687  1
  Mn  Mn16  1  0.74999490  0.33158450  0.14490440  1
  Mn  Mn17  1  0.24882591  0.32903892  0.14281943  1
  O  O18  1  0.74959074  0.95755420  0.65849500  1
  O  O19  1  0.25120522  0.95298451  0.65522704  1
  O  O20  1  0.75794958  0.67522226  0.03273758  1
  O  O21  1  0.24898665  0.67322163  0.03947838  1
  O  O22  1  0.75241064  0.32567484  0.95339625  1
  O  O23  1  0.25329351  0.32592989  0.95188594  1
  O  O24  1  0.74921462  0.04012866  0.33394975  1
  O  O25  1  0.24326114  0.04049224  0.33707276  1
  O  O26  1  0.00041585  0.45773136  0.15855861  1
  O  O27  1  0.49883485  0.45306941  0.15532584  1
  O  O28  1  0.99195616  0.17513956  0.53286265  1
  O  O29  1  0.50101156  0.17317194  0.53968815  1
  O  O30  1  0.49670958  0.82590456  0.45177048  1
  O  O31  1  0.99763010  0.82565187  0.45326872  1
  O  O32  1  0.50668890  0.54035331  0.83701132  1
  O  O33  1  0.00075902  0.53999084  0.83386237  1
  O  O34  1  0.51969024  0.80637787  0.83667926  1
  O  O35  1  0.98333791  0.80828489  0.83778728  1
  O  O36  1  0.99416650  0.84926179  0.19985133  1
  O  O37  1  0.49975408  0.84238388  0.20345528  1
  O  O38  1  0.99593096  0.19895255  0.14601254  1
  O  O39  1  0.50184219  0.20070570  0.15484733  1
  O  O40  1  0.52655631  0.14738263  0.79778610  1
  O  O41  1  0.98699999  0.14594433  0.79289920  1
  O  O42  1  0.76667392  0.30842632  0.33795070  1
  O  O43  1  0.23022726  0.30655945  0.33684822  1
  O  O44  1  0.75583051  0.34906687  0.69998556  1
  O  O45  1  0.25030842  0.34226712  0.70357311  1
  O  O46  1  0.75411930  0.69877091  0.64584996  1
  O  O47  1  0.24813146  0.70048927  0.65462150  1
  O  O48  1  0.76307525  0.64612864  0.29281672  1
  O  O49  1  0.22349783  0.64758109  0.29759424  1
