# generated using pymatgen
data_MnAlF5
_symmetry_space_group_name_H-M   'P 1'
_cell_length_a   3.63717395
_cell_length_b   5.31357169
_cell_length_c   5.31357139
_cell_angle_alpha   73.86332066
_cell_angle_beta   69.98579445
_cell_angle_gamma   69.98578331
_symmetry_Int_Tables_number   1
_chemical_formula_structural   MnAlF5
_chemical_formula_sum   'Mn1 Al1 F5'
_cell_volume   89.14672615
_cell_formula_units_Z   1
loop_
 _symmetry_equiv_pos_site_id
 _symmetry_equiv_pos_as_xyz
  1  'x, y, z'
loop_
 _atom_site_type_symbol
 _atom_site_label
 _atom_site_symmetry_multiplicity
 _atom_site_fract_x
 _atom_site_fract_y
 _atom_site_fract_z
 _atom_site_occupancy
  Mn  Mn0  1  0.00000000  0.00000000  0.00000000  1
  Al  Al1  1  0.50000000  0.50000000  0.50000000  1
  F  F2  1  0.50000000  0.79048244  0.20951756  1
  F  F3  1  0.50000000  0.20951756  0.79048244  1
  F  F4  1  0.73366529  0.26633471  0.26633471  1
  F  F5  1  0.26633471  0.73366529  0.73366529  1
  F  F6  1  0.00000000  0.50000000  0.50000000  1
