# generated using pymatgen
data_Ca3W3N5
_symmetry_space_group_name_H-M   'P 1'
_cell_length_a   5.72493481
_cell_length_b   8.21147339
_cell_length_c   8.29533928
_cell_angle_alpha   109.80888304
_cell_angle_beta   102.77606110
_cell_angle_gamma   103.55682081
_symmetry_Int_Tables_number   1
_chemical_formula_structural   Ca3W3N5
_chemical_formula_sum   'Ca6 W6 N10'
_cell_volume   336.85692518
_cell_formula_units_Z   2
loop_
 _symmetry_equiv_pos_site_id
 _symmetry_equiv_pos_as_xyz
  1  'x, y, z'
loop_
 _atom_site_type_symbol
 _atom_site_label
 _atom_site_symmetry_multiplicity
 _atom_site_fract_x
 _atom_site_fract_y
 _atom_site_fract_z
 _atom_site_occupancy
  Ca  Ca0  1  0.79462614  0.44461926  0.62108665  1
  Ca  Ca1  1  0.20537386  0.55538074  0.37891335  1
  Ca  Ca2  1  0.65081453  0.87473872  0.88956783  1
  Ca  Ca3  1  0.34918547  0.12526128  0.11043217  1
  Ca  Ca4  1  0.67009489  0.67769595  0.21103706  1
  Ca  Ca5  1  0.32990511  0.32230405  0.78896294  1
  W  W6  1  0.89149844  0.30730777  0.96266722  1
  W  W7  1  0.10850156  0.69269223  0.03733278  1
  W  W8  1  0.74017330  0.05499795  0.62804340  1
  W  W9  1  0.25982670  0.94500205  0.37195660  1
  W  W10  1  0.05663052  0.86422875  0.65128079  1
  W  W11  1  0.94336948  0.13577125  0.34871921  1
  N  N12  1  0.03675816  0.08770723  0.84797097  1
  N  N13  1  0.96324184  0.91229277  0.15202903  1
  N  N14  1  0.81524027  0.64070238  0.48323454  1
  N  N15  1  0.18475973  0.35929762  0.51676546  1
  N  N16  1  0.74892103  0.50610483  0.93250990  1
  N  N17  1  0.25107897  0.49389517  0.06749010  1
  N  N18  1  0.39577850  0.89586305  0.60025495  1
  N  N19  1  0.60422150  0.10413695  0.39974505  1
  N  N20  1  0.18753790  0.78180333  0.86316234  1
  N  N21  1  0.81246210  0.21819667  0.13683766  1
