# generated using pymatgen
data_Ca(InN)2
_symmetry_space_group_name_H-M   'P 1'
_cell_length_a   3.45013519
_cell_length_b   3.44662916
_cell_length_c   8.12335900
_cell_angle_alpha   89.99999749
_cell_angle_beta   102.02396400
_cell_angle_gamma   119.96640071
_symmetry_Int_Tables_number   1
_chemical_formula_structural   Ca(InN)2
_chemical_formula_sum   'Ca1 In2 N2'
_cell_volume   81.22876502
_cell_formula_units_Z   1
loop_
 _symmetry_equiv_pos_site_id
 _symmetry_equiv_pos_as_xyz
  1  'x, y, z'
loop_
 _atom_site_type_symbol
 _atom_site_label
 _atom_site_symmetry_multiplicity
 _atom_site_fract_x
 _atom_site_fract_y
 _atom_site_fract_z
 _atom_site_occupancy
  Ca  Ca0  1  0.00000000  0.00000000  0.50000000  1
  In  In1  1  0.44850922  0.22425411  0.16594715  1
  In  In2  1  0.55149078  0.77574589  0.83405285  1
  N  N3  1  0.79304756  0.39652378  0.69315192  1
  N  N4  1  0.20695244  0.60347622  0.30684808  1
