# generated using pymatgen
data_Ba2Mg(BO2)6
_symmetry_space_group_name_H-M   'P 1'
_cell_length_a   7.02747189
_cell_length_b   7.02753623
_cell_length_c   7.02754443
_cell_angle_alpha   61.15098619
_cell_angle_beta   61.15130824
_cell_angle_gamma   61.15129254
_symmetry_Int_Tables_number   1
_chemical_formula_structural   Ba2Mg(BO2)6
_chemical_formula_sum   'Ba2 Mg1 B6 O12'
_cell_volume   251.76623358
_cell_formula_units_Z   1
loop_
 _symmetry_equiv_pos_site_id
 _symmetry_equiv_pos_as_xyz
  1  'x, y, z'
loop_
 _atom_site_type_symbol
 _atom_site_label
 _atom_site_symmetry_multiplicity
 _atom_site_fract_x
 _atom_site_fract_y
 _atom_site_fract_z
 _atom_site_occupancy
  Ba  Ba0  1  0.20903620  0.20904740  0.20904573  1
  Ba  Ba1  1  0.79096380  0.79095260  0.79095427  1
  Mg  Mg2  1  -0.00000000  -0.00000000  0.00000000  1
  B  B3  1  0.36457598  0.64500907  0.75580213  1
  B  B4  1  0.64501270  0.75580006  0.36457215  1
  B  B5  1  0.75580354  0.36457183  0.64500832  1
  B  B6  1  0.63542402  0.35499093  0.24419787  1
  B  B7  1  0.35498730  0.24419994  0.63542785  1
  B  B8  1  0.24419646  0.63542817  0.35499168  1
  O  O9  1  0.91384091  0.15918243  0.68956357  1
  O  O10  1  0.15918572  0.68956569  0.91383625  1
  O  O11  1  0.68956858  0.91383640  0.15918361  1
  O  O12  1  0.08615909  0.84081757  0.31043643  1
  O  O13  1  0.84081428  0.31043431  0.08616375  1
  O  O14  1  0.31043142  0.08616360  0.84081639  1
  O  O15  1  0.53447692  0.42713629  0.80349965  1
  O  O16  1  0.42713827  0.80349841  0.53447759  1
  O  O17  1  0.80349779  0.53447481  0.42713801  1
  O  O18  1  0.46552308  0.57286371  0.19650035  1
  O  O19  1  0.57286173  0.19650159  0.46552241  1
  O  O20  1  0.19650221  0.46552519  0.57286199  1
