# generated using pymatgen
data_Li2Ge4O9
_symmetry_space_group_name_H-M   'P 1'
_cell_length_a   9.45350634
_cell_length_b   4.69592773
_cell_length_c   16.09819223
_cell_angle_alpha   90.00000000
_cell_angle_beta   90.00000000
_cell_angle_gamma   90.00000000
_symmetry_Int_Tables_number   1
_chemical_formula_structural   Li2Ge4O9
_chemical_formula_sum   'Li8 Ge16 O36'
_cell_volume   714.64676704
_cell_formula_units_Z   4
loop_
 _symmetry_equiv_pos_site_id
 _symmetry_equiv_pos_as_xyz
  1  'x, y, z'
loop_
 _atom_site_type_symbol
 _atom_site_label
 _atom_site_symmetry_multiplicity
 _atom_site_fract_x
 _atom_site_fract_y
 _atom_site_fract_z
 _atom_site_occupancy
  Li  Li0  1  0.46615439  0.55557571  0.76610041  1
  Li  Li1  1  0.96615439  0.44442429  0.23389959  1
  Li  Li2  1  0.96615439  0.55557571  0.73389959  1
  Li  Li3  1  0.46615439  0.44442429  0.26610041  1
  Li  Li4  1  0.27375543  0.41051339  0.97893626  1
  Li  Li5  1  0.77375543  0.58948661  0.02106374  1
  Li  Li6  1  0.77375543  0.41051339  0.52106374  1
  Li  Li7  1  0.27375543  0.58948661  0.47893626  1
  Ge  Ge8  1  0.23559785  0.51456927  0.65573322  1
  Ge  Ge9  1  0.73559785  0.48543073  0.34426678  1
  Ge  Ge10  1  0.73559785  0.51456927  0.84426678  1
  Ge  Ge11  1  0.23559785  0.48543073  0.15573322  1
  Ge  Ge12  1  0.23392305  0.01011316  0.79578648  1
  Ge  Ge13  1  0.73392305  0.98988684  0.20421352  1
  Ge  Ge14  1  0.73392305  0.01011316  0.70421352  1
  Ge  Ge15  1  0.23392305  0.98988684  0.29578648  1
  Ge  Ge16  1  0.52546882  0.99903912  0.90166296  1
  Ge  Ge17  1  0.02546882  0.00096088  0.09833704  1
  Ge  Ge18  1  0.02546882  0.99903912  0.59833704  1
  Ge  Ge19  1  0.52546882  0.00096088  0.40166296  1
  Ge  Ge20  1  0.44517197  0.97796600  0.09414979  1
  Ge  Ge21  1  0.94517197  0.02203400  0.90585021  1
  Ge  Ge22  1  0.94517197  0.97796600  0.40585021  1
  Ge  Ge23  1  0.44517197  0.02203400  0.59414979  1
  O  O24  1  0.07026761  0.28981966  0.66114223  1
  O  O25  1  0.57026761  0.71018034  0.33885777  1
  O  O26  1  0.57026761  0.28981966  0.83885777  1
  O  O27  1  0.07026761  0.71018034  0.16114223  1
  O  O28  1  0.15207553  0.74237747  0.56900760  1
  O  O29  1  0.65207553  0.25762253  0.43099240  1
  O  O30  1  0.65207553  0.74237747  0.93099240  1
  O  O31  1  0.15207553  0.25762253  0.06900760  1
  O  O32  1  0.32370924  0.29851287  0.57048541  1
  O  O33  1  0.82370924  0.70148713  0.42951459  1
  O  O34  1  0.82370924  0.29851287  0.92951459  1
  O  O35  1  0.32370924  0.70148713  0.07048541  1
  O  O36  1  0.39714536  0.75328221  0.66438062  1
  O  O37  1  0.89714536  0.24671779  0.33561938  1
  O  O38  1  0.89714536  0.75328221  0.83561938  1
  O  O39  1  0.39714536  0.24671779  0.16438062  1
  O  O40  1  0.31759298  0.28930184  0.74180909  1
  O  O41  1  0.81759298  0.71069816  0.25819091  1
  O  O42  1  0.81759298  0.28930184  0.75819091  1
  O  O43  1  0.31759298  0.71069816  0.24180909  1
  O  O44  1  0.14487097  0.75216753  0.73689105  1
  O  O45  1  0.64487097  0.24783247  0.26310895  1
  O  O46  1  0.64487097  0.75216753  0.76310895  1
  O  O47  1  0.14487097  0.24783247  0.23689105  1
  O  O48  1  0.37163016  0.83034936  0.85508354  1
  O  O49  1  0.87163016  0.16965064  0.14491646  1
  O  O50  1  0.87163016  0.83034936  0.64491646  1
  O  O51  1  0.37163016  0.16965064  0.35508354  1
  O  O52  1  0.11717220  0.15505534  0.87466080  1
  O  O53  1  0.61717220  0.84494466  0.12533920  1
  O  O54  1  0.61717220  0.15505534  0.62533920  1
  O  O55  1  0.11717220  0.84494466  0.37466080  1
  O  O56  1  0.45891444  0.15842349  0.99543456  1
  O  O57  1  0.95891444  0.84157651  0.00456544  1
  O  O58  1  0.95891444  0.15842349  0.50456544  1
  O  O59  1  0.45891444  0.84157651  0.49543456  1
