# generated using pymatgen
data_MnAg2GeTe4
_symmetry_space_group_name_H-M   'P 1'
_cell_length_a   6.27882466
_cell_length_b   6.27882466
_cell_length_c   7.86093501
_cell_angle_alpha   113.53872623
_cell_angle_beta   113.53872623
_cell_angle_gamma   90.00000000
_symmetry_Int_Tables_number   1
_chemical_formula_structural   MnAg2GeTe4
_chemical_formula_sum   'Mn1 Ag2 Ge1 Te4'
_cell_volume   255.74512949
_cell_formula_units_Z   1
loop_
 _symmetry_equiv_pos_site_id
 _symmetry_equiv_pos_as_xyz
  1  'x, y, z'
loop_
 _atom_site_type_symbol
 _atom_site_label
 _atom_site_symmetry_multiplicity
 _atom_site_fract_x
 _atom_site_fract_y
 _atom_site_fract_z
 _atom_site_occupancy
  Mn  Mn0  1  -0.00000000  0.00000000  0.00000000  1
  Ag  Ag1  1  0.25000000  0.75000000  0.50000000  1
  Ag  Ag2  1  0.75000000  0.25000000  0.50000000  1
  Ge  Ge3  1  0.50000000  0.50000000  0.00000000  1
  Te  Te4  1  0.37483777  0.37483777  0.23933879  1
  Te  Te5  1  0.86450102  0.86450102  0.23933879  1
  Te  Te6  1  0.13549898  0.62516223  0.76066121  1
  Te  Te7  1  0.62516223  0.13549898  0.76066121  1
