# generated using pymatgen
data_Li3TlPCO7
_symmetry_space_group_name_H-M   'P 1'
_cell_length_a   8.70040000
_cell_length_b   5.22786881
_cell_length_c   6.95527869
_cell_angle_alpha   90.00000000
_cell_angle_beta   90.00000000
_cell_angle_gamma   91.70814307
_symmetry_Int_Tables_number   1
_chemical_formula_structural   Li3TlPCO7
_chemical_formula_sum   'Li6 Tl2 P2 C2 O14'
_cell_volume   316.21714123
_cell_formula_units_Z   2
loop_
 _symmetry_equiv_pos_site_id
 _symmetry_equiv_pos_as_xyz
  1  'x, y, z'
loop_
 _atom_site_type_symbol
 _atom_site_label
 _atom_site_symmetry_multiplicity
 _atom_site_fract_x
 _atom_site_fract_y
 _atom_site_fract_z
 _atom_site_occupancy
  Li  Li0  1  0.99901200  0.05155359  0.49198173  1
  Li  Li1  1  0.15811437  0.50283747  0.18269461  1
  Li  Li2  1  0.49028834  0.42102922  0.51742436  1
  Li  Li3  1  0.50971166  0.57897078  0.01742436  1
  Li  Li4  1  0.84188563  0.49716253  0.68269461  1
  Li  Li5  1  0.00098800  0.94844641  0.99198173  1
  Tl  Tl6  1  0.30767636  0.99289017  0.75282662  1
  Tl  Tl7  1  0.69232364  0.00710983  0.25282662  1
  P  P8  1  0.29871311  0.00702587  0.23978904  1
  P  P9  1  0.70128689  0.99297413  0.73978904  1
  C  C10  1  0.13937665  0.49195800  0.73136057  1
  C  C11  1  0.86062335  0.50804200  0.23136057  1
  O  O12  1  0.04444758  0.30497855  0.69475931  1
  O  O13  1  0.08391114  0.70292416  0.79792628  1
  O  O14  1  0.19683008  0.14199037  0.08584374  1
  O  O15  1  0.20266888  0.96404198  0.42590348  1
  O  O16  1  0.28909976  0.47690755  0.70657580  1
  O  O17  1  0.34877502  0.74444065  0.16184609  1
  O  O18  1  0.43848968  0.19369530  0.28566837  1
  O  O19  1  0.56151032  0.80630470  0.78566837  1
  O  O20  1  0.65122498  0.25555935  0.66184609  1
  O  O21  1  0.71090024  0.52309245  0.20657580  1
  O  O22  1  0.79733112  0.03595802  0.92590348  1
  O  O23  1  0.80316992  0.85800963  0.58584374  1
  O  O24  1  0.91608886  0.29707584  0.29792628  1
  O  O25  1  0.95555242  0.69502145  0.19475931  1
