# generated using pymatgen
data_Na3Li2Al(SiO4)2
_symmetry_space_group_name_H-M   'P 1'
_cell_length_a   7.16010966
_cell_length_b   10.33059855
_cell_length_c   10.33059855
_cell_angle_alpha   92.42566687
_cell_angle_beta   90.00000000
_cell_angle_gamma   90.00000000
_symmetry_Int_Tables_number   1
_chemical_formula_structural   Na3Li2Al(SiO4)2
_chemical_formula_sum   'Na12 Li8 Al4 Si8 O32'
_cell_volume   763.45128160
_cell_formula_units_Z   4
loop_
 _symmetry_equiv_pos_site_id
 _symmetry_equiv_pos_as_xyz
  1  'x, y, z'
loop_
 _atom_site_type_symbol
 _atom_site_label
 _atom_site_symmetry_multiplicity
 _atom_site_fract_x
 _atom_site_fract_y
 _atom_site_fract_z
 _atom_site_occupancy
  Na  Na0  1  0.50000000  0.62254324  0.62254324  1
  Na  Na1  1  -0.00000000  0.12254324  0.12254324  1
  Na  Na2  1  0.50000000  0.37745676  0.37745676  1
  Na  Na3  1  -0.00000000  0.87745676  0.87745676  1
  Na  Na4  1  0.75000000  0.09795841  0.40204159  1
  Na  Na5  1  0.25000000  0.40204159  0.09795841  1
  Na  Na6  1  0.25000000  0.90204159  0.59795841  1
  Na  Na7  1  0.75000000  0.59795841  0.90204159  1
  Na  Na8  1  0.25234451  0.36558564  0.63441436  1
  Na  Na9  1  0.74765549  0.63441436  0.36558564  1
  Na  Na10  1  0.75234451  0.13441436  0.86558564  1
  Na  Na11  1  0.24765549  0.86558564  0.13441436  1
  Li  Li12  1  0.98611775  0.85188135  0.33783845  1
  Li  Li13  1  0.01388225  0.33783845  0.85188135  1
  Li  Li14  1  0.48611775  0.83783845  0.35188135  1
  Li  Li15  1  0.51388225  0.35188135  0.83783845  1
  Li  Li16  1  0.01388225  0.14811865  0.66216155  1
  Li  Li17  1  0.98611775  0.66216155  0.14811865  1
  Li  Li18  1  0.51388225  0.16216155  0.64811865  1
  Li  Li19  1  0.48611775  0.64811865  0.16216155  1
  Al  Al20  1  -0.00000000  0.66174773  0.66174773  1
  Al  Al21  1  0.50000000  0.16174773  0.16174773  1
  Al  Al22  1  -0.00000000  0.33825227  0.33825227  1
  Al  Al23  1  0.50000000  0.83825227  0.83825227  1
  Si  Si24  1  0.21537485  0.59770270  0.40229730  1
  Si  Si25  1  0.78462515  0.40229730  0.59770270  1
  Si  Si26  1  0.71537485  0.90229730  0.09770270  1
  Si  Si27  1  0.28462515  0.09770270  0.90229730  1
  Si  Si28  1  0.75000000  0.90420836  0.59579164  1
  Si  Si29  1  0.25000000  0.59579164  0.90420836  1
  Si  Si30  1  0.25000000  0.09579164  0.40420836  1
  Si  Si31  1  0.75000000  0.40420836  0.09579164  1
  O  O32  1  0.05053774  0.67060008  0.32939992  1
  O  O33  1  0.94946226  0.32939992  0.67060008  1
  O  O34  1  0.55053774  0.82939992  0.17060008  1
  O  O35  1  0.44946226  0.17060008  0.82939992  1
  O  O36  1  0.43045817  0.63373805  0.36626195  1
  O  O37  1  0.56954183  0.36626195  0.63373805  1
  O  O38  1  0.93045817  0.86626195  0.13373805  1
  O  O39  1  0.06954183  0.13373805  0.86626195  1
  O  O40  1  0.19481609  0.62309958  0.56399014  1
  O  O41  1  0.80518391  0.56399014  0.62309958  1
  O  O42  1  0.69481609  0.06399014  0.12309958  1
  O  O43  1  0.30518391  0.12309958  0.06399014  1
  O  O44  1  0.80518391  0.37690042  0.43600986  1
  O  O45  1  0.19481609  0.43600986  0.37690042  1
  O  O46  1  0.30518391  0.93600986  0.87690042  1
  O  O47  1  0.69481609  0.87690042  0.93600986  1
  O  O48  1  0.56162035  0.84712054  0.67204544  1
  O  O49  1  0.43837965  0.67204544  0.84712054  1
  O  O50  1  0.06162035  0.17204544  0.34712054  1
  O  O51  1  0.93837965  0.34712054  0.17204544  1
  O  O52  1  0.43837965  0.15287946  0.32795456  1
  O  O53  1  0.56162035  0.32795456  0.15287946  1
  O  O54  1  0.93837965  0.82795456  0.65287946  1
  O  O55  1  0.06162035  0.65287946  0.82795456  1
  O  O56  1  0.73272181  0.87144476  0.44033115  1
  O  O57  1  0.26727819  0.44033115  0.87144476  1
  O  O58  1  0.23272181  0.94033115  0.37144476  1
  O  O59  1  0.76727819  0.37144476  0.94033115  1
  O  O60  1  0.26727819  0.12855524  0.55966885  1
  O  O61  1  0.73272181  0.55966885  0.12855524  1
  O  O62  1  0.76727819  0.05966885  0.62855524  1
  O  O63  1  0.23272181  0.62855524  0.05966885  1
