# generated using pymatgen
data_Ca(TiS2)4
_symmetry_space_group_name_H-M   'P 1'
_cell_length_a   6.86384763
_cell_length_b   7.73735442
_cell_length_c   13.85780460
_cell_angle_alpha   26.42560564
_cell_angle_beta   90.22723836
_cell_angle_gamma   103.10952732
_symmetry_Int_Tables_number   1
_chemical_formula_structural   Ca(TiS2)4
_chemical_formula_sum   'Ca1 Ti4 S8'
_cell_volume   283.32826389
_cell_formula_units_Z   1
loop_
 _symmetry_equiv_pos_site_id
 _symmetry_equiv_pos_as_xyz
  1  'x, y, z'
loop_
 _atom_site_type_symbol
 _atom_site_label
 _atom_site_symmetry_multiplicity
 _atom_site_fract_x
 _atom_site_fract_y
 _atom_site_fract_z
 _atom_site_occupancy
  Ca  Ca0  1  0.50000000  0.00000000  0.25000000  1
  Ti  Ti1  1  0.00000000  0.01492970  0.99253515  1
  Ti  Ti2  1  1.00000000  0.98507030  0.50746485  1
  Ti  Ti3  1  0.50515016  0.00515016  0.99373082  1
  Ti  Ti4  1  0.49484984  0.99484984  0.50626918  1
  S  S5  1  0.33074841  0.33012983  0.22967528  1
  S  S6  1  0.33074841  0.33136699  0.72905670  1
  S  S7  1  0.83056131  0.33056131  0.23327219  1
  S  S8  1  0.83297475  0.33297475  0.72830205  1
  S  S9  1  0.16702525  0.66702525  0.77169795  1
  S  S10  1  0.16943869  0.66943869  0.26672781  1
  S  S11  1  0.66925159  0.66863301  0.77094330  1
  S  S12  1  0.66925159  0.66987017  0.27032472  1
