# generated using pymatgen
data_Ba2CaCuNi2F14
_symmetry_space_group_name_H-M   'P 1'
_cell_length_a   5.40124535
_cell_length_b   7.37713059
_cell_length_c   14.88012530
_cell_angle_alpha   91.94929887
_cell_angle_beta   90.38627615
_cell_angle_gamma   111.11701036
_symmetry_Int_Tables_number   1
_chemical_formula_structural   Ba2CaCuNi2F14
_chemical_formula_sum   'Ba4 Ca2 Cu2 Ni4 F28'
_cell_volume   552.65822961
_cell_formula_units_Z   2
loop_
 _symmetry_equiv_pos_site_id
 _symmetry_equiv_pos_as_xyz
  1  'x, y, z'
loop_
 _atom_site_type_symbol
 _atom_site_label
 _atom_site_symmetry_multiplicity
 _atom_site_fract_x
 _atom_site_fract_y
 _atom_site_fract_z
 _atom_site_occupancy
  Ba  Ba0  1  0.13317199  0.38341318  0.62520724  1
  Ba  Ba1  1  0.24624462  0.38345395  0.12177319  1
  Ba  Ba2  1  0.86826794  0.61209636  0.37861788  1
  Ba  Ba3  1  0.74963013  0.61159968  0.87610295  1
  Ca  Ca4  1  0.42061714  0.00604699  0.75235154  1
  Ca  Ca5  1  0.58235813  0.00450577  0.25176612  1
  Cu  Cu6  1  0.49883111  0.00497483  0.99988761  1
  Cu  Cu7  1  0.50117584  0.00077455  0.50058713  1
  Ni  Ni8  1  0.10104626  0.23704697  0.87583923  1
  Ni  Ni9  1  0.89889661  0.76183543  0.12444816  1
  Ni  Ni10  1  0.14104450  0.24091101  0.37591528  1
  Ni  Ni11  1  0.85835458  0.75961566  0.62501919  1
  F  F12  1  0.93189558  0.98873159  0.34572178  1
  F  F13  1  0.87430540  0.26574581  0.45479877  1
  F  F14  1  0.12647345  0.73535583  0.54607767  1
  F  F15  1  0.67065108  0.49963838  0.59135727  1
  F  F16  1  0.61290609  0.11052971  0.61591338  1
  F  F17  1  0.49859408  0.88623237  0.88515221  1
  F  F18  1  0.39150429  0.23918090  0.95688924  1
  F  F19  1  0.94468300  0.01712050  0.15733942  1
  F  F20  1  0.37238474  0.31931887  0.77548202  1
  F  F21  1  0.32963587  0.49605175  0.40611619  1
  F  F22  1  0.83139406  0.24685673  0.79215404  1
  F  F23  1  0.18024899  0.50124145  0.91128589  1
  F  F24  1  0.41278574  0.24510109  0.29313345  1
  F  F25  1  0.16715053  0.75210709  0.20543204  1
  F  F26  1  0.49862140  0.11207649  0.11758664  1
  F  F27  1  0.63981896  0.68443508  0.22222351  1
  F  F28  1  0.13219855  0.83170676  0.02008264  1
  F  F29  1  0.07309391  0.01561800  0.65519531  1
  F  F30  1  0.86374584  0.16640125  0.98502027  1
  F  F31  1  0.69664836  0.83057067  0.51713549  1
  F  F32  1  0.60582434  0.74808377  0.04586255  1
  F  F33  1  0.58473399  0.75372027  0.70540811  1
  F  F34  1  0.95228739  0.32012211  0.27574270  1
  F  F35  1  0.30552545  0.16801702  0.48344741  1
  F  F36  1  0.38808619  0.88621550  0.38498176  1
  F  F37  1  0.05439182  0.97578993  0.84249821  1
  F  F38  1  0.04385925  0.68127805  0.72200273  1
  F  F39  1  0.82032280  0.50094162  0.09009878  1
