# generated using pymatgen
data_Pr
_symmetry_space_group_name_H-M   'P 1'
_cell_length_a   3.71218617
_cell_length_b   3.71414874
_cell_length_c   6.44556464
_cell_angle_alpha   106.86011804
_cell_angle_beta   90.00000000
_cell_angle_gamma   119.98252216
_symmetry_Int_Tables_number   1
_chemical_formula_structural   Pr
_chemical_formula_sum   Pr2
_cell_volume   72.53269311
_cell_formula_units_Z   2
loop_
 _symmetry_equiv_pos_site_id
 _symmetry_equiv_pos_as_xyz
  1  'x, y, z'
loop_
 _atom_site_type_symbol
 _atom_site_label
 _atom_site_symmetry_multiplicity
 _atom_site_fract_x
 _atom_site_fract_y
 _atom_site_fract_z
 _atom_site_occupancy
  Pr  Pr0  1  0.23935235  0.47870471  0.74961289  1
  Pr  Pr1  1  0.76064765  0.52129529  0.25038711  1
