# generated using pymatgen
data_NdAg2
_symmetry_space_group_name_H-M   'P 1'
_cell_length_a   4.79314847
_cell_length_b   6.01191673
_cell_length_c   6.01191673
_cell_angle_alpha   74.38415357
_cell_angle_beta   66.50697978
_cell_angle_gamma   66.50697978
_symmetry_Int_Tables_number   1
_chemical_formula_structural   NdAg2
_chemical_formula_sum   'Nd2 Ag4'
_cell_volume   144.45189079
_cell_formula_units_Z   2
loop_
 _symmetry_equiv_pos_site_id
 _symmetry_equiv_pos_as_xyz
  1  'x, y, z'
loop_
 _atom_site_type_symbol
 _atom_site_label
 _atom_site_symmetry_multiplicity
 _atom_site_fract_x
 _atom_site_fract_y
 _atom_site_fract_z
 _atom_site_occupancy
  Nd  Nd0  1  0.03545149  0.21454851  0.71454851  1
  Nd  Nd1  1  0.96454851  0.78545149  0.28545149  1
  Ag  Ag2  1  0.33505261  0.62650679  0.70338798  1
  Ag  Ag3  1  0.66494739  0.37349321  0.29661202  1
  Ag  Ag4  1  0.66494739  0.79661202  0.87349321  1
  Ag  Ag5  1  0.33505261  0.20338798  0.12650679  1
