# generated using pymatgen
data_MgCo(GeO3)2
_symmetry_space_group_name_H-M   'P 1'
_cell_length_a   5.44673353
_cell_length_b   9.06014757
_cell_length_c   9.86147514
_cell_angle_alpha   90.00000000
_cell_angle_beta   103.41134297
_cell_angle_gamma   90.00000000
_symmetry_Int_Tables_number   1
_chemical_formula_structural   MgCo(GeO3)2
_chemical_formula_sum   'Mg4 Co4 Ge8 O24'
_cell_volume   473.37529198
_cell_formula_units_Z   4
loop_
 _symmetry_equiv_pos_site_id
 _symmetry_equiv_pos_as_xyz
  1  'x, y, z'
loop_
 _atom_site_type_symbol
 _atom_site_label
 _atom_site_symmetry_multiplicity
 _atom_site_fract_x
 _atom_site_fract_y
 _atom_site_fract_z
 _atom_site_occupancy
  Mg  Mg0  1  0.44085263  0.49127625  0.24499304  1
  Mg  Mg1  1  0.05914737  0.99127625  0.75500696  1
  Mg  Mg2  1  0.55914737  0.50872375  0.75500696  1
  Mg  Mg3  1  0.94085263  0.00872375  0.24499304  1
  Co  Co4  1  0.94926469  0.65386772  0.24435502  1
  Co  Co5  1  0.55073531  0.15386772  0.75564498  1
  Co  Co6  1  0.05073531  0.34613228  0.75564498  1
  Co  Co7  1  0.44926469  0.84613228  0.24435502  1
  Ge  Ge8  1  0.82538158  0.33889273  0.05580788  1
  Ge  Ge9  1  0.67461842  0.83889273  0.94419212  1
  Ge  Ge10  1  0.17461842  0.66110727  0.94419212  1
  Ge  Ge11  1  0.32538158  0.16110727  0.05580788  1
  Ge  Ge12  1  0.23746060  0.34400885  0.45903851  1
  Ge  Ge13  1  0.26253940  0.84400885  0.54096149  1
  Ge  Ge14  1  0.76253940  0.65599115  0.54096149  1
  Ge  Ge15  1  0.73746060  0.15599115  0.45903851  1
  O  O16  1  0.50084652  0.28873216  0.38650961  1
  O  O17  1  0.99915348  0.78873216  0.61349039  1
  O  O18  1  0.49915348  0.71126784  0.61349039  1
  O  O19  1  0.00084652  0.21126784  0.38650961  1
  O  O20  1  0.16870749  0.32181714  0.11111318  1
  O  O21  1  0.33129251  0.82181714  0.88888782  1
  O  O22  1  0.83129251  0.67818286  0.88888782  1
  O  O23  1  0.66870749  0.17818286  0.11111318  1
  O  O24  1  0.69172357  0.98712939  0.37354627  1
  O  O25  1  0.80827643  0.48712939  0.62645373  1
  O  O26  1  0.30827643  0.01287061  0.62645373  1
  O  O27  1  0.19172357  0.51287061  0.37354627  1
  O  O28  1  0.22272350  0.01378991  0.14055614  1
  O  O29  1  0.27727650  0.51378991  0.85944386  1
  O  O30  1  0.77727650  0.98621009  0.85944386  1
  O  O31  1  0.72272350  0.48621009  0.14055614  1
  O  O32  1  0.76016773  0.33875323  0.87098926  1
  O  O33  1  0.73983227  0.83875323  0.12901074  1
  O  O34  1  0.23983227  0.66124677  0.12901074  1
  O  O35  1  0.26016773  0.16124677  0.87098926  1
  O  O36  1  0.32819496  0.34195040  0.64244045  1
  O  O37  1  0.17180504  0.84195040  0.35755955  1
  O  O38  1  0.67180504  0.65804960  0.35755955  1
  O  O39  1  0.82819496  0.15804960  0.64244045  1
