# generated using pymatgen
data_CaTiCo(PO4)3
_symmetry_space_group_name_H-M   'P 1'
_cell_length_a   8.80535128
_cell_length_b   8.80535143
_cell_length_c   8.80535164
_cell_angle_alpha   58.67561186
_cell_angle_beta   58.67561346
_cell_angle_gamma   58.67561511
_symmetry_Int_Tables_number   1
_chemical_formula_structural   CaTiCo(PO4)3
_chemical_formula_sum   'Ca2 Ti2 Co2 P6 O24'
_cell_volume   468.14190643
_cell_formula_units_Z   2
loop_
 _symmetry_equiv_pos_site_id
 _symmetry_equiv_pos_as_xyz
  1  'x, y, z'
loop_
 _atom_site_type_symbol
 _atom_site_label
 _atom_site_symmetry_multiplicity
 _atom_site_fract_x
 _atom_site_fract_y
 _atom_site_fract_z
 _atom_site_occupancy
  Ca  Ca0  1  0.99703553  0.99703553  0.99703553  1
  Ca  Ca1  1  0.49703553  0.49703553  0.49703553  1
  Ti  Ti2  1  0.14646718  0.14646718  0.14646718  1
  Ti  Ti3  1  0.64646718  0.64646718  0.64646718  1
  Co  Co4  1  0.35229512  0.35229512  0.35229512  1
  Co  Co5  1  0.85229512  0.85229512  0.85229512  1
  P  P6  1  0.04017924  0.46207376  0.74992196  1
  P  P7  1  0.46207376  0.74992196  0.04017924  1
  P  P8  1  0.74992196  0.04017924  0.46207376  1
  P  P9  1  0.24992196  0.96207376  0.54017924  1
  P  P10  1  0.54017924  0.24992196  0.96207376  1
  P  P11  1  0.96207376  0.54017924  0.24992196  1
  O  O12  1  0.12298737  0.51099196  0.29501962  1
  O  O13  1  0.29501962  0.12298737  0.51099196  1
  O  O14  1  0.05547273  0.27356528  0.92140435  1
  O  O15  1  0.51099196  0.29501962  0.12298737  1
  O  O16  1  0.01099196  0.62298737  0.79501962  1
  O  O17  1  0.22610966  0.43849126  0.58164710  1
  O  O18  1  0.27356528  0.92140435  0.05547273  1
  O  O19  1  0.43849126  0.58164710  0.22610966  1
  O  O20  1  0.20591795  0.99920134  0.37121959  1
  O  O21  1  0.58164710  0.22610966  0.43849126  1
  O  O22  1  0.08164710  0.93849126  0.72610966  1
  O  O23  1  0.37121959  0.20591795  0.99920134  1
  O  O24  1  0.62298737  0.79501962  0.01099196  1
  O  O25  1  0.92140435  0.05547273  0.27356528  1
  O  O26  1  0.42140435  0.77356528  0.55547273  1
  O  O27  1  0.79501962  0.01099196  0.62298737  1
  O  O28  1  0.55547273  0.42140435  0.77356528  1
  O  O29  1  0.72610966  0.08164710  0.93849126  1
  O  O30  1  0.77356528  0.55547273  0.42140435  1
  O  O31  1  0.99920134  0.37121959  0.20591795  1
  O  O32  1  0.49920134  0.70591795  0.87121959  1
  O  O33  1  0.93849126  0.72610966  0.08164710  1
  O  O34  1  0.70591795  0.87121959  0.49920134  1
  O  O35  1  0.87121959  0.49920134  0.70591795  1
