# generated using pymatgen
data_NbFeO4
_symmetry_space_group_name_H-M   'P 1'
_cell_length_a   6.19038042
_cell_length_b   6.19038042
_cell_length_c   8.55942166
_cell_angle_alpha   90.00000000
_cell_angle_beta   90.00000000
_cell_angle_gamma   90.00000000
_symmetry_Int_Tables_number   1
_chemical_formula_structural   NbFeO4
_chemical_formula_sum   'Nb4 Fe4 O16'
_cell_volume   328.00396895
_cell_formula_units_Z   4
loop_
 _symmetry_equiv_pos_site_id
 _symmetry_equiv_pos_as_xyz
  1  'x, y, z'
loop_
 _atom_site_type_symbol
 _atom_site_label
 _atom_site_symmetry_multiplicity
 _atom_site_fract_x
 _atom_site_fract_y
 _atom_site_fract_z
 _atom_site_occupancy
  Nb  Nb0  1  0.20563237  0.50000000  0.25000000  1
  Nb  Nb1  1  0.50000000  0.20563237  0.00000000  1
  Nb  Nb2  1  0.50000000  0.79436763  0.50000000  1
  Nb  Nb3  1  0.79436763  0.50000000  0.75000000  1
  Fe  Fe4  1  0.26506201  0.26506201  0.62500000  1
  Fe  Fe5  1  0.26506201  0.73493799  0.87500000  1
  Fe  Fe6  1  0.73493799  0.26506201  0.37500000  1
  Fe  Fe7  1  0.73493799  0.73493799  0.12500000  1
  O  O8  1  0.00393113  0.27721142  0.27210979  1
  O  O9  1  0.00393113  0.72278858  0.22789021  1
  O  O10  1  0.27721142  0.00393113  0.97789021  1
  O  O11  1  0.27721142  0.99606887  0.52210979  1
  O  O12  1  0.27793222  0.49510155  0.01930450  1
  O  O13  1  0.27793222  0.50489845  0.48069550  1
  O  O14  1  0.49510155  0.27793222  0.23069550  1
  O  O15  1  0.49510155  0.72206778  0.26930450  1
  O  O16  1  0.50489845  0.27793222  0.76930450  1
  O  O17  1  0.50489845  0.72206778  0.73069550  1
  O  O18  1  0.72206778  0.50489845  0.51930450  1
  O  O19  1  0.72206778  0.49510155  0.98069550  1
  O  O20  1  0.72278858  0.00393113  0.02210979  1
  O  O21  1  0.72278858  0.99606887  0.47789021  1
  O  O22  1  0.99606887  0.27721142  0.72789021  1
  O  O23  1  0.99606887  0.72278858  0.77210979  1
