# generated using pymatgen
data_TiS2
_symmetry_space_group_name_H-M   'P 1'
_cell_length_a   3.41686291
_cell_length_b   3.41662976
_cell_length_c   17.28974262
_cell_angle_alpha   84.36033470
_cell_angle_beta   89.35531324
_cell_angle_gamma   59.99830330
_symmetry_Int_Tables_number   1
_chemical_formula_structural   TiS2
_chemical_formula_sum   'Ti2 S4'
_cell_volume   173.78403656
_cell_formula_units_Z   2
loop_
 _symmetry_equiv_pos_site_id
 _symmetry_equiv_pos_as_xyz
  1  'x, y, z'
loop_
 _atom_site_type_symbol
 _atom_site_label
 _atom_site_symmetry_multiplicity
 _atom_site_fract_x
 _atom_site_fract_y
 _atom_site_fract_z
 _atom_site_occupancy
  Ti  Ti0  1  0.95751752  0.60583526  0.82979344  1
  Ti  Ti1  1  0.04248248  0.39416474  0.17020656  1
  S  S2  1  0.60107419  0.32522300  0.74719040  1
  S  S3  1  0.39892581  0.67477700  0.25280960  1
  S  S4  1  0.30989830  0.88876988  0.91211415  1
  S  S5  1  0.69010170  0.11123012  0.08788585  1
