# generated using pymatgen
data_YCoSi2
_symmetry_space_group_name_H-M   'P 1'
_cell_length_a   4.01806521
_cell_length_b   4.04290770
_cell_length_c   8.26973538
_cell_angle_alpha   104.14874192
_cell_angle_beta   90.00000000
_cell_angle_gamma   90.00000000
_symmetry_Int_Tables_number   1
_chemical_formula_structural   YCoSi2
_chemical_formula_sum   'Y2 Co2 Si4'
_cell_volume   130.26384118
_cell_formula_units_Z   2
loop_
 _symmetry_equiv_pos_site_id
 _symmetry_equiv_pos_as_xyz
  1  'x, y, z'
loop_
 _atom_site_type_symbol
 _atom_site_label
 _atom_site_symmetry_multiplicity
 _atom_site_fract_x
 _atom_site_fract_y
 _atom_site_fract_z
 _atom_site_occupancy
  Y  Y0  1  0.75000000  0.10596402  0.21192805  1
  Y  Y1  1  0.25000000  0.89403598  0.78807195  1
  Co  Co2  1  0.75000000  0.31907308  0.63814616  1
  Co  Co3  1  0.25000000  0.68092692  0.36185384  1
  Si  Si4  1  0.75000000  0.45746575  0.91493151  1
  Si  Si5  1  0.25000000  0.54253425  0.08506849  1
  Si  Si6  1  0.75000000  0.74923678  0.49847357  1
  Si  Si7  1  0.25000000  0.25076322  0.50152643  1
