# generated using pymatgen
data_BaSr7(Fe2O5)4
_symmetry_space_group_name_H-M   'P 1'
_cell_length_a   11.24858176
_cell_length_b   11.58219966
_cell_length_c   17.72105758
_cell_angle_alpha   109.13342435
_cell_angle_beta   108.32306170
_cell_angle_gamma   90.02683135
_symmetry_Int_Tables_number   1
_chemical_formula_structural   BaSr7(Fe2O5)4
_chemical_formula_sum   'Ba4 Sr28 Fe32 O80'
_cell_volume   2056.79042323
_cell_formula_units_Z   4
loop_
 _symmetry_equiv_pos_site_id
 _symmetry_equiv_pos_as_xyz
  1  'x, y, z'
loop_
 _atom_site_type_symbol
 _atom_site_label
 _atom_site_symmetry_multiplicity
 _atom_site_fract_x
 _atom_site_fract_y
 _atom_site_fract_z
 _atom_site_occupancy
  Ba  Ba0  1  0.30786287  0.06309048  0.11406035  1
  Ba  Ba1  1  0.30786475  0.56236236  0.11363617  1
  Ba  Ba2  1  0.80742316  0.06353710  0.11404966  1
  Ba  Ba3  1  0.05640709  0.80120107  0.11329753  1
  Sr  Sr4  1  0.30580304  0.06423792  0.60879855  1
  Sr  Sr5  1  0.30563104  0.56385874  0.60856035  1
  Sr  Sr6  1  0.80568536  0.06399083  0.60843927  1
  Sr  Sr7  1  0.80571731  0.56179736  0.10839452  1
  Sr  Sr8  1  0.80565210  0.56382083  0.60837066  1
  Sr  Sr9  1  0.19812830  0.43738230  0.39232108  1
  Sr  Sr10  1  0.19754498  0.43531769  0.89044875  1
  Sr  Sr11  1  0.19789620  0.93675104  0.39338204  1
  Sr  Sr12  1  0.19742128  0.93599927  0.89018348  1
  Sr  Sr13  1  0.69726710  0.43652365  0.39158826  1
  Sr  Sr14  1  0.69631888  0.43493336  0.89022879  1
  Sr  Sr15  1  0.69750109  0.93652622  0.39187197  1
  Sr  Sr16  1  0.69611851  0.93619454  0.89038092  1
  Sr  Sr17  1  0.05459141  0.29645113  0.10738840  1
  Sr  Sr18  1  0.05580445  0.29469833  0.60881477  1
  Sr  Sr19  1  0.05559680  0.79470872  0.60853332  1
  Sr  Sr20  1  0.55513757  0.29582853  0.10755879  1
  Sr  Sr21  1  0.55589802  0.29466352  0.60889980  1
  Sr  Sr22  1  0.55706469  0.79423288  0.10791558  1
  Sr  Sr23  1  0.55589881  0.79484308  0.60885553  1
  Sr  Sr24  1  0.44821700  0.20682599  0.39454745  1
  Sr  Sr25  1  0.44770927  0.20517706  0.89024578  1
  Sr  Sr26  1  0.44895193  0.70623172  0.39428711  1
  Sr  Sr27  1  0.44731590  0.70411004  0.89007489  1
  Sr  Sr28  1  0.94865267  0.20705488  0.39377406  1
  Sr  Sr29  1  0.94611315  0.20497158  0.88986977  1
  Sr  Sr30  1  0.94797575  0.70565296  0.39274303  1
  Sr  Sr31  1  0.94622649  0.70389371  0.88999319  1
  Fe  Fe32  1  0.99935402  0.99725202  0.99219343  1
  Fe  Fe33  1  0.00376971  0.99968592  0.50011078  1
  Fe  Fe34  1  0.00025820  0.49705409  0.99557955  1
  Fe  Fe35  1  0.00410706  0.50025812  0.50025032  1
  Fe  Fe36  1  0.50055023  0.99749603  0.99473349  1
  Fe  Fe37  1  0.50439625  0.99968400  0.50013741  1
  Fe  Fe38  1  0.50326768  0.49836956  0.99709175  1
  Fe  Fe39  1  0.50428076  0.49993508  0.50035916  1
  Fe  Fe40  1  0.25174290  0.24794250  0.99579006  1
  Fe  Fe41  1  0.25408415  0.25066120  0.50018372  1
  Fe  Fe42  1  0.25166935  0.74710552  0.99401947  1
  Fe  Fe43  1  0.25417342  0.75020642  0.50054896  1
  Fe  Fe44  1  0.75291719  0.25012935  0.99813876  1
  Fe  Fe45  1  0.75430298  0.25021976  0.49989350  1
  Fe  Fe46  1  0.74976043  0.74615919  0.99458196  1
  Fe  Fe47  1  0.75442039  0.75016676  0.49986834  1
  Fe  Fe48  1  0.11235126  0.09491610  0.25464151  1
  Fe  Fe49  1  0.10736162  0.08926747  0.74928691  1
  Fe  Fe50  1  0.10578241  0.58779330  0.25091224  1
  Fe  Fe51  1  0.10733047  0.58889895  0.74913570  1
  Fe  Fe52  1  0.61195168  0.09181578  0.25275104  1
  Fe  Fe53  1  0.60748803  0.08962842  0.74956809  1
  Fe  Fe54  1  0.61281962  0.59054352  0.25233287  1
  Fe  Fe55  1  0.60694741  0.58877311  0.74908587  1
  Fe  Fe56  1  0.35957326  0.41030904  0.25242586  1
  Fe  Fe57  1  0.35750171  0.41012047  0.74949447  1
  Fe  Fe58  1  0.36505986  0.91144494  0.25443702  1
  Fe  Fe59  1  0.35721275  0.91033394  0.74925099  1
  Fe  Fe60  1  0.85801747  0.41218800  0.25054179  1
  Fe  Fe61  1  0.85720439  0.41008824  0.74929816  1
  Fe  Fe62  1  0.85805201  0.90710042  0.25248210  1
  Fe  Fe63  1  0.85687182  0.91045561  0.74887536  1
  O  O64  1  0.12444315  0.12209107  0.49180712  1
  O  O65  1  0.12117594  0.12183693  0.98872702  1
  O  O66  1  0.12449391  0.62207767  0.49167844  1
  O  O67  1  0.12161539  0.61979353  0.98729077  1
  O  O68  1  0.62467256  0.12206187  0.49184167  1
  O  O69  1  0.62125606  0.12235859  0.98912632  1
  O  O70  1  0.62455854  0.62184558  0.49173734  1
  O  O71  1  0.62326605  0.62031100  0.99025033  1
  O  O72  1  0.12804314  0.37349767  0.00360678  1
  O  O73  1  0.13293707  0.37881668  0.50943232  1
  O  O74  1  0.12839993  0.87497165  0.00118530  1
  O  O75  1  0.13336683  0.87822052  0.50942057  1
  O  O76  1  0.63235221  0.37849917  0.00752680  1
  O  O77  1  0.63334021  0.37841998  0.50929666  1
  O  O78  1  0.62802352  0.87392822  0.00449753  1
  O  O79  1  0.63376610  0.87840600  0.50973493  1
  O  O80  1  0.37448189  0.11947541  0.49197367  1
  O  O81  1  0.37311080  0.11891541  0.98859038  1
  O  O82  1  0.37439750  0.61963603  0.49183171  1
  O  O83  1  0.37436563  0.61922995  0.98931624  1
  O  O84  1  0.87447419  0.11947767  0.49177884  1
  O  O85  1  0.87348703  0.11999545  0.98872657  1
  O  O86  1  0.87447447  0.61934523  0.49168937  1
  O  O87  1  0.86992014  0.61601089  0.98826692  1
  O  O88  1  0.38284266  0.37668920  0.00427937  1
  O  O89  1  0.38374441  0.38177489  0.51040122  1
  O  O90  1  0.38207786  0.87638945  0.00379964  1
  O  O91  1  0.38293816  0.88093525  0.50968077  1
  O  O92  1  0.88093402  0.37908344  0.00602267  1
  O  O93  1  0.88351383  0.38137672  0.50959376  1
  O  O94  1  0.87790502  0.87722867  0.00152425  1
  O  O95  1  0.88343807  0.88116173  0.50984550  1
  O  O96  1  0.07664960  0.09721174  0.14352667  1
  O  O97  1  0.08157529  0.09642829  0.64039238  1
  O  O98  1  0.07283463  0.58642008  0.13926965  1
  O  O99  1  0.08157807  0.59645311  0.64033623  1
  O  O100  1  0.57633454  0.09825255  0.14252448  1
  O  O101  1  0.58161679  0.09643730  0.64052890  1
  O  O102  1  0.58277016  0.59591088  0.14218811  1
  O  O103  1  0.58163203  0.59652998  0.64038280  1
  O  O104  1  0.44065374  0.40129846  0.36100917  1
  O  O105  1  0.44136740  0.40408736  0.85866028  1
  O  O106  1  0.44462172  0.90075378  0.36249295  1
  O  O107  1  0.44058824  0.90409195  0.85853360  1
  O  O108  1  0.94146455  0.40358872  0.35935836  1
  O  O109  1  0.93960179  0.40336859  0.85837574  1
  O  O110  1  0.94071203  0.90126060  0.36167052  1
  O  O111  1  0.94008149  0.90430782  0.85813744  1
  O  O112  1  0.33163876  0.30556895  0.13964777  1
  O  O113  1  0.33141075  0.29406027  0.64045860  1
  O  O114  1  0.33373265  0.80584033  0.14141617  1
  O  O115  1  0.33143233  0.79393471  0.64032678  1
  O  O116  1  0.83111852  0.30362500  0.13891374  1
  O  O117  1  0.83148482  0.29403741  0.64032811  1
  O  O118  1  0.82439220  0.79528781  0.14079154  1
  O  O119  1  0.83149574  0.79387298  0.64030207  1
  O  O120  1  0.19401835  0.21189378  0.36304188  1
  O  O121  1  0.19067561  0.20491700  0.85835435  1
  O  O122  1  0.19117331  0.70567486  0.35924586  1
  O  O123  1  0.19139542  0.70475557  0.85812929  1
  O  O124  1  0.69628416  0.20833091  0.36158055  1
  O  O125  1  0.68989730  0.20545509  0.85865017  1
  O  O126  1  0.69566695  0.70763814  0.36131161  1
  O  O127  1  0.68898885  0.70440347  0.85849400  1
  O  O128  1  0.44942106  0.05994600  0.26095311  1
  O  O129  1  0.43670559  0.05811886  0.74926422  1
  O  O130  1  0.44841252  0.55823595  0.26000934  1
  O  O131  1  0.43647233  0.55790964  0.74897403  1
  O  O132  1  0.94831260  0.05407453  0.25938255  1
  O  O133  1  0.93669170  0.05821805  0.74913882  1
  O  O134  1  0.93549700  0.56179317  0.25205446  1
  O  O135  1  0.93680159  0.55801623  0.74917274  1
  O  O136  1  0.18776412  0.44091116  0.25080850  1
  O  O137  1  0.18681799  0.44109412  0.74956678  1
  O  O138  1  0.20040207  0.95339542  0.25913772  1
  O  O139  1  0.18670094  0.94114029  0.74925017  1
  O  O140  1  0.68753208  0.44005202  0.25039435  1
  O  O141  1  0.68669576  0.44120602  0.74945881  1
  O  O142  1  0.68841975  0.94211952  0.25053236  1
  O  O143  1  0.68667138  0.94133824  0.74952700  1
