# generated using pymatgen
data_Ti3VO8
_symmetry_space_group_name_H-M   'P 1'
_cell_length_a   5.95509253
_cell_length_b   5.94592456
_cell_length_c   9.00915184
_cell_angle_alpha   89.51787449
_cell_angle_beta   90.24069289
_cell_angle_gamma   119.94908655
_symmetry_Int_Tables_number   1
_chemical_formula_structural   Ti3VO8
_chemical_formula_sum   'Ti6 V2 O16'
_cell_volume   276.39466252
_cell_formula_units_Z   2
loop_
 _symmetry_equiv_pos_site_id
 _symmetry_equiv_pos_as_xyz
  1  'x, y, z'
loop_
 _atom_site_type_symbol
 _atom_site_label
 _atom_site_symmetry_multiplicity
 _atom_site_fract_x
 _atom_site_fract_y
 _atom_site_fract_z
 _atom_site_occupancy
  Ti  Ti0  1  0.16540912  0.83077777  0.20930450  1
  Ti  Ti1  1  0.16912635  0.33474311  0.20897979  1
  Ti  Ti2  1  0.66568583  0.82913838  0.20917900  1
  Ti  Ti3  1  0.33431417  0.16345256  0.70917900  1
  Ti  Ti4  1  0.83459088  0.66536765  0.70930450  1
  Ti  Ti5  1  0.83087365  0.16561775  0.70897979  1
  V  V6  1  0.33348150  0.66594297  0.48540743  1
  V  V7  1  0.66651850  0.33246147  0.98540743  1
  O  O8  1  0.17145760  0.83097484  0.60452464  1
  O  O9  1  0.04956445  0.52509977  0.33941407  1
  O  O10  1  0.33333517  0.66781442  0.09805417  1
  O  O11  1  0.99905747  0.99989715  0.31236797  1
  O  O12  1  0.00094253  0.00083968  0.81236797  1
  O  O13  1  0.17576444  0.35006639  0.60430311  1
  O  O14  1  0.47264751  0.94715367  0.34245819  1
  O  O15  1  0.47580072  0.52375731  0.33860520  1
  O  O16  1  0.34350887  0.17215474  0.10525993  1
  O  O17  1  0.65649113  0.82864588  0.60525993  1
  O  O18  1  0.52735249  0.47450516  0.84245819  1
  O  O19  1  0.52419928  0.04795659  0.83860520  1
  O  O20  1  0.66666483  0.33447825  0.59805417  1
  O  O21  1  0.82854240  0.65951824  0.10452464  1
  O  O22  1  0.95043555  0.47553432  0.83941407  1
  O  O23  1  0.82423556  0.17430195  0.10430311  1
