# generated using pymatgen
data_Ca2SnGe2
_symmetry_space_group_name_H-M   'P 1'
_cell_length_a   4.48573140
_cell_length_b   7.45522542
_cell_length_c   7.45522542
_cell_angle_alpha   90.00000000
_cell_angle_beta   90.00000000
_cell_angle_gamma   90.00000000
_symmetry_Int_Tables_number   1
_chemical_formula_structural   Ca2SnGe2
_chemical_formula_sum   'Ca4 Sn2 Ge4'
_cell_volume   249.31868299
_cell_formula_units_Z   2
loop_
 _symmetry_equiv_pos_site_id
 _symmetry_equiv_pos_as_xyz
  1  'x, y, z'
loop_
 _atom_site_type_symbol
 _atom_site_label
 _atom_site_symmetry_multiplicity
 _atom_site_fract_x
 _atom_site_fract_y
 _atom_site_fract_z
 _atom_site_occupancy
  Ca  Ca0  1  0.50000000  0.17729940  0.67729940  1
  Ca  Ca1  1  0.50000000  0.82270060  0.32270060  1
  Ca  Ca2  1  0.50000000  0.32270060  0.17729940  1
  Ca  Ca3  1  0.50000000  0.67729940  0.82270060  1
  Sn  Sn4  1  -0.00000000  0.50000000  0.50000000  1
  Sn  Sn5  1  -0.00000000  0.00000000  0.00000000  1
  Ge  Ge6  1  0.00000000  0.61937321  0.11937321  1
  Ge  Ge7  1  0.00000000  0.38062679  0.88062679  1
  Ge  Ge8  1  0.00000000  0.88062679  0.61937321  1
  Ge  Ge9  1  -0.00000000  0.11937321  0.38062679  1
