# generated using pymatgen
data_K5Na3Ta8O24
_symmetry_space_group_name_H-M   'P 1'
_cell_length_a   8.03092252
_cell_length_b   8.03092252
_cell_length_c   8.02972488
_cell_angle_alpha   90.00000000
_cell_angle_beta   90.00000000
_cell_angle_gamma   90.00000000
_symmetry_Int_Tables_number   1
_chemical_formula_structural   K5Na3Ta8O24
_chemical_formula_sum   'K5 Na3 Ta8 O24'
_cell_volume   517.88285961
_cell_formula_units_Z   1
loop_
 _symmetry_equiv_pos_site_id
 _symmetry_equiv_pos_as_xyz
  1  'x, y, z'
loop_
 _atom_site_type_symbol
 _atom_site_label
 _atom_site_symmetry_multiplicity
 _atom_site_fract_x
 _atom_site_fract_y
 _atom_site_fract_z
 _atom_site_occupancy
  K  K0  1  0.25000000  0.25000000  0.25000000  1
  K  K1  1  0.25000000  0.75000000  0.25000000  1
  K  K2  1  0.75000000  0.25000000  0.25000000  1
  K  K3  1  0.75000000  0.75000000  0.25000000  1
  K  K4  1  0.75000000  0.75000000  0.75000000  1
  Na  Na5  1  0.25000000  0.25000000  0.75000000  1
  Na  Na6  1  0.25000000  0.75000000  0.75000000  1
  Na  Na7  1  0.75000000  0.25000000  0.75000000  1
  Ta  Ta8  1  0.00038002  0.00038002  0.99885910  1
  Ta  Ta9  1  0.00038002  0.00038002  0.50114090  1
  Ta  Ta10  1  0.00038002  0.49961998  0.99885910  1
  Ta  Ta11  1  0.00038002  0.49961998  0.50114090  1
  Ta  Ta12  1  0.49961998  0.00038002  0.99885910  1
  Ta  Ta13  1  0.49961998  0.00038002  0.50114090  1
  Ta  Ta14  1  0.49961998  0.49961998  0.99885910  1
  Ta  Ta15  1  0.49961998  0.49961998  0.50114090  1
  O  O16  1  0.25000000  0.00014146  0.99791589  1
  O  O17  1  0.25000000  0.00014146  0.50208411  1
  O  O18  1  0.25000000  0.49985854  0.99791589  1
  O  O19  1  0.25000000  0.49985854  0.50208411  1
  O  O20  1  0.75000000  0.00098717  0.99873535  1
  O  O21  1  0.75000000  0.00098717  0.50126465  1
  O  O22  1  0.75000000  0.49901283  0.99873535  1
  O  O23  1  0.75000000  0.49901283  0.50126465  1
  O  O24  1  0.00014146  0.25000000  0.99791589  1
  O  O25  1  0.00014146  0.25000000  0.50208411  1
  O  O26  1  0.00098717  0.75000000  0.99873535  1
  O  O27  1  0.00098717  0.75000000  0.50126465  1
  O  O28  1  0.49985854  0.25000000  0.99791589  1
  O  O29  1  0.49985854  0.25000000  0.50208411  1
  O  O30  1  0.49901283  0.75000000  0.99873535  1
  O  O31  1  0.49901283  0.75000000  0.50126465  1
  O  O32  1  0.00014183  0.00014183  0.25000000  1
  O  O33  1  0.00096235  0.00096235  0.75000000  1
  O  O34  1  0.00014183  0.49985817  0.25000000  1
  O  O35  1  0.00096235  0.49903765  0.75000000  1
  O  O36  1  0.49985817  0.00014183  0.25000000  1
  O  O37  1  0.49903765  0.00096235  0.75000000  1
  O  O38  1  0.49985817  0.49985817  0.25000000  1
  O  O39  1  0.49903765  0.49903765  0.75000000  1
