# generated using pymatgen
data_LiHg3
_symmetry_space_group_name_H-M   'P 1'
_cell_length_a   5.25112245
_cell_length_b   6.37172359
_cell_length_c   6.37172359
_cell_angle_alpha   119.63959741
_cell_angle_beta   90.00000000
_cell_angle_gamma   90.00000000
_symmetry_Int_Tables_number   1
_chemical_formula_structural   LiHg3
_chemical_formula_sum   'Li2 Hg6'
_cell_volume   185.29445053
_cell_formula_units_Z   2
loop_
 _symmetry_equiv_pos_site_id
 _symmetry_equiv_pos_as_xyz
  1  'x, y, z'
loop_
 _atom_site_type_symbol
 _atom_site_label
 _atom_site_symmetry_multiplicity
 _atom_site_fract_x
 _atom_site_fract_y
 _atom_site_fract_z
 _atom_site_occupancy
  Li  Li0  1  0.75000000  0.66652153  0.33347847  1
  Li  Li1  1  0.25000000  0.33347847  0.66652153  1
  Hg  Hg2  1  0.75000000  0.17019528  0.33963045  1
  Hg  Hg3  1  0.75000000  0.16991424  0.83008576  1
  Hg  Hg4  1  0.75000000  0.66036955  0.82980472  1
  Hg  Hg5  1  0.25000000  0.82980472  0.66036955  1
  Hg  Hg6  1  0.25000000  0.83008576  0.16991424  1
  Hg  Hg7  1  0.25000000  0.33963045  0.17019528  1
