# generated using pymatgen
data_Li4Ti5Nb3O16
_symmetry_space_group_name_H-M   'P 1'
_cell_length_a   5.98225959
_cell_length_b   5.96353166
_cell_length_c   9.87279911
_cell_angle_alpha   90.00310139
_cell_angle_beta   90.07527363
_cell_angle_gamma   119.91991639
_symmetry_Int_Tables_number   1
_chemical_formula_structural   Li4Ti5Nb3O16
_chemical_formula_sum   'Li4 Ti5 Nb3 O16'
_cell_volume   305.27349239
_cell_formula_units_Z   1
loop_
 _symmetry_equiv_pos_site_id
 _symmetry_equiv_pos_as_xyz
  1  'x, y, z'
loop_
 _atom_site_type_symbol
 _atom_site_label
 _atom_site_symmetry_multiplicity
 _atom_site_fract_x
 _atom_site_fract_y
 _atom_site_fract_z
 _atom_site_occupancy
  Li  Li0  1  0.33625084  0.66814944  0.90078043  1
  Li  Li1  1  0.01318995  0.00657686  0.99077336  1
  Li  Li2  1  0.01233519  0.00619228  0.49495700  1
  Li  Li3  1  0.66632178  0.33317142  0.38971245  1
  Ti  Ti4  1  0.17206324  0.82950221  0.21669441  1
  Ti  Ti5  1  0.33932710  0.66969492  0.49436320  1
  Ti  Ti6  1  0.17196540  0.34253620  0.21669489  1
  Ti  Ti7  1  0.35192165  0.17595718  0.71954011  1
  Ti  Ti8  1  0.66336232  0.33170961  0.99257994  1
  Nb  Nb9  1  0.65648157  0.82827298  0.21341217  1
  Nb  Nb10  1  0.82759838  0.63370468  0.71303902  1
  Nb  Nb11  1  0.82757859  0.19389472  0.71302718  1
  O  O12  1  0.16989640  0.83175250  0.59506454  1
  O  O13  1  0.04149057  0.52076023  0.33545222  1
  O  O14  1  0.31994210  0.65992808  0.10169462  1
  O  O15  1  0.00934822  0.00470569  0.31301008  1
  O  O16  1  0.00843320  0.00421842  0.80897184  1
  O  O17  1  0.16984015  0.33816148  0.59504133  1
  O  O18  1  0.47507531  0.95931929  0.34299639  1
  O  O19  1  0.47508175  0.51578443  0.34295854  1
  O  O20  1  0.33377970  0.16688041  0.10097026  1
  O  O21  1  0.66266754  0.83139134  0.59014062  1
  O  O22  1  0.51558750  0.48068347  0.84605113  1
  O  O23  1  0.51563540  0.03495218  0.84605899  1
  O  O24  1  0.63167237  0.31585585  0.57952241  1
  O  O25  1  0.83162923  0.66614981  0.09733203  1
  O  O26  1  0.96988146  0.48492063  0.85962607  1
  O  O27  1  0.83164610  0.16547469  0.09737473  1
