# generated using pymatgen
data_LiBeH3
_symmetry_space_group_name_H-M   'P 1'
_cell_length_a   3.87900817
_cell_length_b   4.98787060
_cell_length_c   5.12892094
_cell_angle_alpha   99.24316572
_cell_angle_beta   90.00000000
_cell_angle_gamma   112.88258831
_symmetry_Int_Tables_number   1
_chemical_formula_structural   LiBeH3
_chemical_formula_sum   'Li2 Be2 H6'
_cell_volume   90.02472401
_cell_formula_units_Z   2
loop_
 _symmetry_equiv_pos_site_id
 _symmetry_equiv_pos_as_xyz
  1  'x, y, z'
loop_
 _atom_site_type_symbol
 _atom_site_label
 _atom_site_symmetry_multiplicity
 _atom_site_fract_x
 _atom_site_fract_y
 _atom_site_fract_z
 _atom_site_occupancy
  Li  Li0  1  0.05506689  0.24907600  0.36660636  1
  Li  Li1  1  0.80599090  0.75092400  0.63339364  1
  Be  Be2  1  0.10031954  0.44751905  0.85136048  1
  Be  Be3  1  0.65280049  0.55248095  0.14863952  1
  H  H4  1  0.01992479  0.15613351  0.72534371  1
  H  H5  1  0.86379128  0.84386649  0.27465629  1
  H  H6  1  0.26334714  0.64659504  0.67193991  1
  H  H7  1  0.61675210  0.35340496  0.32806009  1
  H  H8  1  0.26962365  0.53314044  0.11714385  1
  H  H9  1  0.73648321  0.46685956  0.88285615  1
