# generated using pymatgen
data_Sm(GePt)2
_symmetry_space_group_name_H-M   'P 1'
_cell_length_a   4.37615410
_cell_length_b   4.36280959
_cell_length_c   10.02762497
_cell_angle_alpha   90.00000000
_cell_angle_beta   90.50215402
_cell_angle_gamma   90.00000000
_symmetry_Int_Tables_number   1
_chemical_formula_structural   Sm(GePt)2
_chemical_formula_sum   'Sm2 Ge4 Pt4'
_cell_volume   191.44334284
_cell_formula_units_Z   2
loop_
 _symmetry_equiv_pos_site_id
 _symmetry_equiv_pos_as_xyz
  1  'x, y, z'
loop_
 _atom_site_type_symbol
 _atom_site_label
 _atom_site_symmetry_multiplicity
 _atom_site_fract_x
 _atom_site_fract_y
 _atom_site_fract_z
 _atom_site_occupancy
  Sm  Sm0  1  0.75178133  0.75013545  0.25304445  1
  Sm  Sm1  1  0.24821867  0.25013545  0.74695555  1
  Ge  Ge2  1  0.75198572  0.77633962  0.86795686  1
  Ge  Ge3  1  0.24801428  0.27633962  0.13204314  1
  Ge  Ge4  1  0.24691296  0.73074322  0.50177605  1
  Ge  Ge5  1  0.75308704  0.23074322  0.49822395  1
  Pt  Pt6  1  0.74951591  0.73031513  0.62399422  1
  Pt  Pt7  1  0.25048409  0.23031513  0.37600578  1
  Pt  Pt8  1  0.25604417  0.77846658  0.00223670  1
  Pt  Pt9  1  0.74395583  0.27846658  0.99776330  1
