# generated using pymatgen
data_Bi(BO2)3
_symmetry_space_group_name_H-M   'P 1'
_cell_length_a   5.02757657
_cell_length_b   4.37670734
_cell_length_c   6.69078843
_cell_angle_alpha   77.33095105
_cell_angle_beta   85.87405904
_cell_angle_gamma   55.58406728
_symmetry_Int_Tables_number   1
_chemical_formula_structural   Bi(BO2)3
_chemical_formula_sum   'Bi1 B3 O6'
_cell_volume   118.25004901
_cell_formula_units_Z   1
loop_
 _symmetry_equiv_pos_site_id
 _symmetry_equiv_pos_as_xyz
  1  'x, y, z'
loop_
 _atom_site_type_symbol
 _atom_site_label
 _atom_site_symmetry_multiplicity
 _atom_site_fract_x
 _atom_site_fract_y
 _atom_site_fract_z
 _atom_site_occupancy
  Bi  Bi0  1  0.91939841  0.00574302  0.02152007  1
  B  B1  1  0.67977211  0.94457201  0.54834424  1
  B  B2  1  0.75560970  0.46640978  0.34652754  1
  B  B3  1  0.25682392  0.46079582  0.73809040  1
  O  O4  1  0.66726759  0.64341598  0.50395991  1
  O  O5  1  0.36361536  0.22952971  0.60560689  1
  O  O6  1  0.93315544  0.77827396  0.72102882  1
  O  O7  1  0.77317870  0.12801047  0.36456177  1
  O  O8  1  0.81702769  0.58578248  0.15101982  1
  O  O9  1  0.41555109  0.41046678  0.91544055  1
