# generated using pymatgen
data_Zr6Ga2Fe
_symmetry_space_group_name_H-M   'P 1'
_cell_length_a   3.39221092
_cell_length_b   7.86457537
_cell_length_c   7.86304191
_cell_angle_alpha   120.00644794
_cell_angle_beta   90.00000000
_cell_angle_gamma   90.00000000
_symmetry_Int_Tables_number   1
_chemical_formula_structural   Zr6Ga2Fe
_chemical_formula_sum   'Zr6 Ga2 Fe1'
_cell_volume   181.65657752
_cell_formula_units_Z   1
loop_
 _symmetry_equiv_pos_site_id
 _symmetry_equiv_pos_as_xyz
  1  'x, y, z'
loop_
 _atom_site_type_symbol
 _atom_site_label
 _atom_site_symmetry_multiplicity
 _atom_site_fract_x
 _atom_site_fract_y
 _atom_site_fract_z
 _atom_site_occupancy
  Zr  Zr0  1  -0.00000000  0.24767806  0.00000000  1
  Zr  Zr1  1  -0.00000000  0.75231278  0.75242315  1
  Zr  Zr2  1  -0.00000000  0.99988963  0.24757685  1
  Zr  Zr3  1  0.50000000  0.59778095  1.00000000  1
  Zr  Zr4  1  0.50000000  0.40214846  0.40212848  1
  Zr  Zr5  1  0.50000000  0.00001997  0.59787152  1
  Ga  Ga6  1  0.00000000  0.33328456  0.66665637  1
  Ga  Ga7  1  -0.00000000  0.66662819  0.33334363  1
  Fe  Fe8  1  0.50000000  0.00015739  1.00000000  1
