# generated using pymatgen
data_Dy3(CoGe2)2
_symmetry_space_group_name_H-M   'P 1'
_cell_length_a   4.18065722
_cell_length_b   5.70432669
_cell_length_c   8.00740060
_cell_angle_alpha   106.43229478
_cell_angle_beta   90.00000000
_cell_angle_gamma   111.49661359
_symmetry_Int_Tables_number   1
_chemical_formula_structural   Dy3(CoGe2)2
_chemical_formula_sum   'Dy3 Co2 Ge4'
_cell_volume   169.26511529
_cell_formula_units_Z   1
loop_
 _symmetry_equiv_pos_site_id
 _symmetry_equiv_pos_as_xyz
  1  'x, y, z'
loop_
 _atom_site_type_symbol
 _atom_site_label
 _atom_site_symmetry_multiplicity
 _atom_site_fract_x
 _atom_site_fract_y
 _atom_site_fract_z
 _atom_site_occupancy
  Dy  Dy0  1  0.37655682  0.75311364  0.30673562  1
  Dy  Dy1  1  0.62344318  0.24688636  0.69326438  1
  Dy  Dy2  1  0.00000000  -0.00000000  -0.00000000  1
  Co  Co3  1  0.30909569  0.61819139  0.62842874  1
  Co  Co4  1  0.69090431  0.38180861  0.37157126  1
  Ge  Ge5  1  0.09829005  0.19658010  0.40020871  1
  Ge  Ge6  1  0.90170995  0.80341990  0.59979129  1
  Ge  Ge7  1  0.71002247  0.42004494  0.07954922  1
  Ge  Ge8  1  0.28997753  0.57995506  0.92045078  1
