# generated using pymatgen
data_NiAsPd
_symmetry_space_group_name_H-M   'P 1'
_cell_length_a   3.75080599
_cell_length_b   6.24701646
_cell_length_c   6.24690987
_cell_angle_alpha   120.00056400
_cell_angle_beta   90.00000000
_cell_angle_gamma   90.00000000
_symmetry_Int_Tables_number   1
_chemical_formula_structural   NiAsPd
_chemical_formula_sum   'Ni3 As3 Pd3'
_cell_volume   126.76245879
_cell_formula_units_Z   3
loop_
 _symmetry_equiv_pos_site_id
 _symmetry_equiv_pos_as_xyz
  1  'x, y, z'
loop_
 _atom_site_type_symbol
 _atom_site_label
 _atom_site_symmetry_multiplicity
 _atom_site_fract_x
 _atom_site_fract_y
 _atom_site_fract_z
 _atom_site_occupancy
  Ni  Ni0  1  -0.00000000  0.25453857  0.00000000  1
  Ni  Ni1  1  0.00000000  0.74545481  0.74546224  1
  Ni  Ni2  1  0.00000000  0.99999258  0.25453776  1
  As  As3  1  0.00000000  0.33330937  0.66669526  1
  As  As4  1  0.00000000  0.66661412  0.33330474  1
  As  As5  1  0.50000000  0.99999430  0.00000000  1
  Pd  Pd6  1  0.50000000  0.59534180  1.00000000  1
  Pd  Pd7  1  0.50000000  0.40465786  0.40466127  1
  Pd  Pd8  1  0.50000000  0.99999659  0.59533873  1
