# generated using pymatgen
data_SrZrO3
_symmetry_space_group_name_H-M   'P 1'
_cell_length_a   5.87072097
_cell_length_b   5.87072097
_cell_length_c   5.87072097
_cell_angle_alpha   90.46759787
_cell_angle_beta   119.71857032
_cell_angle_gamma   119.74223197
_symmetry_Int_Tables_number   1
_chemical_formula_structural   SrZrO3
_chemical_formula_sum   'Sr2 Zr2 O6'
_cell_volume   143.65137350
_cell_formula_units_Z   2
loop_
 _symmetry_equiv_pos_site_id
 _symmetry_equiv_pos_as_xyz
  1  'x, y, z'
loop_
 _atom_site_type_symbol
 _atom_site_label
 _atom_site_symmetry_multiplicity
 _atom_site_fract_x
 _atom_site_fract_y
 _atom_site_fract_z
 _atom_site_occupancy
  Sr  Sr0  1  0.48741675  0.75000000  0.23741675  1
  Sr  Sr1  1  0.51258325  0.25000000  0.76258325  1
  Zr  Zr2  1  0.00000000  0.50000000  0.50000000  1
  Zr  Zr3  1  0.00000000  0.00000000  0.00000000  1
  O  O4  1  0.91379014  0.75000000  0.66379014  1
  O  O5  1  0.08620986  0.25000000  0.33620986  1
  O  O6  1  0.50000000  0.20194259  0.20194259  1
  O  O7  1  -0.00000000  0.29805741  0.79805741  1
  O  O8  1  0.00000000  0.70194259  0.20194259  1
  O  O9  1  0.50000000  0.79805741  0.79805741  1
