# generated using pymatgen
data_LiMg5
_symmetry_space_group_name_H-M   'P 1'
_cell_length_a   11.44066787
_cell_length_b   3.23322690
_cell_length_c   7.44423146
_cell_angle_alpha   90.00000000
_cell_angle_beta   104.58561436
_cell_angle_gamma   90.00000000
_symmetry_Int_Tables_number   1
_chemical_formula_structural   LiMg5
_chemical_formula_sum   'Li2 Mg10'
_cell_volume   266.48985126
_cell_formula_units_Z   2
loop_
 _symmetry_equiv_pos_site_id
 _symmetry_equiv_pos_as_xyz
  1  'x, y, z'
loop_
 _atom_site_type_symbol
 _atom_site_label
 _atom_site_symmetry_multiplicity
 _atom_site_fract_x
 _atom_site_fract_y
 _atom_site_fract_z
 _atom_site_occupancy
  Li  Li0  1  0.38896294  0.00000000  0.27780366  1
  Li  Li1  1  0.88896294  0.50000000  0.27780366  1
  Mg  Mg2  1  0.99966303  -0.00000000  0.00391129  1
  Mg  Mg3  1  0.16777762  0.50000000  0.33318979  1
  Mg  Mg4  1  0.05405841  -0.00000000  0.60747637  1
  Mg  Mg5  1  0.33373196  -0.00000000  0.66537960  1
  Mg  Mg6  1  0.22247304  0.50000000  0.94557228  1
  Mg  Mg7  1  0.49966303  0.50000000  0.00391129  1
  Mg  Mg8  1  0.66777762  0.00000000  0.33318979  1
  Mg  Mg9  1  0.55405841  0.50000000  0.60747637  1
  Mg  Mg10  1  0.83373196  0.50000000  0.66537960  1
  Mg  Mg11  1  0.72247304  -0.00000000  0.94557228  1
