# generated using pymatgen
data_Mn2Fe3Co3O16
_symmetry_space_group_name_H-M   'P 1'
_cell_length_a   5.77126701
_cell_length_b   5.75299847
_cell_length_c   8.85412488
_cell_angle_alpha   89.97302783
_cell_angle_beta   91.77250040
_cell_angle_gamma   119.90565995
_symmetry_Int_Tables_number   1
_chemical_formula_structural   Mn2Fe3Co3O16
_chemical_formula_sum   'Mn2 Fe3 Co3 O16'
_cell_volume   254.67203312
_cell_formula_units_Z   1
loop_
 _symmetry_equiv_pos_site_id
 _symmetry_equiv_pos_as_xyz
  1  'x, y, z'
loop_
 _atom_site_type_symbol
 _atom_site_label
 _atom_site_symmetry_multiplicity
 _atom_site_fract_x
 _atom_site_fract_y
 _atom_site_fract_z
 _atom_site_occupancy
  Mn  Mn0  1  0.33384245  0.66684496  0.48335100  1
  Mn  Mn1  1  0.66188124  0.33090965  0.98500725  1
  Fe  Fe2  1  0.66922147  0.83462860  0.21041646  1
  Fe  Fe3  1  0.83785925  0.66847789  0.70965494  1
  Fe  Fe4  1  0.83774570  0.16935757  0.70965423  1
  Co  Co5  1  0.16794817  0.83356343  0.20853797  1
  Co  Co6  1  0.16800850  0.33447643  0.20853190  1
  Co  Co7  1  0.33766671  0.16884898  0.70721712  1
  O  O8  1  0.17628316  0.83897737  0.60015252  1
  O  O9  1  0.04277359  0.52120398  0.32965843  1
  O  O10  1  0.32718529  0.66370305  0.10152549  1
  O  O11  1  0.01076849  0.00528783  0.31648566  1
  O  O12  1  0.01769505  0.00848974  0.81549813  1
  O  O13  1  0.17618817  0.33730822  0.60037766  1
  O  O14  1  0.47159820  0.95852329  0.34034159  1
  O  O15  1  0.47175690  0.51330987  0.34021368  1
  O  O16  1  0.32614295  0.16316184  0.10995921  1
  O  O17  1  0.66053296  0.83017951  0.59960919  1
  O  O18  1  0.50698957  0.46717418  0.84270833  1
  O  O19  1  0.50710654  0.03979790  0.84261333  1
  O  O20  1  0.65724513  0.32907406  0.59871010  1
  O  O21  1  0.83896841  0.66985013  0.10181249  1
  O  O22  1  0.95567985  0.47806444  0.85180505  1
  O  O23  1  0.83891125  0.16898706  0.10187826  1
