# generated using pymatgen
data_Na4Mn9O18
_symmetry_space_group_name_H-M   'P 1'
_cell_length_a   2.92020034
_cell_length_b   9.22362489
_cell_length_c   26.52522403
_cell_angle_alpha   90.00000000
_cell_angle_beta   90.00000000
_cell_angle_gamma   90.00000000
_symmetry_Int_Tables_number   1
_chemical_formula_structural   Na4Mn9O18
_chemical_formula_sum   'Na8 Mn18 O36'
_cell_volume   714.45246733
_cell_formula_units_Z   2
loop_
 _symmetry_equiv_pos_site_id
 _symmetry_equiv_pos_as_xyz
  1  'x, y, z'
loop_
 _atom_site_type_symbol
 _atom_site_label
 _atom_site_symmetry_multiplicity
 _atom_site_fract_x
 _atom_site_fract_y
 _atom_site_fract_z
 _atom_site_occupancy
  Na  Na0  1  0.00000000  0.71921527  0.29742344  1
  Na  Na1  1  -0.00000000  0.28372584  0.70602450  1
  Na  Na2  1  0.00000000  0.21627416  0.20602450  1
  Na  Na3  1  -0.00000000  0.78078473  0.79742344  1
  Na  Na4  1  0.50000000  0.71407604  0.07911597  1
  Na  Na5  1  0.50000000  0.78592396  0.57911597  1
  Na  Na6  1  -0.00000000  0.37307781  0.49766658  1
  Na  Na7  1  -0.00000000  0.12692219  0.99766658  1
  Mn  Mn8  1  0.00000000  0.53771700  0.19549377  1
  Mn  Mn9  1  0.00000000  0.45753493  0.80842780  1
  Mn  Mn10  1  -0.00000000  0.04246507  0.30842780  1
  Mn  Mn11  1  -0.00000000  0.96228300  0.69549377  1
  Mn  Mn12  1  0.50000000  0.85671889  0.41332623  1
  Mn  Mn13  1  0.50000000  0.13731240  0.58849680  1
  Mn  Mn14  1  0.50000000  0.36268760  0.08849680  1
  Mn  Mn15  1  0.50000000  0.64328111  0.91332623  1
  Mn  Mn16  1  0.00000000  0.49266520  0.99872165  1
  Mn  Mn17  1  0.00000000  0.00733480  0.49872165  1
  Mn  Mn18  1  0.50000000  0.86530689  0.19319002  1
  Mn  Mn19  1  0.50000000  0.13327594  0.80790242  1
  Mn  Mn20  1  0.50000000  0.36672406  0.30790242  1
  Mn  Mn21  1  0.50000000  0.63469311  0.69319002  1
  Mn  Mn22  1  -0.00000000  0.51854119  0.39041547  1
  Mn  Mn23  1  0.00000000  0.47786182  0.61071690  1
  Mn  Mn24  1  -0.00000000  0.02213818  0.11071690  1
  Mn  Mn25  1  0.00000000  0.98145881  0.89041547  1
  O  O26  1  0.50000000  0.86983092  0.49682590  1
  O  O27  1  0.50000000  0.14716505  0.50543749  1
  O  O28  1  0.50000000  0.35283495  0.00543749  1
  O  O29  1  0.50000000  0.63016908  0.99682590  1
  O  O30  1  0.00000000  0.72319966  0.40292192  1
  O  O31  1  -0.00000000  0.27549310  0.59344697  1
  O  O32  1  0.00000000  0.22450690  0.09344697  1
  O  O33  1  -0.00000000  0.77680034  0.90292192  1
  O  O34  1  0.50000000  0.55472155  0.34032899  1
  O  O35  1  0.50000000  0.44429134  0.66050676  1
  O  O36  1  0.50000000  0.05570866  0.16050676  1
  O  O37  1  0.50000000  0.94527845  0.84032899  1
  O  O38  1  0.50000000  0.92358547  0.33340762  1
  O  O39  1  0.50000000  0.07560387  0.66649618  1
  O  O40  1  0.50000000  0.42439613  0.16649618  1
  O  O41  1  0.50000000  0.57641453  0.83340762  1
  O  O42  1  0.50000000  0.66767615  0.21808415  1
  O  O43  1  0.50000000  0.33224354  0.78324147  1
  O  O44  1  0.50000000  0.16775646  0.28324147  1
  O  O45  1  0.50000000  0.83232385  0.71808415  1
  O  O46  1  0.00000000  0.91797584  0.23661480  1
  O  O47  1  -0.00000000  0.08201596  0.76354789  1
  O  O48  1  0.00000000  0.41798404  0.26354789  1
  O  O49  1  -0.00000000  0.58202416  0.73661480  1
  O  O50  1  -0.00000000  0.82237224  0.14402565  1
  O  O51  1  -0.00000000  0.17345852  0.85477452  1
  O  O52  1  0.00000000  0.32654148  0.35477452  1
  O  O53  1  0.00000000  0.67762776  0.64402565  1
  O  O54  1  -0.00000000  0.99589535  0.42645836  1
  O  O55  1  0.00000000  0.99698246  0.57415149  1
  O  O56  1  -0.00000000  0.50301754  0.07415149  1
  O  O57  1  0.00000000  0.50410465  0.92645836  1
  O  O58  1  0.50000000  0.97741295  0.06708790  1
  O  O59  1  0.50000000  0.02706122  0.93302040  1
  O  O60  1  0.50000000  0.47293878  0.43302040  1
  O  O61  1  0.50000000  0.52258705  0.56708790  1
