# generated using pymatgen
data_Er2NiAs2
_symmetry_space_group_name_H-M   'P 1'
_cell_length_a   4.06365374
_cell_length_b   4.06365374
_cell_length_c   14.16822117
_cell_angle_alpha   90.00000000
_cell_angle_beta   90.00000000
_cell_angle_gamma   120.01895025
_symmetry_Int_Tables_number   1
_chemical_formula_structural   Er2NiAs2
_chemical_formula_sum   'Er4 Ni2 As4'
_cell_volume   202.57991608
_cell_formula_units_Z   2
loop_
 _symmetry_equiv_pos_site_id
 _symmetry_equiv_pos_as_xyz
  1  'x, y, z'
loop_
 _atom_site_type_symbol
 _atom_site_label
 _atom_site_symmetry_multiplicity
 _atom_site_fract_x
 _atom_site_fract_y
 _atom_site_fract_z
 _atom_site_occupancy
  Er  Er0  1  0.66672635  0.33327365  0.61733695  1
  Er  Er1  1  0.33327365  0.66672635  0.38266305  1
  Er  Er2  1  0.33327365  0.66672635  0.11733695  1
  Er  Er3  1  0.66672635  0.33327365  0.88266305  1
  Ni  Ni4  1  0.00003042  0.99996958  0.75000000  1
  Ni  Ni5  1  0.99996958  0.00003042  0.25000000  1
  As  As6  1  -0.00000000  0.00000000  0.50000000  1
  As  As7  1  -0.00000000  0.00000000  -0.00000000  1
  As  As8  1  0.66672666  0.33327334  0.25000000  1
  As  As9  1  0.33327334  0.66672666  0.75000000  1
