# generated using pymatgen
data_EuInPd
_symmetry_space_group_name_H-M   'P 1'
_cell_length_a   4.29366705
_cell_length_b   7.65365435
_cell_length_c   7.65278954
_cell_angle_alpha   120.00373850
_cell_angle_beta   90.00000000
_cell_angle_gamma   90.00000000
_symmetry_Int_Tables_number   1
_chemical_formula_structural   EuInPd
_chemical_formula_sum   'Eu3 In3 Pd3'
_cell_volume   217.78664736
_cell_formula_units_Z   3
loop_
 _symmetry_equiv_pos_site_id
 _symmetry_equiv_pos_as_xyz
  1  'x, y, z'
loop_
 _atom_site_type_symbol
 _atom_site_label
 _atom_site_symmetry_multiplicity
 _atom_site_fract_x
 _atom_site_fract_y
 _atom_site_fract_z
 _atom_site_occupancy
  Eu  Eu0  1  0.50000000  0.58914065  1.00000000  1
  Eu  Eu1  1  0.50000000  0.41073041  0.41069442  1
  Eu  Eu2  1  0.50000000  0.00003599  0.58930558  1
  In  In3  1  -0.00000000  0.24778805  1.00000000  1
  In  In4  1  -0.00000000  0.75228429  0.75233673  1
  In  In5  1  -0.00000000  0.99994757  0.24766327  1
  Pd  Pd6  1  -0.00000000  0.33324530  0.66656946  1
  Pd  Pd7  1  -0.00000000  0.66667584  0.33343054  1
  Pd  Pd8  1  0.50000000  0.00005190  -0.00000000  1
