# generated using pymatgen
data_Li5Nb2Ni5O12
_symmetry_space_group_name_H-M   'P 1'
_cell_length_a   9.91434390
_cell_length_b   9.47670528
_cell_length_c   5.14238761
_cell_angle_alpha   79.39049892
_cell_angle_beta   69.90362118
_cell_angle_gamma   30.80606996
_symmetry_Int_Tables_number   1
_chemical_formula_structural   Li5Nb2Ni5O12
_chemical_formula_sum   'Li5 Nb2 Ni5 O12'
_cell_volume   226.10066001
_cell_formula_units_Z   1
loop_
 _symmetry_equiv_pos_site_id
 _symmetry_equiv_pos_as_xyz
  1  'x, y, z'
loop_
 _atom_site_type_symbol
 _atom_site_label
 _atom_site_symmetry_multiplicity
 _atom_site_fract_x
 _atom_site_fract_y
 _atom_site_fract_z
 _atom_site_occupancy
  Li  Li0  1  0.70612691  0.70915857  0.04348106  1
  Li  Li1  1  0.29116712  0.29477832  0.95757462  1
  Li  Li2  1  0.62218523  0.62572291  0.62840741  1
  Li  Li3  1  0.46237836  0.46829447  0.78703742  1
  Li  Li4  1  0.95603409  0.96322058  0.29182011  1
  Nb  Nb5  1  0.12535108  0.12956878  0.12437080  1
  Nb  Nb6  1  0.87326063  0.87694197  0.87568727  1
  Ni  Ni7  1  0.03910575  0.04198101  0.71065479  1
  Ni  Ni8  1  0.53664049  0.54061586  0.21232195  1
  Ni  Ni9  1  0.37398437  0.37825002  0.37471849  1
  Ni  Ni10  1  0.20977424  0.21339167  0.53972800  1
  Ni  Ni11  1  0.78583552  0.78950826  0.46336585  1
  O  O12  1  0.70530110  0.21036415  0.03811091  1
  O  O13  1  0.54015727  0.04742840  0.21544862  1
  O  O14  1  0.96447204  0.44725560  0.29232333  1
  O  O15  1  0.80480478  0.28794399  0.44230256  1
  O  O16  1  0.10677532  0.63963490  0.12173539  1
  O  O17  1  0.63612078  0.11002276  0.63333680  1
  O  O18  1  0.87983713  0.36692583  0.88074046  1
  O  O19  1  0.36416532  0.88274114  0.37440075  1
  O  O20  1  0.20673884  0.70908381  0.54762182  1
  O  O21  1  0.04339075  0.54405328  0.69930005  1
  O  O22  1  0.28367659  0.80915770  0.96793965  1
  O  O23  1  0.44328830  0.96846401  0.79904589  1
