# generated using pymatgen
data_Ba7Sn3S13
_symmetry_space_group_name_H-M   'P 1'
_cell_length_a   9.03606428
_cell_length_b   12.47045666
_cell_length_c   24.41472767
_cell_angle_alpha   90.00000000
_cell_angle_beta   90.00000000
_cell_angle_gamma   90.00000000
_symmetry_Int_Tables_number   1
_chemical_formula_structural   Ba7Sn3S13
_chemical_formula_sum   'Ba28 Sn12 S52'
_cell_volume   2751.14546126
_cell_formula_units_Z   4
loop_
 _symmetry_equiv_pos_site_id
 _symmetry_equiv_pos_as_xyz
  1  'x, y, z'
loop_
 _atom_site_type_symbol
 _atom_site_label
 _atom_site_symmetry_multiplicity
 _atom_site_fract_x
 _atom_site_fract_y
 _atom_site_fract_z
 _atom_site_occupancy
  Ba  Ba0  1  0.11825723  0.68805396  0.53290784  1
  Ba  Ba1  1  0.38174277  0.18805396  0.96709216  1
  Ba  Ba2  1  0.88174277  0.31194604  0.03290784  1
  Ba  Ba3  1  0.61825723  0.81194604  0.46709216  1
  Ba  Ba4  1  0.88174277  0.31194604  0.46709216  1
  Ba  Ba5  1  0.61825723  0.81194604  0.03290784  1
  Ba  Ba6  1  0.11825723  0.68805396  0.96709216  1
  Ba  Ba7  1  0.38174277  0.18805396  0.53290784  1
  Ba  Ba8  1  0.60310334  0.84277318  0.65502935  1
  Ba  Ba9  1  0.89689666  0.34277318  0.84497065  1
  Ba  Ba10  1  0.39689666  0.15722682  0.15502935  1
  Ba  Ba11  1  0.10310334  0.65722682  0.34497065  1
  Ba  Ba12  1  0.39689666  0.15722682  0.34497065  1
  Ba  Ba13  1  0.10310334  0.65722682  0.15502935  1
  Ba  Ba14  1  0.60310334  0.84277318  0.84497065  1
  Ba  Ba15  1  0.89689666  0.34277318  0.65502935  1
  Ba  Ba16  1  0.89592472  0.64434398  0.75000000  1
  Ba  Ba17  1  0.60407528  0.14434398  0.75000000  1
  Ba  Ba18  1  0.10407528  0.35565602  0.25000000  1
  Ba  Ba19  1  0.39592472  0.85565602  0.25000000  1
  Ba  Ba20  1  0.40978197  0.47777736  0.65808782  1
  Ba  Ba21  1  0.09021803  0.97777736  0.84191218  1
  Ba  Ba22  1  0.59021803  0.52222264  0.15808782  1
  Ba  Ba23  1  0.90978197  0.02222264  0.34191218  1
  Ba  Ba24  1  0.59021803  0.52222264  0.34191218  1
  Ba  Ba25  1  0.90978197  0.02222264  0.15808782  1
  Ba  Ba26  1  0.40978197  0.47777736  0.84191218  1
  Ba  Ba27  1  0.09021803  0.97777736  0.65808782  1
  Sn  Sn28  1  0.30571761  0.75732595  0.75000000  1
  Sn  Sn29  1  0.19428239  0.25732595  0.75000000  1
  Sn  Sn30  1  0.69428239  0.24267405  0.25000000  1
  Sn  Sn31  1  0.80571761  0.74267405  0.25000000  1
  Sn  Sn32  1  0.69925190  0.54858528  0.55165615  1
  Sn  Sn33  1  0.80074810  0.04858528  0.94834385  1
  Sn  Sn34  1  0.30074810  0.45141472  0.05165615  1
  Sn  Sn35  1  0.19925190  0.95141472  0.44834385  1
  Sn  Sn36  1  0.30074810  0.45141472  0.44834385  1
  Sn  Sn37  1  0.19925190  0.95141472  0.05165615  1
  Sn  Sn38  1  0.69925190  0.54858528  0.94834385  1
  Sn  Sn39  1  0.80074810  0.04858528  0.55165615  1
  S  S40  1  0.14136155  0.44898082  0.75000000  1
  S  S41  1  0.35863845  0.94898082  0.75000000  1
  S  S42  1  0.85863845  0.55101918  0.25000000  1
  S  S43  1  0.64136155  0.05101918  0.25000000  1
  S  S44  1  0.35940945  0.63722056  0.42838081  1
  S  S45  1  0.14059055  0.13722056  0.07161919  1
  S  S46  1  0.64059055  0.36277944  0.92838081  1
  S  S47  1  0.85940945  0.86277944  0.57161919  1
  S  S48  1  0.64059055  0.36277944  0.57161919  1
  S  S49  1  0.85940945  0.86277944  0.92838081  1
  S  S50  1  0.35940945  0.63722056  0.07161919  1
  S  S51  1  0.14059055  0.13722056  0.42838081  1
  S  S52  1  0.49076108  0.66314360  0.57076154  1
  S  S53  1  0.00923892  0.16314360  0.92923846  1
  S  S54  1  0.50923892  0.33685640  0.07076154  1
  S  S55  1  0.99076108  0.83685640  0.42923846  1
  S  S56  1  0.50923892  0.33685640  0.42923846  1
  S  S57  1  0.99076108  0.83685640  0.07076154  1
  S  S58  1  0.49076108  0.66314360  0.92923846  1
  S  S59  1  0.00923892  0.16314360  0.57076154  1
  S  S60  1  0.53083040  0.65251345  0.75000000  1
  S  S61  1  0.96916960  0.15251345  0.75000000  1
  S  S62  1  0.46916960  0.34748655  0.25000000  1
  S  S63  1  0.03083040  0.84748655  0.25000000  1
  S  S64  1  0.17321688  0.72010819  0.66852844  1
  S  S65  1  0.32678312  0.22010819  0.83147156  1
  S  S66  1  0.82678312  0.27989181  0.16852844  1
  S  S67  1  0.67321688  0.77989181  0.33147156  1
  S  S68  1  0.82678312  0.27989181  0.33147156  1
  S  S69  1  0.67321688  0.77989181  0.16852844  1
  S  S70  1  0.17321688  0.72010819  0.83147156  1
  S  S71  1  0.32678312  0.22010819  0.66852844  1
  S  S72  1  0.88314036  0.58926901  0.62043780  1
  S  S73  1  0.61685964  0.08926901  0.87956220  1
  S  S74  1  0.11685964  0.41073099  0.12043780  1
  S  S75  1  0.38314036  0.91073099  0.37956220  1
  S  S76  1  0.11685964  0.41073099  0.37956220  1
  S  S77  1  0.38314036  0.91073099  0.12043780  1
  S  S78  1  0.88314036  0.58926901  0.87956220  1
  S  S79  1  0.61685964  0.08926901  0.62043780  1
  S  S80  1  0.80981427  0.57764444  0.46296533  1
  S  S81  1  0.69018573  0.07764444  0.03703467  1
  S  S82  1  0.19018573  0.42235556  0.96296533  1
  S  S83  1  0.30981427  0.92235556  0.53703467  1
  S  S84  1  0.19018573  0.42235556  0.53703467  1
  S  S85  1  0.30981427  0.92235556  0.96296533  1
  S  S86  1  0.80981427  0.57764444  0.03703467  1
  S  S87  1  0.69018573  0.07764444  0.46296533  1
  S  S88  1  0.67252326  0.39427975  0.75000000  1
  S  S89  1  0.82747674  0.89427975  0.75000000  1
  S  S90  1  0.32747674  0.60572025  0.25000000  1
  S  S91  1  0.17252326  0.10572025  0.25000000  1
