# generated using pymatgen
data_Zr3Al3Ni3H2
_symmetry_space_group_name_H-M   'P 1'
_cell_length_a   3.71337437
_cell_length_b   6.75633317
_cell_length_c   6.75698059
_cell_angle_alpha   119.99682905
_cell_angle_beta   90.00000000
_cell_angle_gamma   90.00000000
_symmetry_Int_Tables_number   1
_chemical_formula_structural   Zr3Al3Ni3H2
_chemical_formula_sum   'Zr3 Al3 Ni3 H2'
_cell_volume   146.81721179
_cell_formula_units_Z   1
loop_
 _symmetry_equiv_pos_site_id
 _symmetry_equiv_pos_as_xyz
  1  'x, y, z'
loop_
 _atom_site_type_symbol
 _atom_site_label
 _atom_site_symmetry_multiplicity
 _atom_site_fract_x
 _atom_site_fract_y
 _atom_site_fract_z
 _atom_site_occupancy
  Zr  Zr0  1  0.50000000  0.59397403  0.00000000  1
  Zr  Zr1  1  0.50000000  0.40602408  0.40602081  1
  Zr  Zr2  1  0.50000000  0.00000327  0.59397919  1
  Al  Al3  1  -0.00000000  0.24705880  1.00000000  1
  Al  Al4  1  -0.00000000  0.75292534  0.75291117  1
  Al  Al5  1  -0.00000000  0.00001417  0.24708883  1
  Ni  Ni6  1  0.50000000  0.00001527  1.00000000  1
  Ni  Ni7  1  -0.00000000  0.33329759  0.66670285  1
  Ni  Ni8  1  -0.00000000  0.66659474  0.33329715  1
  H  H9  1  0.50000000  0.66670341  0.33331409  1
  H  H10  1  0.50000000  0.33338932  0.66668591  1
