# generated using pymatgen
data_Tb2(NiB2)3
_symmetry_space_group_name_H-M   'P 1'
_cell_length_a   3.48907356
_cell_length_b   5.81126622
_cell_length_c   5.81126622
_cell_angle_alpha   96.62807358
_cell_angle_beta   90.00000000
_cell_angle_gamma   90.00000000
_symmetry_Int_Tables_number   1
_chemical_formula_structural   Tb2(NiB2)3
_chemical_formula_sum   'Tb2 Ni3 B6'
_cell_volume   117.04132878
_cell_formula_units_Z   1
loop_
 _symmetry_equiv_pos_site_id
 _symmetry_equiv_pos_as_xyz
  1  'x, y, z'
loop_
 _atom_site_type_symbol
 _atom_site_label
 _atom_site_symmetry_multiplicity
 _atom_site_fract_x
 _atom_site_fract_y
 _atom_site_fract_z
 _atom_site_occupancy
  Tb  Tb0  1  0.00000000  0.27548112  0.72451888  1
  Tb  Tb1  1  0.00000000  0.72451888  0.27548112  1
  Ni  Ni2  1  0.50000000  0.00000000  0.00000000  1
  Ni  Ni3  1  -0.00000000  0.77321323  0.77321323  1
  Ni  Ni4  1  -0.00000000  0.22678677  0.22678677  1
  B  B5  1  0.50000000  0.91448521  0.61466063  1
  B  B6  1  0.50000000  0.08551479  0.38533937  1
  B  B7  1  0.50000000  0.61466063  0.91448521  1
  B  B8  1  0.50000000  0.38533937  0.08551479  1
  B  B9  1  0.50000000  0.61323677  0.61323677  1
  B  B10  1  0.50000000  0.38676323  0.38676323  1
