# generated using pymatgen
data_MgCd2
_symmetry_space_group_name_H-M   'P 1'
_cell_length_a   3.21565608
_cell_length_b   16.18433572
_cell_length_c   5.10857689
_cell_angle_alpha   90.00000000
_cell_angle_beta   90.00000000
_cell_angle_gamma   90.00000000
_symmetry_Int_Tables_number   1
_chemical_formula_structural   MgCd2
_chemical_formula_sum   'Mg4 Cd8'
_cell_volume   265.86698285
_cell_formula_units_Z   4
loop_
 _symmetry_equiv_pos_site_id
 _symmetry_equiv_pos_as_xyz
  1  'x, y, z'
loop_
 _atom_site_type_symbol
 _atom_site_label
 _atom_site_symmetry_multiplicity
 _atom_site_fract_x
 _atom_site_fract_y
 _atom_site_fract_z
 _atom_site_occupancy
  Mg  Mg0  1  0.50000000  0.05759001  0.25000000  1
  Mg  Mg1  1  0.00000000  0.44240999  0.75000000  1
  Mg  Mg2  1  -0.00000000  0.55759001  0.25000000  1
  Mg  Mg3  1  0.50000000  0.94240999  0.75000000  1
  Cd  Cd4  1  0.50000000  0.39181288  0.25000000  1
  Cd  Cd5  1  -0.00000000  0.22106654  0.25000000  1
  Cd  Cd6  1  0.50000000  0.27893346  0.75000000  1
  Cd  Cd7  1  0.00000000  0.10818712  0.75000000  1
  Cd  Cd8  1  -0.00000000  0.89181288  0.25000000  1
  Cd  Cd9  1  0.50000000  0.72106654  0.25000000  1
  Cd  Cd10  1  0.00000000  0.77893346  0.75000000  1
  Cd  Cd11  1  0.50000000  0.60818712  0.75000000  1
