# generated using pymatgen
data_Mo2(PO4)3
_symmetry_space_group_name_H-M   'P 1'
_cell_length_a   8.83649314
_cell_length_b   8.82231292
_cell_length_c   8.83649391
_cell_angle_alpha   89.76053673
_cell_angle_beta   60.03206786
_cell_angle_gamma   119.80896807
_symmetry_Int_Tables_number   1
_chemical_formula_structural   Mo2(PO4)3
_chemical_formula_sum   'Mo4 P6 O24'
_cell_volume   487.73024474
_cell_formula_units_Z   2
loop_
 _symmetry_equiv_pos_site_id
 _symmetry_equiv_pos_as_xyz
  1  'x, y, z'
loop_
 _atom_site_type_symbol
 _atom_site_label
 _atom_site_symmetry_multiplicity
 _atom_site_fract_x
 _atom_site_fract_y
 _atom_site_fract_z
 _atom_site_occupancy
  Mo  Mo0  1  0.28062225  0.42119526  0.86101512  1
  Mo  Mo1  1  0.71779062  0.07880474  0.64057201  1
  Mo  Mo2  1  0.72075491  0.58064126  0.13857566  1
  Mo  Mo3  1  0.28078308  0.91935874  0.35988535  1
  P  P4  1  0.21218146  0.25081191  0.25040728  1
  P  P5  1  0.49878181  0.24918809  0.53863044  1
  P  P6  1  0.21129505  0.75000000  0.03870495  1
  P  P7  1  0.78899455  0.25000000  0.96100545  1
  P  P8  1  0.78805441  0.74982250  0.74953020  1
  P  P9  1  0.50064630  0.75017750  0.46176809  1
  O  O10  1  0.66231066  0.74710620  0.28391609  1
  O  O11  1  0.36412085  0.07325730  0.51387263  1
  O  O12  1  0.34772254  0.26212538  0.72264509  1
  O  O13  1  0.57415266  0.57422615  0.79787632  1
  O  O14  1  0.01522952  0.23787462  0.41440284  1
  O  O15  1  0.65852115  0.24126138  0.56194050  1
  O  O16  1  0.41287006  0.42674270  0.20913645  1
  O  O17  1  0.42613572  0.92696758  0.87238279  1
  O  O18  1  0.33963124  0.75420581  0.44191046  1
  O  O19  1  0.20064864  0.57303242  0.00083186  1
  O  O20  1  0.63139910  0.42583249  0.37577174  1
  O  O21  1  0.03246610  0.74907325  0.05287975  1
  O  O22  1  0.79715672  0.92548907  0.70448949  1
  O  O23  1  0.80242505  0.42505137  0.99057960  1
  O  O24  1  0.37002144  0.57451093  0.62833135  1
  O  O25  1  0.19804700  0.75092675  0.21660715  1
  O  O26  1  0.80388374  0.74579419  0.91457456  1
  O  O27  1  0.98350388  0.26141348  0.93304418  1
  O  O28  1  0.19679812  0.25873862  0.08274023  1
  O  O29  1  0.58436903  0.07494863  0.12262633  1
  O  O30  1  0.96897771  0.75289380  0.58479554  1
  O  O31  1  0.62789753  0.92577385  0.50007350  1
  O  O32  1  0.80554234  0.23858652  0.77790959  1
  O  O33  1  0.19839577  0.07416751  0.29443339  1
