# generated using pymatgen
data_Li7V8(PO4)12
_symmetry_space_group_name_H-M   'P 1'
_cell_length_a   8.53116680
_cell_length_b   8.71926377
_cell_length_c   12.07603213
_cell_angle_alpha   90.26103310
_cell_angle_beta   89.75097350
_cell_angle_gamma   89.41715109
_symmetry_Int_Tables_number   1
_chemical_formula_structural   Li7V8(PO4)12
_chemical_formula_sum   'Li7 V8 P12 O48'
_cell_volume   898.21714397
_cell_formula_units_Z   1
loop_
 _symmetry_equiv_pos_site_id
 _symmetry_equiv_pos_as_xyz
  1  'x, y, z'
loop_
 _atom_site_type_symbol
 _atom_site_label
 _atom_site_symmetry_multiplicity
 _atom_site_fract_x
 _atom_site_fract_y
 _atom_site_fract_z
 _atom_site_occupancy
  Li  Li0  1  0.69689987  0.77949144  0.32301525  1
  Li  Li1  1  0.20352404  0.71538929  0.82391124  1
  Li  Li2  1  0.79971341  0.28256733  0.17786739  1
  Li  Li3  1  0.76771701  0.22268133  0.82025575  1
  Li  Li4  1  0.73184488  0.71888049  0.67751304  1
  Li  Li5  1  0.30005457  0.21505850  0.67677480  1
  Li  Li6  1  0.26588230  0.27920701  0.31494301  1
  V  V7  1  0.75389915  0.45803850  0.38732252  1
  V  V8  1  0.74792126  0.96049521  0.11539266  1
  V  V9  1  0.24946090  0.96235895  0.38041134  1
  V  V10  1  0.74698971  0.53758951  0.88394770  1
  V  V11  1  0.24533637  0.53864451  0.61169439  1
  V  V12  1  0.25180419  0.03628568  0.88836682  1
  V  V13  1  0.75217952  0.03459687  0.61585879  1
  V  V14  1  0.25226663  0.47588153  0.11340638  1
  P  P15  1  0.96203127  0.74948990  0.49560724  1
  P  P16  1  0.53420691  0.24881806  0.00390903  1
  P  P17  1  0.03819894  0.24952139  0.50315625  1
  P  P18  1  0.89402259  0.89231875  0.85540944  1
  P  P19  1  0.46312169  0.75141400  0.99951421  1
  P  P20  1  0.10859716  0.39171284  0.85205018  1
  P  P21  1  0.39134083  0.88945213  0.64684276  1
  P  P22  1  0.10642458  0.11221911  0.14352554  1
  P  P23  1  0.60264398  0.39172643  0.64441178  1
  P  P24  1  0.39700397  0.60765467  0.35359265  1
  P  P25  1  0.60743236  0.10997563  0.35403047  1
  P  P26  1  0.89208245  0.60651615  0.14707701  1
  O  O27  1  0.66014822  0.98745587  0.26580333  1
  O  O28  1  0.55740564  0.66494188  0.91162943  1
  O  O29  1  0.42806725  0.34274456  0.08479401  1
  O  O30  1  0.81489580  0.55710351  0.04014277  1
  O  O31  1  0.38757551  0.64625842  0.08620338  1
  O  O32  1  0.88312629  0.84454656  0.58847183  1
  O  O33  1  0.11769993  0.15613017  0.41033575  1
  O  O34  1  0.31698919  0.95280672  0.54186948  1
  O  O35  1  0.85183441  0.72670605  0.82134908  1
  O  O36  1  0.35577868  0.56736508  0.47395852  1
  O  O37  1  0.07456020  0.60263739  0.13665622  1
  O  O38  1  0.61931298  0.34658494  0.91758107  1
  O  O39  1  0.34461344  0.00620991  0.74225522  1
  O  O40  1  0.18413454  0.45168134  0.95919289  1
  O  O41  1  0.32856496  0.83590586  0.93731332  1
  O  O42  1  0.57153547  0.87707095  0.64264981  1
  O  O43  1  0.15131287  0.51236912  0.76210180  1
  O  O44  1  0.92646877  0.08841102  0.15994315  1
  O  O45  1  0.80653198  0.01060646  0.78289075  1
  O  O46  1  0.92804478  0.38050971  0.86082254  1
  O  O47  1  0.17648714  0.23266617  0.81739186  1
  O  O48  1  0.93947636  0.16337888  0.58634562  1
  O  O49  1  0.37258019  0.77767565  0.32944282  1
  O  O50  1  0.57675082  0.57626836  0.33452210  1
  O  O51  1  0.69372034  0.50688331  0.71673248  1
  O  O52  1  0.63986068  0.41626404  0.52156815  1
  O  O53  1  0.83594266  0.76911563  0.18389680  1
  O  O54  1  0.93538814  0.37249670  0.44121915  1
  O  O55  1  0.84765618  0.48793533  0.23726903  1
  O  O56  1  0.05880623  0.83902515  0.41290193  1
  O  O57  1  0.20225182  0.00722826  0.21725925  1
  O  O58  1  0.82799180  0.66595717  0.43414102  1
  O  O59  1  0.67330511  0.05426371  0.46402972  1
  O  O60  1  0.14411030  0.07940762  0.01904132  1
  O  O61  1  0.56538072  0.86663812  0.06610465  1
  O  O62  1  0.42256575  0.41654681  0.66362937  1
  O  O63  1  0.30646719  0.49575746  0.27615112  1
  O  O64  1  0.13791908  0.28450424  0.16848741  1
  O  O65  1  0.07385143  0.90627850  0.83800100  1
  O  O66  1  0.43992505  0.12744446  0.94138739  1
  O  O67  1  0.63850891  0.22532111  0.67967419  1
  O  O68  1  0.66045254  0.16761600  0.07574184  1
  O  O69  1  0.32387347  0.73048161  0.68032527  1
  O  O70  1  0.67956349  0.26624390  0.31830923  1
  O  O71  1  0.16874864  0.33297007  0.56809467  1
  O  O72  1  0.42744976  0.12388506  0.35656736  1
  O  O73  1  0.06428870  0.62768127  0.55838942  1
  O  O74  1  0.85464299  0.92270466  0.97827486  1
