# generated using pymatgen
data_Zr4NbGa3
_symmetry_space_group_name_H-M   'P 1'
_cell_length_a   5.34068060
_cell_length_b   8.10871945
_cell_length_c   8.10871945
_cell_angle_alpha   83.77404019
_cell_angle_beta   70.77266608
_cell_angle_gamma   70.77266608
_symmetry_Int_Tables_number   1
_chemical_formula_structural   Zr4NbGa3
_chemical_formula_sum   'Zr8 Nb2 Ga6'
_cell_volume   313.07397520
_cell_formula_units_Z   2
loop_
 _symmetry_equiv_pos_site_id
 _symmetry_equiv_pos_as_xyz
  1  'x, y, z'
loop_
 _atom_site_type_symbol
 _atom_site_label
 _atom_site_symmetry_multiplicity
 _atom_site_fract_x
 _atom_site_fract_y
 _atom_site_fract_z
 _atom_site_occupancy
  Zr  Zr0  1  0.71985566  0.86135662  0.69893205  1
  Zr  Zr1  1  0.28014434  0.13864338  0.30106795  1
  Zr  Zr2  1  0.78014434  0.30106795  0.13864338  1
  Zr  Zr3  1  0.21985566  0.69893205  0.86135662  1
  Zr  Zr4  1  0.58121229  0.69893205  0.13864338  1
  Zr  Zr5  1  0.41878771  0.30106795  0.86135662  1
  Zr  Zr6  1  0.08121229  0.13864338  0.69893205  1
  Zr  Zr7  1  0.91878771  0.86135662  0.30106795  1
  Nb  Nb8  1  0.75000000  0.50000000  0.50000000  1
  Nb  Nb9  1  0.25000000  0.50000000  0.50000000  1
  Ga  Ga10  1  0.15840899  0.50000000  0.18318201  1
  Ga  Ga11  1  0.84159101  0.50000000  0.81681799  1
  Ga  Ga12  1  0.34159101  0.81681799  0.50000000  1
  Ga  Ga13  1  0.65840899  0.18318201  0.50000000  1
  Ga  Ga14  1  0.25000000  0.00000000  -0.00000000  1
  Ga  Ga15  1  0.75000000  0.00000000  -0.00000000  1
