# generated using pymatgen
data_Dy3Ga8Rh3
_symmetry_space_group_name_H-M   'P 1'
_cell_length_a   4.22554191
_cell_length_b   8.17578939
_cell_length_c   8.17578939
_cell_angle_alpha   74.46507413
_cell_angle_beta   75.02378879
_cell_angle_gamma   75.02378879
_symmetry_Int_Tables_number   1
_chemical_formula_structural   Dy3Ga8Rh3
_chemical_formula_sum   'Dy3 Ga8 Rh3'
_cell_volume   257.39878877
_cell_formula_units_Z   1
loop_
 _symmetry_equiv_pos_site_id
 _symmetry_equiv_pos_as_xyz
  1  'x, y, z'
loop_
 _atom_site_type_symbol
 _atom_site_label
 _atom_site_symmetry_multiplicity
 _atom_site_fract_x
 _atom_site_fract_y
 _atom_site_fract_z
 _atom_site_occupancy
  Dy  Dy0  1  0.50000000  0.50000000  0.50000000  1
  Dy  Dy1  1  0.17058327  0.82941673  0.82941673  1
  Dy  Dy2  1  0.82941673  0.17058327  0.17058327  1
  Ga  Ga3  1  0.37638624  0.33930789  0.90791963  1
  Ga  Ga4  1  0.62361376  0.66069211  0.09208037  1
  Ga  Ga5  1  0.37638624  0.90791963  0.33930789  1
  Ga  Ga6  1  0.62361376  0.09208037  0.66069211  1
  Ga  Ga7  1  0.16754511  0.46137978  0.20353001  1
  Ga  Ga8  1  0.83245489  0.53862022  0.79646999  1
  Ga  Ga9  1  0.16754511  0.20353001  0.46137978  1
  Ga  Ga10  1  0.83245489  0.79646999  0.53862022  1
  Rh  Rh11  1  0.50000000  0.00000000  0.00000000  1
  Rh  Rh12  1  -0.00000000  0.78156334  0.21843666  1
  Rh  Rh13  1  -0.00000000  0.21843666  0.78156334  1
