# generated using pymatgen
data_DyAl3
_symmetry_space_group_name_H-M   'P 1'
_cell_length_a   6.17335986
_cell_length_b   6.17335986
_cell_length_c   7.91527181
_cell_angle_alpha   67.04766889
_cell_angle_beta   67.04766889
_cell_angle_gamma   59.99999190
_symmetry_Int_Tables_number   1
_chemical_formula_structural   DyAl3
_chemical_formula_sum   'Dy3 Al9'
_cell_volume   233.25616823
_cell_formula_units_Z   3
loop_
 _symmetry_equiv_pos_site_id
 _symmetry_equiv_pos_as_xyz
  1  'x, y, z'
loop_
 _atom_site_type_symbol
 _atom_site_label
 _atom_site_symmetry_multiplicity
 _atom_site_fract_x
 _atom_site_fract_y
 _atom_site_fract_z
 _atom_site_occupancy
  Dy  Dy0  1  0.00000000  -0.00000000  0.00000000  1
  Dy  Dy1  1  0.21840733  0.21840733  0.34477801  1
  Dy  Dy2  1  0.78159267  0.78159267  0.65522199  1
  Al  Al3  1  0.50000000  0.50000000  0.00000000  1
  Al  Al4  1  0.50000000  -0.00000000  0.00000000  1
  Al  Al5  1  0.00000000  0.50000000  -0.00000000  1
  Al  Al6  1  0.73767016  0.29680897  0.66871190  1
  Al  Al7  1  0.29680897  0.29680897  0.66871190  1
  Al  Al8  1  0.29680897  0.73767016  0.66871190  1
  Al  Al9  1  0.26232984  0.70319103  0.33128810  1
  Al  Al10  1  0.70319103  0.70319103  0.33128810  1
  Al  Al11  1  0.70319103  0.26232984  0.33128810  1
