# generated using pymatgen
data_Eu2Cu
_symmetry_space_group_name_H-M   'P 1'
_cell_length_a   4.20122296
_cell_length_b   6.09341139
_cell_length_c   14.57615012
_cell_angle_alpha   90.00000000
_cell_angle_beta   90.00000000
_cell_angle_gamma   90.00000000
_symmetry_Int_Tables_number   1
_chemical_formula_structural   Eu2Cu
_chemical_formula_sum   'Eu8 Cu4'
_cell_volume   373.14623393
_cell_formula_units_Z   4
loop_
 _symmetry_equiv_pos_site_id
 _symmetry_equiv_pos_as_xyz
  1  'x, y, z'
loop_
 _atom_site_type_symbol
 _atom_site_label
 _atom_site_symmetry_multiplicity
 _atom_site_fract_x
 _atom_site_fract_y
 _atom_site_fract_z
 _atom_site_occupancy
  Eu  Eu0  1  0.75000000  0.37174726  0.66722281  1
  Eu  Eu1  1  0.75000000  0.87174726  0.83277719  1
  Eu  Eu2  1  0.25000000  0.62825274  0.33277719  1
  Eu  Eu3  1  0.25000000  0.12825274  0.16722281  1
  Eu  Eu4  1  0.75000000  0.63238081  0.09403838  1
  Eu  Eu5  1  0.75000000  0.13238081  0.40596162  1
  Eu  Eu6  1  0.25000000  0.36761919  0.90596162  1
  Eu  Eu7  1  0.25000000  0.86761919  0.59403838  1
  Cu  Cu8  1  0.75000000  0.10979372  0.01527136  1
  Cu  Cu9  1  0.75000000  0.60979372  0.48472864  1
  Cu  Cu10  1  0.25000000  0.89020628  0.98472864  1
  Cu  Cu11  1  0.25000000  0.39020628  0.51527136  1
