# generated using pymatgen
data_CsSn
_symmetry_space_group_name_H-M   'P 1'
_cell_length_a   12.35956383
_cell_length_b   12.35956382
_cell_length_c   13.36129449
_cell_angle_alpha   117.54943207
_cell_angle_beta   117.54943208
_cell_angle_gamma   90.00000001
_symmetry_Int_Tables_number   1
_chemical_formula_structural   CsSn
_chemical_formula_sum   'Cs16 Sn16'
_cell_volume   1543.88298415
_cell_formula_units_Z   16
loop_
 _symmetry_equiv_pos_site_id
 _symmetry_equiv_pos_as_xyz
  1  'x, y, z'
loop_
 _atom_site_type_symbol
 _atom_site_label
 _atom_site_symmetry_multiplicity
 _atom_site_fract_x
 _atom_site_fract_y
 _atom_site_fract_z
 _atom_site_occupancy
  Sn  Sn0  1  0.13388634  0.71811244  0.14471002  1
  Sn  Sn1  1  0.57340242  0.48917632  0.35528998  1
  Sn  Sn2  1  0.78188756  0.36611366  0.35528998  1
  Sn  Sn3  1  0.48917632  0.78188756  0.85528998  1
  Sn  Sn4  1  0.36611366  0.57340242  0.85528998  1
  Sn  Sn5  1  0.92659758  0.13388634  0.64471002  1
  Sn  Sn6  1  0.71811244  0.01082368  0.64471002  1
  Sn  Sn7  1  0.01082368  0.92659758  0.14471002  1
  Sn  Sn8  1  0.86611366  0.28188756  0.85528998  1
  Sn  Sn9  1  0.42659758  0.51082368  0.64471002  1
  Sn  Sn10  1  0.21811244  0.63388634  0.64471002  1
  Sn  Sn11  1  0.51082368  0.21811244  0.14471002  1
  Sn  Sn12  1  0.63388634  0.42659758  0.14471002  1
  Sn  Sn13  1  0.07340242  0.86611366  0.35528998  1
  Sn  Sn14  1  0.28188756  0.98917632  0.35528998  1
  Sn  Sn15  1  0.98917632  0.07340242  0.85528998  1
  Cs  Cs16  1  0.25400162  0.00400162  0.75000000  1
  Cs  Cs17  1  0.24599838  0.25400162  0.25000000  1
  Cs  Cs18  1  0.00400162  0.49599838  0.25000000  1
  Cs  Cs19  1  0.49599838  0.24599838  0.75000000  1
  Cs  Cs20  1  0.74599838  0.99599838  0.25000000  1
  Cs  Cs21  1  0.75400162  0.74599838  0.75000000  1
  Cs  Cs22  1  0.99599838  0.50400162  0.75000000  1
  Cs  Cs23  1  0.50400162  0.75400162  0.25000000  1
  Cs  Cs24  1  0.60954503  0.25000000  0.50000000  1
  Cs  Cs25  1  0.75000000  0.60954503  0.00000000  1
  Cs  Cs26  1  0.25000000  0.89045497  0.00000000  1
  Cs  Cs27  1  0.89045497  0.75000000  0.50000000  1
  Cs  Cs28  1  0.39045497  0.75000000  0.50000000  1
  Cs  Cs29  1  0.25000000  0.39045497  0.00000000  1
  Cs  Cs30  1  0.75000000  0.10954503  0.00000000  1
  Cs  Cs31  1  0.10954503  0.25000000  0.50000000  1
