# generated using pymatgen
data_PrInO3
_symmetry_space_group_name_H-M   'P 1'
_cell_length_a   5.71338208
_cell_length_b   5.99991123
_cell_length_c   8.32512746
_cell_angle_alpha   90.00000000
_cell_angle_beta   90.00000000
_cell_angle_gamma   90.00000000
_symmetry_Int_Tables_number   1
_chemical_formula_structural   PrInO3
_chemical_formula_sum   'Pr4 In4 O12'
_cell_volume   285.38358195
_cell_formula_units_Z   4
loop_
 _symmetry_equiv_pos_site_id
 _symmetry_equiv_pos_as_xyz
  1  'x, y, z'
loop_
 _atom_site_type_symbol
 _atom_site_label
 _atom_site_symmetry_multiplicity
 _atom_site_fract_x
 _atom_site_fract_y
 _atom_site_fract_z
 _atom_site_occupancy
  Pr  Pr0  1  0.01744062  0.94056603  0.25000000  1
  Pr  Pr1  1  0.48255938  0.44056603  0.25000000  1
  Pr  Pr2  1  0.98255938  0.05943397  0.75000000  1
  Pr  Pr3  1  0.51744062  0.55943397  0.75000000  1
  In  In4  1  0.00000000  0.50000000  0.00000000  1
  In  In5  1  0.50000000  -0.00000000  0.50000000  1
  In  In6  1  -0.00000000  0.50000000  0.50000000  1
  In  In7  1  0.50000000  -0.00000000  0.00000000  1
  O  O8  1  0.62164770  0.05183258  0.25000000  1
  O  O9  1  0.87835230  0.55183258  0.25000000  1
  O  O10  1  0.37835230  0.94816742  0.75000000  1
  O  O11  1  0.12164770  0.44816742  0.75000000  1
  O  O12  1  0.30778319  0.69493530  0.06385903  1
  O  O13  1  0.19221681  0.19493530  0.43614097  1
  O  O14  1  0.69221681  0.30506470  0.56385903  1
  O  O15  1  0.80778319  0.80506470  0.93614097  1
  O  O16  1  0.69221681  0.30506470  0.93614097  1
  O  O17  1  0.80778319  0.80506470  0.56385903  1
  O  O18  1  0.30778319  0.69493530  0.43614097  1
  O  O19  1  0.19221681  0.19493530  0.06385903  1
