# generated using pymatgen
data_LiCu5(PO4)2
_symmetry_space_group_name_H-M   'P 1'
_cell_length_a   6.23208882
_cell_length_b   5.56710366
_cell_length_c   10.41780182
_cell_angle_alpha   90.62499410
_cell_angle_beta   90.22492021
_cell_angle_gamma   89.60697848
_symmetry_Int_Tables_number   1
_chemical_formula_structural   LiCu5(PO4)2
_chemical_formula_sum   'Li2 Cu10 P4 O16'
_cell_volume   361.40966046
_cell_formula_units_Z   2
loop_
 _symmetry_equiv_pos_site_id
 _symmetry_equiv_pos_as_xyz
  1  'x, y, z'
loop_
 _atom_site_type_symbol
 _atom_site_label
 _atom_site_symmetry_multiplicity
 _atom_site_fract_x
 _atom_site_fract_y
 _atom_site_fract_z
 _atom_site_occupancy
  Li  Li0  1  0.00032473  0.15298611  0.24596534  1
  Li  Li1  1  0.25515108  0.67253159  0.24483403  1
  Cu  Cu2  1  0.00021266  0.22890324  0.74318209  1
  Cu  Cu3  1  0.24261986  0.35636232  0.50440365  1
  Cu  Cu4  1  0.25947796  0.34746954  0.00627194  1
  Cu  Cu5  1  0.24431807  0.65287446  0.74601067  1
  Cu  Cu6  1  0.50770293  0.77146669  0.99705707  1
  Cu  Cu7  1  0.49580979  0.77655418  0.49675740  1
  Cu  Cu8  1  0.75328816  0.65324944  0.74684384  1
  Cu  Cu9  1  0.71777104  0.65153949  0.23275251  1
  Cu  Cu10  1  0.76598806  0.34709466  0.49985178  1
  Cu  Cu11  1  0.73707423  0.35934540  0.00477039  1
  P  P12  1  0.00570237  0.84182224  0.00597347  1
  P  P13  1  0.00092088  0.83436566  0.49156174  1
  P  P14  1  0.49449770  0.17388833  0.25370802  1
  P  P15  1  0.50233388  0.16054090  0.75267590  1
  O  O16  1  0.00782479  0.84053130  0.64023764  1
  O  O17  1  0.99854072  0.09003616  0.43388480  1
  O  O18  1  0.00503759  0.83196280  0.15413657  1
  O  O19  1  0.00307905  0.10252514  0.95550669  1
  O  O20  1  0.19960633  0.69607696  0.43326164  1
  O  O21  1  0.20692618  0.70314560  0.95188634  1
  O  O22  1  0.29203852  0.31437641  0.20500527  1
  O  O23  1  0.29923934  0.29598259  0.70023578  1
  O  O24  1  0.50262071  0.16259991  0.90051793  1
  O  O25  1  0.50454614  0.90196372  0.69666401  1
  O  O26  1  0.49747149  0.17535851  0.40244842  1
  O  O27  1  0.48710190  0.91046596  0.20164184  1
  O  O28  1  0.70094508  0.29905485  0.69999844  1
  O  O29  1  0.70771579  0.29276468  0.20419664  1
  O  O30  1  0.79686565  0.69659402  0.44229092  1
  O  O31  1  0.80724730  0.70556215  0.94805824  1
