# generated using pymatgen
data_SnBr2
_symmetry_space_group_name_H-M   'P 1'
_cell_length_a   4.38365451
_cell_length_b   12.62683579
_cell_length_c   12.62683579
_cell_angle_alpha   120.00000224
_cell_angle_beta   90.00000000
_cell_angle_gamma   90.00000000
_symmetry_Int_Tables_number   1
_chemical_formula_structural   SnBr2
_chemical_formula_sum   'Sn6 Br12'
_cell_volume   605.27955624
_cell_formula_units_Z   6
loop_
 _symmetry_equiv_pos_site_id
 _symmetry_equiv_pos_as_xyz
  1  'x, y, z'
loop_
 _atom_site_type_symbol
 _atom_site_label
 _atom_site_symmetry_multiplicity
 _atom_site_fract_x
 _atom_site_fract_y
 _atom_site_fract_z
 _atom_site_occupancy
  Sn  Sn0  1  0.25000000  0.41540292  0.10857239  1
  Sn  Sn1  1  0.25000000  0.89142761  0.30683054  1
  Sn  Sn2  1  0.25000000  0.69316946  0.58459708  1
  Sn  Sn3  1  0.75000000  0.58459708  0.89142761  1
  Sn  Sn4  1  0.75000000  0.10857239  0.69316946  1
  Sn  Sn5  1  0.75000000  0.30683054  0.41540292  1
  Br  Br6  1  0.75000000  0.24570400  0.01025059  1
  Br  Br7  1  0.75000000  0.98974941  0.23545342  1
  Br  Br8  1  0.75000000  0.76454658  0.75429600  1
  Br  Br9  1  0.25000000  0.75429600  0.98974941  1
  Br  Br10  1  0.25000000  0.01025059  0.76454658  1
  Br  Br11  1  0.25000000  0.23545342  0.24570400  1
  Br  Br12  1  0.25000000  0.38513120  0.86782582  1
  Br  Br13  1  0.25000000  0.13217418  0.51730537  1
  Br  Br14  1  0.25000000  0.48269463  0.61486880  1
  Br  Br15  1  0.75000000  0.61486880  0.13217418  1
  Br  Br16  1  0.75000000  0.86782582  0.48269463  1
  Br  Br17  1  0.75000000  0.51730537  0.38513120  1
