# generated using pymatgen
data_Lu2Co3Si5
_symmetry_space_group_name_H-M   'P 1'
_cell_length_a   5.48088587
_cell_length_b   7.80833721
_cell_length_c   7.80833721
_cell_angle_alpha   75.20785735
_cell_angle_beta   69.45372926
_cell_angle_gamma   69.45372926
_symmetry_Int_Tables_number   1
_chemical_formula_structural   Lu2Co3Si5
_chemical_formula_sum   'Lu4 Co6 Si10'
_cell_volume   289.66241633
_cell_formula_units_Z   2
loop_
 _symmetry_equiv_pos_site_id
 _symmetry_equiv_pos_as_xyz
  1  'x, y, z'
loop_
 _atom_site_type_symbol
 _atom_site_label
 _atom_site_symmetry_multiplicity
 _atom_site_fract_x
 _atom_site_fract_y
 _atom_site_fract_z
 _atom_site_occupancy
  Lu  Lu0  1  0.36637194  0.39898935  0.86826677  1
  Lu  Lu1  1  0.63362806  0.60101065  0.13173323  1
  Lu  Lu2  1  0.86637194  0.86826677  0.39898935  1
  Lu  Lu3  1  0.13362806  0.13173323  0.60101065  1
  Co  Co4  1  0.25000000  0.00000000  0.00000000  1
  Co  Co5  1  0.75000000  0.00000000  0.00000000  1
  Co  Co6  1  0.13692374  0.47588197  0.25027055  1
  Co  Co7  1  0.86307626  0.52411803  0.74972945  1
  Co  Co8  1  0.63692374  0.25027055  0.47588197  1
  Co  Co9  1  0.36307626  0.74972945  0.52411803  1
  Si  Si10  1  0.25000000  0.50000000  0.50000000  1
  Si  Si11  1  0.75000000  0.50000000  0.50000000  1
  Si  Si12  1  0.02053691  0.22946309  0.22946309  1
  Si  Si13  1  0.47946309  0.77053691  0.77053691  1
  Si  Si14  1  0.97946309  0.77053691  0.77053691  1
  Si  Si15  1  0.52053691  0.22946309  0.22946309  1
  Si  Si16  1  0.10188783  0.74050529  0.05571906  1
  Si  Si17  1  0.89811217  0.25949471  0.94428094  1
  Si  Si18  1  0.60188783  0.05571906  0.74050529  1
  Si  Si19  1  0.39811217  0.94428094  0.25949471  1
