# generated using pymatgen
data_Li5Cu5(NiO6)2
_symmetry_space_group_name_H-M   'P 1'
_cell_length_a   5.00729406
_cell_length_b   5.00729373
_cell_length_c   9.49574181
_cell_angle_alpha   88.17440915
_cell_angle_beta   91.82558594
_cell_angle_gamma   65.31446199
_symmetry_Int_Tables_number   1
_chemical_formula_structural   Li5Cu5(NiO6)2
_chemical_formula_sum   'Li5 Cu5 Ni2 O12'
_cell_volume   215.95145912
_cell_formula_units_Z   1
loop_
 _symmetry_equiv_pos_site_id
 _symmetry_equiv_pos_as_xyz
  1  'x, y, z'
loop_
 _atom_site_type_symbol
 _atom_site_label
 _atom_site_symmetry_multiplicity
 _atom_site_fract_x
 _atom_site_fract_y
 _atom_site_fract_z
 _atom_site_occupancy
  Li  Li0  1  0.15936150  0.66472325  0.50790166  1
  Li  Li1  1  0.33177146  0.84750980  0.99416555  1
  Li  Li2  1  0.66472325  0.15936150  0.99209834  1
  Li  Li3  1  0.84750980  0.33177146  0.50583445  1
  Li  Li4  1  0.91793999  0.91793999  0.75000000  1
  Cu  Cu5  1  0.07991032  0.07991032  0.25000000  1
  Cu  Cu6  1  0.99717451  0.50761039  0.99785089  1
  Cu  Cu7  1  0.50761039  0.99717451  0.50214911  1
  Cu  Cu8  1  0.41867068  0.41867068  0.25000000  1
  Cu  Cu9  1  0.58340027  0.58340027  0.75000000  1
  Ni  Ni10  1  0.24747988  0.24747988  0.75000000  1
  Ni  Ni11  1  0.74874859  0.74874859  0.25000000  1
  O  O12  1  0.99398303  0.20598740  0.88181562  1
  O  O13  1  0.20598740  0.99398303  0.61818438  1
  O  O14  1  0.07629416  0.42209954  0.34559160  1
  O  O15  1  0.42209954  0.07629416  0.15440840  1
  O  O16  1  0.30534764  0.51217671  0.87257983  1
  O  O17  1  0.51217671  0.30534764  0.62742017  1
  O  O18  1  0.49751523  0.68699239  0.37684382  1
  O  O19  1  0.68699239  0.49751523  0.12315618  1
  O  O20  1  0.56760818  0.92003187  0.84733100  1
  O  O21  1  0.92003187  0.56760818  0.65266900  1
  O  O22  1  0.81033929  0.99732790  0.37911121  1
  O  O23  1  0.99732790  0.81033929  0.12088879  1
