# generated using pymatgen
data_BiPO4
_symmetry_space_group_name_H-M   'P 1'
_cell_length_a   6.47889133
_cell_length_b   7.11420325
_cell_length_c   7.11420326
_cell_angle_alpha   119.99999865
_cell_angle_beta   90.00000000
_cell_angle_gamma   90.00000000
_symmetry_Int_Tables_number   1
_chemical_formula_structural   BiPO4
_chemical_formula_sum   'Bi3 P3 O12'
_cell_volume   283.97746050
_cell_formula_units_Z   3
loop_
 _symmetry_equiv_pos_site_id
 _symmetry_equiv_pos_as_xyz
  1  'x, y, z'
loop_
 _atom_site_type_symbol
 _atom_site_label
 _atom_site_symmetry_multiplicity
 _atom_site_fract_x
 _atom_site_fract_y
 _atom_site_fract_z
 _atom_site_occupancy
  Bi  Bi0  1  0.16670045  0.50914159  0.50914753  1
  Bi  Bi1  1  0.50003445  0.49085247  -0.00000594  1
  Bi  Bi2  1  0.83336745  0.00000594  0.49085841  1
  P  P3  1  0.66650669  0.53996794  0.53999544  1
  P  P4  1  -0.00015931  0.46000456  -0.00002751  1
  P  P5  1  0.33317369  0.00002751  0.46003206  1
  O  O6  1  0.80126658  0.73968001  0.58771759  1
  O  O7  1  0.13460058  0.41228241  0.15196243  1
  O  O8  1  0.46793358  0.84803757  0.26031999  1
  O  O9  1  0.86542142  0.26042431  0.84811326  1
  O  O10  1  0.19875542  0.15188674  0.41231105  1
  O  O11  1  0.53208842  0.58768895  0.73957569  1
  O  O12  1  0.50770460  0.47885052  0.35437573  1
  O  O13  1  0.84103860  0.64562427  0.12447479  1
  O  O14  1  0.17437160  0.87552521  0.52114948  1
  O  O15  1  0.15899826  0.52117615  0.87547398  1
  O  O16  1  0.49233226  0.12452602  0.64570217  1
  O  O17  1  0.82566526  0.35429783  0.47882385  1
