# generated using pymatgen
data_Ba2ErInTe5
_symmetry_space_group_name_H-M   'P 1'
_cell_length_a   4.57163418
_cell_length_b   10.48102632
_cell_length_c   14.36081298
_cell_angle_alpha   90.00000000
_cell_angle_beta   90.00000000
_cell_angle_gamma   102.59693309
_symmetry_Int_Tables_number   1
_chemical_formula_structural   Ba2ErInTe5
_chemical_formula_sum   'Ba4 Er2 In2 Te10'
_cell_volume   671.54061173
_cell_formula_units_Z   2
loop_
 _symmetry_equiv_pos_site_id
 _symmetry_equiv_pos_as_xyz
  1  'x, y, z'
loop_
 _atom_site_type_symbol
 _atom_site_label
 _atom_site_symmetry_multiplicity
 _atom_site_fract_x
 _atom_site_fract_y
 _atom_site_fract_z
 _atom_site_occupancy
  Ba  Ba0  1  0.86912948  0.73825896  0.81528334  1
  Ba  Ba1  1  0.13087052  0.26174104  0.31528334  1
  Ba  Ba2  1  0.88061616  0.76123232  0.18205823  1
  Ba  Ba3  1  0.11938384  0.23876768  0.68205823  1
  Er  Er4  1  0.79029544  0.58059087  0.51856340  1
  Er  Er5  1  0.20970456  0.41940913  0.01856340  1
  In  In6  1  0.55642826  0.11285652  0.93412237  1
  In  In7  1  0.44357174  0.88714348  0.43412237  1
  Te  Te8  1  0.64510861  0.29021722  0.50118192  1
  Te  Te9  1  0.35489139  0.70978278  0.00118192  1
  Te  Te10  1  0.70801422  0.41602845  0.15930435  1
  Te  Te11  1  0.29198578  0.58397155  0.65930435  1
  Te  Te12  1  0.69023901  0.38047801  0.86759415  1
  Te  Te13  1  0.30976099  0.61952199  0.36759415  1
  Te  Te14  1  0.49590023  0.99180047  0.76236550  1
  Te  Te15  1  0.50409977  0.00819953  0.26236550  1
  Te  Te16  1  0.94917407  0.89834814  0.55142673  1
  Te  Te17  1  0.05082593  0.10165186  0.05142673  1
