# generated using pymatgen
data_Li3Fe5(CoO6)2
_symmetry_space_group_name_H-M   'P 1'
_cell_length_a   5.14601767
_cell_length_b   5.14601795
_cell_length_c   9.83422487
_cell_angle_alpha   84.76512376
_cell_angle_beta   95.23487313
_cell_angle_gamma   58.79811661
_symmetry_Int_Tables_number   1
_chemical_formula_structural   Li3Fe5(CoO6)2
_chemical_formula_sum   'Li3 Fe5 Co2 O12'
_cell_volume   218.87243521
_cell_formula_units_Z   1
loop_
 _symmetry_equiv_pos_site_id
 _symmetry_equiv_pos_as_xyz
  1  'x, y, z'
loop_
 _atom_site_type_symbol
 _atom_site_label
 _atom_site_symmetry_multiplicity
 _atom_site_fract_x
 _atom_site_fract_y
 _atom_site_fract_z
 _atom_site_occupancy
  Li  Li0  1  0.32717005  0.85019757  0.99141118  1
  Li  Li1  1  0.85019757  0.32717005  0.50858882  1
  Li  Li2  1  0.92058276  0.92058276  0.75000000  1
  Fe  Fe3  1  0.07878620  0.07878620  0.25000000  1
  Fe  Fe4  1  0.98691735  0.52554104  0.98453106  1
  Fe  Fe5  1  0.52554104  0.98691735  0.51546894  1
  Fe  Fe6  1  0.41602748  0.41602748  0.25000000  1
  Fe  Fe7  1  0.56787635  0.56787635  0.75000000  1
  Co  Co8  1  0.25448376  0.25448376  0.75000000  1
  Co  Co9  1  0.75154442  0.75154442  0.25000000  1
  O  O10  1  0.12093871  0.36967168  0.36195170  1
  O  O11  1  0.36967168  0.12093871  0.13804830  1
  O  O12  1  0.27311312  0.54668294  0.86883209  1
  O  O13  1  0.03874129  0.77411778  0.13709742  1
  O  O14  1  0.54668294  0.27311312  0.63116791  1
  O  O15  1  0.23379908  0.96750061  0.62660851  1
  O  O16  1  0.47963811  0.71885315  0.36134081  1
  O  O17  1  0.77411778  0.03874129  0.36290258  1
  O  O18  1  0.60789925  0.86032231  0.86728124  1
  O  O19  1  0.96750061  0.23379908  0.87339149  1
  O  O20  1  0.71885315  0.47963811  0.13865919  1
  O  O21  1  0.86032231  0.60789925  0.63271876  1
