# generated using pymatgen
data_Li10Zn(PS4)4
_symmetry_space_group_name_H-M   'P 1'
_cell_length_a   6.50015174
_cell_length_b   10.00007697
_cell_length_c   10.11282790
_cell_angle_alpha   75.32759809
_cell_angle_beta   89.77653659
_cell_angle_gamma   89.14134734
_symmetry_Int_Tables_number   1
_chemical_formula_structural   Li10Zn(PS4)4
_chemical_formula_sum   'Li10 Zn1 P4 S16'
_cell_volume   635.84639960
_cell_formula_units_Z   1
loop_
 _symmetry_equiv_pos_site_id
 _symmetry_equiv_pos_as_xyz
  1  'x, y, z'
loop_
 _atom_site_type_symbol
 _atom_site_label
 _atom_site_symmetry_multiplicity
 _atom_site_fract_x
 _atom_site_fract_y
 _atom_site_fract_z
 _atom_site_occupancy
  Li  Li0  1  0.30515793  0.10555262  0.13302641  1
  Li  Li1  1  0.66486911  0.36619653  0.89167296  1
  Li  Li2  1  0.69949215  0.88235027  0.37324429  1
  Li  Li3  1  0.96804944  0.68063530  0.12929916  1
  Li  Li4  1  0.67527085  0.11091981  0.63195463  1
  Li  Li5  1  0.31696609  0.86337979  0.88967939  1
  Li  Li6  1  0.31911763  0.38576952  0.36778318  1
  Li  Li7  1  0.13276377  0.24174384  0.74863066  1
  Li  Li8  1  0.83221166  0.74318571  0.77190063  1
  Li  Li9  1  0.84858400  0.25713217  0.24728797  1
  Zn  Zn10  1  0.30127340  0.62869502  0.61113249  1
  P  P11  1  0.79443822  0.50351533  0.49425538  1
  P  P12  1  0.81618022  0.99910601  0.00293921  1
  P  P13  1  0.17187894  0.48581830  0.99153495  1
  P  P14  1  0.17516185  0.99801330  0.50967718  1
  S  S15  1  0.10967763  0.93242691  0.06196401  1
  S  S16  1  0.10618579  0.45352963  0.54962030  1
  S  S17  1  0.79695892  0.16498923  0.83301256  1
  S  S18  1  0.74968444  0.66098680  0.32980672  1
  S  S19  1  0.65082536  0.54699107  0.66557364  1
  S  S20  1  0.67650675  0.06322711  0.16145360  1
  S  S21  1  0.30196956  0.31906028  0.93852717  1
  S  S22  1  0.32741337  0.84092388  0.44700800  1
  S  S23  1  0.18479539  0.66244476  0.82052151  1
  S  S24  1  0.18896991  0.16549450  0.34157332  1
  S  S25  1  0.86734854  0.46344802  0.04483659  1
  S  S26  1  0.87762996  0.93773827  0.56050711  1
  S  S27  1  0.32450553  0.54734615  0.13825514  1
  S  S28  1  0.31472926  0.04743460  0.67285190  1
  S  S29  1  0.67464057  0.82876685  0.96983471  1
  S  S30  1  0.67539576  0.32841641  0.45539125  1
