# generated using pymatgen
data_Dy2Al6Si4Au
_symmetry_space_group_name_H-M   'P 1'
_cell_length_a   16.95644300
_cell_length_b   16.95644300
_cell_length_c   16.95644301
_cell_angle_alpha   14.25651079
_cell_angle_beta   14.25651077
_cell_angle_gamma   14.25651080
_symmetry_Int_Tables_number   1
_chemical_formula_structural   Dy2Al6Si4Au
_chemical_formula_sum   'Dy2 Al6 Si4 Au1'
_cell_volume   257.37687756
_cell_formula_units_Z   1
loop_
 _symmetry_equiv_pos_site_id
 _symmetry_equiv_pos_as_xyz
  1  'x, y, z'
loop_
 _atom_site_type_symbol
 _atom_site_label
 _atom_site_symmetry_multiplicity
 _atom_site_fract_x
 _atom_site_fract_y
 _atom_site_fract_z
 _atom_site_occupancy
  Al  Al0  1  0.18548031  0.18548031  0.18548031  1
  Al  Al1  1  0.81451969  0.81451969  0.81451969  1
  Al  Al2  1  0.94772136  0.94772136  0.94772136  1
  Al  Al3  1  0.68315097  0.68315097  0.68315097  1
  Al  Al4  1  0.31684903  0.31684903  0.31684903  1
  Al  Al5  1  0.05227864  0.05227864  0.05227864  1
  Si  Si6  1  0.26567141  0.26567141  0.26567141  1
  Si  Si7  1  0.13512539  0.13512539  0.13512539  1
  Si  Si8  1  0.86487461  0.86487461  0.86487461  1
  Si  Si9  1  0.73432859  0.73432859  0.73432859  1
  Dy  Dy10  1  0.56546585  0.56546585  0.56546585  1
  Dy  Dy11  1  0.43453415  0.43453415  0.43453415  1
  Au  Au12  1  0.00000000  0.00000000  0.00000000  1
