# generated using pymatgen
data_Li10Zn(PS4)4
_symmetry_space_group_name_H-M   'P 1'
_cell_length_a   6.16183994
_cell_length_b   7.77789323
_cell_length_c   13.05876810
_cell_angle_alpha   89.56378145
_cell_angle_beta   90.09137265
_cell_angle_gamma   90.09701801
_symmetry_Int_Tables_number   1
_chemical_formula_structural   Li10Zn(PS4)4
_chemical_formula_sum   'Li10 Zn1 P4 S16'
_cell_volume   625.83643982
_cell_formula_units_Z   1
loop_
 _symmetry_equiv_pos_site_id
 _symmetry_equiv_pos_as_xyz
  1  'x, y, z'
loop_
 _atom_site_type_symbol
 _atom_site_label
 _atom_site_symmetry_multiplicity
 _atom_site_fract_x
 _atom_site_fract_y
 _atom_site_fract_z
 _atom_site_occupancy
  Li  Li0  1  0.99917539  0.25222465  0.15883151  1
  Li  Li1  1  0.50699570  0.25018430  0.34065601  1
  Li  Li2  1  0.49331547  0.26141468  0.84132665  1
  Li  Li3  1  0.49340363  0.74076172  0.34311248  1
  Li  Li4  1  0.50013259  0.74856027  0.83401323  1
  Li  Li5  1  0.99280331  0.76631214  0.15898183  1
  Li  Li6  1  0.48712018  0.00419045  0.07175603  1
  Li  Li7  1  0.48920687  0.96216126  0.57881010  1
  Li  Li8  1  0.99423104  0.51311818  0.43827648  1
  Li  Li9  1  0.98805039  0.52327169  0.91998542  1
  Zn  Zn10  1  0.99155676  0.23535035  0.65352730  1
  P  P11  1  0.00409849  0.00476431  0.41409392  1
  P  P12  1  0.99880647  0.00040104  0.90444592  1
  P  P13  1  0.50018833  0.50575718  0.08908230  1
  P  P14  1  0.49110392  0.48656491  0.59234593  1
  S  S15  1  0.88692026  0.01187742  0.05301680  1
  S  S16  1  0.90038338  0.98340673  0.56520187  1
  S  S17  1  0.33778467  0.99835527  0.40803204  1
  S  S18  1  0.33297205  0.00221232  0.90246791  1
  S  S19  1  0.89975773  0.22629783  0.34289200  1
  S  S20  1  0.89217343  0.22878689  0.83139468  1
  S  S21  1  0.39369468  0.28557169  0.16231624  1
  S  S22  1  0.38239606  0.25560880  0.66035137  1
  S  S23  1  0.83453113  0.50886058  0.09223819  1
  S  S24  1  0.82830801  0.49980710  0.60977722  1
  S  S25  1  0.39668130  0.48862373  0.44143410  1
  S  S26  1  0.38897366  0.50771207  0.94067637  1
  S  S27  1  0.38833463  0.72148906  0.16301748  1
  S  S28  1  0.35350008  0.68743406  0.66292283  1
  S  S29  1  0.88730149  0.78875413  0.34198608  1
  S  S30  1  0.89150890  0.79638623  0.82498070  1
