# generated using pymatgen
data_LaInO3
_symmetry_space_group_name_H-M   'P 1'
_cell_length_a   5.77123282
_cell_length_b   6.00910051
_cell_length_c   8.35159820
_cell_angle_alpha   90.00000000
_cell_angle_beta   90.00000000
_cell_angle_gamma   90.00000000
_symmetry_Int_Tables_number   1
_chemical_formula_structural   LaInO3
_chemical_formula_sum   'La4 In4 O12'
_cell_volume   289.63274143
_cell_formula_units_Z   4
loop_
 _symmetry_equiv_pos_site_id
 _symmetry_equiv_pos_as_xyz
  1  'x, y, z'
loop_
 _atom_site_type_symbol
 _atom_site_label
 _atom_site_symmetry_multiplicity
 _atom_site_fract_x
 _atom_site_fract_y
 _atom_site_fract_z
 _atom_site_occupancy
  O  O0  1  0.61964844  0.05032565  0.25000000  1
  O  O1  1  0.11964844  0.44967435  0.75000000  1
  O  O2  1  0.88035156  0.55032565  0.25000000  1
  O  O3  1  0.38035156  0.94967435  0.75000000  1
  O  O4  1  0.19484247  0.19727554  0.06350537  1
  O  O5  1  0.69484247  0.30272446  0.93649463  1
  O  O6  1  0.30515753  0.69727554  0.43649463  1
  O  O7  1  0.80515753  0.80272446  0.56350537  1
  O  O8  1  0.80515753  0.80272446  0.93649463  1
  O  O9  1  0.30515753  0.69727554  0.06350537  1
  O  O10  1  0.69484247  0.30272446  0.56350537  1
  O  O11  1  0.19484247  0.19727554  0.43649463  1
  In  In12  1  0.50000000  0.00000000  0.00000000  1
  In  In13  1  0.00000000  0.50000000  0.00000000  1
  In  In14  1  0.00000000  0.50000000  0.50000000  1
  In  In15  1  0.50000000  0.00000000  0.50000000  1
  La  La16  1  0.01706938  0.94499084  0.25000000  1
  La  La17  1  0.51706938  0.55500916  0.75000000  1
  La  La18  1  0.48293062  0.44499084  0.25000000  1
  La  La19  1  0.98293062  0.05500916  0.75000000  1
