# generated using pymatgen
data_Eu3(Cu2Sn)4
_symmetry_space_group_name_H-M   'P 1'
_cell_length_a   9.23556937
_cell_length_b   9.23556937
_cell_length_c   7.82759750
_cell_angle_alpha   90.00000000
_cell_angle_beta   90.00000000
_cell_angle_gamma   119.99999998
_symmetry_Int_Tables_number   1
_chemical_formula_structural   Eu3(Cu2Sn)4
_chemical_formula_sum   'Eu6 Cu16 Sn8'
_cell_volume   578.21115622
_cell_formula_units_Z   2
loop_
 _symmetry_equiv_pos_site_id
 _symmetry_equiv_pos_as_xyz
  1  'x, y, z'
loop_
 _atom_site_type_symbol
 _atom_site_label
 _atom_site_symmetry_multiplicity
 _atom_site_fract_x
 _atom_site_fract_y
 _atom_site_fract_z
 _atom_site_occupancy
  Cu  Cu0  1  0.89992888  0.79985776  0.52182785  1
  Cu  Cu1  1  0.00000000  0.00000000  0.77427053  1
  Cu  Cu2  1  0.00000000  0.00000000  0.27427053  1
  Cu  Cu3  1  0.66666667  0.33333333  0.17183299  1
  Cu  Cu4  1  0.33333333  0.66666667  0.67183299  1
  Cu  Cu5  1  0.10007112  0.89992888  0.02182785  1
  Cu  Cu6  1  0.83744382  0.16255618  0.82766819  1
  Cu  Cu7  1  0.67488764  0.83744382  0.32766819  1
  Cu  Cu8  1  0.16255618  0.32511236  0.32766819  1
  Cu  Cu9  1  0.83744382  0.67488764  0.82766819  1
  Cu  Cu10  1  0.32511236  0.16255618  0.82766819  1
  Cu  Cu11  1  0.20014224  0.10007112  0.52182785  1
  Cu  Cu12  1  0.89992888  0.10007112  0.52182785  1
  Cu  Cu13  1  0.79985776  0.89992888  0.02182785  1
  Cu  Cu14  1  0.10007112  0.20014224  0.02182785  1
  Cu  Cu15  1  0.16255618  0.83744382  0.32766819  1
  Sn  Sn16  1  0.66453813  0.83226906  0.70590323  1
  Sn  Sn17  1  0.16773094  0.33546187  0.70590323  1
  Sn  Sn18  1  0.83226906  0.66453813  0.20590323  1
  Sn  Sn19  1  0.33546187  0.16773094  0.20590323  1
  Sn  Sn20  1  0.16773094  0.83226906  0.70590323  1
  Sn  Sn21  1  0.33333333  0.66666667  0.31617721  1
  Sn  Sn22  1  0.83226906  0.16773094  0.20590323  1
  Sn  Sn23  1  0.66666667  0.33333333  0.81617721  1
  Eu  Eu24  1  0.52533680  0.47466320  0.50141049  1
  Eu  Eu25  1  0.05067359  0.52533680  0.00141049  1
  Eu  Eu26  1  0.47466320  0.94932641  0.00141049  1
  Eu  Eu27  1  0.52533680  0.05067359  0.50141049  1
  Eu  Eu28  1  0.94932641  0.47466320  0.50141049  1
  Eu  Eu29  1  0.47466320  0.52533680  0.00141049  1
