# generated using pymatgen
data_NaV3Fe2CuO12
_symmetry_space_group_name_H-M   'P 1'
_cell_length_a   6.76295249
_cell_length_b   8.33891636
_cell_length_c   9.93970261
_cell_angle_alpha   107.32112633
_cell_angle_beta   103.59467459
_cell_angle_gamma   101.98641060
_symmetry_Int_Tables_number   1
_chemical_formula_structural   NaV3Fe2CuO12
_chemical_formula_sum   'Na2 V6 Fe4 Cu2 O24'
_cell_volume   496.30970172
_cell_formula_units_Z   2
loop_
 _symmetry_equiv_pos_site_id
 _symmetry_equiv_pos_as_xyz
  1  'x, y, z'
loop_
 _atom_site_type_symbol
 _atom_site_label
 _atom_site_symmetry_multiplicity
 _atom_site_fract_x
 _atom_site_fract_y
 _atom_site_fract_z
 _atom_site_occupancy
  Na  Na0  1  0.48280408  0.99641466  0.49108476  1
  Na  Na1  1  0.98700558  0.02711509  0.55530353  1
  V  V2  1  0.09029149  0.77275165  0.12460955  1
  V  V3  1  0.27416057  0.83425678  0.73912840  1
  V  V4  1  0.38909828  0.41248963  0.66832754  1
  V  V5  1  0.61090393  0.58901990  0.33297423  1
  V  V6  1  0.72782163  0.16477210  0.26251803  1
  V  V7  1  0.91049746  0.22714575  0.87484067  1
  Fe  Fe8  1  0.11868457  0.55187160  0.39144137  1
  Fe  Fe9  1  0.45371707  0.29455349  0.98454612  1
  Fe  Fe10  1  0.54643963  0.70561142  0.01669379  1
  Fe  Fe11  1  0.88069925  0.44897876  0.60781288  1
  Cu  Cu12  1  0.22910008  0.21981651  0.21325670  1
  Cu  Cu13  1  0.77620187  0.78394747  0.79234065  1
  O  O14  1  0.02008182  0.72285664  0.74096851  1
  O  O15  1  0.07109262  0.66005074  0.24622789  1
  O  O16  1  0.18750890  0.99493982  0.23326063  1
  O  O17  1  0.17154812  0.47893005  0.58125799  1
  O  O18  1  0.25450920  0.79787230  0.55356676  1
  O  O19  1  0.16202672  0.27361173  0.00669345  1
  O  O20  1  0.26749946  0.71797640  0.03169521  1
  O  O21  1  0.31433761  0.05456497  0.81950755  1
  O  O22  1  0.42320031  0.44723913  0.85869837  1
  O  O23  1  0.49898138  0.77897570  0.83134633  1
  O  O24  1  0.32491836  0.19639025  0.57936475  1
  O  O25  1  0.36860174  0.48272355  0.35029885  1
  O  O26  1  0.63084705  0.51476987  0.64883976  1
  O  O27  1  0.66655976  0.80385225  0.42366306  1
  O  O28  1  0.50534690  0.22426323  0.17119093  1
  O  O29  1  0.57796868  0.55373850  0.14269560  1
  O  O30  1  0.68203149  0.94555588  0.17719991  1
  O  O31  1  0.72996175  0.27805846  0.96531496  1
  O  O32  1  0.83743568  0.72560133  0.99191732  1
  O  O33  1  0.74708962  0.19978797  0.44885856  1
  O  O34  1  0.82901823  0.52312881  0.42042212  1
  O  O35  1  0.82030477  0.00480491  0.76060494  1
  O  O36  1  0.93534831  0.33771410  0.75237282  1
  O  O37  1  0.98035601  0.27724860  0.26005553  1
