# generated using pymatgen
data_Na5Mg4Fe8(PO4)12
_symmetry_space_group_name_H-M   'P 1'
_cell_length_a   12.91658027
_cell_length_b   9.28905284
_cell_length_c   9.28905306
_cell_angle_alpha   85.67883285
_cell_angle_beta   63.87665970
_cell_angle_gamma   63.87666317
_symmetry_Int_Tables_number   1
_chemical_formula_structural   Na5Mg4Fe8(PO4)12
_chemical_formula_sum   'Na5 Mg4 Fe8 P12 O48'
_cell_volume   888.69136441
_cell_formula_units_Z   1
loop_
 _symmetry_equiv_pos_site_id
 _symmetry_equiv_pos_as_xyz
  1  'x, y, z'
loop_
 _atom_site_type_symbol
 _atom_site_label
 _atom_site_symmetry_multiplicity
 _atom_site_fract_x
 _atom_site_fract_y
 _atom_site_fract_z
 _atom_site_occupancy
  Na  Na0  1  0.99846832  0.50047609  0.50132655  1
  Na  Na1  1  0.24826823  0.50101688  0.50207848  1
  Na  Na2  1  0.37500000  0.00644113  0.99355887  1
  Na  Na3  1  0.50173177  0.49792152  0.49898312  1
  Na  Na4  1  0.75153168  0.49867345  0.49952391  1
  Mg  Mg5  1  0.12340522  0.26160827  0.73824442  1
  Mg  Mg6  1  0.37500000  0.73387552  0.26612448  1
  Mg  Mg7  1  0.62659478  0.26175558  0.73839173  1
  Mg  Mg8  1  0.87500000  0.73811646  0.26188354  1
  Fe  Fe9  1  0.09499174  0.06131978  0.36741905  1
  Fe  Fe10  1  0.34621102  0.37501881  0.06258334  1
  Fe  Fe11  1  0.15181437  0.63395434  0.93936229  1
  Fe  Fe12  1  0.59818563  0.06063771  0.36604566  1
  Fe  Fe13  1  0.40378898  0.93741666  0.62498119  1
  Fe  Fe14  1  0.84664427  0.36619910  0.06087399  1
  Fe  Fe15  1  0.65500826  0.63258095  0.93868022  1
  Fe  Fe16  1  0.90335573  0.93912601  0.63380090  1
  P  P17  1  0.07368111  0.35047904  0.12734450  1
  P  P18  1  0.12446154  0.71182340  0.28994604  1
  P  P19  1  0.32272373  0.12809821  0.34758428  1
  P  P20  1  0.17852724  0.86888102  0.64979746  1
  P  P21  1  0.37500000  0.28788843  0.71211157  1
  P  P22  1  0.57147276  0.35020254  0.13111898  1
  P  P23  1  0.42727627  0.65241572  0.87190179  1
  P  P24  1  0.62553846  0.71005396  0.28817660  1
  P  P25  1  0.81993655  0.13101471  0.35234801  1
  P  P26  1  0.67631889  0.87265550  0.64952096  1
  P  P27  1  0.87500000  0.28993914  0.71006086  1
  P  P28  1  0.93006345  0.64765199  0.86898529  1
  O  O29  1  0.03112701  0.33097134  0.99853506  1
  O  O30  1  0.13359293  0.18397238  0.17734936  1
  O  O31  1  0.18459837  0.40550590  0.04170556  1
  O  O32  1  0.05669207  0.73838466  0.17953614  1
  O  O33  1  0.28814436  0.99482585  0.31964330  1
  O  O34  1  0.20952698  0.26706960  0.48263280  1
  O  O35  1  0.02415072  0.73863238  0.46885417  1
  O  O36  1  0.37198734  0.18758057  0.18082236  1
  O  O37  1  0.22536166  0.53109303  0.26192858  1
  O  O38  1  0.04435332  0.51231282  0.72966226  1
  O  O39  1  0.19404983  0.81900492  0.26029910  1
  O  O40  1  0.43474029  0.04521380  0.39979167  1
  O  O41  1  0.06532612  0.95291583  0.60267831  1
  O  O42  1  0.30798779  0.17520651  0.74230480  1
  O  O43  1  0.52980830  0.33278183  0.99975640  1
  O  O44  1  0.45793420  0.48465386  0.27055894  1
  O  O45  1  0.27435789  0.46675951  0.74013097  1
  O  O46  1  0.13123517  0.80977937  0.81506607  1
  O  O47  1  0.61876483  0.18493393  0.19022063  1
  O  O48  1  0.47564211  0.25986903  0.53324049  1
  O  O49  1  0.29206580  0.72944106  0.51534614  1
  O  O50  1  0.22019170  0.00024360  0.66721817  1
  O  O51  1  0.44201221  0.25769520  0.82479349  1
  O  O52  1  0.68467388  0.39732169  0.04708417  1
  O  O53  1  0.31525971  0.60020833  0.95478620  1
  O  O54  1  0.55595017  0.73970090  0.18099508  1
  O  O55  1  0.77896965  0.00058607  0.33006386  1
  O  O56  1  0.70564668  0.27033774  0.48768718  1
  O  O57  1  0.52463834  0.73807142  0.46890697  1
  O  O58  1  0.37801266  0.81917764  0.81241943  1
  O  O59  1  0.87107401  0.19100754  0.18896900  1
  O  O60  1  0.72584928  0.53114583  0.26136762  1
  O  O61  1  0.54047302  0.51736720  0.73293040  1
  O  O62  1  0.46185564  0.68035670  0.00517415  1
  O  O63  1  0.69330793  0.82046386  0.26161534  1
  O  O64  1  0.93081365  0.04350972  0.40361324  1
  O  O65  1  0.56540163  0.95829444  0.59449410  1
  O  O66  1  0.80725098  0.17887868  0.73857274  1
  O  O67  1  0.96052178  0.48312542  0.26920344  1
  O  O68  1  0.77376236  0.46831611  0.73855152  1
  O  O69  1  0.61640707  0.82265064  0.81602762  1
  O  O70  1  0.97623764  0.26144848  0.53168389  1
  O  O71  1  0.78947822  0.73079656  0.51687458  1
  O  O72  1  0.71887299  0.00146494  0.66902866  1
  O  O73  1  0.94274902  0.26142726  0.82112132  1
  O  O74  1  0.81918635  0.59638676  0.95649028  1
  O  O75  1  0.87892599  0.81103100  0.80899246  1
  O  O76  1  0.97103035  0.66993614  0.99941393  1
