# generated using pymatgen
data_Na2Mn2Fe(PO4)3
_symmetry_space_group_name_H-M   'P 1'
_cell_length_a   6.60911450
_cell_length_b   8.80829680
_cell_length_c   8.80829680
_cell_angle_alpha   92.86348267
_cell_angle_beta   106.49804268
_cell_angle_gamma   106.49804268
_symmetry_Int_Tables_number   1
_chemical_formula_structural   Na2Mn2Fe(PO4)3
_chemical_formula_sum   'Na4 Mn4 Fe2 P6 O24'
_cell_volume   466.64095734
_cell_formula_units_Z   2
loop_
 _symmetry_equiv_pos_site_id
 _symmetry_equiv_pos_as_xyz
  1  'x, y, z'
loop_
 _atom_site_type_symbol
 _atom_site_label
 _atom_site_symmetry_multiplicity
 _atom_site_fract_x
 _atom_site_fract_y
 _atom_site_fract_z
 _atom_site_occupancy
  Na  Na0  1  0.75000000  0.02131668  0.97868332  1
  Na  Na1  1  0.25000000  0.98292447  0.01707553  1
  Na  Na2  1  0.49909222  0.50031341  0.49987852  1
  Na  Na3  1  0.00090778  0.50012148  0.49968659  1
  Mn  Mn4  1  0.35969250  0.93361387  0.62505971  1
  Mn  Mn5  1  0.14030750  0.37494029  0.06638613  1
  Mn  Mn6  1  0.25000000  0.26862889  0.73137111  1
  Mn  Mn7  1  0.75000000  0.72854990  0.27145010  1
  Fe  Fe8  1  0.63485856  0.06349489  0.38099371  1
  Fe  Fe9  1  0.86514144  0.61900629  0.93650511  1
  P  P10  1  0.37276352  0.65681873  0.87340097  1
  P  P11  1  0.12723648  0.12659903  0.34318127  1
  P  P12  1  0.62753080  0.34467507  0.12842807  1
  P  P13  1  0.87246920  0.87157193  0.65532493  1
  P  P14  1  0.75000000  0.28670716  0.71329284  1
  P  P15  1  0.25000000  0.71515374  0.28484626  1
  O  O16  1  0.60281753  0.66312209  0.99921451  1
  O  O17  1  0.89718247  0.00078549  0.33687791  1
  O  O18  1  0.40055800  0.31763565  0.99816921  1
  O  O19  1  0.09944200  0.00183079  0.68236435  1
  O  O20  1  0.32423673  0.53443866  0.72637785  1
  O  O21  1  0.17576327  0.27362215  0.46556134  1
  O  O22  1  0.67149551  0.46808376  0.27379873  1
  O  O23  1  0.82850449  0.72620127  0.53191624  1
  O  O24  1  0.74856770  0.26106010  0.53606990  1
  O  O25  1  0.75143230  0.46393010  0.73893990  1
  O  O26  1  0.22550827  0.73681267  0.45090904  1
  O  O27  1  0.27449173  0.54909096  0.26318733  1
  O  O28  1  0.18046302  0.60434735  0.94872423  1
  O  O29  1  0.31953698  0.05127577  0.39565265  1
  O  O30  1  0.81452146  0.40624641  0.04948904  1
  O  O31  1  0.68547854  0.95051096  0.59375359  1
  O  O32  1  0.39660496  0.83085778  0.84056265  1
  O  O33  1  0.10339504  0.15943735  0.16914222  1
  O  O34  1  0.62408180  0.17545122  0.18105699  1
  O  O35  1  0.87591820  0.81894301  0.82454878  1
  O  O36  1  0.53990569  0.17871458  0.74426706  1
  O  O37  1  0.96009431  0.25573294  0.82128542  1
  O  O38  1  0.46285605  0.83756127  0.26012819  1
  O  O39  1  0.03714395  0.73987181  0.16243873  1
