# generated using pymatgen
data_Na4CaFe4(PO4)6
_symmetry_space_group_name_H-M   'P 1'
_cell_length_a   6.49031391
_cell_length_b   8.83494466
_cell_length_c   8.83494466
_cell_angle_alpha   91.49461812
_cell_angle_beta   106.38003360
_cell_angle_gamma   106.38003360
_symmetry_Int_Tables_number   1
_chemical_formula_structural   Na4CaFe4(PO4)6
_chemical_formula_sum   'Na4 Ca1 Fe4 P6 O24'
_cell_volume   463.24033291
_cell_formula_units_Z   1
loop_
 _symmetry_equiv_pos_site_id
 _symmetry_equiv_pos_as_xyz
  1  'x, y, z'
loop_
 _atom_site_type_symbol
 _atom_site_label
 _atom_site_symmetry_multiplicity
 _atom_site_fract_x
 _atom_site_fract_y
 _atom_site_fract_z
 _atom_site_occupancy
  Na  Na0  1  0.50283221  0.50308169  0.49653722  1
  Na  Na1  1  0.99716779  0.50346278  0.49691831  1
  Na  Na2  1  0.75000000  0.00620332  0.99379668  1
  Na  Na3  1  0.75000000  0.73278592  0.26721408  1
  Ca  Ca4  1  0.25000000  0.26286818  0.73713182  1
  Fe  Fe5  1  0.35797329  0.92791881  0.61598887  1
  Fe  Fe6  1  0.14202671  0.38401113  0.07208119  1
  Fe  Fe7  1  0.63478660  0.06476296  0.37563726  1
  Fe  Fe8  1  0.86521340  0.62436274  0.93523704  1
  P  P9  1  0.75000000  0.27631926  0.72368074  1
  P  P10  1  0.25000000  0.72552471  0.27447529  1
  P  P11  1  0.36684085  0.65119474  0.85741537  1
  P  P12  1  0.13315915  0.14258463  0.34880526  1
  P  P13  1  0.63456600  0.34935342  0.14397875  1
  P  P14  1  0.86543400  0.85602125  0.65064658  1
  O  O15  1  0.53842943  0.15038671  0.74378976  1
  O  O16  1  0.96157057  0.25621024  0.84961329  1
  O  O17  1  0.46412351  0.84802590  0.25822622  1
  O  O18  1  0.03587649  0.74177378  0.15197410  1
  O  O19  1  0.31379765  0.53383216  0.71123107  1
  O  O20  1  0.18620235  0.28876893  0.46616784  1
  O  O21  1  0.68030014  0.46154195  0.28935752  1
  O  O22  1  0.81969986  0.71064248  0.53845805  1
  O  O23  1  0.77627351  0.25302058  0.55613524  1
  O  O24  1  0.72372649  0.44386476  0.74697942  1
  O  O25  1  0.22903826  0.74611522  0.44529097  1
  O  O26  1  0.27096174  0.55470903  0.25388478  1
  O  O27  1  0.38248178  0.82196592  0.81183824  1
  O  O28  1  0.11751822  0.18816176  0.17803408  1
  O  O29  1  0.62472408  0.17733378  0.18435703  1
  O  O30  1  0.87527592  0.81564297  0.82266622  1
  O  O31  1  0.59501358  0.66054754  0.98189542  1
  O  O32  1  0.90498642  0.01810458  0.33945246  1
  O  O33  1  0.40550533  0.34214628  0.01697865  1
  O  O34  1  0.09449467  0.98302135  0.65785372  1
  O  O35  1  0.17422059  0.59164668  0.93858320  1
  O  O36  1  0.32577941  0.06141680  0.40835332  1
  O  O37  1  0.82466787  0.40711370  0.05944863  1
  O  O38  1  0.67533213  0.94055137  0.59288630  1
