# generated using pymatgen
data_Nd20Mn19O60
_symmetry_space_group_name_H-M   'P 1'
_cell_length_a   27.31352445
_cell_length_b   12.33841863
_cell_length_c   9.45553441
_cell_angle_alpha   59.23404051
_cell_angle_beta   54.57640900
_cell_angle_gamma   28.32391087
_symmetry_Int_Tables_number   1
_chemical_formula_structural   Nd20Mn19O60
_chemical_formula_sum   'Nd20 Mn19 O60'
_cell_volume   1232.01216584
_cell_formula_units_Z   1
loop_
 _symmetry_equiv_pos_site_id
 _symmetry_equiv_pos_as_xyz
  1  'x, y, z'
loop_
 _atom_site_type_symbol
 _atom_site_label
 _atom_site_symmetry_multiplicity
 _atom_site_fract_x
 _atom_site_fract_y
 _atom_site_fract_z
 _atom_site_occupancy
  Nd  Nd0  1  0.11838071  0.07077275  0.25043640  1
  Nd  Nd1  1  0.02608413  0.56930753  0.25194343  1
  Nd  Nd2  1  0.31951158  0.06843563  0.25073582  1
  Nd  Nd3  1  0.17488904  0.43107126  0.74958976  1
  Nd  Nd4  1  0.22513180  0.56873090  0.25167266  1
  Nd  Nd5  1  0.52253391  0.06410418  0.24801057  1
  Nd  Nd6  1  0.07746609  0.93589582  0.75198943  1
  Nd  Nd7  1  0.37486820  0.43126910  0.74832734  1
  Nd  Nd8  1  0.42511096  0.56892874  0.25041024  1
  Nd  Nd9  1  0.71907349  0.06854056  0.25310556  1
  Nd  Nd10  1  0.28048842  0.93156437  0.74926418  1
  Nd  Nd11  1  0.57391587  0.43069247  0.74805657  1
  Nd  Nd12  1  0.63338463  0.56839621  0.23849827  1
  Nd  Nd13  1  0.91334860  0.09185243  0.23256292  1
  Nd  Nd14  1  0.48161929  0.92922725  0.74956360  1
  Nd  Nd15  1  0.77806292  0.43227245  0.75449398  1
  Nd  Nd16  1  0.82193708  0.56772755  0.24550602  1
  Nd  Nd17  1  0.68665140  0.90814757  0.76743708  1
  Nd  Nd18  1  0.96661537  0.43160379  0.76150173  1
  Nd  Nd19  1  0.88092651  0.93145944  0.74689444  1
  Mn  Mn20  1  0.10295660  0.99457899  0.99930416  1
  Mn  Mn21  1  0.99698863  0.50573352  0.00086956  1
  Mn  Mn22  1  0.30000000  -0.00000000  0.00000000  1
  Mn  Mn23  1  0.19933952  0.50131744  0.00065858  1
  Mn  Mn24  1  0.09787222  0.50279757  0.50153017  1
  Mn  Mn25  1  0.49704340  0.00542101  0.00069584  1
  Mn  Mn26  1  0.30000000  0.50000000  0.50000000  1
  Mn  Mn27  1  0.40066048  0.49868256  0.99934142  1
  Mn  Mn28  1  0.70139785  0.00239877  0.99910609  1
  Mn  Mn29  1  0.19892202  0.00279095  0.50017763  1
  Mn  Mn30  1  0.50212778  0.49720243  0.49846983  1
  Mn  Mn31  1  0.60301137  0.49426648  0.99913044  1
  Mn  Mn32  1  0.89860215  0.99760123  0.00089391  1
  Mn  Mn33  1  0.40107798  0.99720905  0.49982237  1
  Mn  Mn34  1  0.70195076  0.49393667  0.50665223  1
  Mn  Mn35  1  0.60126853  0.99806092  0.50131455  1
  Mn  Mn36  1  0.89804924  0.50606333  0.49334777  1
  Mn  Mn37  1  0.80000000  -0.00000000  0.50000000  1
  Mn  Mn38  1  0.99873147  0.00193908  0.49868545  1
  O  O39  1  0.00662600  0.31421515  0.04849468  1
  O  O40  1  0.05767213  0.18799454  0.54520332  1
  O  O41  1  0.15879591  0.02678505  0.74882309  1
  O  O42  1  0.20688565  0.31441959  0.04719278  1
  O  O43  1  0.12605873  0.31410162  0.45337365  1
  O  O44  1  0.02219515  0.81418297  0.04398293  1
  O  O45  1  0.01793074  0.52806850  0.75302096  1
  O  O46  1  0.17873089  0.47413725  0.25049973  1
  O  O47  1  0.17699416  0.18833636  0.95200267  1
  O  O48  1  0.25820653  0.18690383  0.54742616  1
  O  O49  1  0.07289187  0.68873851  0.54813060  1
  O  O50  1  0.04121023  0.97482684  0.25134006  1
  O  O51  1  0.35865848  0.02601950  0.74941102  1
  O  O52  1  0.32565467  0.31432539  0.45360043  1
  O  O53  1  0.40608383  0.31497183  0.04650101  1
  O  O54  1  0.22368149  0.81303630  0.04755240  1
  O  O55  1  0.14134920  0.81360775  0.45316321  1
  O  O56  1  0.22009210  0.52807818  0.75048522  1
  O  O57  1  0.37990790  0.47192182  0.24951478  1
  O  O58  1  0.45865080  0.18639225  0.54683679  1
  O  O59  1  0.37631851  0.18696370  0.95244760  1
  O  O60  1  0.19391617  0.68502817  0.95349899  1
  O  O61  1  0.27434533  0.68567461  0.54639957  1
  O  O62  1  0.24134152  0.97398050  0.25058898  1
  O  O63  1  0.55878977  0.02517316  0.74865994  1
  O  O64  1  0.60957454  0.30199775  0.04977305  1
  O  O65  1  0.52710813  0.31126149  0.45186940  1
  O  O66  1  0.34179347  0.81309617  0.45257384  1
  O  O67  1  0.42300584  0.81166364  0.04799733  1
  O  O68  1  0.42126911  0.52586275  0.74950027  1
  O  O69  1  0.58206926  0.47193150  0.24697904  1
  O  O70  1  0.57780485  0.18581703  0.95601707  1
  O  O71  1  0.66007756  0.17892295  0.55122693  1
  O  O72  1  0.47394127  0.68589838  0.54662635  1
  O  O73  1  0.39311435  0.68558041  0.95280722  1
  O  O74  1  0.44120409  0.97321495  0.25117691  1
  O  O75  1  0.75484081  0.03382905  0.75727431  1
  O  O76  1  0.72727014  0.30495467  0.45480051  1
  O  O77  1  0.81636536  0.27026263  0.04386541  1
  O  O78  1  0.54232787  0.81200546  0.45479668  1
  O  O79  1  0.61508723  0.82845240  0.04536525  1
  O  O80  1  0.62050053  0.52437641  0.75216851  1
  O  O81  1  0.76754849  0.48502836  0.26775759  1
  O  O82  1  0.77817491  0.17879710  0.95317950  1
  O  O83  1  0.85524073  0.19376380  0.54802119  1
  O  O84  1  0.59337400  0.68578485  0.95150532  1
  O  O85  1  0.67251625  0.69047137  0.55130324  1
  O  O86  1  0.64196670  0.97682867  0.25064381  1
  O  O87  1  0.95803330  0.02317133  0.74935619  1
  O  O88  1  0.92748375  0.30952863  0.44869676  1
  O  O89  1  0.74475927  0.80623620  0.45197881  1
  O  O90  1  0.82182509  0.82120290  0.04682050  1
  O  O91  1  0.83245151  0.51497164  0.73224241  1
  O  O92  1  0.97949947  0.47562359  0.24783149  1
  O  O93  1  0.98491277  0.17154760  0.95463475  1
  O  O94  1  0.87272986  0.69504533  0.54519949  1
  O  O95  1  0.78363464  0.72973737  0.95613459  1
  O  O96  1  0.84515919  0.96617095  0.24272569  1
  O  O97  1  0.93992244  0.82107705  0.44877307  1
  O  O98  1  0.99042546  0.69800225  0.95022695  1
