# generated using pymatgen
data_Ti2Sb(PO4)3
_symmetry_space_group_name_H-M   'P 1'
_cell_length_a   8.95807758
_cell_length_b   8.95807743
_cell_length_c   8.95807746
_cell_angle_alpha   58.05230302
_cell_angle_beta   58.05230175
_cell_angle_gamma   58.05230325
_symmetry_Int_Tables_number   1
_chemical_formula_structural   Ti2Sb(PO4)3
_chemical_formula_sum   'Ti4 Sb2 P6 O24'
_cell_volume   485.60705186
_cell_formula_units_Z   2
loop_
 _symmetry_equiv_pos_site_id
 _symmetry_equiv_pos_as_xyz
  1  'x, y, z'
loop_
 _atom_site_type_symbol
 _atom_site_label
 _atom_site_symmetry_multiplicity
 _atom_site_fract_x
 _atom_site_fract_y
 _atom_site_fract_z
 _atom_site_occupancy
  Ti  Ti0  1  0.14802915  0.14802915  0.14802915  1
  Ti  Ti1  1  0.35197085  0.35197085  0.35197085  1
  Ti  Ti2  1  0.64802915  0.64802915  0.64802915  1
  Ti  Ti3  1  0.85197085  0.85197085  0.85197085  1
  Sb  Sb4  1  0.00000000  0.00000000  0.00000000  1
  Sb  Sb5  1  0.50000000  0.50000000  0.50000000  1
  P  P6  1  0.04079886  0.75000000  0.45920114  1
  P  P7  1  0.45920114  0.04079886  0.75000000  1
  P  P8  1  0.75000000  0.45920114  0.04079886  1
  P  P9  1  0.25000000  0.54079886  0.95920114  1
  P  P10  1  0.54079886  0.95920114  0.25000000  1
  P  P11  1  0.95920114  0.25000000  0.54079886  1
  O  O12  1  0.11737460  0.30055760  0.50505265  1
  O  O13  1  0.30055760  0.50505265  0.11737460  1
  O  O14  1  0.06258808  0.91855221  0.26980902  1
  O  O15  1  0.50505265  0.11737460  0.30055760  1
  O  O16  1  0.00505265  0.80055760  0.61737460  1
  O  O17  1  0.23019098  0.58144779  0.43741192  1
  O  O18  1  0.26980902  0.06258808  0.91855221  1
  O  O19  1  0.43741192  0.23019098  0.58144779  1
  O  O20  1  0.19944240  0.38262540  0.99494735  1
  O  O21  1  0.58144779  0.43741192  0.23019098  1
  O  O22  1  0.08144779  0.73019098  0.93741192  1
  O  O23  1  0.38262540  0.99494735  0.19944240  1
  O  O24  1  0.61737460  0.00505265  0.80055760  1
  O  O25  1  0.91855221  0.26980902  0.06258808  1
  O  O26  1  0.41855221  0.56258808  0.76980902  1
  O  O27  1  0.80055760  0.61737460  0.00505265  1
  O  O28  1  0.56258808  0.76980902  0.41855221  1
  O  O29  1  0.73019098  0.93741192  0.08144779  1
  O  O30  1  0.76980902  0.41855221  0.56258808  1
  O  O31  1  0.99494735  0.19944240  0.38262540  1
  O  O32  1  0.49494735  0.88262540  0.69944240  1
  O  O33  1  0.93741192  0.08144779  0.73019098  1
  O  O34  1  0.69944240  0.49494735  0.88262540  1
  O  O35  1  0.88262540  0.69944240  0.49494735  1
