# generated using pymatgen
data_Nb7Te6
_symmetry_space_group_name_H-M   'P 1'
_cell_length_a   11.50446554
_cell_length_b   15.13359416
_cell_length_c   15.40404241
_cell_angle_alpha   49.66236366
_cell_angle_beta   41.84672376
_cell_angle_gamma   75.50977418
_symmetry_Int_Tables_number   1
_chemical_formula_structural   Nb7Te6
_chemical_formula_sum   'Nb28 Te24'
_cell_volume   1213.64499673
_cell_formula_units_Z   4
loop_
 _symmetry_equiv_pos_site_id
 _symmetry_equiv_pos_as_xyz
  1  'x, y, z'
loop_
 _atom_site_type_symbol
 _atom_site_label
 _atom_site_symmetry_multiplicity
 _atom_site_fract_x
 _atom_site_fract_y
 _atom_site_fract_z
 _atom_site_occupancy
  Nb  Nb0  1  0.07185175  0.67676288  0.21187673  1
  Nb  Nb1  1  0.99008688  0.00369227  0.49896587  1
  Nb  Nb2  1  0.00991312  0.49630773  0.50103413  1
  Nb  Nb3  1  0.06480569  0.12796143  0.55464985  1
  Nb  Nb4  1  0.38531857  0.17520697  0.22035110  1
  Nb  Nb5  1  0.05588382  0.62091542  0.56565775  1
  Nb  Nb6  1  0.40330848  0.68325231  0.19969902  1
  Nb  Nb7  1  0.27718765  0.38261249  0.42707073  1
  Nb  Nb8  1  0.32720721  0.99676773  0.50410325  1
  Nb  Nb9  1  0.25983306  0.88185012  0.43714827  1
  Nb  Nb10  1  0.32481230  0.49916494  0.49816545  1
  Nb  Nb11  1  0.40723957  0.12168214  0.55686612  1
  Nb  Nb12  1  0.71579616  0.17050068  0.22812257  1
  Nb  Nb13  1  0.39345009  0.61303339  0.56592201  1
  Nb  Nb14  1  0.28420384  0.32949932  0.77187743  1
  Nb  Nb15  1  0.72016423  0.67625854  0.21374348  1
  Nb  Nb16  1  0.59276043  0.37831786  0.44313388  1
  Nb  Nb17  1  0.27983577  0.82374146  0.78625652  1
  Nb  Nb18  1  0.67518770  0.00083506  0.50183455  1
  Nb  Nb19  1  0.60654991  0.88696661  0.43407799  1
  Nb  Nb20  1  0.67279279  0.50323227  0.49589675  1
  Nb  Nb21  1  0.72281235  0.11738751  0.57292927  1
  Nb  Nb22  1  0.74016694  0.61814988  0.56285173  1
  Nb  Nb23  1  0.61468143  0.32479303  0.77964890  1
  Nb  Nb24  1  0.93519431  0.37203857  0.44535015  1
  Nb  Nb25  1  0.59669152  0.81674769  0.80030098  1
  Nb  Nb26  1  0.94411618  0.87908458  0.43434225  1
  Nb  Nb27  1  0.92814825  0.82323712  0.78812327  1
  Te  Te28  1  0.12848409  0.28718385  0.26572427  1
  Te  Te29  1  0.31742856  0.06739542  0.15671844  1
  Te  Te30  1  0.13981351  0.79439269  0.26375973  1
  Te  Te31  1  0.32297455  0.55797201  0.15495872  1
  Te  Te32  1  0.46703675  0.28951650  0.27012075  1
  Te  Te33  1  0.01122204  0.43340169  0.84068608  1
  Te  Te34  1  0.65694031  0.06806292  0.15104183  1
  Te  Te35  1  0.46398735  0.79034525  0.27042361  1
  Te  Te36  1  0.18988184  0.21515030  0.72960077  1
  Te  Te37  1  0.01340822  0.93983749  0.83976830  1
  Te  Te38  1  0.66157136  0.56105243  0.15148631  1
  Te  Te39  1  0.20214662  0.71367269  0.72590351  1
  Te  Te40  1  0.81011816  0.28484970  0.27039923  1
  Te  Te41  1  0.34305969  0.43193708  0.84895817  1
  Te  Te42  1  0.98877796  0.06659831  0.15931392  1
  Te  Te43  1  0.79785338  0.78632731  0.27409649  1
  Te  Te44  1  0.53296325  0.21048350  0.72987925  1
  Te  Te45  1  0.33842864  0.93894757  0.84851369  1
  Te  Te46  1  0.98659178  0.56016251  0.16023170  1
  Te  Te47  1  0.53601265  0.70965475  0.72957639  1
  Te  Te48  1  0.68257144  0.43260458  0.84328156  1
  Te  Te49  1  0.87151591  0.21281615  0.73427573  1
  Te  Te50  1  0.67702545  0.94202799  0.84504128  1
  Te  Te51  1  0.86018649  0.70560731  0.73624027  1
