# generated using pymatgen
data_CoPO4
_symmetry_space_group_name_H-M   'P 1'
_cell_length_a   10.46467778
_cell_length_b   13.47171740
_cell_length_c   5.22927468
_cell_angle_alpha   90.00000000
_cell_angle_beta   90.00000000
_cell_angle_gamma   90.00000000
_symmetry_Int_Tables_number   1
_chemical_formula_structural   CoPO4
_chemical_formula_sum   'Co8 P8 O32'
_cell_volume   737.20840690
_cell_formula_units_Z   8
loop_
 _symmetry_equiv_pos_site_id
 _symmetry_equiv_pos_as_xyz
  1  'x, y, z'
loop_
 _atom_site_type_symbol
 _atom_site_label
 _atom_site_symmetry_multiplicity
 _atom_site_fract_x
 _atom_site_fract_y
 _atom_site_fract_z
 _atom_site_occupancy
  Co  Co0  1  0.03306092  0.50240064  0.92839006  1
  Co  Co1  1  0.21543298  0.75057283  0.55312896  1
  Co  Co2  1  0.28456702  0.25057283  0.55312896  1
  Co  Co3  1  0.46693908  0.00240064  0.92839006  1
  Co  Co4  1  0.53306092  0.50240064  0.07160994  1
  Co  Co5  1  0.71543298  0.75057283  0.44687104  1
  Co  Co6  1  0.78456702  0.25057283  0.44687104  1
  Co  Co7  1  0.96693908  0.00240064  0.07160994  1
  P  P8  1  0.03306224  0.37619333  0.43553799  1
  P  P9  1  0.22021726  0.12732748  0.04904540  1
  P  P10  1  0.27978274  0.62732748  0.04904540  1
  P  P11  1  0.46693776  0.87619333  0.43553799  1
  P  P12  1  0.53306224  0.37619333  0.56446201  1
  P  P13  1  0.72021726  0.12732748  0.95095460  1
  P  P14  1  0.77978274  0.62732748  0.95095460  1
  P  P15  1  0.96693776  0.87619333  0.56446201  1
  O  O16  1  0.99271782  0.89634252  0.85187564  1
  O  O17  1  0.00417489  0.97042157  0.41036098  1
  O  O18  1  0.04520853  0.78320031  0.48727983  1
  O  O19  1  0.07568376  0.10880252  0.00406323  1
  O  O20  1  0.17670746  0.35615946  0.48294015  1
  O  O21  1  0.23802691  0.72093487  0.89779784  1
  O  O22  1  0.20524632  0.53372840  0.96032291  1
  O  O23  1  0.24542642  0.14492906  0.33761572  1
  O  O24  1  0.25457358  0.64492906  0.33761572  1
  O  O25  1  0.29475368  0.03372840  0.96032291  1
  O  O26  1  0.26197309  0.22093487  0.89779784  1
  O  O27  1  0.32329254  0.85615946  0.48294015  1
  O  O28  1  0.42431624  0.60880252  0.00406323  1
  O  O29  1  0.45479147  0.28320031  0.48727983  1
  O  O30  1  0.49582511  0.47042157  0.41036098  1
  O  O31  1  0.50728218  0.39634252  0.85187564  1
  O  O32  1  0.49271782  0.89634252  0.14812436  1
  O  O33  1  0.50417489  0.97042157  0.58963902  1
  O  O34  1  0.54520853  0.78320031  0.51272017  1
  O  O35  1  0.57568376  0.10880252  0.99593677  1
  O  O36  1  0.67670746  0.35615946  0.51705985  1
  O  O37  1  0.73802691  0.72093487  0.10220216  1
  O  O38  1  0.70524632  0.53372840  0.03967709  1
  O  O39  1  0.74542642  0.14492906  0.66238428  1
  O  O40  1  0.75457358  0.64492906  0.66238428  1
  O  O41  1  0.79475368  0.03372840  0.03967709  1
  O  O42  1  0.76197309  0.22093487  0.10220216  1
  O  O43  1  0.82329254  0.85615946  0.51705985  1
  O  O44  1  0.92431624  0.60880252  0.99593677  1
  O  O45  1  0.95479147  0.28320031  0.51272017  1
  O  O46  1  0.99582511  0.47042157  0.58963902  1
  O  O47  1  0.00728218  0.39634252  0.14812436  1
