# generated using pymatgen
data_Li2Cr3SbO8
_symmetry_space_group_name_H-M   'P 1'
_cell_length_a   6.08171397
_cell_length_b   6.08171444
_cell_length_c   6.08171412
_cell_angle_alpha   59.37743080
_cell_angle_beta   59.37743214
_cell_angle_gamma   59.37743854
_symmetry_Int_Tables_number   1
_chemical_formula_structural   Li2Cr3SbO8
_chemical_formula_sum   'Li2 Cr3 Sb1 O8'
_cell_volume   156.80696673
_cell_formula_units_Z   1
loop_
 _symmetry_equiv_pos_site_id
 _symmetry_equiv_pos_as_xyz
  1  'x, y, z'
loop_
 _atom_site_type_symbol
 _atom_site_label
 _atom_site_symmetry_multiplicity
 _atom_site_fract_x
 _atom_site_fract_y
 _atom_site_fract_z
 _atom_site_occupancy
  Li  Li0  1  0.12950754  0.12950754  0.12950754  1
  Li  Li1  1  0.87049246  0.87049246  0.87049246  1
  Cr  Cr2  1  -0.00000000  0.50000000  0.50000000  1
  Cr  Cr3  1  0.50000000  -0.00000000  0.50000000  1
  Cr  Cr4  1  0.50000000  0.50000000  0.00000000  1
  Sb  Sb5  1  0.50000000  0.50000000  0.50000000  1
  O  O6  1  0.26562003  0.26562003  0.26562003  1
  O  O7  1  0.26412468  0.26412468  0.71465676  1
  O  O8  1  0.26412468  0.71465676  0.26412468  1
  O  O9  1  0.71465676  0.26412468  0.26412468  1
  O  O10  1  0.28534324  0.73587532  0.73587532  1
  O  O11  1  0.73587532  0.28534324  0.73587532  1
  O  O12  1  0.73587532  0.73587532  0.28534324  1
  O  O13  1  0.73437997  0.73437997  0.73437997  1
