# generated using pymatgen
data_Na5Fe2P2(CO7)2
_symmetry_space_group_name_H-M   'P 1'
_cell_length_a   10.40524797
_cell_length_b   8.46357771
_cell_length_c   8.49036252
_cell_angle_alpha   76.85363012
_cell_angle_beta   71.28635459
_cell_angle_gamma   107.52190883
_symmetry_Int_Tables_number   1
_chemical_formula_structural   Na5Fe2P2(CO7)2
_chemical_formula_sum   'Na10 Fe4 P4 C4 O28'
_cell_volume   630.36418113
_cell_formula_units_Z   2
loop_
 _symmetry_equiv_pos_site_id
 _symmetry_equiv_pos_as_xyz
  1  'x, y, z'
loop_
 _atom_site_type_symbol
 _atom_site_label
 _atom_site_symmetry_multiplicity
 _atom_site_fract_x
 _atom_site_fract_y
 _atom_site_fract_z
 _atom_site_occupancy
  Na  Na0  1  0.91493846  0.70916777  0.55005180  1
  Na  Na1  1  0.92137263  0.21127041  0.05879569  1
  Na  Na2  1  0.72813676  0.75886106  0.26648302  1
  Na  Na3  1  0.73574670  0.49613027  0.00236201  1
  Na  Na4  1  0.74140038  0.23496058  0.75852891  1
  Na  Na5  1  0.27186324  0.74113894  0.23351698  1
  Na  Na6  1  0.25859962  0.26503942  0.74147109  1
  Na  Na7  1  0.26425330  0.00386973  0.49763799  1
  Na  Na8  1  0.07862737  0.28872959  0.44120431  1
  Na  Na9  1  0.08506154  0.79083223  0.94994820  1
  Fe  Fe10  1  0.64773690  0.30031933  0.44405404  1
  Fe  Fe11  1  0.65340297  0.81539076  0.92609518  1
  Fe  Fe12  1  0.35226310  0.19968067  0.05594596  1
  Fe  Fe13  1  0.34659703  0.68460924  0.57390482  1
  P  P14  1  0.58078550  0.55444793  0.68992064  1
  P  P15  1  0.57906109  0.06428912  0.18485273  1
  P  P16  1  0.42093891  0.43571088  0.31514727  1
  P  P17  1  0.41921450  0.94555207  0.81007936  1
  C  C18  1  0.92847965  0.48228402  0.27849910  1
  C  C19  1  0.94453511  0.98120957  0.77198415  1
  C  C20  1  0.07152035  0.01771598  0.22150090  1
  C  C21  1  0.05546489  0.51879043  0.72801585  1
  O  O22  1  0.93262197  0.92701963  0.29615866  1
  O  O23  1  0.91207603  0.44161145  0.80787533  1
  O  O24  1  0.86624886  0.33348433  0.41601461  1
  O  O25  1  0.87860199  0.83407771  0.91179695  1
  O  O26  1  0.83594747  0.52866354  0.22322334  1
  O  O27  1  0.86297571  0.04558762  0.71512804  1
  O  O28  1  0.68532963  0.99370034  0.07850267  1
  O  O29  1  0.67699123  0.65387143  0.77138533  1
  O  O30  1  0.67720825  0.47290016  0.57969379  1
  O  O31  1  0.67012117  0.18766022  0.25784039  1
  O  O32  1  0.56645811  0.58384396  0.16908520  1
  O  O33  1  0.56709010  0.09627241  0.66117970  1
  O  O34  1  0.54257194  0.18757149  0.05092390  1
  O  O35  1  0.54447492  0.67803558  0.56415150  1
  O  O36  1  0.45552508  0.82196442  0.93584850  1
  O  O37  1  0.45742806  0.31242851  0.44907610  1
  O  O38  1  0.43354189  0.91615604  0.33091480  1
  O  O39  1  0.43290990  0.40372759  0.83882030  1
  O  O40  1  0.32300877  0.84612857  0.72861467  1
  O  O41  1  0.31467037  0.50629966  0.42149733  1
  O  O42  1  0.32987883  0.31233978  0.24215961  1
  O  O43  1  0.32279175  0.02709984  0.92030621  1
  O  O44  1  0.16405253  0.97133646  0.27677766  1
  O  O45  1  0.13702429  0.45441238  0.78487196  1
  O  O46  1  0.13375114  0.16651567  0.08398539  1
  O  O47  1  0.12139801  0.66592229  0.58820305  1
  O  O48  1  0.06737803  0.57298037  0.20384134  1
  O  O49  1  0.08792397  0.05838855  0.69212467  1
