# generated using pymatgen
data_Li9Mn12Ni3O32
_symmetry_space_group_name_H-M   'P 1'
_cell_length_a   8.29063357
_cell_length_b   8.29123024
_cell_length_c   8.28964018
_cell_angle_alpha   89.99523452
_cell_angle_beta   90.01678520
_cell_angle_gamma   90.01449510
_symmetry_Int_Tables_number   1
_chemical_formula_structural   Li9Mn12Ni3O32
_chemical_formula_sum   'Li9 Mn12 Ni3 O32'
_cell_volume   569.82610525
_cell_formula_units_Z   1
loop_
 _symmetry_equiv_pos_site_id
 _symmetry_equiv_pos_as_xyz
  1  'x, y, z'
loop_
 _atom_site_type_symbol
 _atom_site_label
 _atom_site_symmetry_multiplicity
 _atom_site_fract_x
 _atom_site_fract_y
 _atom_site_fract_z
 _atom_site_occupancy
  Li  Li0  1  0.00331062  0.00453229  0.00674931  1
  Li  Li1  1  0.24472660  0.24696986  0.24429437  1
  Li  Li2  1  0.25395674  0.75397936  0.74537845  1
  Li  Li3  1  0.49560181  0.99555879  0.50379925  1
  Li  Li4  1  0.50504742  0.49399866  0.99702830  1
  Li  Li5  1  0.74700130  0.25669395  0.75470913  1
  Li  Li6  1  0.75620737  0.74498841  0.25340061  1
  Li  Li7  1  0.87507385  0.37511394  0.12514889  1
  Li  Li8  1  0.99419587  0.50333251  0.49477153  1
  Mn  Mn9  1  0.12088280  0.12951862  0.62432201  1
  Mn  Mn10  1  0.12276367  0.37948797  0.87360775  1
  Mn  Mn11  1  0.12650567  0.62243023  0.12125420  1
  Mn  Mn12  1  0.37099987  0.37525077  0.62127424  1
  Mn  Mn13  1  0.37473210  0.62060068  0.37080741  1
  Mn  Mn14  1  0.37885055  0.87131340  0.12514052  1
  Mn  Mn15  1  0.62356806  0.37107162  0.37243364  1
  Mn  Mn16  1  0.62717568  0.12359277  0.12950540  1
  Mn  Mn17  1  0.62904869  0.87452684  0.87939393  1
  Mn  Mn18  1  0.87107381  0.12739255  0.37656656  1
  Mn  Mn19  1  0.87509379  0.87835105  0.62851798  1
  Mn  Mn20  1  0.87923292  0.62648601  0.87712564  1
  Ni  Ni21  1  0.12445076  0.87495091  0.37434700  1
  Ni  Ni22  1  0.37496438  0.12584055  0.87579040  1
  Ni  Ni23  1  0.62559886  0.62420084  0.62498446  1
  O  O24  1  0.10226585  0.12407244  0.39197356  1
  O  O25  1  0.10811665  0.89805089  0.62279845  1
  O  O26  1  0.11514733  0.61513261  0.88482373  1
  O  O27  1  0.12754135  0.39386503  0.10004704  1
  O  O28  1  0.12896366  0.14703491  0.85844026  1
  O  O29  1  0.13520909  0.36441729  0.63411182  1
  O  O30  1  0.14209610  0.62600182  0.35235831  1
  O  O31  1  0.14859105  0.85841554  0.12732312  1
  O  O32  1  0.35232239  0.14219443  0.62609930  1
  O  O33  1  0.35860733  0.37338069  0.85138646  1
  O  O34  1  0.36600511  0.63524926  0.13539168  1
  O  O35  1  0.37380212  0.85188829  0.35810844  1
  O  O36  1  0.37553913  0.60793930  0.60199908  1
  O  O37  1  0.38421405  0.38545718  0.38524104  1
  O  O38  1  0.39153008  0.10129441  0.12380265  1
  O  O39  1  0.39763775  0.87654124  0.89199853  1
  O  O40  1  0.60148285  0.37780250  0.60870731  1
  O  O41  1  0.60806455  0.60263477  0.37719483  1
  O  O42  1  0.61482969  0.88398854  0.11437218  1
  O  O43  1  0.62106745  0.10834231  0.89692408  1
  O  O44  1  0.62250347  0.35008053  0.14390255  1
  O  O45  1  0.63480964  0.13488670  0.36521697  1
  O  O46  1  0.64182427  0.87229368  0.64762908  1
  O  O47  1  0.64748778  0.64177639  0.87292492  1
  O  O48  1  0.85000363  0.35610545  0.37764393  1
  O  O49  1  0.85595224  0.12232939  0.14968777  1
  O  O50  1  0.86436887  0.86619217  0.86479382  1
  O  O51  1  0.87430946  0.64870149  0.64172875  1
  O  O52  1  0.87633301  0.89177304  0.39857955  1
  O  O53  1  0.88541972  0.11477039  0.61624612  1
  O  O54  1  0.89401675  0.39974674  0.87236417  1
  O  O55  1  0.89987639  0.62765902  0.10602954  1
