# generated using pymatgen
data_Li2Mn2CuO6
_symmetry_space_group_name_H-M   'P 1'
_cell_length_a   5.10963175
_cell_length_b   5.10963112
_cell_length_c   10.31635309
_cell_angle_alpha   90.00000000
_cell_angle_beta   90.00000000
_cell_angle_gamma   121.18196164
_symmetry_Int_Tables_number   1
_chemical_formula_structural   Li2Mn2CuO6
_chemical_formula_sum   'Li4 Mn4 Cu2 O12'
_cell_volume   230.43010829
_cell_formula_units_Z   2
loop_
 _symmetry_equiv_pos_site_id
 _symmetry_equiv_pos_as_xyz
  1  'x, y, z'
loop_
 _atom_site_type_symbol
 _atom_site_label
 _atom_site_symmetry_multiplicity
 _atom_site_fract_x
 _atom_site_fract_y
 _atom_site_fract_z
 _atom_site_occupancy
  Li  Li0  1  0.17340745  0.67340745  0.75000000  1
  Li  Li1  1  0.32659255  0.82659255  0.25000000  1
  Li  Li2  1  0.67340745  0.17340745  0.75000000  1
  Li  Li3  1  0.82659255  0.32659255  0.25000000  1
  Mn  Mn4  1  0.16461750  0.83538250  0.50000000  1
  Mn  Mn5  1  0.33538250  0.66461750  0.00000000  1
  Mn  Mn6  1  0.66461750  0.33538250  0.00000000  1
  Mn  Mn7  1  0.83538250  0.16461750  0.50000000  1
  Cu  Cu8  1  0.00000000  0.00000000  0.00000000  1
  Cu  Cu9  1  0.50000000  0.50000000  0.50000000  1
  O  O10  1  0.00145793  0.63000163  0.10708487  1
  O  O11  1  0.99854207  0.36999837  0.89291513  1
  O  O12  1  0.13000163  0.50145793  0.39291513  1
  O  O13  1  0.49854207  0.86999837  0.60708487  1
  O  O14  1  0.16258705  0.16258705  0.59441157  1
  O  O15  1  0.33741295  0.33741295  0.09441157  1
  O  O16  1  0.66258705  0.66258705  0.90558843  1
  O  O17  1  0.36999837  0.99854207  0.89291513  1
  O  O18  1  0.83741295  0.83741295  0.40558843  1
  O  O19  1  0.50145793  0.13000163  0.39291513  1
  O  O20  1  0.86999837  0.49854207  0.60708487  1
  O  O21  1  0.63000163  0.00145793  0.10708487  1
