# generated using pymatgen
data_DyNbO4
_symmetry_space_group_name_H-M   'P 1'
_cell_length_a   5.35663374
_cell_length_b   5.52317812
_cell_length_c   5.16675756
_cell_angle_alpha   90.00000000
_cell_angle_beta   83.98118902
_cell_angle_gamma   90.00000000
_symmetry_Int_Tables_number   1
_chemical_formula_structural   DyNbO4
_chemical_formula_sum   'Dy2 Nb2 O8'
_cell_volume   152.01919381
_cell_formula_units_Z   2
loop_
 _symmetry_equiv_pos_site_id
 _symmetry_equiv_pos_as_xyz
  1  'x, y, z'
loop_
 _atom_site_type_symbol
 _atom_site_label
 _atom_site_symmetry_multiplicity
 _atom_site_fract_x
 _atom_site_fract_y
 _atom_site_fract_z
 _atom_site_occupancy
  Dy  Dy0  1  0.25000000  0.76059159  0.00000000  1
  Dy  Dy1  1  0.75000000  0.23940841  0.00000000  1
  Nb  Nb2  1  0.25000000  0.29968850  0.50000000  1
  Nb  Nb3  1  0.75000000  0.70031150  0.50000000  1
  O  O4  1  0.09697212  0.08211545  0.75049459  1
  O  O5  1  0.99000792  0.56343379  0.73456490  1
  O  O6  1  0.50999208  0.56343379  0.26543510  1
  O  O7  1  0.40302788  0.08211545  0.24950541  1
  O  O8  1  0.59697212  0.91788455  0.75049459  1
  O  O9  1  0.49000792  0.43656621  0.73456490  1
  O  O10  1  0.00999208  0.43656621  0.26543510  1
  O  O11  1  0.90302788  0.91788455  0.24950541  1
