# generated using pymatgen
data_KCu2H2(SO5)2
_symmetry_space_group_name_H-M   'P 1'
_cell_length_a   5.63226139
_cell_length_b   5.63226139
_cell_length_c   7.68704447
_cell_angle_alpha   80.86106714
_cell_angle_beta   72.30141126
_cell_angle_gamma   111.61123621
_symmetry_Int_Tables_number   1
_chemical_formula_structural   KCu2H2(SO5)2
_chemical_formula_sum   'K1 Cu2 H2 S2 O10'
_cell_volume   205.63671053
_cell_formula_units_Z   1
loop_
 _symmetry_equiv_pos_site_id
 _symmetry_equiv_pos_as_xyz
  1  'x, y, z'
loop_
 _atom_site_type_symbol
 _atom_site_label
 _atom_site_symmetry_multiplicity
 _atom_site_fract_x
 _atom_site_fract_y
 _atom_site_fract_z
 _atom_site_occupancy
  K  K0  1  0.00000000  0.50000000  0.50000000  1
  Cu  Cu1  1  0.00000000  0.50000000  -0.00000000  1
  Cu  Cu2  1  0.50000000  0.00000000  -0.00000000  1
  H  H3  1  0.49346152  0.69535729  0.81118119  1
  H  H4  1  0.50653848  0.30464271  0.18881881  1
  S  S5  1  0.79274491  0.92463651  0.28261859  1
  S  S6  1  0.20725509  0.07536349  0.71738141  1
  O  O7  1  0.98897420  0.82447161  0.18655520  1
  O  O8  1  0.06108159  0.77057977  0.77423701  1
  O  O9  1  0.54481678  0.83531860  0.22576299  1
  O  O10  1  0.38416644  0.66956290  0.94627066  1
  O  O11  1  0.68785845  0.82083551  0.49130603  1
  O  O12  1  0.31214155  0.17916449  0.50869397  1
  O  O13  1  0.61583356  0.33043710  0.05372934  1
  O  O14  1  0.45518322  0.16468140  0.77423701  1
  O  O15  1  0.93891841  0.22942023  0.22576299  1
  O  O16  1  0.01102580  0.17552839  0.81344480  1
