# generated using pymatgen
data_Li32Ti13Cr3O48
_symmetry_space_group_name_H-M   'P 1'
_cell_length_a   5.08741894
_cell_length_b   8.84599788
_cell_length_c   19.65084689
_cell_angle_alpha   98.52103806
_cell_angle_beta   94.63013899
_cell_angle_gamma   90.10939243
_symmetry_Int_Tables_number   1
_chemical_formula_structural   Li32Ti13Cr3O48
_chemical_formula_sum   'Li32 Ti13 Cr3 O48'
_cell_volume   871.65051063
_cell_formula_units_Z   1
loop_
 _symmetry_equiv_pos_site_id
 _symmetry_equiv_pos_as_xyz
  1  'x, y, z'
loop_
 _atom_site_type_symbol
 _atom_site_label
 _atom_site_symmetry_multiplicity
 _atom_site_fract_x
 _atom_site_fract_y
 _atom_site_fract_z
 _atom_site_occupancy
  Li  Li0  1  0.98756342  0.16869840  0.24950492  1
  Li  Li1  1  0.87388792  0.37571728  0.37518083  1
  Li  Li2  1  0.75143950  0.24945261  0.99944150  1
  Li  Li3  1  0.74205652  0.92073302  0.99987009  1
  Li  Li4  1  0.98862924  0.16986744  0.75005089  1
  Li  Li5  1  0.75602856  0.57819028  0.49917787  1
  Li  Li6  1  0.87412548  0.37296880  0.87468726  1
  Li  Li7  1  0.75564799  0.24987273  0.50016920  1
  Li  Li8  1  0.73851264  0.92049943  0.50004923  1
  Li  Li9  1  0.62478517  0.12498442  0.12493711  1
  Li  Li10  1  0.75910101  0.57950657  0.99989544  1
  Li  Li11  1  0.51008341  0.33176908  0.25054067  1
  Li  Li12  1  0.62384650  0.12556147  0.62527678  1
  Li  Li13  1  0.49915867  0.00034396  0.25021966  1
  Li  Li14  1  0.48773267  0.66885135  0.25050844  1
  Li  Li15  1  0.50742798  0.32880914  0.74937550  1
  Li  Li16  1  0.37424162  0.87376413  0.37492246  1
  Li  Li17  1  0.50615946  0.99976556  0.75017783  1
  Li  Li18  1  0.25179874  0.75016819  0.00020779  1
  Li  Li19  1  0.48792192  0.66982640  0.74968806  1
  Li  Li20  1  0.24085537  0.42132484  0.00026488  1
  Li  Li21  1  0.37355523  0.87553683  0.87520209  1
  Li  Li22  1  0.26031521  0.08132184  0.50050555  1
  Li  Li23  1  0.25117664  0.74956186  0.49980648  1
  Li  Li24  1  0.12508921  0.62499855  0.12503984  1
  Li  Li25  1  0.24069791  0.42027812  0.50031558  1
  Li  Li26  1  0.01106797  0.83068231  0.24993980  1
  Li  Li27  1  0.25557599  0.07798449  0.99921418  1
  Li  Li28  1  0.12434629  0.62352583  0.62478309  1
  Li  Li29  1  0.00434159  0.49945641  0.24999519  1
  Li  Li30  1  0.01051135  0.83165607  0.75053299  1
  Li  Li31  1  0.99976056  0.49961312  0.74974239  1
  Ti  Ti32  1  0.87185756  0.70858855  0.37334542  1
  Ti  Ti33  1  0.87951823  0.04130136  0.37453023  1
  Ti  Ti34  1  0.88081698  0.71087551  0.87713579  1
  Ti  Ti35  1  0.62621401  0.79086051  0.12518982  1
  Ti  Ti36  1  0.62451679  0.45902088  0.12512750  1
  Ti  Ti37  1  0.63066738  0.79049903  0.62443003  1
  Ti  Ti38  1  0.62253809  0.45779238  0.62332402  1
  Ti  Ti39  1  0.37989530  0.21145218  0.37718605  1
  Ti  Ti40  1  0.38052945  0.54069044  0.87424103  1
  Ti  Ti41  1  0.37130480  0.20792676  0.87318937  1
  Ti  Ti42  1  0.12420887  0.95895001  0.12501543  1
  Ti  Ti43  1  0.12653896  0.29056251  0.12483831  1
  Ti  Ti44  1  0.13084907  0.96105946  0.62714500  1
  Cr  Cr45  1  0.87071971  0.03996410  0.87496859  1
  Cr  Cr46  1  0.37101720  0.54023988  0.37519308  1
  Cr  Cr47  1  0.12157782  0.29024946  0.62516782  1
  O  O48  1  0.96283762  0.10603768  0.06857989  1
  O  O49  1  0.92867989  0.78449031  0.06846788  1
  O  O50  1  0.92813371  0.42712964  0.06720181  1
  O  O51  1  0.96514035  0.11249855  0.56958101  1
  O  O52  1  0.82150274  0.96551293  0.18173815  1
  O  O53  1  0.82200064  0.32295400  0.18267829  1
  O  O54  1  0.92709821  0.78579240  0.56810036  1
  O  O55  1  0.92486894  0.42885010  0.56728154  1
  O  O56  1  0.78683363  0.64370237  0.18152173  1
  O  O57  1  0.71311142  0.85583250  0.31826617  1
  O  O58  1  0.82148293  0.96575262  0.68156951  1
  O  O59  1  0.83063345  0.32093656  0.68195758  1
  O  O60  1  0.67400441  0.53314803  0.31951636  1
  O  O61  1  0.67758306  0.17731725  0.31735701  1
  O  O62  1  0.78350175  0.64351398  0.68170866  1
  O  O63  1  0.71498261  0.86245755  0.81947788  1
  O  O64  1  0.46294724  0.60612219  0.06851796  1
  O  O65  1  0.56836740  0.71223651  0.43069932  1
  O  O66  1  0.57114340  0.07361038  0.43293833  1
  O  O67  1  0.67664119  0.53586530  0.81791375  1
  O  O68  1  0.67454715  0.17868350  0.81716124  1
  O  O69  1  0.42824720  0.92736010  0.06750315  1
  O  O70  1  0.42825309  0.28433826  0.06813370  1
  O  O71  1  0.54074749  0.39248684  0.43195920  1
  O  O72  1  0.46320976  0.60566642  0.56833165  1
  O  O73  1  0.57120753  0.71569487  0.93149038  1
  O  O74  1  0.58081100  0.07089452  0.93186379  1
  O  O75  1  0.32181610  0.82281119  0.18267595  1
  O  O76  1  0.32162946  0.46543523  0.18157423  1
  O  O77  1  0.42768564  0.92730085  0.56714671  1
  O  O78  1  0.42408553  0.28306413  0.56943882  1
  O  O79  1  0.53369085  0.39340843  0.93142822  1
  O  O80  1  0.28658411  0.14419586  0.18160984  1
  O  O81  1  0.21543917  0.36220777  0.31960398  1
  O  O82  1  0.32126912  0.82378052  0.68286085  1
  O  O83  1  0.31807307  0.46224585  0.68053494  1
  O  O84  1  0.17465652  0.67867054  0.31727619  1
  O  O85  1  0.17718446  0.03603362  0.31837990  1
  O  O86  1  0.29031124  0.14247110  0.68184279  1
  O  O87  1  0.21275427  0.35567871  0.81819935  1
  O  O88  1  0.08090642  0.57095979  0.43184277  1
  O  O89  1  0.07127882  0.21581886  0.43177469  1
  O  O90  1  0.17731456  0.67719026  0.81706296  1
  O  O91  1  0.17386156  0.03302892  0.81936593  1
  O  O92  1  0.03339812  0.89349188  0.43174736  1
  O  O93  1  0.07056974  0.57343754  0.93262672  1
  O  O94  1  0.06805570  0.21215986  0.93047483  1
  O  O95  1  0.04070273  0.89240118  0.93176955  1
