# generated using pymatgen
data_SrZnSb2
_symmetry_space_group_name_H-M   'P 1'
_cell_length_a   4.44372728
_cell_length_b   4.48582674
_cell_length_c   23.04971156
_cell_angle_alpha   90.00000000
_cell_angle_beta   90.00000000
_cell_angle_gamma   90.00000000
_symmetry_Int_Tables_number   1
_chemical_formula_structural   SrZnSb2
_chemical_formula_sum   'Sr4 Zn4 Sb8'
_cell_volume   459.46812496
_cell_formula_units_Z   4
loop_
 _symmetry_equiv_pos_site_id
 _symmetry_equiv_pos_as_xyz
  1  'x, y, z'
loop_
 _atom_site_type_symbol
 _atom_site_label
 _atom_site_symmetry_multiplicity
 _atom_site_fract_x
 _atom_site_fract_y
 _atom_site_fract_z
 _atom_site_occupancy
  Sr  Sr0  1  0.25000000  0.77155213  0.61582287  1
  Sr  Sr1  1  0.75000000  0.22844787  0.38417713  1
  Sr  Sr2  1  0.75000000  0.27155213  0.88417713  1
  Sr  Sr3  1  0.25000000  0.72844787  0.11582287  1
  Zn  Zn4  1  0.25000000  0.27512130  0.75000064  1
  Zn  Zn5  1  0.75000000  0.72487870  0.24999936  1
  Zn  Zn6  1  0.75000000  0.77512130  0.74999936  1
  Zn  Zn7  1  0.25000000  0.22487870  0.25000064  1
  Sb  Sb8  1  0.25000000  0.21603752  0.00107786  1
  Sb  Sb9  1  0.75000000  0.78396248  0.99892214  1
  Sb  Sb10  1  0.75000000  0.71603752  0.49892214  1
  Sb  Sb11  1  0.25000000  0.28396248  0.50107786  1
  Sb  Sb12  1  0.25000000  0.72612435  0.32352858  1
  Sb  Sb13  1  0.75000000  0.27387565  0.67647142  1
  Sb  Sb14  1  0.75000000  0.22612435  0.17647142  1
  Sb  Sb15  1  0.25000000  0.77387565  0.82352858  1
