# generated using pymatgen
data_LiSbF6
_symmetry_space_group_name_H-M   'P 1'
_cell_length_a   9.70463276
_cell_length_b   7.49713518
_cell_length_c   5.52695190
_cell_angle_alpha   135.88224532
_cell_angle_beta   151.32155307
_cell_angle_gamma   35.18127767
_symmetry_Int_Tables_number   1
_chemical_formula_structural   LiSbF6
_chemical_formula_sum   'Li1 Sb1 F6'
_cell_volume   111.18598951
_cell_formula_units_Z   1
loop_
 _symmetry_equiv_pos_site_id
 _symmetry_equiv_pos_as_xyz
  1  'x, y, z'
loop_
 _atom_site_type_symbol
 _atom_site_label
 _atom_site_symmetry_multiplicity
 _atom_site_fract_x
 _atom_site_fract_y
 _atom_site_fract_z
 _atom_site_occupancy
  Li  Li0  1  0.00000000  0.50000000  0.00000000  1
  Sb  Sb1  1  0.00000000  0.00000000  0.00000000  1
  F  F2  1  0.13841013  0.73132599  0.22871627  1
  F  F3  1  0.46624714  0.88803766  0.57273908  1
  F  F4  1  0.10229997  0.66454815  0.62227959  1
  F  F5  1  0.86158987  0.26867401  0.77128373  1
  F  F6  1  0.53375286  0.11196234  0.42726092  1
  F  F7  1  0.89770003  0.33545185  0.37772041  1
