# generated using pymatgen
data_Ca3SiO
_symmetry_space_group_name_H-M   'P 1'
_cell_length_a   6.69590124
_cell_length_b   6.67525628
_cell_length_c   9.44534163
_cell_angle_alpha   90.00000000
_cell_angle_beta   90.00000000
_cell_angle_gamma   90.00022694
_symmetry_Int_Tables_number   1
_chemical_formula_structural   Ca3SiO
_chemical_formula_sum   'Ca12 Si4 O4'
_cell_volume   422.17708229
_cell_formula_units_Z   4
loop_
 _symmetry_equiv_pos_site_id
 _symmetry_equiv_pos_as_xyz
  1  'x, y, z'
loop_
 _atom_site_type_symbol
 _atom_site_label
 _atom_site_symmetry_multiplicity
 _atom_site_fract_x
 _atom_site_fract_y
 _atom_site_fract_z
 _atom_site_occupancy
  Ca  Ca0  1  0.74306321  0.74304291  0.48311928  1
  Ca  Ca1  1  0.25693579  0.25695709  0.98311728  1
  Ca  Ca2  1  0.75693579  0.24304291  0.01688072  1
  Ca  Ca3  1  0.96655228  0.49967166  0.75000000  1
  Ca  Ca4  1  0.46655228  0.00032834  0.25000000  1
  Ca  Ca5  1  0.53344872  0.99967066  0.75000000  1
  Ca  Ca6  1  0.03344672  0.50032834  0.25000000  1
  Ca  Ca7  1  0.75693579  0.24304291  0.48311928  1
  Ca  Ca8  1  0.25693579  0.25695709  0.51688172  1
  Ca  Ca9  1  0.74306321  0.74304291  0.01688172  1
  Ca  Ca10  1  0.24306421  0.75695809  0.98311728  1
  Ca  Ca11  1  0.24306421  0.75695809  0.51688172  1
  Si  Si12  1  0.00042360  0.00246029  0.75000000  1
  Si  Si13  1  0.50042460  0.49753971  0.25000000  1
  Si  Si14  1  0.49957640  0.50246029  0.75000000  1
  Si  Si15  1  0.99957540  0.99754071  0.25000000  1
  O  O16  1  0.50000000  0.99999900  0.50000000  1
  O  O17  1  0.00000000  0.50000100  0.50000000  1
  O  O18  1  0.00000000  0.50000100  0.00000000  1
  O  O19  1  0.50000000  0.99999900  0.00000000  1
