# generated using pymatgen
data_KUVO6
_symmetry_space_group_name_H-M   'P 1'
_cell_length_a   7.24466197
_cell_length_b   8.33052524
_cell_length_c   10.72147988
_cell_angle_alpha   90.00000000
_cell_angle_beta   102.00103906
_cell_angle_gamma   90.00000000
_symmetry_Int_Tables_number   1
_chemical_formula_structural   KUVO6
_chemical_formula_sum   'K4 U4 V4 O24'
_cell_volume   632.91875585
_cell_formula_units_Z   4
loop_
 _symmetry_equiv_pos_site_id
 _symmetry_equiv_pos_as_xyz
  1  'x, y, z'
loop_
 _atom_site_type_symbol
 _atom_site_label
 _atom_site_symmetry_multiplicity
 _atom_site_fract_x
 _atom_site_fract_y
 _atom_site_fract_z
 _atom_site_occupancy
  K  K0  1  0.47767472  0.83319297  0.67693598  1
  K  K1  1  0.47767472  0.66680703  0.17693598  1
  K  K2  1  0.52232528  0.16680703  0.32306402  1
  K  K3  1  0.52232528  0.33319297  0.82306402  1
  U  U4  1  0.00040740  0.51508910  0.68071864  1
  U  U5  1  0.00040740  0.98491090  0.18071864  1
  U  U6  1  0.99959260  0.48491090  0.31928136  1
  U  U7  1  0.99959260  0.01508910  0.81928136  1
  V  V8  1  0.88269225  0.64315969  0.02221541  1
  V  V9  1  0.11730775  0.35684031  0.97778459  1
  V  V10  1  0.11730775  0.14315969  0.47778459  1
  V  V11  1  0.88269225  0.85684031  0.52221541  1
  O  O12  1  0.05836144  0.15401291  0.01845017  1
  O  O13  1  0.34457976  0.11263872  0.53201810  1
  O  O14  1  0.94163856  0.65401291  0.48154983  1
  O  O15  1  0.00513897  0.94703335  0.39630995  1
  O  O16  1  0.24752097  0.95490070  0.84434808  1
  O  O17  1  0.99486103  0.05296665  0.60369005  1
  O  O18  1  0.34457976  0.38736128  0.03201810  1
  O  O19  1  0.00513897  0.55296665  0.89630995  1
  O  O20  1  0.05836144  0.34598709  0.51845017  1
  O  O21  1  0.90766342  0.78790170  0.69074472  1
  O  O22  1  0.25060713  0.92579001  0.20754082  1
  O  O23  1  0.24752097  0.54509930  0.34434808  1
  O  O24  1  0.75247903  0.45490070  0.65565192  1
  O  O25  1  0.99486103  0.44703335  0.10369005  1
  O  O26  1  0.65542024  0.61263872  0.96798190  1
  O  O27  1  0.09233658  0.28790170  0.80925528  1
  O  O28  1  0.09233658  0.21209830  0.30925528  1
  O  O29  1  0.25060713  0.57420999  0.70754082  1
  O  O30  1  0.65542024  0.88736128  0.46798190  1
  O  O31  1  0.75247903  0.04509930  0.15565192  1
  O  O32  1  0.74939287  0.42579001  0.29245918  1
  O  O33  1  0.74939287  0.07420999  0.79245918  1
  O  O34  1  0.94163856  0.84598709  0.98154983  1
  O  O35  1  0.90766342  0.71209830  0.19074472  1
