# generated using pymatgen
data_BaLi(B3O5)3
_symmetry_space_group_name_H-M   'P 1'
_cell_length_a   8.56154990
_cell_length_b   8.56154990
_cell_length_c   8.56155043
_cell_angle_alpha   80.66153344
_cell_angle_beta   80.66153344
_cell_angle_gamma   80.66151740
_symmetry_Int_Tables_number   1
_chemical_formula_structural   BaLi(B3O5)3
_chemical_formula_sum   'Ba2 Li2 B18 O30'
_cell_volume   605.05449661
_cell_formula_units_Z   2
loop_
 _symmetry_equiv_pos_site_id
 _symmetry_equiv_pos_as_xyz
  1  'x, y, z'
loop_
 _atom_site_type_symbol
 _atom_site_label
 _atom_site_symmetry_multiplicity
 _atom_site_fract_x
 _atom_site_fract_y
 _atom_site_fract_z
 _atom_site_occupancy
  Ba  Ba0  1  0.98561219  0.98561219  0.98561219  1
  Ba  Ba1  1  0.48561219  0.48561219  0.48561219  1
  Li  Li2  1  0.20574908  0.20574908  0.20574908  1
  Li  Li3  1  0.70574808  0.70574808  0.70574808  1
  B  B4  1  0.61494133  0.08169074  0.73931352  1
  B  B5  1  0.73931352  0.61494033  0.08169174  1
  B  B6  1  0.08168974  0.73931452  0.61494233  1
  B  B7  1  0.58169074  0.11494133  0.23931352  1
  B  B8  1  0.11494133  0.23931452  0.58168974  1
  B  B9  1  0.23931452  0.58169074  0.11494033  1
  B  B10  1  0.32312283  0.17412587  0.76300347  1
  B  B11  1  0.76300347  0.32312183  0.17412687  1
  B  B12  1  0.17412687  0.76300347  0.32312183  1
  B  B13  1  0.67412487  0.82312183  0.26300347  1
  B  B14  1  0.82312183  0.26300247  0.67412587  1
  B  B15  1  0.26300247  0.67412587  0.82312283  1
  B  B16  1  0.42845050  0.89084140  0.75246817  1
  B  B17  1  0.75246817  0.42844950  0.89084140  1
  B  B18  1  0.89084040  0.75246817  0.42845150  1
  B  B19  1  0.39084040  0.92845050  0.25246717  1
  B  B20  1  0.92845050  0.25246717  0.39084040  1
  B  B21  1  0.25246817  0.39084040  0.92844950  1
  O  O22  1  0.23826409  0.23842889  0.91102456  1
  O  O23  1  0.91102556  0.23826309  0.23842889  1
  O  O24  1  0.23842989  0.91102556  0.23826309  1
  O  O25  1  0.73842889  0.73826409  0.41102556  1
  O  O26  1  0.73826409  0.41102556  0.73842889  1
  O  O27  1  0.41102356  0.73842989  0.73826409  1
  O  O28  1  0.49077227  0.20243752  0.74092473  1
  O  O29  1  0.74092673  0.49077127  0.20243552  1
  O  O30  1  0.20243752  0.74092573  0.49077027  1
  O  O31  1  0.70243752  0.99077027  0.24092573  1
  O  O32  1  0.99076927  0.24092573  0.70243752  1
  O  O33  1  0.24092473  0.70243752  0.99077127  1
  O  O34  1  0.26602882  0.24653104  0.60775780  1
  O  O35  1  0.60775880  0.26602782  0.24653104  1
  O  O36  1  0.24653004  0.60775980  0.26602782  1
  O  O37  1  0.74653104  0.76602982  0.10775880  1
  O  O38  1  0.76602982  0.10775980  0.74653004  1
  O  O39  1  0.10775980  0.74653204  0.76602882  1
  O  O40  1  0.30305552  0.00391635  0.79006161  1
  O  O41  1  0.79006361  0.30305352  0.00391635  1
  O  O42  1  0.00391635  0.79006361  0.30305352  1
  O  O43  1  0.50391735  0.80305352  0.29006261  1
  O  O44  1  0.80305352  0.29006261  0.50391735  1
  O  O45  1  0.29006261  0.50391635  0.80305452  1
  O  O46  1  0.58709392  0.92544333  0.72994044  1
  O  O47  1  0.72994044  0.58709392  0.92544433  1
  O  O48  1  0.92544533  0.72994044  0.58709292  1
  O  O49  1  0.42544333  0.08709392  0.22993944  1
  O  O50  1  0.08709292  0.22993944  0.42544333  1
  O  O51  1  0.22993944  0.42544433  0.08709292  1
