# generated using pymatgen
data_Zn3B7BrO13
_symmetry_space_group_name_H-M   'P 1'
_cell_length_a   8.64611664
_cell_length_b   8.65881725
_cell_length_c   12.23841951
_cell_angle_alpha   90.00000000
_cell_angle_beta   90.00000000
_cell_angle_gamma   90.00000000
_symmetry_Int_Tables_number   1
_chemical_formula_structural   Zn3B7BrO13
_chemical_formula_sum   'Zn12 B28 Br4 O52'
_cell_volume   916.23103782
_cell_formula_units_Z   4
loop_
 _symmetry_equiv_pos_site_id
 _symmetry_equiv_pos_as_xyz
  1  'x, y, z'
loop_
 _atom_site_type_symbol
 _atom_site_label
 _atom_site_symmetry_multiplicity
 _atom_site_fract_x
 _atom_site_fract_y
 _atom_site_fract_z
 _atom_site_occupancy
  Zn  Zn0  1  0.25812665  0.74910499  0.24297291  1
  Zn  Zn1  1  0.74187335  0.25089501  0.74297291  1
  Zn  Zn2  1  0.24187335  0.74910499  0.74297291  1
  Zn  Zn3  1  0.75812665  0.25089501  0.24297291  1
  Zn  Zn4  1  0.98325775  0.46926738  0.52178696  1
  Zn  Zn5  1  0.01674225  0.53073262  0.02178696  1
  Zn  Zn6  1  0.51674225  0.46926738  0.02178696  1
  Zn  Zn7  1  0.48325775  0.53073262  0.52178696  1
  Zn  Zn8  1  0.48207289  0.96901646  0.52424675  1
  Zn  Zn9  1  0.51792711  0.03098354  0.02424675  1
  Zn  Zn10  1  0.01792711  0.96901646  0.02424675  1
  Zn  Zn11  1  0.98207289  0.03098354  0.52424675  1
  B  B12  1  0.00046778  0.49836002  0.77010287  1
  B  B13  1  0.99953222  0.50163998  0.27010287  1
  B  B14  1  0.49953222  0.49836002  0.27010287  1
  B  B15  1  0.50046778  0.50163998  0.77010287  1
  B  B16  1  0.75580258  0.75327780  0.51712563  1
  B  B17  1  0.24419742  0.24672220  0.01712563  1
  B  B18  1  0.74419742  0.75327780  0.01712563  1
  B  B19  1  0.25580258  0.24672220  0.51712563  1
  B  B20  1  0.50095555  0.00253090  0.27047149  1
  B  B21  1  0.49904445  0.99746910  0.77047149  1
  B  B22  1  0.99904445  0.00253090  0.77047149  1
  B  B23  1  0.00095555  0.99746910  0.27047149  1
  B  B24  1  0.95428954  0.74986160  0.37016744  1
  B  B25  1  0.04571046  0.25013840  0.87016744  1
  B  B26  1  0.54571046  0.74986160  0.87016744  1
  B  B27  1  0.45428954  0.25013840  0.37016744  1
  B  B28  1  0.74523176  0.59858978  0.19036555  1
  B  B29  1  0.25476824  0.40141022  0.69036555  1
  B  B30  1  0.75476824  0.59858978  0.69036555  1
  B  B31  1  0.24523176  0.40141022  0.19036555  1
  B  B32  1  0.40810023  0.24931133  0.84349024  1
  B  B33  1  0.59189977  0.75068867  0.34349024  1
  B  B34  1  0.09189977  0.24931133  0.34349024  1
  B  B35  1  0.90810023  0.75068867  0.84349024  1
  B  B36  1  0.25329015  0.09717749  0.69047232  1
  B  B37  1  0.74670985  0.90282251  0.19047232  1
  B  B38  1  0.24670985  0.09717749  0.19047232  1
  B  B39  1  0.75329015  0.90282251  0.69047232  1
  Br  Br40  1  0.27026289  0.74775869  0.53089146  1
  Br  Br41  1  0.72973711  0.25224131  0.03089146  1
  Br  Br42  1  0.22973711  0.74775869  0.03089146  1
  Br  Br43  1  0.77026289  0.25224131  0.53089146  1
  O  O44  1  0.73069564  0.74988048  0.25971756  1
  O  O45  1  0.26930436  0.25011952  0.75971756  1
  O  O46  1  0.76930436  0.74988048  0.75971756  1
  O  O47  1  0.23069564  0.25011952  0.25971756  1
  O  O48  1  0.04072763  0.66768388  0.29468187  1
  O  O49  1  0.95927237  0.33231612  0.79468187  1
  O  O50  1  0.45927237  0.66768388  0.79468187  1
  O  O51  1  0.54072763  0.33231612  0.29468187  1
  O  O52  1  0.88064577  0.67214249  0.45376377  1
  O  O53  1  0.11935423  0.32785751  0.95376377  1
  O  O54  1  0.61935423  0.67214249  0.95376377  1
  O  O55  1  0.38064577  0.32785751  0.45376377  1
  O  O56  1  0.46559679  0.83834668  0.29232033  1
  O  O57  1  0.53440321  0.16165332  0.79232033  1
  O  O58  1  0.03440321  0.83834668  0.79232033  1
  O  O59  1  0.96559679  0.16165332  0.29232033  1
  O  O60  1  0.67982673  0.63669895  0.58679910  1
  O  O61  1  0.32017327  0.36330105  0.08679910  1
  O  O62  1  0.82017327  0.63669895  0.08679910  1
  O  O63  1  0.17982673  0.36330105  0.58679910  1
  O  O64  1  0.66644710  0.02451996  0.24878218  1
  O  O65  1  0.33355290  0.97548004  0.74878218  1
  O  O66  1  0.83355290  0.02451996  0.74878218  1
  O  O67  1  0.16644710  0.97548004  0.24878218  1
  O  O68  1  0.63972532  0.82543372  0.44496420  1
  O  O69  1  0.36027468  0.17456628  0.94496420  1
  O  O70  1  0.86027468  0.82543372  0.94496420  1
  O  O71  1  0.13972532  0.17456628  0.44496420  1
  O  O72  1  0.83331415  0.48209934  0.25016539  1
  O  O73  1  0.16668585  0.51790066  0.75016539  1
  O  O74  1  0.66668585  0.48209934  0.75016539  1
  O  O75  1  0.33331415  0.51790066  0.25016539  1
  O  O76  1  0.82693011  0.87390250  0.58481214  1
  O  O77  1  0.17306989  0.12609750  0.08481214  1
  O  O78  1  0.67306989  0.87390250  0.08481214  1
  O  O79  1  0.32693011  0.12609750  0.58481214  1
  O  O80  1  0.04683308  0.40819960  0.36472460  1
  O  O81  1  0.95316692  0.59180040  0.86472460  1
  O  O82  1  0.45316692  0.40819960  0.86472460  1
  O  O83  1  0.54683308  0.59180040  0.36472460  1
  O  O84  1  0.46266357  0.09058548  0.37275638  1
  O  O85  1  0.53733643  0.90941452  0.87275638  1
  O  O86  1  0.03733643  0.09058548  0.87275638  1
  O  O87  1  0.96266357  0.90941452  0.37275638  1
  O  O88  1  0.08624812  0.45541920  0.17218545  1
  O  O89  1  0.91375188  0.54458080  0.67218545  1
  O  O90  1  0.41375188  0.45541920  0.67218545  1
  O  O91  1  0.58624812  0.54458080  0.17218545  1
  O  O92  1  0.41039672  0.05844832  0.17623341  1
  O  O93  1  0.58960328  0.94155168  0.67623341  1
  O  O94  1  0.08960328  0.05844832  0.67623341  1
  O  O95  1  0.91039672  0.94155168  0.17623341  1
