# generated using pymatgen
data_Ti5Nb(PO4)6
_symmetry_space_group_name_H-M   'P 1'
_cell_length_a   8.43920025
_cell_length_b   8.43920024
_cell_length_c   8.43920090
_cell_angle_alpha   63.42341288
_cell_angle_beta   63.42341093
_cell_angle_gamma   63.42341326
_symmetry_Int_Tables_number   1
_chemical_formula_structural   Ti5Nb(PO4)6
_chemical_formula_sum   'Ti5 Nb1 P6 O24'
_cell_volume   457.19344691
_cell_formula_units_Z   1
loop_
 _symmetry_equiv_pos_site_id
 _symmetry_equiv_pos_as_xyz
  1  'x, y, z'
loop_
 _atom_site_type_symbol
 _atom_site_label
 _atom_site_symmetry_multiplicity
 _atom_site_fract_x
 _atom_site_fract_y
 _atom_site_fract_z
 _atom_site_occupancy
  Ti  Ti0  1  0.99368419  0.99368419  0.99368419  1
  Ti  Ti1  1  0.49814013  0.49814013  0.49814013  1
  Ti  Ti2  1  0.14059302  0.14059302  0.14059302  1
  Ti  Ti3  1  0.36177286  0.36177286  0.36177286  1
  Ti  Ti4  1  0.64091269  0.64091269  0.64091269  1
  Nb  Nb5  1  0.86339259  0.86339259  0.86339259  1
  P  P6  1  0.04270954  0.75259278  0.45337106  1
  P  P7  1  0.45337106  0.04270954  0.75259278  1
  P  P8  1  0.25955334  0.53308646  0.95813832  1
  P  P9  1  0.53308646  0.95813832  0.25955334  1
  P  P10  1  0.95813832  0.25955334  0.53308646  1
  P  P11  1  0.75259278  0.45337106  0.04270954  1
  O  O12  1  0.11293656  0.32995417  0.49472055  1
  O  O13  1  0.32995417  0.49472055  0.11293656  1
  O  O14  1  0.05668706  0.90261271  0.25625018  1
  O  O15  1  0.49472055  0.11293656  0.32995417  1
  O  O16  1  0.00791611  0.82488787  0.60686158  1
  O  O17  1  0.23970434  0.59973507  0.44015928  1
  O  O18  1  0.25625018  0.05668706  0.90261271  1
  O  O19  1  0.44015928  0.23970434  0.59973507  1
  O  O20  1  0.18201006  0.38348971  0.99588216  1
  O  O21  1  0.59973507  0.44015928  0.23970434  1
  O  O22  1  0.10797914  0.73138632  0.94331141  1
  O  O23  1  0.38348971  0.99588216  0.18201006  1
  O  O24  1  0.60686158  0.00791611  0.82488787  1
  O  O25  1  0.90261271  0.25625018  0.05668706  1
  O  O26  1  0.40873895  0.55066112  0.76008879  1
  O  O27  1  0.82488787  0.60686158  0.00791611  1
  O  O28  1  0.55066112  0.76008879  0.40873895  1
  O  O29  1  0.73138632  0.94331141  0.10797914  1
  O  O30  1  0.76008879  0.40873895  0.55066112  1
  O  O31  1  0.99588216  0.18201006  0.38348971  1
  O  O32  1  0.50016320  0.88526116  0.68065351  1
  O  O33  1  0.94331141  0.10797914  0.73138632  1
  O  O34  1  0.68065351  0.50016320  0.88526116  1
  O  O35  1  0.88526116  0.68065351  0.50016320  1
