# generated using pymatgen
data_GaCuPd2
_symmetry_space_group_name_H-M   'P 1'
_cell_length_a   4.31454368
_cell_length_b   4.31463326
_cell_length_c   4.31471943
_cell_angle_alpha   59.99774030
_cell_angle_beta   59.99983232
_cell_angle_gamma   60.00198739
_symmetry_Int_Tables_number   1
_chemical_formula_structural   GaCuPd2
_chemical_formula_sum   'Ga1 Cu1 Pd2'
_cell_volume   56.79562379
_cell_formula_units_Z   1
loop_
 _symmetry_equiv_pos_site_id
 _symmetry_equiv_pos_as_xyz
  1  'x, y, z'
loop_
 _atom_site_type_symbol
 _atom_site_label
 _atom_site_symmetry_multiplicity
 _atom_site_fract_x
 _atom_site_fract_y
 _atom_site_fract_z
 _atom_site_occupancy
  Ga  Ga0  1  0.74999904  0.75000001  0.74999998  1
  Cu  Cu1  1  0.25000450  0.25000015  0.25000122  1
  Pd  Pd2  1  0.99999796  0.99999895  0.99999801  1
  Pd  Pd3  1  0.49999850  0.50000089  0.50000078  1
