# generated using pymatgen
data_LiNbCuO4
_symmetry_space_group_name_H-M   'P 1'
_cell_length_a   6.22398788
_cell_length_b   6.22397197
_cell_length_c   8.23351843
_cell_angle_alpha   89.99903686
_cell_angle_beta   89.99867812
_cell_angle_gamma   89.99796803
_symmetry_Int_Tables_number   1
_chemical_formula_structural   LiNbCuO4
_chemical_formula_sum   'Li4 Nb4 Cu4 O16'
_cell_volume   318.94942837
_cell_formula_units_Z   4
loop_
 _symmetry_equiv_pos_site_id
 _symmetry_equiv_pos_as_xyz
  1  'x, y, z'
loop_
 _atom_site_type_symbol
 _atom_site_label
 _atom_site_symmetry_multiplicity
 _atom_site_fract_x
 _atom_site_fract_y
 _atom_site_fract_z
 _atom_site_occupancy
  Li  Li0  1  0.99996543  0.21700227  0.00002799  1
  Li  Li1  1  -0.00002409  0.78301757  0.49996660  1
  Li  Li2  1  0.21698082  0.00003208  0.25003736  1
  Li  Li3  1  0.78299615  0.00004275  0.74996890  1
  Nb  Nb4  1  0.21249737  0.49999740  0.25004255  1
  Nb  Nb5  1  0.50001586  0.21250649  0.00000819  1
  Nb  Nb6  1  0.49997278  0.78751207  0.49997481  1
  Nb  Nb7  1  0.78750535  0.49995645  0.74997539  1
  Cu  Cu8  1  0.25684252  0.25680734  0.62500353  1
  Cu  Cu9  1  0.25682048  0.74319835  0.87499231  1
  Cu  Cu10  1  0.74313659  0.25687420  0.37500582  1
  Cu  Cu11  1  0.74320341  0.74317656  0.12499829  1
  O  O12  1  0.01899794  0.26281586  0.26002610  1
  O  O13  1  0.01893322  0.73714479  0.23993154  1
  O  O14  1  0.26286339  0.01887958  0.98988912  1
  O  O15  1  0.26286347  0.98101140  0.51005678  1
  O  O16  1  0.26536728  0.47572939  0.00889078  1
  O  O17  1  0.26536734  0.52432805  0.49104191  1
  O  O18  1  0.47560316  0.26536792  0.24100541  1
  O  O19  1  0.47570148  0.73463522  0.25893556  1
  O  O20  1  0.52436880  0.26536858  0.75895160  1
  O  O21  1  0.52427502  0.73463210  0.74111147  1
  O  O22  1  0.73463098  0.52440245  0.50899073  1
  O  O23  1  0.73463112  0.47566183  0.99107092  1
  O  O24  1  0.73716005  0.01892116  0.01007462  1
  O  O25  1  0.73718185  0.98099505  0.48997338  1
  O  O26  1  0.98102879  0.26284775  0.73993667  1
  O  O27  1  0.98111344  0.73713534  0.76011167  1
