# generated using pymatgen
data_LiVO3
_symmetry_space_group_name_H-M   'P 1'
_cell_length_a   15.50292874
_cell_length_b   9.96281597
_cell_length_c   9.96281586
_cell_angle_alpha   16.67826710
_cell_angle_beta   16.55604649
_cell_angle_gamma   16.55605037
_symmetry_Int_Tables_number   1
_chemical_formula_structural   LiVO3
_chemical_formula_sum   'Li2 V2 O6'
_cell_volume   109.48137894
_cell_formula_units_Z   2
loop_
 _symmetry_equiv_pos_site_id
 _symmetry_equiv_pos_as_xyz
  1  'x, y, z'
loop_
 _atom_site_type_symbol
 _atom_site_label
 _atom_site_symmetry_multiplicity
 _atom_site_fract_x
 _atom_site_fract_y
 _atom_site_fract_z
 _atom_site_occupancy
  Li  Li0  1  0.66666700  0.00000000  0.00000000  1
  Li  Li1  1  0.16666700  0.50000000  0.50000000  1
  V  V2  1  0.03025725  0.97274887  0.97274887  1
  V  V3  1  0.30307575  0.02725113  0.02725113  1
  O  O4  1  0.19776655  0.29649021  0.29649021  1
  O  O5  1  0.56164585  0.28070707  0.28070707  1
  O  O6  1  0.13556645  0.70350979  0.70350979  1
  O  O7  1  0.98119344  0.21085617  0.21085617  1
  O  O8  1  0.35214056  0.78914383  0.78914383  1
  O  O9  1  0.77168815  0.71929293  0.71929293  1
