# generated using pymatgen
data_Tm3Sc
_symmetry_space_group_name_H-M   'P 1'
_cell_length_a   6.98791864
_cell_length_b   6.98791738
_cell_length_c   5.46067390
_cell_angle_alpha   90.00000000
_cell_angle_beta   90.00000000
_cell_angle_gamma   120.00000053
_symmetry_Int_Tables_number   1
_chemical_formula_structural   Tm3Sc
_chemical_formula_sum   'Tm6 Sc2'
_cell_volume   230.92580845
_cell_formula_units_Z   2
loop_
 _symmetry_equiv_pos_site_id
 _symmetry_equiv_pos_as_xyz
  1  'x, y, z'
loop_
 _atom_site_type_symbol
 _atom_site_label
 _atom_site_symmetry_multiplicity
 _atom_site_fract_x
 _atom_site_fract_y
 _atom_site_fract_z
 _atom_site_occupancy
  Tm  Tm0  1  0.16852726  0.83147274  0.24999900  1
  Tm  Tm1  1  0.66294648  0.83147274  0.24999900  1
  Tm  Tm2  1  0.16852726  0.33705352  0.24999900  1
  Tm  Tm3  1  0.83147474  0.16852826  0.74999900  1
  Tm  Tm4  1  0.33705452  0.16852826  0.74999900  1
  Tm  Tm5  1  0.83147374  0.66294648  0.74999900  1
  Sc  Sc6  1  0.33333300  0.66666700  0.74999900  1
  Sc  Sc7  1  0.66666700  0.33333300  0.24999900  1
