# generated using pymatgen
data_CrF4
_symmetry_space_group_name_H-M   'P 1'
_cell_length_a   3.86360884
_cell_length_b   8.62436441
_cell_length_c   8.62436441
_cell_angle_alpha   90.00000000
_cell_angle_beta   90.00000000
_cell_angle_gamma   90.00000000
_symmetry_Int_Tables_number   1
_chemical_formula_structural   CrF4
_chemical_formula_sum   'Cr4 F16'
_cell_volume   287.37391760
_cell_formula_units_Z   4
loop_
 _symmetry_equiv_pos_site_id
 _symmetry_equiv_pos_as_xyz
  1  'x, y, z'
loop_
 _atom_site_type_symbol
 _atom_site_label
 _atom_site_symmetry_multiplicity
 _atom_site_fract_x
 _atom_site_fract_y
 _atom_site_fract_z
 _atom_site_occupancy
  Cr  Cr0  1  0.50000000  0.36981619  0.63018381  1
  Cr  Cr1  1  0.50000000  0.63018381  0.36981619  1
  Cr  Cr2  1  0.00000000  0.13018381  0.13018381  1
  Cr  Cr3  1  0.00000000  0.86981619  0.86981619  1
  F  F4  1  0.50000000  0.59643176  0.59643176  1
  F  F5  1  0.50000000  0.40356824  0.40356824  1
  F  F6  1  -0.00000000  0.90356824  0.09643176  1
  F  F7  1  -0.00000000  0.09643176  0.90356824  1
  F  F8  1  0.50000000  0.87641110  0.87641110  1
  F  F9  1  0.50000000  0.12358890  0.12358890  1
  F  F10  1  -0.00000000  0.62358890  0.37641110  1
  F  F11  1  0.00000000  0.37641110  0.62358890  1
  F  F12  1  0.50000000  0.16981056  0.60598163  1
  F  F13  1  0.50000000  0.83018944  0.39401837  1
  F  F14  1  -0.00000000  0.33018944  0.10598163  1
  F  F15  1  -0.00000000  0.66981056  0.89401837  1
  F  F16  1  0.50000000  0.60598163  0.16981056  1
  F  F17  1  0.50000000  0.39401837  0.83018944  1
  F  F18  1  0.00000000  0.10598163  0.33018944  1
  F  F19  1  -0.00000000  0.89401837  0.66981056  1
