# generated using pymatgen
data_Er3Pt
_symmetry_space_group_name_H-M   'P 1'
_cell_length_a   6.48642894
_cell_length_b   6.96675964
_cell_length_c   9.46786181
_cell_angle_alpha   90.00000000
_cell_angle_beta   90.00000000
_cell_angle_gamma   90.00000000
_symmetry_Int_Tables_number   1
_chemical_formula_structural   Er3Pt
_chemical_formula_sum   'Er12 Pt4'
_cell_volume   427.84691255
_cell_formula_units_Z   4
loop_
 _symmetry_equiv_pos_site_id
 _symmetry_equiv_pos_as_xyz
  1  'x, y, z'
loop_
 _atom_site_type_symbol
 _atom_site_label
 _atom_site_symmetry_multiplicity
 _atom_site_fract_x
 _atom_site_fract_y
 _atom_site_fract_z
 _atom_site_occupancy
  Er  Er0  1  0.32065838  0.68110703  0.06087862  1
  Er  Er1  1  0.17934162  0.18110703  0.43912138  1
  Er  Er2  1  0.67934162  0.31889297  0.56087862  1
  Er  Er3  1  0.82065838  0.81889297  0.93912138  1
  Er  Er4  1  0.67934162  0.31889297  0.93912138  1
  Er  Er5  1  0.82065838  0.81889297  0.56087862  1
  Er  Er6  1  0.32065838  0.68110703  0.43912138  1
  Er  Er7  1  0.17934162  0.18110703  0.06087862  1
  Er  Er8  1  0.86733752  0.52698134  0.25000000  1
  Er  Er9  1  0.63266248  0.02698134  0.25000000  1
  Er  Er10  1  0.13266248  0.47301866  0.75000000  1
  Er  Er11  1  0.36733752  0.97301866  0.75000000  1
  Pt  Pt12  1  0.04907458  0.88963177  0.25000000  1
  Pt  Pt13  1  0.45092542  0.38963177  0.25000000  1
  Pt  Pt14  1  0.95092542  0.11036823  0.75000000  1
  Pt  Pt15  1  0.54907458  0.61036823  0.75000000  1
