# generated using pymatgen
data_V5Si3B
_symmetry_space_group_name_H-M   'P 1'
_cell_length_a   4.85381307
_cell_length_b   7.21015872
_cell_length_c   7.20873879
_cell_angle_alpha   120.00651863
_cell_angle_beta   90.00000000
_cell_angle_gamma   90.00000000
_symmetry_Int_Tables_number   1
_chemical_formula_structural   V5Si3B
_chemical_formula_sum   'V10 Si6 B2'
_cell_volume   218.46871873
_cell_formula_units_Z   2
loop_
 _symmetry_equiv_pos_site_id
 _symmetry_equiv_pos_as_xyz
  1  'x, y, z'
loop_
 _atom_site_type_symbol
 _atom_site_label
 _atom_site_symmetry_multiplicity
 _atom_site_fract_x
 _atom_site_fract_y
 _atom_site_fract_z
 _atom_site_occupancy
  V  V0  1  0.50000023  0.33332021  0.66664786  1
  V  V1  1  0.50000023  0.66667236  0.33335214  1
  V  V2  1  0.00000023  0.66667979  0.33335214  1
  V  V3  1  0.00000023  0.33332764  0.66664786  1
  V  V4  1  0.75000170  0.24729001  1.00000000  1
  V  V5  1  0.74999999  0.75269086  0.75268644  1
  V  V6  1  0.74999999  0.00000442  0.24731356  1
  V  V7  1  0.25000170  0.75270999  0.00000000  1
  V  V8  1  0.24999999  0.24730914  0.24731356  1
  V  V9  1  0.24999999  -0.00000442  0.75268644  1
  Si  Si10  1  0.74999359  0.59827779  1.00000000  1
  Si  Si11  1  0.75000269  0.40169934  0.40171643  1
  Si  Si12  1  0.75000269  -0.00001709  0.59828357  1
  Si  Si13  1  0.24999359  0.40172221  0.00000000  1
  Si  Si14  1  0.25000269  0.59830066  0.59828357  1
  Si  Si15  1  0.25000269  0.00001709  0.40171643  1
  B  B16  1  0.49999891  0.00000201  0.00000000  1
  B  B17  1  -0.00000109  -0.00000201  1.00000000  1
