# generated using pymatgen
data_Li5V5(NiO6)2
_symmetry_space_group_name_H-M   'P 1'
_cell_length_a   5.17025044
_cell_length_b   5.17025010
_cell_length_c   9.89492641
_cell_angle_alpha   85.13371757
_cell_angle_beta   94.86628563
_cell_angle_gamma   60.19157235
_symmetry_Int_Tables_number   1
_chemical_formula_structural   Li5V5(NiO6)2
_chemical_formula_sum   'Li5 V5 Ni2 O12'
_cell_volume   226.20190741
_cell_formula_units_Z   1
loop_
 _symmetry_equiv_pos_site_id
 _symmetry_equiv_pos_as_xyz
  1  'x, y, z'
loop_
 _atom_site_type_symbol
 _atom_site_label
 _atom_site_symmetry_multiplicity
 _atom_site_fract_x
 _atom_site_fract_y
 _atom_site_fract_z
 _atom_site_occupancy
  Li  Li0  1  0.16248246  0.66128331  0.51304991  1
  Li  Li1  1  0.31158405  0.85522303  0.98668080  1
  Li  Li2  1  0.66128331  0.16248246  0.98695009  1
  Li  Li3  1  0.85522303  0.31158405  0.51331920  1
  Li  Li4  1  0.92123043  0.92123043  0.75000000  1
  V  V5  1  0.42302220  0.42302220  0.25000000  1
  V  V6  1  0.57464659  0.57464659  0.75000000  1
  V  V7  1  0.08403763  0.08403763  0.25000000  1
  V  V8  1  0.99660598  0.51440857  0.99026269  1
  V  V9  1  0.51440857  0.99660598  0.50973731  1
  Ni  Ni10  1  0.24660039  0.24660039  0.75000000  1
  Ni  Ni11  1  0.75371068  0.75371068  0.25000000  1
  O  O12  1  0.94483847  0.22902508  0.87075771  1
  O  O13  1  0.22902507  0.94483847  0.62924229  1
  O  O14  1  0.15014990  0.35757561  0.37194317  1
  O  O15  1  0.35757561  0.15014990  0.12805683  1
  O  O16  1  0.28435177  0.53461150  0.87528834  1
  O  O17  1  0.53461150  0.28435177  0.62471166  1
  O  O18  1  0.44847768  0.72976284  0.36713074  1
  O  O19  1  0.72976284  0.44847768  0.13286926  1
  O  O20  1  0.63086520  0.84750063  0.87791181  1
  O  O21  1  0.84750063  0.63086520  0.62208819  1
  O  O22  1  0.78345803  0.05454698  0.36739033  1
  O  O23  1  0.05454698  0.78345803  0.13260967  1
