# generated using pymatgen
data_Ca2HoTaO6
_symmetry_space_group_name_H-M   'P 1'
_cell_length_a   5.64517442
_cell_length_b   5.81149547
_cell_length_c   8.11318358
_cell_angle_alpha   90.00000000
_cell_angle_beta   89.60315846
_cell_angle_gamma   90.00000000
_symmetry_Int_Tables_number   1
_chemical_formula_structural   Ca2HoTaO6
_chemical_formula_sum   'Ca4 Ho2 Ta2 O12'
_cell_volume   266.16206311
_cell_formula_units_Z   2
loop_
 _symmetry_equiv_pos_site_id
 _symmetry_equiv_pos_as_xyz
  1  'x, y, z'
loop_
 _atom_site_type_symbol
 _atom_site_label
 _atom_site_symmetry_multiplicity
 _atom_site_fract_x
 _atom_site_fract_y
 _atom_site_fract_z
 _atom_site_occupancy
  Ca  Ca0  1  0.48966588  0.05124991  0.24561567  1
  Ca  Ca1  1  0.98966588  0.44875009  0.74561567  1
  Ca  Ca2  1  0.51033412  0.94875009  0.75438433  1
  Ca  Ca3  1  0.01033412  0.55124991  0.25438433  1
  Ho  Ho4  1  0.50000000  0.50000000  0.50000000  1
  Ho  Ho5  1  -0.00000000  -0.00000000  -0.00000000  1
  Ta  Ta6  1  0.50000000  0.50000000  -0.00000000  1
  Ta  Ta7  1  -0.00000000  -0.00000000  0.50000000  1
  O  O8  1  0.39207053  0.53971287  0.76532867  1
  O  O9  1  0.89207053  0.96028713  0.26532867  1
  O  O10  1  0.60792947  0.46028713  0.23467133  1
  O  O11  1  0.10792947  0.03971287  0.73467133  1
  O  O12  1  0.17431349  0.29286387  0.44503072  1
  O  O13  1  0.67431349  0.20713613  0.94503072  1
  O  O14  1  0.82568651  0.70713613  0.55496928  1
  O  O15  1  0.32568651  0.79286387  0.05496928  1
  O  O16  1  0.28978705  0.81759732  0.44175465  1
  O  O17  1  0.78978705  0.68240268  0.94175465  1
  O  O18  1  0.71021295  0.18240268  0.55824535  1
  O  O19  1  0.21021295  0.31759732  0.05824535  1
