# generated using pymatgen
data_PrZn3
_symmetry_space_group_name_H-M   'P 1'
_cell_length_a   4.58470629
_cell_length_b   6.73724820
_cell_length_c   10.46567302
_cell_angle_alpha   90.00000000
_cell_angle_beta   90.00000000
_cell_angle_gamma   90.00000000
_symmetry_Int_Tables_number   1
_chemical_formula_structural   PrZn3
_chemical_formula_sum   'Pr4 Zn12'
_cell_volume   323.26689190
_cell_formula_units_Z   4
loop_
 _symmetry_equiv_pos_site_id
 _symmetry_equiv_pos_as_xyz
  1  'x, y, z'
loop_
 _atom_site_type_symbol
 _atom_site_label
 _atom_site_symmetry_multiplicity
 _atom_site_fract_x
 _atom_site_fract_y
 _atom_site_fract_z
 _atom_site_occupancy
  Pr  Pr0  1  0.75000000  0.22391839  0.84132082  1
  Pr  Pr1  1  0.75000000  0.72391839  0.65867918  1
  Pr  Pr2  1  0.25000000  0.77608161  0.15867918  1
  Pr  Pr3  1  0.25000000  0.27608161  0.34132082  1
  Zn  Zn4  1  0.75000000  0.96507947  0.39432624  1
  Zn  Zn5  1  0.75000000  0.46507947  0.10567376  1
  Zn  Zn6  1  0.25000000  0.03492053  0.60567376  1
  Zn  Zn7  1  0.25000000  0.53492053  0.89432624  1
  Zn  Zn8  1  0.75000000  0.58519911  0.35294510  1
  Zn  Zn9  1  0.75000000  0.08519911  0.14705490  1
  Zn  Zn10  1  0.25000000  0.41480089  0.64705490  1
  Zn  Zn11  1  0.25000000  0.91480089  0.85294510  1
  Zn  Zn12  1  0.75000000  0.28293723  0.54352180  1
  Zn  Zn13  1  0.75000000  0.78293723  0.95647820  1
  Zn  Zn14  1  0.25000000  0.71706277  0.45647820  1
  Zn  Zn15  1  0.25000000  0.21706277  0.04352180  1
