# generated using pymatgen
data_Li2CaTa2O7
_symmetry_space_group_name_H-M   'P 1'
_cell_length_a   5.56885039
_cell_length_b   5.58126612
_cell_length_c   9.61812297
_cell_angle_alpha   90.00000000
_cell_angle_beta   106.82789087
_cell_angle_gamma   90.00000000
_symmetry_Int_Tables_number   1
_chemical_formula_structural   Li2CaTa2O7
_chemical_formula_sum   'Li4 Ca2 Ta4 O14'
_cell_volume   286.14201193
_cell_formula_units_Z   2
loop_
 _symmetry_equiv_pos_site_id
 _symmetry_equiv_pos_as_xyz
  1  'x, y, z'
loop_
 _atom_site_type_symbol
 _atom_site_label
 _atom_site_symmetry_multiplicity
 _atom_site_fract_x
 _atom_site_fract_y
 _atom_site_fract_z
 _atom_site_occupancy
  Li  Li0  1  0.73885020  0.50000000  0.47770040  1
  Li  Li1  1  0.73885020  -0.00000000  0.47770040  1
  Li  Li2  1  0.26114980  0.50000000  0.52229960  1
  Li  Li3  1  0.26114980  -0.00000000  0.52229960  1
  Ca  Ca4  1  0.25432192  0.25000000  0.00000000  1
  Ca  Ca5  1  0.74567808  0.75000000  0.00000000  1
  Ta  Ta6  1  0.64088675  0.25000000  0.77664522  1
  Ta  Ta7  1  0.13575847  0.75000000  0.77664522  1
  Ta  Ta8  1  0.35911325  0.75000000  0.22335478  1
  Ta  Ta9  1  0.86424153  0.25000000  0.22335478  1
  O  O10  1  0.67600957  0.25000000  0.00000000  1
  O  O11  1  0.32399043  0.75000000  0.00000000  1
  O  O12  1  0.57753911  0.25000000  0.57219170  1
  O  O13  1  0.99465260  0.75000000  0.57219170  1
  O  O14  1  0.42246089  0.75000000  0.42780830  1
  O  O15  1  0.00534740  0.25000000  0.42780830  1
  O  O16  1  0.38405510  0.50000000  0.76811019  1
  O  O17  1  0.38405510  0.00000000  0.76811019  1
  O  O18  1  0.61594490  0.50000000  0.23188981  1
  O  O19  1  0.61594490  -0.00000000  0.23188981  1
  O  O20  1  0.91420230  0.50000000  0.82840460  1
  O  O21  1  0.91420230  0.00000000  0.82840460  1
  O  O22  1  0.08579770  0.50000000  0.17159540  1
  O  O23  1  0.08579770  0.00000000  0.17159540  1
