# generated using pymatgen
data_ErIn2Ni9
_symmetry_space_group_name_H-M   'P 1'
_cell_length_a   4.78572014
_cell_length_b   8.25162721
_cell_length_c   8.25162721
_cell_angle_alpha   90.00000000
_cell_angle_beta   90.00000000
_cell_angle_gamma   90.00000000
_symmetry_Int_Tables_number   1
_chemical_formula_structural   ErIn2Ni9
_chemical_formula_sum   'Er2 In4 Ni18'
_cell_volume   325.85658133
_cell_formula_units_Z   2
loop_
 _symmetry_equiv_pos_site_id
 _symmetry_equiv_pos_as_xyz
  1  'x, y, z'
loop_
 _atom_site_type_symbol
 _atom_site_label
 _atom_site_symmetry_multiplicity
 _atom_site_fract_x
 _atom_site_fract_y
 _atom_site_fract_z
 _atom_site_occupancy
  Er  Er0  1  0.00000000  0.50000000  0.50000000  1
  Er  Er1  1  -0.00000000  -0.00000000  0.00000000  1
  In  In2  1  0.00000000  0.12503714  0.62503714  1
  In  In3  1  -0.00000000  0.87496286  0.37496286  1
  In  In4  1  -0.00000000  0.37496286  0.12503714  1
  In  In5  1  0.00000000  0.62503714  0.87496286  1
  Ni  Ni6  1  0.50000000  -0.00000000  0.50000000  1
  Ni  Ni7  1  0.50000000  0.50000000  0.00000000  1
  Ni  Ni8  1  0.50000000  0.56320089  0.70566230  1
  Ni  Ni9  1  0.50000000  0.43679911  0.29433770  1
  Ni  Ni10  1  0.50000000  0.93679911  0.20566230  1
  Ni  Ni11  1  0.50000000  0.06320089  0.79433770  1
  Ni  Ni12  1  0.50000000  0.70566230  0.43679911  1
  Ni  Ni13  1  0.50000000  0.29433770  0.56320089  1
  Ni  Ni14  1  0.50000000  0.20566230  0.06320089  1
  Ni  Ni15  1  0.50000000  0.79433770  0.93679911  1
  Ni  Ni16  1  0.75223823  0.32342611  0.82342611  1
  Ni  Ni17  1  0.75223823  0.67657389  0.17657389  1
  Ni  Ni18  1  0.75223823  0.17657389  0.32342611  1
  Ni  Ni19  1  0.75223823  0.82342611  0.67657389  1
  Ni  Ni20  1  0.24776177  0.67657389  0.17657389  1
  Ni  Ni21  1  0.24776177  0.32342611  0.82342611  1
  Ni  Ni22  1  0.24776177  0.82342611  0.67657389  1
  Ni  Ni23  1  0.24776177  0.17657389  0.32342611  1
