# generated using pymatgen
data_CsSO4
_symmetry_space_group_name_H-M   'P 1'
_cell_length_a   7.94649056
_cell_length_b   7.97405449
_cell_length_c   8.29715749
_cell_angle_alpha   90.00000000
_cell_angle_beta   90.00000000
_cell_angle_gamma   111.66724544
_symmetry_Int_Tables_number   1
_chemical_formula_structural   CsSO4
_chemical_formula_sum   'Cs4 S4 O16'
_cell_volume   488.60770158
_cell_formula_units_Z   4
loop_
 _symmetry_equiv_pos_site_id
 _symmetry_equiv_pos_as_xyz
  1  'x, y, z'
loop_
 _atom_site_type_symbol
 _atom_site_label
 _atom_site_symmetry_multiplicity
 _atom_site_fract_x
 _atom_site_fract_y
 _atom_site_fract_z
 _atom_site_occupancy
  Cs  Cs0  1  0.28783140  0.77901370  0.37615625  1
  Cs  Cs1  1  0.21216860  0.22098630  0.87615625  1
  Cs  Cs2  1  0.71216860  0.22098630  0.62384375  1
  Cs  Cs3  1  0.78783140  0.77901370  0.12384375  1
  S  S4  1  0.22857664  0.25194026  0.36708913  1
  S  S5  1  0.27142336  0.74805974  0.86708913  1
  S  S6  1  0.77142336  0.74805974  0.63291087  1
  S  S7  1  0.72857664  0.25194026  0.13291087  1
  O  O8  1  0.09539486  0.32865676  0.43262685  1
  O  O9  1  0.40460514  0.67134324  0.93262685  1
  O  O10  1  0.90460514  0.67134324  0.56737315  1
  O  O11  1  0.59539486  0.32865676  0.06737315  1
  O  O12  1  0.36244107  0.40911018  0.27984359  1
  O  O13  1  0.13755893  0.59088982  0.77984359  1
  O  O14  1  0.63755893  0.59088982  0.72015641  1
  O  O15  1  0.86244107  0.40911018  0.22015641  1
  O  O16  1  0.68906453  0.80766436  0.49579939  1
  O  O17  1  0.81093547  0.19233564  0.99579939  1
  O  O18  1  0.31093547  0.19233564  0.50420061  1
  O  O19  1  0.18906453  0.80766436  0.00420061  1
  O  O20  1  0.13851613  0.10223526  0.25494105  1
  O  O21  1  0.36148387  0.89776474  0.75494105  1
  O  O22  1  0.86148387  0.89776474  0.74505895  1
  O  O23  1  0.63851613  0.10223526  0.24505895  1
