# generated using pymatgen
data_TbSi3Ni8
_symmetry_space_group_name_H-M   'P 1'
_cell_length_a   6.30764105
_cell_length_b   7.48297998
_cell_length_c   7.50270907
_cell_angle_alpha   80.27460488
_cell_angle_beta   65.14283579
_cell_angle_gamma   66.30528930
_symmetry_Int_Tables_number   1
_chemical_formula_structural   TbSi3Ni8
_chemical_formula_sum   'Tb2 Si6 Ni16'
_cell_volume   294.23318968
_cell_formula_units_Z   2
loop_
 _symmetry_equiv_pos_site_id
 _symmetry_equiv_pos_as_xyz
  1  'x, y, z'
loop_
 _atom_site_type_symbol
 _atom_site_label
 _atom_site_symmetry_multiplicity
 _atom_site_fract_x
 _atom_site_fract_y
 _atom_site_fract_z
 _atom_site_occupancy
  Tb  Tb0  1  0.36957099  0.75000000  0.26085801  1
  Tb  Tb1  1  0.63042901  0.25000000  0.73914199  1
  Si  Si2  1  0.81609879  0.82435683  0.90751592  1
  Si  Si3  1  0.27638529  0.67564317  0.90751592  1
  Si  Si4  1  0.18390121  0.17564317  0.09248408  1
  Si  Si5  1  0.72361471  0.32435683  0.09248408  1
  Si  Si6  1  0.00000000  0.50000000  0.50000000  1
  Si  Si7  1  0.50000000  0.00000000  0.50000000  1
  Ni  Ni8  1  0.13761890  0.92187068  0.66198282  1
  Ni  Ni9  1  0.20039828  0.57812932  0.66198282  1
  Ni  Ni10  1  0.86238110  0.07812932  0.33801718  1
  Ni  Ni11  1  0.79960172  0.42187068  0.33801718  1
  Ni  Ni12  1  0.85187856  0.82790948  0.58106080  1
  Ni  Ni13  1  0.56706064  0.67209052  0.58106080  1
  Ni  Ni14  1  0.14812144  0.17209052  0.41893920  1
  Ni  Ni15  1  0.43293936  0.32790948  0.41893920  1
  Ni  Ni16  1  0.71045099  0.56875826  0.84984914  1
  Ni  Ni17  1  0.43969987  0.93124174  0.84984914  1
  Ni  Ni18  1  0.28954901  0.43124174  0.15015086  1
  Ni  Ni19  1  0.56030013  0.06875826  0.15015086  1
  Ni  Ni20  1  0.87726058  0.75000000  0.24547885  1
  Ni  Ni21  1  0.12273942  0.25000000  0.75452115  1
  Ni  Ni22  1  0.00000000  0.50000000  0.00000000  1
  Ni  Ni23  1  0.00000000  0.00000000  0.00000000  1
