# generated using pymatgen
data_US2O9
_symmetry_space_group_name_H-M   'P 1'
_cell_length_a   6.65552360
_cell_length_b   6.97716486
_cell_length_c   8.17966851
_cell_angle_alpha   87.30158779
_cell_angle_beta   80.18275093
_cell_angle_gamma   74.95896247
_symmetry_Int_Tables_number   1
_chemical_formula_structural   US2O9
_chemical_formula_sum   'U2 S4 O18'
_cell_volume   361.45042553
_cell_formula_units_Z   2
loop_
 _symmetry_equiv_pos_site_id
 _symmetry_equiv_pos_as_xyz
  1  'x, y, z'
loop_
 _atom_site_type_symbol
 _atom_site_label
 _atom_site_symmetry_multiplicity
 _atom_site_fract_x
 _atom_site_fract_y
 _atom_site_fract_z
 _atom_site_occupancy
  U  U0  1  0.79491772  0.80180314  0.74786482  1
  U  U1  1  0.20508228  0.19819686  0.25213518  1
  S  S2  1  0.98387720  0.25094790  0.85015162  1
  S  S3  1  0.01612280  0.74905210  0.14984838  1
  S  S4  1  0.39152386  0.25703547  0.64511168  1
  S  S5  1  0.60847614  0.74296453  0.35488832  1
  O  O6  1  0.56053257  0.80641903  0.89096320  1
  O  O7  1  0.43946743  0.19358097  0.10903680  1
  O  O8  1  0.02930838  0.79294674  0.60222585  1
  O  O9  1  0.97069162  0.20705326  0.39777415  1
  O  O10  1  0.89896777  0.43615858  0.76639392  1
  O  O11  1  0.10103223  0.56384142  0.23360608  1
  O  O12  1  0.02390222  0.28339663  0.01544033  1
  O  O13  1  0.97609778  0.71660337  0.98455967  1
  O  O14  1  0.86410844  0.10386610  0.85083907  1
  O  O15  1  0.13589156  0.89613390  0.14916093  1
  O  O16  1  0.20699856  0.14109745  0.73951936  1
  O  O17  1  0.79300144  0.85890255  0.26048064  1
  O  O18  1  0.38571541  0.41730287  0.74907840  1
  O  O19  1  0.61428459  0.58269713  0.25092160  1
  O  O20  1  0.33043469  0.31157318  0.48150848  1
  O  O21  1  0.66956531  0.68842682  0.51849152  1
  O  O22  1  0.57981352  0.08987878  0.63019791  1
  O  O23  1  0.42018648  0.91012122  0.36980209  1
