# generated using pymatgen
data_Er2ZnTe2(SO7)2
_symmetry_space_group_name_H-M   'P 1'
_cell_length_a   5.27522234
_cell_length_b   7.89291085
_cell_length_c   8.17042875
_cell_angle_alpha   64.13809869
_cell_angle_beta   73.39795131
_cell_angle_gamma   85.40108153
_symmetry_Int_Tables_number   1
_chemical_formula_structural   Er2ZnTe2(SO7)2
_chemical_formula_sum   'Er2 Zn1 Te2 S2 O14'
_cell_volume   292.96872728
_cell_formula_units_Z   1
loop_
 _symmetry_equiv_pos_site_id
 _symmetry_equiv_pos_as_xyz
  1  'x, y, z'
loop_
 _atom_site_type_symbol
 _atom_site_label
 _atom_site_symmetry_multiplicity
 _atom_site_fract_x
 _atom_site_fract_y
 _atom_site_fract_z
 _atom_site_occupancy
  Er  Er0  1  0.91574400  0.74623765  0.98412058  1
  Er  Er1  1  0.08425600  0.25376235  0.01587942  1
  Zn  Zn2  1  -0.00000000  0.00000000  0.50000000  1
  Te  Te3  1  0.48152929  0.72565296  0.66491401  1
  Te  Te4  1  0.51847071  0.27434704  0.33508599  1
  S  S5  1  0.23745073  0.75514695  0.24720419  1
  S  S6  1  0.76254927  0.24485305  0.75279581  1
  O  O7  1  0.10246710  0.59501554  0.24987711  1
  O  O8  1  0.89753290  0.40498446  0.75012289  1
  O  O9  1  0.13403432  0.77057512  0.42843614  1
  O  O10  1  0.86596568  0.22942488  0.57156386  1
  O  O11  1  0.52751621  0.73045106  0.21215254  1
  O  O12  1  0.47248379  0.26954894  0.78784746  1
  O  O13  1  0.17649020  0.92666325  0.08676065  1
  O  O14  1  0.82350980  0.07333675  0.91323935  1
  O  O15  1  0.24295524  0.56063562  0.89752160  1
  O  O16  1  0.75704476  0.43936438  0.10247840  1
  O  O17  1  0.72344990  0.80447603  0.75470262  1
  O  O18  1  0.27655010  0.19552397  0.24529738  1
  O  O19  1  0.24504494  0.92230969  0.66994181  1
  O  O20  1  0.75495506  0.07769031  0.33005819  1
