# generated using pymatgen
data_Y3TaO7
_symmetry_space_group_name_H-M   'P 1'
_cell_length_a   6.47371148
_cell_length_b   6.47371148
_cell_length_c   7.53759828
_cell_angle_alpha   90.00000000
_cell_angle_beta   90.00000000
_cell_angle_gamma   109.56940533
_symmetry_Int_Tables_number   1
_chemical_formula_structural   Y3TaO7
_chemical_formula_sum   'Y6 Ta2 O14'
_cell_volume   297.64566700
_cell_formula_units_Z   2
loop_
 _symmetry_equiv_pos_site_id
 _symmetry_equiv_pos_as_xyz
  1  'x, y, z'
loop_
 _atom_site_type_symbol
 _atom_site_label
 _atom_site_symmetry_multiplicity
 _atom_site_fract_x
 _atom_site_fract_y
 _atom_site_fract_z
 _atom_site_occupancy
  Y  Y0  1  0.50000000  0.50000000  0.50000000  1
  Y  Y1  1  0.50000000  0.50000000  0.00000000  1
  Y  Y2  1  -0.00004795  0.53385664  0.25000000  1
  Y  Y3  1  0.53385664  -0.00004795  0.75000000  1
  Y  Y4  1  0.00004795  0.46614336  0.75000000  1
  Y  Y5  1  0.46614336  0.00004795  0.25000000  1
  Ta  Ta6  1  -0.00000000  -0.00000000  0.50000000  1
  Ta  Ta7  1  -0.00000000  -0.00000000  0.00000000  1
  O  O8  1  0.92797865  0.67849713  0.53092660  1
  O  O9  1  0.67849713  0.92797865  0.46907340  1
  O  O10  1  0.92797865  0.67849713  0.96907340  1
  O  O11  1  0.67849713  0.92797865  0.03092660  1
  O  O12  1  0.07202135  0.32150287  0.46907340  1
  O  O13  1  0.32150287  0.07202135  0.53092660  1
  O  O14  1  0.07202135  0.32150287  0.03092660  1
  O  O15  1  0.32150287  0.07202135  0.96907340  1
  O  O16  1  0.06378356  0.93621644  0.25000000  1
  O  O17  1  0.93621644  0.06378356  0.75000000  1
  O  O18  1  0.62902208  0.37097792  0.25000000  1
  O  O19  1  0.37097792  0.62902208  0.75000000  1
  O  O20  1  0.36181190  0.63818810  0.25000000  1
  O  O21  1  0.63818810  0.36181190  0.75000000  1
