# generated using pymatgen
data_Na2Ni3P2(HO5)2
_symmetry_space_group_name_H-M   'P 1'
_cell_length_a   4.98508017
_cell_length_b   5.74283186
_cell_length_c   7.78789016
_cell_angle_alpha   111.63562896
_cell_angle_beta   102.93212249
_cell_angle_gamma   90.00000000
_symmetry_Int_Tables_number   1
_chemical_formula_structural   Na2Ni3P2(HO5)2
_chemical_formula_sum   'Na2 Ni3 P2 H2 O10'
_cell_volume   201.15145778
_cell_formula_units_Z   1
loop_
 _symmetry_equiv_pos_site_id
 _symmetry_equiv_pos_as_xyz
  1  'x, y, z'
loop_
 _atom_site_type_symbol
 _atom_site_label
 _atom_site_symmetry_multiplicity
 _atom_site_fract_x
 _atom_site_fract_y
 _atom_site_fract_z
 _atom_site_occupancy
  Na  Na0  1  0.71567797  0.76489124  0.52978248  1
  Na  Na1  1  0.28432203  0.23510876  0.47021752  1
  Ni  Ni2  1  -0.00000000  0.00000000  0.00000000  1
  Ni  Ni3  1  0.50000000  0.73177769  1.00000000  1
  Ni  Ni4  1  0.50000000  0.26822231  0.00000000  1
  P  P5  1  0.09619907  0.62377508  0.24755017  1
  P  P6  1  0.90380093  0.37622492  0.75244983  1
  H  H7  1  0.24761822  0.85984086  0.71968171  1
  H  H8  1  0.75238178  0.14015914  0.28031829  1
  O  O9  1  0.22887558  0.40708972  0.81417943  1
  O  O10  1  0.77112442  0.59291028  0.18582057  1
  O  O11  1  0.78265731  0.63843942  0.82631655  1
  O  O12  1  0.78265731  0.18787714  0.82631655  1
  O  O13  1  0.21734269  0.36156058  0.17368345  1
  O  O14  1  0.21734269  0.81212286  0.17368345  1
  O  O15  1  0.28900598  0.92946945  0.85893890  1
  O  O16  1  0.71099402  0.07053055  0.14106110  1
  O  O17  1  0.19061352  0.73316355  0.46632709  1
  O  O18  1  0.80938648  0.26683645  0.53367291  1
