# generated using pymatgen
data_Li2MnNb3O8
_symmetry_space_group_name_H-M   'P 1'
_cell_length_a   6.24335953
_cell_length_b   6.24335959
_cell_length_c   6.24335926
_cell_angle_alpha   59.07518037
_cell_angle_beta   59.07518133
_cell_angle_gamma   59.07518527
_symmetry_Int_Tables_number   1
_chemical_formula_structural   Li2MnNb3O8
_chemical_formula_sum   'Li2 Mn1 Nb3 O8'
_cell_volume   168.45521311
_cell_formula_units_Z   1
loop_
 _symmetry_equiv_pos_site_id
 _symmetry_equiv_pos_as_xyz
  1  'x, y, z'
loop_
 _atom_site_type_symbol
 _atom_site_label
 _atom_site_symmetry_multiplicity
 _atom_site_fract_x
 _atom_site_fract_y
 _atom_site_fract_z
 _atom_site_occupancy
  Li  Li0  1  0.11886759  0.11886759  0.11886759  1
  Li  Li1  1  0.50415396  0.50415396  0.50415396  1
  Mn  Mn2  1  0.87493387  0.87493387  0.87493387  1
  Nb  Nb3  1  0.02141036  0.48932687  0.48932687  1
  Nb  Nb4  1  0.48932687  0.02141036  0.48932687  1
  Nb  Nb5  1  0.48932687  0.48932687  0.02141036  1
  O  O6  1  0.24701859  0.24701859  0.24701859  1
  O  O7  1  0.25416590  0.25416590  0.72393738  1
  O  O8  1  0.25416590  0.72393738  0.25416590  1
  O  O9  1  0.72393738  0.25416590  0.25416590  1
  O  O10  1  0.28745476  0.74818262  0.74818262  1
  O  O11  1  0.74818262  0.28745476  0.74818262  1
  O  O12  1  0.74818262  0.74818262  0.28745476  1
  O  O13  1  0.73887070  0.73887070  0.73887070  1
