# generated using pymatgen
data_HfMn2
_symmetry_space_group_name_H-M   'P 1'
_cell_length_a   4.94414936
_cell_length_b   4.94414936
_cell_length_c   16.13879683
_cell_angle_alpha   90.00000000
_cell_angle_beta   90.00000000
_cell_angle_gamma   119.91390245
_symmetry_Int_Tables_number   1
_chemical_formula_structural   HfMn2
_chemical_formula_sum   'Hf8 Mn16'
_cell_volume   341.94879676
_cell_formula_units_Z   8
loop_
 _symmetry_equiv_pos_site_id
 _symmetry_equiv_pos_as_xyz
  1  'x, y, z'
loop_
 _atom_site_type_symbol
 _atom_site_label
 _atom_site_symmetry_multiplicity
 _atom_site_fract_x
 _atom_site_fract_y
 _atom_site_fract_z
 _atom_site_occupancy
  Hf  Hf0  1  0.99994602  0.00005398  0.59363214  1
  Hf  Hf1  1  0.00005398  0.99994602  0.40636786  1
  Hf  Hf2  1  0.00005398  0.99994602  0.09363214  1
  Hf  Hf3  1  0.99994602  0.00005398  0.90636786  1
  Hf  Hf4  1  0.66664193  0.33335807  0.34415410  1
  Hf  Hf5  1  0.33335807  0.66664193  0.65584590  1
  Hf  Hf6  1  0.33335807  0.66664193  0.84415410  1
  Hf  Hf7  1  0.66664193  0.33335807  0.15584590  1
  Mn  Mn8  1  0.66669697  0.33330303  0.62459767  1
  Mn  Mn9  1  0.33330303  0.66669697  0.37540233  1
  Mn  Mn10  1  0.33330303  0.66669697  0.12459767  1
  Mn  Mn11  1  0.66669697  0.33330303  0.87540233  1
  Mn  Mn12  1  0.50000000  -0.00000000  0.50000000  1
  Mn  Mn13  1  0.50000000  0.50000000  0.50000000  1
  Mn  Mn14  1  0.00000000  0.50000000  0.50000000  1
  Mn  Mn15  1  0.50000000  -0.00000000  0.00000000  1
  Mn  Mn16  1  0.50000000  0.50000000  0.00000000  1
  Mn  Mn17  1  0.00000000  0.50000000  0.00000000  1
  Mn  Mn18  1  0.83650792  0.67322344  0.75000000  1
  Mn  Mn19  1  0.83640986  0.16359014  0.75000000  1
  Mn  Mn20  1  0.32677656  0.16349208  0.75000000  1
  Mn  Mn21  1  0.16349208  0.32677656  0.25000000  1
  Mn  Mn22  1  0.16359014  0.83640986  0.25000000  1
  Mn  Mn23  1  0.67322344  0.83650792  0.25000000  1
