# generated using pymatgen
data_Te7RhCl7
_symmetry_space_group_name_H-M   'P 1'
_cell_length_a   9.55465668
_cell_length_b   10.41021232
_cell_length_c   11.75838864
_cell_angle_alpha   68.81616560
_cell_angle_beta   66.65503484
_cell_angle_gamma   66.83431716
_symmetry_Int_Tables_number   1
_chemical_formula_structural   Te7RhCl7
_chemical_formula_sum   'Te14 Rh2 Cl14'
_cell_volume   957.53884319
_cell_formula_units_Z   2
loop_
 _symmetry_equiv_pos_site_id
 _symmetry_equiv_pos_as_xyz
  1  'x, y, z'
loop_
 _atom_site_type_symbol
 _atom_site_label
 _atom_site_symmetry_multiplicity
 _atom_site_fract_x
 _atom_site_fract_y
 _atom_site_fract_z
 _atom_site_occupancy
  Te  Te0  1  0.79432910  0.05078062  0.29737974  1
  Te  Te1  1  0.20567090  0.94921938  0.70262026  1
  Te  Te2  1  0.65748103  0.28584943  0.11886172  1
  Te  Te3  1  0.34251897  0.71415057  0.88113828  1
  Te  Te4  1  0.06933726  0.15028527  0.19552331  1
  Te  Te5  1  0.93066274  0.84971473  0.80447669  1
  Te  Te6  1  0.95846495  0.33797020  0.98527862  1
  Te  Te7  1  0.04153505  0.66202980  0.01472138  1
  Te  Te8  1  0.80895731  0.05496907  0.96972855  1
  Te  Te9  1  0.19104269  0.94503093  0.03027145  1
  Te  Te10  1  0.66091687  0.76490855  0.27159984  1
  Te  Te11  1  0.33908313  0.23509145  0.72840016  1
  Te  Te12  1  0.05739647  0.65763646  0.33775129  1
  Te  Te13  1  0.94260353  0.34236354  0.66224871  1
  Rh  Rh14  1  0.92768354  0.85207482  0.15755733  1
  Rh  Rh15  1  0.07231646  0.14792518  0.84244267  1
  Cl  Cl16  1  0.67611111  0.74154519  0.03866214  1
  Cl  Cl17  1  0.32388889  0.25845481  0.96133786  1
  Cl  Cl18  1  0.80317741  0.49721600  0.30869437  1
  Cl  Cl19  1  0.19682259  0.50278400  0.69130563  1
  Cl  Cl20  1  0.65048066  0.74316497  0.49161866  1
  Cl  Cl21  1  0.34951934  0.25683503  0.50838134  1
  Cl  Cl22  1  0.47256006  0.03244801  0.26796426  1
  Cl  Cl23  1  0.52743994  0.96755199  0.73203574  1
  Cl  Cl24  1  0.20760297  0.46567778  0.20534902  1
  Cl  Cl25  1  0.79239703  0.53432222  0.79465098  1
  Cl  Cl26  1  0.31886876  0.67477049  0.28486731  1
  Cl  Cl27  1  0.68113124  0.32522951  0.71513269  1
  Cl  Cl28  1  0.98029251  0.84328131  0.46738435  1
  Cl  Cl29  1  0.01970749  0.15671869  0.53261565  1
