# generated using pymatgen
data_YFe3
_symmetry_space_group_name_H-M   'P 1'
_cell_length_a   5.11556130
_cell_length_b   5.11556130
_cell_length_c   16.12407604
_cell_angle_alpha   90.00000000
_cell_angle_beta   90.00000000
_cell_angle_gamma   119.98047751
_symmetry_Int_Tables_number   1
_chemical_formula_structural   YFe3
_chemical_formula_sum   'Y6 Fe18'
_cell_volume   365.49164838
_cell_formula_units_Z   6
loop_
 _symmetry_equiv_pos_site_id
 _symmetry_equiv_pos_as_xyz
  1  'x, y, z'
loop_
 _atom_site_type_symbol
 _atom_site_label
 _atom_site_symmetry_multiplicity
 _atom_site_fract_x
 _atom_site_fract_y
 _atom_site_fract_z
 _atom_site_occupancy
  Y  Y0  1  0.66667695  0.33332305  0.03686714  1
  Y  Y1  1  0.33332305  0.66667695  0.96313286  1
  Y  Y2  1  0.33332305  0.66667695  0.53686714  1
  Y  Y3  1  0.66667695  0.33332305  0.46313286  1
  Y  Y4  1  0.66669655  0.33330345  0.25000000  1
  Y  Y5  1  0.33330345  0.66669655  0.75000000  1
  Fe  Fe6  1  0.83366009  0.66727923  0.62833121  1
  Fe  Fe7  1  0.83361077  0.16638923  0.62830237  1
  Fe  Fe8  1  0.33272077  0.16633991  0.62833121  1
  Fe  Fe9  1  0.16633991  0.33272077  0.37166879  1
  Fe  Fe10  1  0.16638923  0.83361077  0.37169763  1
  Fe  Fe11  1  0.66727923  0.83366009  0.37166879  1
  Fe  Fe12  1  0.16633991  0.33272077  0.12833121  1
  Fe  Fe13  1  0.16638923  0.83361077  0.12830237  1
  Fe  Fe14  1  0.66727923  0.83366009  0.12833121  1
  Fe  Fe15  1  0.83366009  0.66727923  0.87166879  1
  Fe  Fe16  1  0.83361077  0.16638923  0.87169763  1
  Fe  Fe17  1  0.33272077  0.16633991  0.87166879  1
  Fe  Fe18  1  0.66666547  0.33333453  0.75000000  1
  Fe  Fe19  1  0.33333453  0.66666547  0.25000000  1
  Fe  Fe20  1  0.99993330  0.00006670  0.75000000  1
  Fe  Fe21  1  0.00006670  0.99993330  0.25000000  1
  Fe  Fe22  1  0.00000000  0.00000000  0.50000000  1
  Fe  Fe23  1  0.00000000  0.00000000  -0.00000000  1
