# generated using pymatgen
data_LiCuSbO4
_symmetry_space_group_name_H-M   'P 1'
_cell_length_a   6.15729608
_cell_length_b   6.15731228
_cell_length_c   8.45402385
_cell_angle_alpha   90.00031071
_cell_angle_beta   89.99558814
_cell_angle_gamma   90.00231694
_symmetry_Int_Tables_number   1
_chemical_formula_structural   LiCuSbO4
_chemical_formula_sum   'Li4 Cu4 Sb4 O16'
_cell_volume   320.51228805
_cell_formula_units_Z   4
loop_
 _symmetry_equiv_pos_site_id
 _symmetry_equiv_pos_as_xyz
  1  'x, y, z'
loop_
 _atom_site_type_symbol
 _atom_site_label
 _atom_site_symmetry_multiplicity
 _atom_site_fract_x
 _atom_site_fract_y
 _atom_site_fract_z
 _atom_site_occupancy
  Li  Li0  1  0.00006870  0.21126408  0.00002155  1
  Li  Li1  1  0.99989900  0.78876216  0.50005066  1
  Li  Li2  1  0.21125748  0.00010883  0.24998768  1
  Li  Li3  1  0.78875417  0.99993848  0.74994282  1
  Cu  Cu4  1  0.24942455  0.24945159  0.62501798  1
  Cu  Cu5  1  0.24956165  0.75040887  0.87498628  1
  Cu  Cu6  1  0.75040386  0.24956937  0.37500992  1
  Cu  Cu7  1  0.75060020  0.75061468  0.12497710  1
  Sb  Sb8  1  0.22690488  0.50017417  0.25001832  1
  Sb  Sb9  1  0.50037537  0.22701098  0.00000033  1
  Sb  Sb10  1  0.50003506  0.77297360  0.49995714  1
  Sb  Sb11  1  0.77287222  0.49983079  0.75001876  1
  O  O12  1  0.01699432  0.26117066  0.25528841  1
  O  O13  1  0.01687242  0.73868572  0.24458982  1
  O  O14  1  0.26104339  0.01675503  0.99461564  1
  O  O15  1  0.26117286  0.98322461  0.50539905  1
  O  O16  1  0.26467308  0.47132535  0.01037908  1
  O  O17  1  0.26466418  0.52862187  0.48960167  1
  O  O18  1  0.47127090  0.26471308  0.23955456  1
  O  O19  1  0.47138286  0.73530236  0.26037364  1
  O  O20  1  0.52861067  0.26468321  0.76038622  1
  O  O21  1  0.52865348  0.73530420  0.73962946  1
  O  O22  1  0.73526504  0.52870675  0.51044050  1
  O  O23  1  0.73528084  0.47139471  0.98964020  1
  O  O24  1  0.73867199  0.01687326  0.00539226  1
  O  O25  1  0.73881568  0.98300244  0.49470914  1
  O  O26  1  0.98322907  0.26118785  0.74462185  1
  O  O27  1  0.98324209  0.73894130  0.75538997  1
