# generated using pymatgen
data_Rb2ZnBr4
_symmetry_space_group_name_H-M   'P 1'
_cell_length_a   7.89648372
_cell_length_b   9.87948263
_cell_length_c   13.75816266
_cell_angle_alpha   90.00000000
_cell_angle_beta   90.00000000
_cell_angle_gamma   90.00000000
_symmetry_Int_Tables_number   1
_chemical_formula_structural   Rb2ZnBr4
_chemical_formula_sum   'Rb8 Zn4 Br16'
_cell_volume   1073.31793407
_cell_formula_units_Z   4
loop_
 _symmetry_equiv_pos_site_id
 _symmetry_equiv_pos_as_xyz
  1  'x, y, z'
loop_
 _atom_site_type_symbol
 _atom_site_label
 _atom_site_symmetry_multiplicity
 _atom_site_fract_x
 _atom_site_fract_y
 _atom_site_fract_z
 _atom_site_occupancy
  Rb  Rb0  1  0.24936715  0.01151013  0.17620643  1
  Rb  Rb1  1  0.74936715  0.98848987  0.82379357  1
  Rb  Rb2  1  0.74936715  0.48848987  0.67620643  1
  Rb  Rb3  1  0.24936715  0.51151013  0.32379357  1
  Rb  Rb4  1  0.25215313  0.37651647  0.90428807  1
  Rb  Rb5  1  0.75215313  0.62348353  0.09571193  1
  Rb  Rb6  1  0.75215313  0.12348353  0.40428807  1
  Rb  Rb7  1  0.25215313  0.87651647  0.59571193  1
  Zn  Zn8  1  0.24945541  0.77681332  0.92075180  1
  Zn  Zn9  1  0.74945541  0.22318668  0.07924820  1
  Zn  Zn10  1  0.74945541  0.72318668  0.42075180  1
  Zn  Zn11  1  0.24945541  0.27681332  0.57924820  1
  Br  Br12  1  0.24894188  0.02213946  0.92129970  1
  Br  Br13  1  0.74894188  0.97786054  0.07870030  1
  Br  Br14  1  0.74894188  0.47786054  0.42129970  1
  Br  Br15  1  0.24894188  0.52213946  0.57870030  1
  Br  Br16  1  0.26215789  0.67497265  0.08278626  1
  Br  Br17  1  0.76215789  0.32502735  0.91721374  1
  Br  Br18  1  0.76215789  0.82502735  0.58278626  1
  Br  Br19  1  0.26215789  0.17497265  0.41721374  1
  Br  Br20  1  0.49305165  0.69228047  0.83038184  1
  Br  Br21  1  0.99305165  0.30771953  0.16961816  1
  Br  Br22  1  0.99305165  0.80771953  0.33038184  1
  Br  Br23  1  0.49305165  0.19228047  0.66961816  1
  Br  Br24  1  0.99467289  0.68854677  0.84337682  1
  Br  Br25  1  0.49467289  0.31145323  0.15662318  1
  Br  Br26  1  0.49467289  0.81145323  0.34337682  1
  Br  Br27  1  0.99467289  0.18854677  0.65662318  1
