# generated using pymatgen
data_Cs2HgCl4
_symmetry_space_group_name_H-M   'P 1'
_cell_length_a   7.87368650
_cell_length_b   10.03880517
_cell_length_c   13.86257250
_cell_angle_alpha   90.00000000
_cell_angle_beta   90.00000000
_cell_angle_gamma   90.00000000
_symmetry_Int_Tables_number   1
_chemical_formula_structural   Cs2HgCl4
_chemical_formula_sum   'Cs8 Hg4 Cl16'
_cell_volume   1095.73106633
_cell_formula_units_Z   4
loop_
 _symmetry_equiv_pos_site_id
 _symmetry_equiv_pos_as_xyz
  1  'x, y, z'
loop_
 _atom_site_type_symbol
 _atom_site_label
 _atom_site_symmetry_multiplicity
 _atom_site_fract_x
 _atom_site_fract_y
 _atom_site_fract_z
 _atom_site_occupancy
  Cs  Cs0  1  0.99933284  0.73485373  0.82165581  1
  Cs  Cs1  1  0.50066716  0.26514627  0.32165581  1
  Cs  Cs2  1  0.49933284  0.76514627  0.17834419  1
  Cs  Cs3  1  0.00066716  0.23485373  0.67834419  1
  Cs  Cs4  1  0.99803912  0.87089442  0.40941974  1
  Cs  Cs5  1  0.50196088  0.12910558  0.90941974  1
  Cs  Cs6  1  0.49803912  0.62910558  0.59058026  1
  Cs  Cs7  1  0.00196088  0.37089442  0.09058026  1
  Hg  Hg8  1  0.00268121  0.46562815  0.42316537  1
  Hg  Hg9  1  0.49731879  0.53437185  0.92316537  1
  Hg  Hg10  1  0.50268121  0.03437185  0.57683463  1
  Hg  Hg11  1  0.99731879  0.96562815  0.07683463  1
  Cl  Cl12  1  0.51125012  0.42668344  0.08906699  1
  Cl  Cl13  1  0.98874988  0.57331656  0.58906699  1
  Cl  Cl14  1  0.01125012  0.07331656  0.91093301  1
  Cl  Cl15  1  0.48874988  0.92668344  0.41093301  1
  Cl  Cl16  1  0.46363970  0.78198255  0.91864994  1
  Cl  Cl17  1  0.03636030  0.21801745  0.41864994  1
  Cl  Cl18  1  0.96363970  0.71801745  0.08135006  1
  Cl  Cl19  1  0.53636030  0.28198255  0.58135006  1
  Cl  Cl20  1  0.23278746  0.42832794  0.84805976  1
  Cl  Cl21  1  0.26721254  0.57167206  0.34805976  1
  Cl  Cl22  1  0.73278746  0.07167206  0.15194024  1
  Cl  Cl23  1  0.76721254  0.92832794  0.65194024  1
  Cl  Cl24  1  0.74608151  0.43606991  0.83394708  1
  Cl  Cl25  1  0.75391849  0.56393009  0.33394708  1
  Cl  Cl26  1  0.24608151  0.06393009  0.16605292  1
  Cl  Cl27  1  0.25391849  0.93606991  0.66605292  1
