# generated using pymatgen
data_Cs2HgCl4
_symmetry_space_group_name_H-M   'P 1'
_cell_length_a   7.87991459
_cell_length_b   10.04855748
_cell_length_c   13.88992158
_cell_angle_alpha   90.00000000
_cell_angle_beta   90.00000000
_cell_angle_gamma   90.00000000
_symmetry_Int_Tables_number   1
_chemical_formula_structural   Cs2HgCl4
_chemical_formula_sum   'Cs8 Hg4 Cl16'
_cell_volume   1099.82864108
_cell_formula_units_Z   4
loop_
 _symmetry_equiv_pos_site_id
 _symmetry_equiv_pos_as_xyz
  1  'x, y, z'
loop_
 _atom_site_type_symbol
 _atom_site_label
 _atom_site_symmetry_multiplicity
 _atom_site_fract_x
 _atom_site_fract_y
 _atom_site_fract_z
 _atom_site_occupancy
  Cs  Cs0  1  0.75000000  0.88153858  0.09102489  1
  Cs  Cs1  1  0.75000000  0.38153858  0.40897511  1
  Cs  Cs2  1  0.25000000  0.11846142  0.90897511  1
  Cs  Cs3  1  0.25000000  0.61846142  0.59102489  1
  Cs  Cs4  1  0.75000000  0.51376595  0.82268233  1
  Cs  Cs5  1  0.75000000  0.01376595  0.67731767  1
  Cs  Cs6  1  0.25000000  0.48623405  0.17731767  1
  Cs  Cs7  1  0.25000000  0.98623405  0.32268233  1
  Hg  Hg8  1  0.75000000  0.28471160  0.07677667  1
  Hg  Hg9  1  0.75000000  0.78471160  0.42322333  1
  Hg  Hg10  1  0.25000000  0.71528840  0.92322333  1
  Hg  Hg11  1  0.25000000  0.21528840  0.57677667  1
  Cl  Cl12  1  0.75000000  0.53297189  0.08299147  1
  Cl  Cl13  1  0.75000000  0.03297189  0.41700853  1
  Cl  Cl14  1  0.25000000  0.46702811  0.91700853  1
  Cl  Cl15  1  0.25000000  0.96702811  0.58299147  1
  Cl  Cl16  1  0.75000000  0.17404914  0.91114392  1
  Cl  Cl17  1  0.75000000  0.67404914  0.58885608  1
  Cl  Cl18  1  0.25000000  0.82595086  0.08885608  1
  Cl  Cl19  1  0.25000000  0.32595086  0.41114392  1
  Cl  Cl20  1  0.00837356  0.18288226  0.15795016  1
  Cl  Cl21  1  0.49162644  0.68288226  0.34204984  1
  Cl  Cl22  1  0.50837356  0.81711774  0.84204984  1
  Cl  Cl23  1  0.99162644  0.31711774  0.65795016  1
  Cl  Cl24  1  0.99162644  0.81711774  0.84204984  1
  Cl  Cl25  1  0.50837356  0.31711774  0.65795016  1
  Cl  Cl26  1  0.49162644  0.18288226  0.15795016  1
  Cl  Cl27  1  0.00837356  0.68288226  0.34204984  1
