# generated using pymatgen
data_PW6Cl17
_symmetry_space_group_name_H-M   'P 1'
_cell_length_a   6.86721434
_cell_length_b   10.30554547
_cell_length_c   10.30554547
_cell_angle_alpha   60.84612690
_cell_angle_beta   70.53806207
_cell_angle_gamma   70.53806207
_symmetry_Int_Tables_number   1
_chemical_formula_structural   PW6Cl17
_chemical_formula_sum   'P1 W6 Cl17'
_cell_volume   587.46753456
_cell_formula_units_Z   1
loop_
 _symmetry_equiv_pos_site_id
 _symmetry_equiv_pos_as_xyz
  1  'x, y, z'
loop_
 _atom_site_type_symbol
 _atom_site_label
 _atom_site_symmetry_multiplicity
 _atom_site_fract_x
 _atom_site_fract_y
 _atom_site_fract_z
 _atom_site_occupancy
  P  P0  1  0.50000000  0.18223620  0.81776380  1
  W  W1  1  0.70240991  0.37873701  0.62126299  1
  W  W2  1  0.29759009  0.37873701  0.62126299  1
  W  W3  1  0.35905084  0.37858234  0.90331597  1
  W  W4  1  0.64094916  0.09668403  0.62141766  1
  W  W5  1  0.42082133  0.06482686  0.09353048  1
  W  W6  1  0.57917867  0.90646952  0.93517314  1
  Cl  Cl7  1  0.00000000  0.53413856  0.46586144  1
  Cl  Cl8  1  0.00000000  0.23850105  0.76149895  1
  Cl  Cl9  1  0.50000000  0.56889034  0.43110966  1
  Cl  Cl10  1  0.59463507  0.55207549  0.73781270  1
  Cl  Cl11  1  0.40536493  0.26218730  0.44792451  1
  Cl  Cl12  1  0.11547675  0.55207549  0.73781270  1
  Cl  Cl13  1  0.88452325  0.26218730  0.44792451  1
  Cl  Cl14  1  0.61556133  0.23639890  0.06830550  1
  Cl  Cl15  1  0.38443867  0.93169450  0.76360110  1
  Cl  Cl16  1  0.07973427  0.23639890  0.06830550  1
  Cl  Cl17  1  0.92026573  0.93169450  0.76360110  1
  Cl  Cl18  1  0.25574197  0.86560990  0.13439010  1
  Cl  Cl19  1  0.74425803  0.86560990  0.13439010  1
  Cl  Cl20  1  0.21678298  0.52060495  0.04582910  1
  Cl  Cl21  1  0.78321702  0.95417090  0.47939505  1
  Cl  Cl22  1  0.32887915  0.98281539  0.35942631  1
  Cl  Cl23  1  0.67112085  0.64057369  0.01718461  1
