# generated using pymatgen
data_BaScZn3GaO7
_symmetry_space_group_name_H-M   'P 1'
_cell_length_a   6.28589811
_cell_length_b   6.28589811
_cell_length_c   10.20868405
_cell_angle_alpha   90.00000000
_cell_angle_beta   90.00000000
_cell_angle_gamma   119.99999952
_symmetry_Int_Tables_number   1
_chemical_formula_structural   BaScZn3GaO7
_chemical_formula_sum   'Ba2 Sc2 Zn6 Ga2 O14'
_cell_volume   349.32934670
_cell_formula_units_Z   2
loop_
 _symmetry_equiv_pos_site_id
 _symmetry_equiv_pos_as_xyz
  1  'x, y, z'
loop_
 _atom_site_type_symbol
 _atom_site_label
 _atom_site_symmetry_multiplicity
 _atom_site_fract_x
 _atom_site_fract_y
 _atom_site_fract_z
 _atom_site_occupancy
  Ba  Ba0  1  0.66666700  0.33333300  0.99865590  1
  Ba  Ba1  1  0.33333300  0.66666700  0.49865590  1
  Sc  Sc2  1  0.66666700  0.33333300  0.63207318  1
  Sc  Sc3  1  0.33333300  0.66666700  0.13207318  1
  Zn  Zn4  1  0.17312301  0.82687699  0.81260998  1
  Zn  Zn5  1  0.65375398  0.82687699  0.81260998  1
  Zn  Zn6  1  0.17312301  0.34624602  0.81260998  1
  Zn  Zn7  1  0.82687699  0.17312301  0.31260998  1
  Zn  Zn8  1  0.34624602  0.17312301  0.31260998  1
  Zn  Zn9  1  0.82687699  0.65375398  0.31260998  1
  Ga  Ga10  1  -0.00000000  -0.00000000  0.06355618  1
  Ga  Ga11  1  -0.00000000  -0.00000000  0.56355618  1
  O  O12  1  0.50766318  0.49233682  0.74514034  1
  O  O13  1  0.98467364  0.49233682  0.74514034  1
  O  O14  1  0.50766318  0.01532636  0.74514034  1
  O  O15  1  0.49233682  0.50766318  0.24514034  1
  O  O16  1  0.01532636  0.50766318  0.24514034  1
  O  O17  1  0.49233682  0.98467364  0.24514034  1
  O  O18  1  -0.00000000  -0.00000000  0.24742811  1
  O  O19  1  -0.00000000  -0.00000000  0.74742811  1
  O  O20  1  0.16436721  0.83563279  0.00734856  1
  O  O21  1  0.67126558  0.83563279  0.00734856  1
  O  O22  1  0.16436721  0.32873442  0.00734856  1
  O  O23  1  0.83563279  0.16436721  0.50734856  1
  O  O24  1  0.32873442  0.16436721  0.50734856  1
  O  O25  1  0.83563279  0.67126558  0.50734856  1
