# generated using pymatgen
data_Nb7As4
_symmetry_space_group_name_H-M   'P 1'
_cell_length_a   3.55163794
_cell_length_b   7.98313821
_cell_length_c   14.30091862
_cell_angle_alpha   104.44741808
_cell_angle_beta   90.00000000
_cell_angle_gamma   102.85275239
_symmetry_Int_Tables_number   1
_chemical_formula_structural   Nb7As4
_chemical_formula_sum   'Nb14 As8'
_cell_volume   382.15468395
_cell_formula_units_Z   2
loop_
 _symmetry_equiv_pos_site_id
 _symmetry_equiv_pos_as_xyz
  1  'x, y, z'
loop_
 _atom_site_type_symbol
 _atom_site_label
 _atom_site_symmetry_multiplicity
 _atom_site_fract_x
 _atom_site_fract_y
 _atom_site_fract_z
 _atom_site_occupancy
  Nb  Nb0  1  -0.00000000  -0.00000000  0.00000000  1
  Nb  Nb1  1  0.50000000  -0.00000000  0.50000000  1
  Nb  Nb2  1  0.43095437  0.86190874  0.82568673  1
  Nb  Nb3  1  0.56904563  0.13809126  0.17431327  1
  Nb  Nb4  1  0.19624107  0.39248214  0.31011556  1
  Nb  Nb5  1  0.80375893  0.60751786  0.68988444  1
  Nb  Nb6  1  0.21086797  0.42173594  0.79975364  1
  Nb  Nb7  1  0.78913203  0.57826406  0.20024636  1
  Nb  Nb8  1  0.33618157  0.67236315  0.02863238  1
  Nb  Nb9  1  0.66381843  0.32763685  0.97136762  1
  Nb  Nb10  1  0.00285804  0.00571608  0.66274710  1
  Nb  Nb11  1  0.99714196  0.99428392  0.33725290  1
  Nb  Nb12  1  0.17676956  0.35353912  0.54168707  1
  Nb  Nb13  1  0.82323044  0.64646088  0.45831293  1
  As  As14  1  0.17295064  0.34590128  0.11087106  1
  As  As15  1  0.82704936  0.65409872  0.88912894  1
  As  As16  1  0.37318247  0.74636493  0.60212733  1
  As  As17  1  0.62681753  0.25363507  0.39787267  1
  As  As18  1  0.37045050  0.74090100  0.33491050  1
  As  As19  1  0.62954950  0.25909900  0.66508950  1
  As  As20  1  0.06402631  0.12805262  0.84877990  1
  As  As21  1  0.93597369  0.87194738  0.15122010  1
