# generated using pymatgen
data_SnH4
_symmetry_space_group_name_H-M   'P 1'
_cell_length_a   5.25497422
_cell_length_b   5.25497422
_cell_length_c   9.25032122
_cell_angle_alpha   64.41682583
_cell_angle_beta   115.58317417
_cell_angle_gamma   125.54377862
_symmetry_Int_Tables_number   1
_chemical_formula_structural   SnH4
_chemical_formula_sum   'Sn2 H8'
_cell_volume   181.69353854
_cell_formula_units_Z   2
loop_
 _symmetry_equiv_pos_site_id
 _symmetry_equiv_pos_as_xyz
  1  'x, y, z'
loop_
 _atom_site_type_symbol
 _atom_site_label
 _atom_site_symmetry_multiplicity
 _atom_site_fract_x
 _atom_site_fract_y
 _atom_site_fract_z
 _atom_site_occupancy
  Sn  Sn0  1  0.07123254  0.07123254  0.75000000  1
  Sn  Sn1  1  0.92876746  0.92876746  0.25000000  1
  H  H2  1  0.69687724  0.03249002  0.69888237  1
  H  H3  1  0.03249002  0.69687724  0.80111763  1
  H  H4  1  0.30312276  0.96750998  0.30111763  1
  H  H5  1  0.96750998  0.30312276  0.19888237  1
  H  H6  1  0.31022453  0.24281587  0.91558887  1
  H  H7  1  0.24281587  0.31022453  0.58441113  1
  H  H8  1  0.68977547  0.75718413  0.08441113  1
  H  H9  1  0.75718413  0.68977547  0.41558887  1
