# generated using pymatgen
data_K3Gd(BH4)6
_symmetry_space_group_name_H-M   'P 1'
_cell_length_a   7.43862330
_cell_length_b   8.68908885
_cell_length_c   12.67891159
_cell_angle_alpha   90.00000000
_cell_angle_beta   87.81503171
_cell_angle_gamma   90.00000000
_symmetry_Int_Tables_number   1
_chemical_formula_structural   K3Gd(BH4)6
_chemical_formula_sum   'K6 Gd2 B12 H48'
_cell_volume   818.90384540
_cell_formula_units_Z   2
loop_
 _symmetry_equiv_pos_site_id
 _symmetry_equiv_pos_as_xyz
  1  'x, y, z'
loop_
 _atom_site_type_symbol
 _atom_site_label
 _atom_site_symmetry_multiplicity
 _atom_site_fract_x
 _atom_site_fract_y
 _atom_site_fract_z
 _atom_site_occupancy
  K  K0  1  0.53137797  0.02764301  0.75204435  1
  K  K1  1  0.03137797  0.47235699  0.25204435  1
  K  K2  1  0.46862203  0.97235699  0.24795565  1
  K  K3  1  0.96862203  0.52764301  0.74795565  1
  K  K4  1  0.00000000  0.00000000  0.50000000  1
  K  K5  1  0.50000000  0.50000000  -0.00000000  1
  Gd  Gd6  1  0.50000000  0.50000000  0.50000000  1
  Gd  Gd7  1  0.00000000  0.00000000  -0.00000000  1
  B  B8  1  0.33655978  0.77076368  0.42686236  1
  B  B9  1  0.83655978  0.72923632  0.92686236  1
  B  B10  1  0.66344022  0.22923632  0.57313764  1
  B  B11  1  0.16344022  0.27076368  0.07313764  1
  B  B12  1  0.09709854  0.04077271  0.75636669  1
  B  B13  1  0.59709854  0.45922729  0.25636669  1
  B  B14  1  0.90290146  0.95922729  0.24363331  1
  B  B15  1  0.40290146  0.54077271  0.74363331  1
  B  B16  1  0.71627557  0.14909765  0.95778945  1
  B  B17  1  0.21627557  0.35090235  0.45778945  1
  B  B18  1  0.28372443  0.85090235  0.04221055  1
  B  B19  1  0.78372443  0.64909765  0.54221055  1
  H  H20  1  0.23964246  0.74201153  0.35389231  1
  H  H21  1  0.73964246  0.75798847  0.85389231  1
  H  H22  1  0.76035754  0.25798847  0.64610769  1
  H  H23  1  0.26035754  0.24201153  0.14610769  1
  H  H24  1  0.49239687  0.73158064  0.40342173  1
  H  H25  1  0.99239687  0.76841936  0.90342173  1
  H  H26  1  0.50760313  0.26841936  0.59657827  1
  H  H27  1  0.00760313  0.23158064  0.09657827  1
  H  H28  1  0.28054940  0.70339223  0.50756035  1
  H  H29  1  0.78054940  0.79660777  0.00756035  1
  H  H30  1  0.71945060  0.29660777  0.49243965  1
  H  H31  1  0.21945060  0.20339223  0.99243965  1
  H  H32  1  0.34136040  0.90866878  0.44653794  1
  H  H33  1  0.84136040  0.59133122  0.94653794  1
  H  H34  1  0.65863960  0.09133122  0.55346206  1
  H  H35  1  0.15863960  0.40866878  0.05346206  1
  H  H36  1  0.16473650  0.91260744  0.76006554  1
  H  H37  1  0.66473650  0.58739256  0.26006554  1
  H  H38  1  0.83526350  0.08739256  0.23993446  1
  H  H39  1  0.33526350  0.41260744  0.73993446  1
  H  H40  1  0.08784419  0.10164601  0.84507000  1
  H  H41  1  0.58784419  0.39835399  0.34507000  1
  H  H42  1  0.91215581  0.89835399  0.15493000  1
  H  H43  1  0.41215581  0.60164601  0.65493000  1
  H  H44  1  0.94607750  0.03526756  0.72249375  1
  H  H45  1  0.44607750  0.46473244  0.22249375  1
  H  H46  1  0.05392250  0.96473244  0.27750625  1
  H  H47  1  0.55392250  0.53526756  0.77750625  1
  H  H48  1  0.19250892  0.13113207  0.70456426  1
  H  H49  1  0.69250892  0.36886793  0.20456426  1
  H  H50  1  0.80749108  0.86886793  0.29543574  1
  H  H51  1  0.30749108  0.63113207  0.79543574  1
  H  H52  1  0.72430159  0.11844814  0.05285420  1
  H  H53  1  0.22430159  0.38155186  0.55285420  1
  H  H54  1  0.27569841  0.88155186  0.94714580  1
  H  H55  1  0.77569841  0.61844814  0.44714580  1
  H  H56  1  0.57742122  0.21170839  0.93767563  1
  H  H57  1  0.07742122  0.28829161  0.43767563  1
  H  H58  1  0.42257878  0.78829161  0.06232437  1
  H  H59  1  0.92257878  0.71170839  0.56232437  1
  H  H60  1  0.73155706  0.02544505  0.91100331  1
  H  H61  1  0.23155706  0.47455495  0.41100331  1
  H  H62  1  0.26844294  0.97455495  0.08899669  1
  H  H63  1  0.76844294  0.52544505  0.58899669  1
  H  H64  1  0.85210091  0.22418753  0.93215507  1
  H  H65  1  0.35210091  0.27581247  0.43215507  1
  H  H66  1  0.14789909  0.77581247  0.06784493  1
  H  H67  1  0.64789909  0.72418753  0.56784493  1
