# generated using pymatgen
data_YNb(TeO4)2
_symmetry_space_group_name_H-M   'P 1'
_cell_length_a   5.60848929
_cell_length_b   5.60848929
_cell_length_c   22.26037969
_cell_angle_alpha   90.00997571
_cell_angle_beta   90.00997571
_cell_angle_gamma   86.92915177
_symmetry_Int_Tables_number   1
_chemical_formula_structural   YNb(TeO4)2
_chemical_formula_sum   'Y4 Nb4 Te8 O32'
_cell_volume   699.19815670
_cell_formula_units_Z   4
loop_
 _symmetry_equiv_pos_site_id
 _symmetry_equiv_pos_as_xyz
  1  'x, y, z'
loop_
 _atom_site_type_symbol
 _atom_site_label
 _atom_site_symmetry_multiplicity
 _atom_site_fract_x
 _atom_site_fract_y
 _atom_site_fract_z
 _atom_site_occupancy
  Y  Y0  1  0.75301724  0.24698276  0.00000000  1
  Y  Y1  1  0.24698276  0.75301724  0.00000000  1
  Y  Y2  1  0.74691430  0.25308570  0.50000000  1
  Y  Y3  1  0.25308570  0.74691430  0.50000000  1
  Nb  Nb4  1  0.74664376  0.24663364  0.24997128  1
  Nb  Nb5  1  0.24663364  0.74664376  0.24997128  1
  Nb  Nb6  1  0.25335624  0.75336636  0.75002872  1
  Nb  Nb7  1  0.75336636  0.25335624  0.75002872  1
  Te  Te8  1  0.30882582  0.30882582  0.10591767  1
  Te  Te9  1  0.69117418  0.69117418  0.89408233  1
  Te  Te10  1  0.82321429  0.82321429  0.13044823  1
  Te  Te11  1  0.17678571  0.17678571  0.86955177  1
  Te  Te12  1  0.32328956  0.32328956  0.36948634  1
  Te  Te13  1  0.67671044  0.67671044  0.63051366  1
  Te  Te14  1  0.80874567  0.80874567  0.39420950  1
  Te  Te15  1  0.19125433  0.19125433  0.60579050  1
  O  O16  1  0.05235457  0.43306342  0.05671200  1
  O  O17  1  0.43306342  0.05235457  0.05671200  1
  O  O18  1  0.94764543  0.56693658  0.94328800  1
  O  O19  1  0.56693658  0.94764543  0.94328800  1
  O  O20  1  0.51539764  0.51539764  0.06439996  1
  O  O21  1  0.48460236  0.48460236  0.93560004  1
  O  O22  1  0.92964620  0.92964620  0.05529671  1
  O  O23  1  0.07035380  0.07035380  0.94470329  1
  O  O24  1  0.77443593  0.14489645  0.16072162  1
  O  O25  1  0.14489645  0.77443593  0.16072162  1
  O  O26  1  0.22556407  0.85510355  0.83927838  1
  O  O27  1  0.85510355  0.22556407  0.83927838  1
  O  O28  1  0.42998428  0.42998428  0.44459219  1
  O  O29  1  0.57001572  0.57001572  0.55540781  1
  O  O30  1  0.64482926  0.27504731  0.33920640  1
  O  O31  1  0.27504731  0.64482926  0.33920640  1
  O  O32  1  0.35517074  0.72495269  0.66079360  1
  O  O33  1  0.72495269  0.35517074  0.66079360  1
  O  O34  1  0.55251678  0.93287556  0.44344779  1
  O  O35  1  0.93287556  0.55251678  0.44344779  1
  O  O36  1  0.44748322  0.06712444  0.55655221  1
  O  O37  1  0.06712444  0.44748322  0.55655221  1
  O  O38  1  0.01535205  0.01535205  0.43573500  1
  O  O39  1  0.98464795  0.98464795  0.56426500  1
  O  O40  1  0.47381707  0.47381707  0.22899157  1
  O  O41  1  0.52618293  0.52618293  0.77100843  1
  O  O42  1  0.47085172  0.97137218  0.24995996  1
  O  O43  1  0.97137218  0.47085172  0.24995996  1
  O  O44  1  0.52914828  0.02862782  0.75004004  1
  O  O45  1  0.02862782  0.52914828  0.75004004  1
  O  O46  1  0.97344841  0.97344841  0.27091822  1
  O  O47  1  0.02655159  0.02655159  0.72908178  1
