# generated using pymatgen
data_CeCo9Ge4
_symmetry_space_group_name_H-M   'P 1'
_cell_length_a   7.86909878
_cell_length_b   7.86909878
_cell_length_c   8.10609664
_cell_angle_alpha   119.03747062
_cell_angle_beta   119.03747062
_cell_angle_gamma   90.00000000
_symmetry_Int_Tables_number   1
_chemical_formula_structural   CeCo9Ge4
_chemical_formula_sum   'Ce2 Co18 Ge8'
_cell_volume   365.01560507
_cell_formula_units_Z   2
loop_
 _symmetry_equiv_pos_site_id
 _symmetry_equiv_pos_as_xyz
  1  'x, y, z'
loop_
 _atom_site_type_symbol
 _atom_site_label
 _atom_site_symmetry_multiplicity
 _atom_site_fract_x
 _atom_site_fract_y
 _atom_site_fract_z
 _atom_site_occupancy
  Ce  Ce0  1  0.75000000  0.75000000  0.50000000  1
  Ce  Ce1  1  0.25000000  0.25000000  0.50000000  1
  Co  Co2  1  -0.00000000  0.50000000  0.00000000  1
  Co  Co3  1  0.50000000  0.00000000  0.00000000  1
  Co  Co4  1  0.30067288  0.56595703  0.00000000  1
  Co  Co5  1  0.69932712  0.43404297  0.00000000  1
  Co  Co6  1  0.19932712  0.06595703  0.00000000  1
  Co  Co7  1  0.80067288  0.93404297  0.00000000  1
  Co  Co8  1  0.43404297  0.30067288  0.00000000  1
  Co  Co9  1  0.56595703  0.69932712  0.00000000  1
  Co  Co10  1  0.93404297  0.19932712  0.00000000  1
  Co  Co11  1  0.06595703  0.80067288  0.00000000  1
  Co  Co12  1  0.55477591  0.30111809  0.35589400  1
  Co  Co13  1  0.80111809  0.05477591  0.35589400  1
  Co  Co14  1  0.30111809  0.80111809  0.35589400  1
  Co  Co15  1  0.05477591  0.55477591  0.35589400  1
  Co  Co16  1  0.44522409  0.69888191  0.64410600  1
  Co  Co17  1  0.19888191  0.94522409  0.64410600  1
  Co  Co18  1  0.69888191  0.19888191  0.64410600  1
  Co  Co19  1  0.94522409  0.44522409  0.64410600  1
  Ge  Ge20  1  0.95154969  0.79931451  0.25086420  1
  Ge  Ge21  1  0.29931451  0.45154969  0.25086420  1
  Ge  Ge22  1  0.79931451  0.29931451  0.25086420  1
  Ge  Ge23  1  0.45154969  0.95154969  0.25086420  1
  Ge  Ge24  1  0.04845031  0.20068549  0.74913580  1
  Ge  Ge25  1  0.70068549  0.54845031  0.74913580  1
  Ge  Ge26  1  0.20068549  0.70068549  0.74913580  1
  Ge  Ge27  1  0.54845031  0.04845031  0.74913580  1
