# generated using pymatgen
data_WN2
_symmetry_space_group_name_H-M   'P 1'
_cell_length_a   3.04100049
_cell_length_b   10.21193971
_cell_length_c   10.21122332
_cell_angle_alpha   95.12277338
_cell_angle_beta   72.58286328
_cell_angle_gamma   107.39789904
_symmetry_Int_Tables_number   1
_chemical_formula_structural   WN2
_chemical_formula_sum   'W8 N16'
_cell_volume   288.72360473
_cell_formula_units_Z   8
loop_
 _symmetry_equiv_pos_site_id
 _symmetry_equiv_pos_as_xyz
  1  'x, y, z'
loop_
 _atom_site_type_symbol
 _atom_site_label
 _atom_site_symmetry_multiplicity
 _atom_site_fract_x
 _atom_site_fract_y
 _atom_site_fract_z
 _atom_site_occupancy
  W  W0  1  0.82555364  0.24684741  0.00000077  1
  W  W1  1  0.82401024  0.99864885  0.25351972  1
  W  W2  1  0.33298139  0.50045982  0.24763717  1
  W  W3  1  0.32971269  0.25255331  0.50155928  1
  W  W4  1  0.16863483  0.75249380  0.00167050  1
  W  W5  1  0.17049196  0.00008585  0.74762972  1
  W  W6  1  0.66519343  0.49917432  0.75352661  1
  W  W7  1  0.66419768  0.74665888  0.50011501  1
  N  N8  1  0.41322406  0.10167472  0.14891284  1
  N  N9  1  0.20934029  0.35158723  0.10283793  1
  N  N10  1  0.70859502  0.14759638  0.39866932  1
  N  N11  1  0.50433379  0.39739924  0.35254502  1
  N  N12  1  0.94477101  0.59865378  0.15147374  1
  N  N13  1  0.94904778  0.09848470  0.65165669  1
  N  N14  1  0.74872981  0.84829468  0.09987030  1
  N  N15  1  0.74598744  0.34870731  0.59923293  1
  N  N16  1  0.24144098  0.14968809  0.90253961  1
  N  N17  1  0.25025914  0.65019029  0.40204780  1
  N  N18  1  0.04559086  0.90088120  0.35020905  1
  N  N19  1  0.05396007  0.40101748  0.85001679  1
  N  N20  1  0.48865294  0.60152572  0.64898457  1
  N  N21  1  0.28382943  0.85102769  0.60320089  1
  N  N22  1  0.78763484  0.64808670  0.89807177  1
  N  N23  1  0.58135168  0.89735356  0.85258096  1
