# generated using pymatgen
data_RbAg5(PS4)2
_symmetry_space_group_name_H-M   'P 1'
_cell_length_a   12.75944803
_cell_length_b   12.80101760
_cell_length_c   18.02697325
_cell_angle_alpha   90.00000000
_cell_angle_beta   90.00000000
_cell_angle_gamma   90.00000000
_symmetry_Int_Tables_number   1
_chemical_formula_structural   RbAg5(PS4)2
_chemical_formula_sum   'Rb8 Ag40 P16 S64'
_cell_volume   2944.41618499
_cell_formula_units_Z   8
loop_
 _symmetry_equiv_pos_site_id
 _symmetry_equiv_pos_as_xyz
  1  'x, y, z'
loop_
 _atom_site_type_symbol
 _atom_site_label
 _atom_site_symmetry_multiplicity
 _atom_site_fract_x
 _atom_site_fract_y
 _atom_site_fract_z
 _atom_site_occupancy
  Rb  Rb0  1  0.53723401  0.26450948  0.24913522  1
  Rb  Rb1  1  0.03723401  0.23549052  0.75086478  1
  Rb  Rb2  1  0.46276599  0.76450948  0.25086478  1
  Rb  Rb3  1  0.96276599  0.73549052  0.74913522  1
  Rb  Rb4  1  0.46276599  0.73549052  0.75086478  1
  Rb  Rb5  1  0.96276599  0.76450948  0.24913522  1
  Rb  Rb6  1  0.53723401  0.23549052  0.74913522  1
  Rb  Rb7  1  0.03723401  0.26450948  0.25086478  1
  Ag  Ag8  1  0.50491895  0.01921846  0.37040983  1
  Ag  Ag9  1  0.00491895  0.48078154  0.62959017  1
  Ag  Ag10  1  0.49508105  0.51921846  0.12959017  1
  Ag  Ag11  1  0.99508105  0.98078154  0.87040983  1
  Ag  Ag12  1  0.49508105  0.98078154  0.62959017  1
  Ag  Ag13  1  0.99508105  0.51921846  0.37040983  1
  Ag  Ag14  1  0.50491895  0.48078154  0.87040983  1
  Ag  Ag15  1  0.00491895  0.01921846  0.12959017  1
  Ag  Ag16  1  0.75841626  0.26353404  0.11832465  1
  Ag  Ag17  1  0.25841626  0.23646596  0.88167535  1
  Ag  Ag18  1  0.24158374  0.76353404  0.38167535  1
  Ag  Ag19  1  0.74158374  0.73646596  0.61832465  1
  Ag  Ag20  1  0.24158374  0.73646596  0.88167535  1
  Ag  Ag21  1  0.74158374  0.76353404  0.11832465  1
  Ag  Ag22  1  0.75841626  0.23646596  0.61832465  1
  Ag  Ag23  1  0.25841626  0.26353404  0.38167535  1
  Ag  Ag24  1  0.75873480  0.24725131  0.38163376  1
  Ag  Ag25  1  0.25873480  0.25274869  0.61836624  1
  Ag  Ag26  1  0.24126520  0.74725131  0.11836624  1
  Ag  Ag27  1  0.74126520  0.75274869  0.88163376  1
  Ag  Ag28  1  0.24126520  0.75274869  0.61836624  1
  Ag  Ag29  1  0.74126520  0.74725131  0.38163376  1
  Ag  Ag30  1  0.75873480  0.25274869  0.88163376  1
  Ag  Ag31  1  0.25873480  0.24725131  0.11836624  1
  Ag  Ag32  1  0.80524145  0.06239766  0.03159662  1
  Ag  Ag33  1  0.30524145  0.43760234  0.96840338  1
  Ag  Ag34  1  0.19475855  0.56239766  0.46840338  1
  Ag  Ag35  1  0.69475855  0.93760234  0.53159662  1
  Ag  Ag36  1  0.19475855  0.93760234  0.96840338  1
  Ag  Ag37  1  0.69475855  0.56239766  0.03159662  1
  Ag  Ag38  1  0.80524145  0.43760234  0.53159662  1
  Ag  Ag39  1  0.30524145  0.06239766  0.46840338  1
  Ag  Ag40  1  0.98260496  0.02148287  0.38513978  1
  Ag  Ag41  1  0.48260496  0.47851713  0.61486022  1
  Ag  Ag42  1  0.01739504  0.52148287  0.11486022  1
  Ag  Ag43  1  0.51739504  0.97851713  0.88513978  1
  Ag  Ag44  1  0.01739504  0.97851713  0.61486022  1
  Ag  Ag45  1  0.51739504  0.52148287  0.38513978  1
  Ag  Ag46  1  0.98260496  0.47851713  0.88513978  1
  Ag  Ag47  1  0.48260496  0.02148287  0.11486022  1
  P  P48  1  0.51903315  0.24498774  0.49677315  1
  P  P49  1  0.01903315  0.25501226  0.50322685  1
  P  P50  1  0.48096685  0.74498774  0.00322685  1
  P  P51  1  0.98096685  0.75501226  0.99677315  1
  P  P52  1  0.48096685  0.75501226  0.50322685  1
  P  P53  1  0.98096685  0.74498774  0.49677315  1
  P  P54  1  0.51903315  0.25501226  0.99677315  1
  P  P55  1  0.01903315  0.24498774  0.00322685  1
  P  P56  1  0.75326261  0.02196890  0.24920036  1
  P  P57  1  0.25326261  0.47803110  0.75079964  1
  P  P58  1  0.24673739  0.52196890  0.25079964  1
  P  P59  1  0.74673739  0.97803110  0.74920036  1
  P  P60  1  0.24673739  0.97803110  0.75079964  1
  P  P61  1  0.74673739  0.52196890  0.24920036  1
  P  P62  1  0.75326261  0.47803110  0.74920036  1
  P  P63  1  0.25326261  0.02196890  0.25079964  1
  S  S64  1  0.60889084  0.15400085  0.06203894  1
  S  S65  1  0.10889084  0.34599915  0.93796106  1
  S  S66  1  0.39110916  0.65400085  0.43796106  1
  S  S67  1  0.89110916  0.84599915  0.56203894  1
  S  S68  1  0.39110916  0.84599915  0.93796106  1
  S  S69  1  0.89110916  0.65400085  0.06203894  1
  S  S70  1  0.60889084  0.34599915  0.56203894  1
  S  S71  1  0.10889084  0.15400085  0.43796106  1
  S  S72  1  0.62123716  0.13955728  0.44730310  1
  S  S73  1  0.12123716  0.36044272  0.55269690  1
  S  S74  1  0.37876284  0.63955728  0.05269690  1
  S  S75  1  0.87876284  0.86044272  0.94730310  1
  S  S76  1  0.37876284  0.86044272  0.55269690  1
  S  S77  1  0.87876284  0.63955728  0.44730310  1
  S  S78  1  0.62123716  0.36044272  0.94730310  1
  S  S79  1  0.12123716  0.13955728  0.05269690  1
  S  S80  1  0.68175764  0.45382401  0.15151662  1
  S  S81  1  0.18175764  0.04617599  0.84848338  1
  S  S82  1  0.31824236  0.95382401  0.34848338  1
  S  S83  1  0.81824236  0.54617599  0.65151662  1
  S  S84  1  0.31824236  0.54617599  0.84848338  1
  S  S85  1  0.81824236  0.95382401  0.15151662  1
  S  S86  1  0.68175764  0.04617599  0.65151662  1
  S  S87  1  0.18175764  0.45382401  0.34848338  1
  S  S88  1  0.69132746  0.45153362  0.34488026  1
  S  S89  1  0.19132746  0.04846638  0.65511974  1
  S  S90  1  0.30867254  0.95153362  0.15511974  1
  S  S91  1  0.80867254  0.54846638  0.84488026  1
  S  S92  1  0.30867254  0.54846638  0.65511974  1
  S  S93  1  0.80867254  0.95153362  0.34488026  1
  S  S94  1  0.69132746  0.04846638  0.84488026  1
  S  S95  1  0.19132746  0.45153362  0.15511974  1
  S  S96  1  0.79483748  0.17736289  0.24926598  1
  S  S97  1  0.29483748  0.32263711  0.75073402  1
  S  S98  1  0.20516252  0.67736289  0.25073402  1
  S  S99  1  0.70516252  0.82263711  0.74926598  1
  S  S100  1  0.20516252  0.82263711  0.75073402  1
  S  S101  1  0.70516252  0.67736289  0.24926598  1
  S  S102  1  0.79483748  0.32263711  0.74926598  1
  S  S103  1  0.29483748  0.17736289  0.25073402  1
  S  S104  1  0.90470299  0.49742537  0.24278297  1
  S  S105  1  0.40470299  0.00257463  0.75721703  1
  S  S106  1  0.09529701  0.99742537  0.25721703  1
  S  S107  1  0.59529701  0.50257463  0.74278297  1
  S  S108  1  0.09529701  0.50257463  0.75721703  1
  S  S109  1  0.59529701  0.99742537  0.24278297  1
  S  S110  1  0.90470299  0.00257463  0.74278297  1
  S  S111  1  0.40470299  0.49742537  0.25721703  1
  S  S112  1  0.91774466  0.34218024  0.43571609  1
  S  S113  1  0.41774466  0.15781976  0.56428391  1
  S  S114  1  0.08225534  0.84218024  0.06428391  1
  S  S115  1  0.58225534  0.65781976  0.93571609  1
  S  S116  1  0.08225534  0.65781976  0.56428391  1
  S  S117  1  0.58225534  0.84218024  0.43571609  1
  S  S118  1  0.91774466  0.15781976  0.93571609  1
  S  S119  1  0.41774466  0.34218024  0.06428391  1
  S  S120  1  0.93416891  0.33483869  0.07485447  1
  S  S121  1  0.43416891  0.16516131  0.92514553  1
  S  S122  1  0.06583109  0.83483869  0.42514553  1
  S  S123  1  0.56583109  0.66516131  0.57485447  1
  S  S124  1  0.06583109  0.66516131  0.92514553  1
  S  S125  1  0.56583109  0.83483869  0.07485447  1
  S  S126  1  0.93416891  0.16516131  0.57485447  1
  S  S127  1  0.43416891  0.33483869  0.42514553  1
