# generated using pymatgen
data_Zr9FeMo4
_symmetry_space_group_name_H-M   'P 1'
_cell_length_a   8.42719195
_cell_length_b   8.82167957
_cell_length_c   8.82167957
_cell_angle_alpha   119.90569002
_cell_angle_beta   90.00000000
_cell_angle_gamma   90.00000000
_symmetry_Int_Tables_number   1
_chemical_formula_structural   Zr9FeMo4
_chemical_formula_sum   'Zr18 Fe2 Mo8'
_cell_volume   568.49678716
_cell_formula_units_Z   2
loop_
 _symmetry_equiv_pos_site_id
 _symmetry_equiv_pos_as_xyz
  1  'x, y, z'
loop_
 _atom_site_type_symbol
 _atom_site_label
 _atom_site_symmetry_multiplicity
 _atom_site_fract_x
 _atom_site_fract_y
 _atom_site_fract_z
 _atom_site_occupancy
  Zr  Zr0  1  0.55738189  0.79868499  0.59723632  1
  Zr  Zr1  1  0.55725202  0.79867447  0.20132553  1
  Zr  Zr2  1  0.55738189  0.40276368  0.20131501  1
  Zr  Zr3  1  0.44261811  0.20131501  0.40276368  1
  Zr  Zr4  1  0.44274798  0.20132553  0.79867447  1
  Zr  Zr5  1  0.44261811  0.59723632  0.79868499  1
  Zr  Zr6  1  0.05738189  0.20131501  0.40276368  1
  Zr  Zr7  1  0.05725202  0.20132553  0.79867447  1
  Zr  Zr8  1  0.05738189  0.59723632  0.79868499  1
  Zr  Zr9  1  0.94261811  0.79868499  0.59723632  1
  Zr  Zr10  1  0.94274798  0.79867447  0.20132553  1
  Zr  Zr11  1  0.94261811  0.40276368  0.20131501  1
  Zr  Zr12  1  0.75000000  0.46029091  0.92026436  1
  Zr  Zr13  1  0.75000000  0.46002202  0.53997798  1
  Zr  Zr14  1  0.75000000  0.07973564  0.53970909  1
  Zr  Zr15  1  0.25000000  0.53970909  0.07973564  1
  Zr  Zr16  1  0.25000000  0.53997798  0.46002202  1
  Zr  Zr17  1  0.25000000  0.92026436  0.46029091  1
  Fe  Fe18  1  0.75000000  0.66666992  0.33333008  1
  Fe  Fe19  1  0.25000000  0.33333008  0.66666992  1
  Mo  Mo20  1  0.75000000  0.11041828  0.22094623  1
  Mo  Mo21  1  0.75000000  0.11060220  0.88939780  1
  Mo  Mo22  1  0.75000000  0.77905377  0.88958172  1
  Mo  Mo23  1  0.25000000  0.88958172  0.77905377  1
  Mo  Mo24  1  0.25000000  0.88939780  0.11060220  1
  Mo  Mo25  1  0.25000000  0.22094623  0.11041828  1
  Mo  Mo26  1  0.50000000  -0.00000000  -0.00000000  1
  Mo  Mo27  1  0.00000000  -0.00000000  -0.00000000  1
