# generated using pymatgen
data_NaY(BH4)4
_symmetry_space_group_name_H-M   'P 1'
_cell_length_a   7.52995981
_cell_length_b   7.52995981
_cell_length_c   9.21739563
_cell_angle_alpha   90.00000000
_cell_angle_beta   90.00000000
_cell_angle_gamma   109.64986201
_symmetry_Int_Tables_number   1
_chemical_formula_structural   NaY(BH4)4
_chemical_formula_sum   'Na2 Y2 B8 H32'
_cell_volume   492.19383372
_cell_formula_units_Z   2
loop_
 _symmetry_equiv_pos_site_id
 _symmetry_equiv_pos_as_xyz
  1  'x, y, z'
loop_
 _atom_site_type_symbol
 _atom_site_label
 _atom_site_symmetry_multiplicity
 _atom_site_fract_x
 _atom_site_fract_y
 _atom_site_fract_z
 _atom_site_occupancy
  Na  Na0  1  0.93849455  0.93849455  0.50000000  1
  Na  Na1  1  0.06150545  0.06150545  0.00000000  1
  Y  Y2  1  0.65241731  0.34758269  0.75000000  1
  Y  Y3  1  0.34758269  0.65241731  0.25000000  1
  B  B4  1  0.22887348  0.76766794  0.46784710  1
  B  B5  1  0.76766794  0.22887348  0.53215290  1
  B  B6  1  0.77112652  0.23233206  0.96784710  1
  B  B7  1  0.23233206  0.77112652  0.03215290  1
  B  B8  1  0.69873607  0.77239643  0.25020121  1
  B  B9  1  0.77239643  0.69873607  0.74979879  1
  B  B10  1  0.30126393  0.22760357  0.75020121  1
  B  B11  1  0.22760357  0.30126393  0.24979879  1
  H  H12  1  0.17641608  0.82483623  0.57595891  1
  H  H13  1  0.82483623  0.17641608  0.42404109  1
  H  H14  1  0.82358392  0.17516377  0.07595891  1
  H  H15  1  0.17516377  0.82358392  0.92404109  1
  H  H16  1  0.29449820  0.64276621  0.49982688  1
  H  H17  1  0.64276621  0.29449820  0.50017312  1
  H  H18  1  0.70550180  0.35723379  -0.00017312  1
  H  H19  1  0.35723379  0.70550180  0.00017312  1
  H  H20  1  0.35364302  0.89540320  0.40450641  1
  H  H21  1  0.89540320  0.35364302  0.59549359  1
  H  H22  1  0.64635698  0.10459680  0.90450641  1
  H  H23  1  0.10459680  0.64635698  0.09549359  1
  H  H24  1  0.30226628  0.90044911  0.12070623  1
  H  H25  1  0.90044911  0.30226628  0.87929377  1
  H  H26  1  0.69773372  0.09955089  0.62070623  1
  H  H27  1  0.09955089  0.69773372  0.37929377  1
  H  H28  1  0.86882835  0.83523804  0.24494524  1
  H  H29  1  0.83523804  0.86882835  0.75505476  1
  H  H30  1  0.13117165  0.16476196  0.74494524  1
  H  H31  1  0.16476196  0.13117165  0.25505476  1
  H  H32  1  0.62978947  0.89669640  0.22487888  1
  H  H33  1  0.89669640  0.62978947  0.77512112  1
  H  H34  1  0.37021053  0.10330360  0.72487888  1
  H  H35  1  0.10330360  0.37021053  0.27512112  1
  H  H36  1  0.64123485  0.70438776  0.37124502  1
  H  H37  1  0.70438776  0.64123485  0.62875498  1
  H  H38  1  0.35876515  0.29561224  0.87124502  1
  H  H39  1  0.29561224  0.35876515  0.12875498  1
  H  H40  1  0.63686609  0.64451030  0.16033194  1
  H  H41  1  0.64451030  0.63686609  0.83966806  1
  H  H42  1  0.36313391  0.35548970  0.66033194  1
  H  H43  1  0.35548970  0.36313391  0.33966806  1
