# generated using pymatgen
data_Ba7V6CoCl4O21
_symmetry_space_group_name_H-M   'P 1'
_cell_length_a   10.07483781
_cell_length_b   10.07483781
_cell_length_c   15.03349634
_cell_angle_alpha   90.00000000
_cell_angle_beta   90.00000000
_cell_angle_gamma   115.41707573
_symmetry_Int_Tables_number   1
_chemical_formula_structural   Ba7V6CoCl4O21
_chemical_formula_sum   'Ba14 V12 Co2 Cl8 O42'
_cell_volume   1378.23609241
_cell_formula_units_Z   2
loop_
 _symmetry_equiv_pos_site_id
 _symmetry_equiv_pos_as_xyz
  1  'x, y, z'
loop_
 _atom_site_type_symbol
 _atom_site_label
 _atom_site_symmetry_multiplicity
 _atom_site_fract_x
 _atom_site_fract_y
 _atom_site_fract_z
 _atom_site_occupancy
  Ba  Ba0  1  0.84676221  0.54476458  0.25000000  1
  Ba  Ba1  1  0.45523542  0.15323779  0.75000000  1
  Ba  Ba2  1  0.15323779  0.45523542  0.75000000  1
  Ba  Ba3  1  0.54476458  0.84676221  0.25000000  1
  Ba  Ba4  1  0.83682159  0.54542042  0.96048243  1
  Ba  Ba5  1  0.45457958  0.16317841  0.03951757  1
  Ba  Ba6  1  0.83682159  0.54542042  0.53951757  1
  Ba  Ba7  1  0.45457958  0.16317841  0.46048243  1
  Ba  Ba8  1  0.16317841  0.45457958  0.03951757  1
  Ba  Ba9  1  0.54542042  0.83682159  0.96048243  1
  Ba  Ba10  1  0.16317841  0.45457958  0.46048243  1
  Ba  Ba11  1  0.54542042  0.83682159  0.53951757  1
  Ba  Ba12  1  0.86593708  0.86593708  0.75000000  1
  Ba  Ba13  1  0.13406292  0.13406292  0.25000000  1
  V  V14  1  0.49263887  0.49263887  0.13753599  1
  V  V15  1  0.50736113  0.50736113  0.86246401  1
  V  V16  1  0.49263887  0.49263887  0.36246401  1
  V  V17  1  0.50736113  0.50736113  0.63753599  1
  V  V18  1  0.16820298  0.82573654  0.86856971  1
  V  V19  1  0.17426346  0.83179702  0.13143029  1
  V  V20  1  0.16820298  0.82573654  0.63143029  1
  V  V21  1  0.17426346  0.83179702  0.36856971  1
  V  V22  1  0.83179702  0.17426346  0.13143029  1
  V  V23  1  0.82573654  0.16820298  0.86856971  1
  V  V24  1  0.83179702  0.17426346  0.36856971  1
  V  V25  1  0.82573654  0.16820298  0.63143029  1
  Co  Co26  1  0.00000000  -0.00000000  0.00000000  1
  Co  Co27  1  0.00000000  -0.00000000  0.50000000  1
  Cl  Cl28  1  0.81670200  0.81670200  0.11080971  1
  Cl  Cl29  1  0.18329800  0.18329800  0.88919029  1
  Cl  Cl30  1  0.81670200  0.81670200  0.38919029  1
  Cl  Cl31  1  0.18329800  0.18329800  0.61080971  1
  Cl  Cl32  1  0.84114771  0.50951391  0.75000000  1
  Cl  Cl33  1  0.49048609  0.15885229  0.25000000  1
  Cl  Cl34  1  0.15885229  0.49048609  0.25000000  1
  Cl  Cl35  1  0.50951391  0.84114771  0.75000000  1
  O  O36  1  0.55815618  0.55815618  0.25000000  1
  O  O37  1  0.44184382  0.44184382  0.75000000  1
  O  O38  1  0.33328085  0.33328085  0.12678983  1
  O  O39  1  0.66671915  0.66671915  0.87321017  1
  O  O40  1  0.33328085  0.33328085  0.37321017  1
  O  O41  1  0.66671915  0.66671915  0.62678983  1
  O  O42  1  0.33260588  0.94569390  0.91199847  1
  O  O43  1  0.05430610  0.66739412  0.08800153  1
  O  O44  1  0.33260588  0.94569390  0.58800153  1
  O  O45  1  0.05430610  0.66739412  0.41199847  1
  O  O46  1  0.66739412  0.05430610  0.08800153  1
  O  O47  1  0.94569390  0.33260588  0.91199847  1
  O  O48  1  0.66739412  0.05430610  0.41199847  1
  O  O49  1  0.94569390  0.33260588  0.58800153  1
  O  O50  1  0.16776053  0.87480607  0.75000000  1
  O  O51  1  0.12519393  0.83223947  0.25000000  1
  O  O52  1  0.83223947  0.12519393  0.25000000  1
  O  O53  1  0.87480607  0.16776053  0.75000000  1
  O  O54  1  0.01405568  0.83762288  0.91480926  1
  O  O55  1  0.16237712  0.98594432  0.08519074  1
  O  O56  1  0.01405568  0.83762288  0.58519074  1
  O  O57  1  0.16237712  0.98594432  0.41480926  1
  O  O58  1  0.98594432  0.16237712  0.08519074  1
  O  O59  1  0.83762288  0.01405568  0.91480926  1
  O  O60  1  0.98594432  0.16237712  0.41480926  1
  O  O61  1  0.83762288  0.01405568  0.58519074  1
  O  O62  1  0.14508267  0.65020428  0.88401526  1
  O  O63  1  0.34979572  0.85491733  0.11598474  1
  O  O64  1  0.14508267  0.65020428  0.61598474  1
  O  O65  1  0.34979572  0.85491733  0.38401526  1
  O  O66  1  0.85491733  0.34979572  0.11598474  1
  O  O67  1  0.65020428  0.14508267  0.88401526  1
  O  O68  1  0.85491733  0.34979572  0.38401526  1
  O  O69  1  0.65020428  0.14508267  0.61598474  1
  O  O70  1  0.63045289  0.46019577  0.09104993  1
  O  O71  1  0.53980423  0.36954711  0.90895007  1
  O  O72  1  0.63045289  0.46019577  0.40895007  1
  O  O73  1  0.53980423  0.36954711  0.59104993  1
  O  O74  1  0.36954711  0.53980423  0.90895007  1
  O  O75  1  0.46019577  0.63045289  0.09104993  1
  O  O76  1  0.36954711  0.53980423  0.59104993  1
  O  O77  1  0.46019577  0.63045289  0.40895007  1
