# generated using pymatgen
data_SiP4PdPbO14
_symmetry_space_group_name_H-M   'P 1'
_cell_length_a   4.65748886
_cell_length_b   6.53496535
_cell_length_c   17.40823551
_cell_angle_alpha   90.00000000
_cell_angle_beta   90.00000000
_cell_angle_gamma   102.05421449
_symmetry_Int_Tables_number   1
_chemical_formula_structural   SiP4PdPbO14
_chemical_formula_sum   'Si2 P8 Pd2 Pb2 O28'
_cell_volume   518.16337229
_cell_formula_units_Z   2
loop_
 _symmetry_equiv_pos_site_id
 _symmetry_equiv_pos_as_xyz
  1  'x, y, z'
loop_
 _atom_site_type_symbol
 _atom_site_label
 _atom_site_symmetry_multiplicity
 _atom_site_fract_x
 _atom_site_fract_y
 _atom_site_fract_z
 _atom_site_occupancy
  Si  Si0  1  -0.00000000  0.00000000  0.50000000  1
  Si  Si1  1  -0.00000000  0.00000000  -0.00000000  1
  P  P2  1  0.11652269  0.35300041  0.62280710  1
  P  P3  1  0.88347731  0.64699959  0.12280710  1
  P  P4  1  0.88347731  0.64699959  0.37719290  1
  P  P5  1  0.11652269  0.35300041  0.87719290  1
  P  P6  1  0.43167476  0.77760562  0.58632491  1
  P  P7  1  0.56832524  0.22239438  0.08632491  1
  P  P8  1  0.56832524  0.22239438  0.41367509  1
  P  P9  1  0.43167476  0.77760562  0.91367509  1
  Pd  Pd10  1  0.61886020  0.35742038  0.75000000  1
  Pd  Pd11  1  0.38113980  0.64257962  0.25000000  1
  Pb  Pb12  1  0.10286325  0.86039815  0.75000000  1
  Pb  Pb13  1  0.89713675  0.13960185  0.25000000  1
  O  O14  1  0.32226480  0.52803824  0.57135103  1
  O  O15  1  0.67773520  0.47196176  0.07135103  1
  O  O16  1  0.67773520  0.47196176  0.42864897  1
  O  O17  1  0.32226480  0.52803824  0.92864897  1
  O  O18  1  0.93281461  0.19580496  0.56765223  1
  O  O19  1  0.06718539  0.80419504  0.06765223  1
  O  O20  1  0.06718539  0.80419504  0.43234777  1
  O  O21  1  0.93281461  0.19580496  0.93234777  1
  O  O22  1  0.92736762  0.47572175  0.66969953  1
  O  O23  1  0.07263238  0.52427825  0.16969953  1
  O  O24  1  0.07263238  0.52427825  0.33030047  1
  O  O25  1  0.92736762  0.47572175  0.83030047  1
  O  O26  1  0.30917260  0.23681693  0.67138455  1
  O  O27  1  0.69082740  0.76318307  0.17138455  1
  O  O28  1  0.69082740  0.76318307  0.32861545  1
  O  O29  1  0.30917260  0.23681693  0.82861545  1
  O  O30  1  0.15944116  0.87455782  0.57457821  1
  O  O31  1  0.84055884  0.12544218  0.07457821  1
  O  O32  1  0.84055884  0.12544218  0.42542179  1
  O  O33  1  0.15944116  0.87455782  0.92542179  1
  O  O34  1  0.65583258  0.84057169  0.52246381  1
  O  O35  1  0.34416742  0.15942831  0.02246381  1
  O  O36  1  0.34416742  0.15942831  0.47753619  1
  O  O37  1  0.65583258  0.84057169  0.97753619  1
  O  O38  1  0.53419272  0.81217158  0.66887924  1
  O  O39  1  0.46580728  0.18782842  0.16887924  1
  O  O40  1  0.46580728  0.18782842  0.33112076  1
  O  O41  1  0.53419272  0.81217158  0.83112076  1
