# generated using pymatgen
data_Ba3Nb2Se9
_symmetry_space_group_name_H-M   'P 1'
_cell_length_a   7.45770679
_cell_length_b   12.57895827
_cell_length_c   17.85361241
_cell_angle_alpha   90.00000000
_cell_angle_beta   97.40201647
_cell_angle_gamma   90.00000000
_symmetry_Int_Tables_number   1
_chemical_formula_structural   Ba3Nb2Se9
_chemical_formula_sum   'Ba12 Nb8 Se36'
_cell_volume   1660.89348671
_cell_formula_units_Z   4
loop_
 _symmetry_equiv_pos_site_id
 _symmetry_equiv_pos_as_xyz
  1  'x, y, z'
loop_
 _atom_site_type_symbol
 _atom_site_label
 _atom_site_symmetry_multiplicity
 _atom_site_fract_x
 _atom_site_fract_y
 _atom_site_fract_z
 _atom_site_occupancy
  Ba  Ba0  1  0.26239507  0.91102235  0.91528453  1
  Ba  Ba1  1  0.73760493  0.41102235  0.58471547  1
  Ba  Ba2  1  0.73760493  0.08897765  0.08471547  1
  Ba  Ba3  1  0.26239507  0.58897765  0.41528453  1
  Ba  Ba4  1  0.74517256  0.74360696  0.74619917  1
  Ba  Ba5  1  0.25482744  0.24360696  0.75380083  1
  Ba  Ba6  1  0.25482744  0.25639304  0.25380083  1
  Ba  Ba7  1  0.74517256  0.75639304  0.24619917  1
  Ba  Ba8  1  0.74286712  0.43133739  0.91980855  1
  Ba  Ba9  1  0.25713288  0.93133739  0.58019145  1
  Ba  Ba10  1  0.25713288  0.56866261  0.08019145  1
  Ba  Ba11  1  0.74286712  0.06866261  0.41980855  1
  Nb  Nb12  1  0.71372620  0.05561696  0.85089290  1
  Nb  Nb13  1  0.28627380  0.55561696  0.64910710  1
  Nb  Nb14  1  0.28627380  0.94438304  0.14910710  1
  Nb  Nb15  1  0.71372620  0.44438304  0.35089290  1
  Nb  Nb16  1  0.21977019  0.56745709  0.84652382  1
  Nb  Nb17  1  0.78022981  0.06745709  0.65347618  1
  Nb  Nb18  1  0.78022981  0.43254291  0.15347618  1
  Nb  Nb19  1  0.21977019  0.93254291  0.34652382  1
  Se  Se20  1  0.24537709  0.72668935  0.74087075  1
  Se  Se21  1  0.75462291  0.22668935  0.75912925  1
  Se  Se22  1  0.75462291  0.27331065  0.25912925  1
  Se  Se23  1  0.24537709  0.77331065  0.24087075  1
  Se  Se24  1  0.03578295  0.70457829  0.61938345  1
  Se  Se25  1  0.96421705  0.20457829  0.88061655  1
  Se  Se26  1  0.96421705  0.29542171  0.38061655  1
  Se  Se27  1  0.03578295  0.79542171  0.11938345  1
  Se  Se28  1  0.00278575  0.65822384  0.91609084  1
  Se  Se29  1  0.99721425  0.15822384  0.58390916  1
  Se  Se30  1  0.99721425  0.34177616  0.08390916  1
  Se  Se31  1  0.00278575  0.84177616  0.41609084  1
  Se  Se32  1  0.98913257  0.98317717  0.75964453  1
  Se  Se33  1  0.01086743  0.48317717  0.74035547  1
  Se  Se34  1  0.01086743  0.01682283  0.24035547  1
  Se  Se35  1  0.98913257  0.51682283  0.25964453  1
  Se  Se36  1  0.81611062  0.91716541  0.94023805  1
  Se  Se37  1  0.18388938  0.41716541  0.55976195  1
  Se  Se38  1  0.18388938  0.08283459  0.05976195  1
  Se  Se39  1  0.81611062  0.58283459  0.44023805  1
  Se  Se40  1  0.49494242  0.97357316  0.75074617  1
  Se  Se41  1  0.50505758  0.47357316  0.74925383  1
  Se  Se42  1  0.50505758  0.02642684  0.24925383  1
  Se  Se43  1  0.49494242  0.52642684  0.25074617  1
  Se  Se44  1  0.49780221  0.15234858  0.91962694  1
  Se  Se45  1  0.50219779  0.65234858  0.58037306  1
  Se  Se46  1  0.50219779  0.84765142  0.08037306  1
  Se  Se47  1  0.49780221  0.34765142  0.41962694  1
  Se  Se48  1  0.48770742  0.68965198  0.88171841  1
  Se  Se49  1  0.51229258  0.18965198  0.61828159  1
  Se  Se50  1  0.51229258  0.31034802  0.11828159  1
  Se  Se51  1  0.48770742  0.81034802  0.38171841  1
  Se  Se52  1  0.69913801  0.91497742  0.57164097  1
  Se  Se53  1  0.30086199  0.41497742  0.92835903  1
  Se  Se54  1  0.30086199  0.08502258  0.42835903  1
  Se  Se55  1  0.69913801  0.58502258  0.07164097  1
