# generated using pymatgen
data_Al2Cu2Bi2S3Cl8
_symmetry_space_group_name_H-M   'P 1'
_cell_length_a   6.61004030
_cell_length_b   6.61016798
_cell_length_c   23.42188093
_cell_angle_alpha   90.00000000
_cell_angle_beta   90.00000000
_cell_angle_gamma   119.99969274
_symmetry_Int_Tables_number   1
_chemical_formula_structural   Al2Cu2Bi2S3Cl8
_chemical_formula_sum   'Al4 Cu4 Bi4 S6 Cl16'
_cell_volume   886.27877468
_cell_formula_units_Z   2
loop_
 _symmetry_equiv_pos_site_id
 _symmetry_equiv_pos_as_xyz
  1  'x, y, z'
loop_
 _atom_site_type_symbol
 _atom_site_label
 _atom_site_symmetry_multiplicity
 _atom_site_fract_x
 _atom_site_fract_y
 _atom_site_fract_z
 _atom_site_occupancy
  Al  Al0  1  0.66664035  0.33332153  0.57739490  1
  Al  Al1  1  0.33335965  0.66667847  0.07739490  1
  Al  Al2  1  0.33335965  0.66667847  0.42260510  1
  Al  Al3  1  0.66664035  0.33332153  0.92260510  1
  Cu  Cu4  1  0.66657941  0.33328959  0.75000000  1
  Cu  Cu5  1  0.33342059  0.66671041  0.25000000  1
  Cu  Cu6  1  -0.00000476  -0.00001000  0.75000000  1
  Cu  Cu7  1  0.00000476  0.00001000  0.25000000  1
  Bi  Bi8  1  0.33335964  0.66667324  0.67533483  1
  Bi  Bi9  1  0.66664036  0.33332676  0.17533483  1
  Bi  Bi10  1  0.66664036  0.33332676  0.32466517  1
  Bi  Bi11  1  0.33335964  0.66667324  0.82466517  1
  S  S12  1  0.33265294  0.97797940  0.75000000  1
  S  S13  1  0.02202386  0.35468484  0.75000000  1
  S  S14  1  0.64534780  0.66735056  0.75000000  1
  S  S15  1  0.66734706  0.02202060  0.25000000  1
  S  S16  1  0.97797614  0.64531516  0.25000000  1
  S  S17  1  0.35465220  0.33264944  0.25000000  1
  Cl  Cl18  1  0.66660525  0.33330172  0.48753202  1
  Cl  Cl19  1  0.33339475  0.66669828  0.98753202  1
  Cl  Cl20  1  0.33339475  0.66669828  0.51246798  1
  Cl  Cl21  1  0.66660525  0.33330172  0.01246798  1
  Cl  Cl22  1  0.90873230  0.66797517  0.61496985  1
  Cl  Cl23  1  0.33199904  0.24074941  0.61497355  1
  Cl  Cl24  1  0.75923461  0.09125716  0.61497088  1
  Cl  Cl25  1  0.09126770  0.33202483  0.11496985  1
  Cl  Cl26  1  0.66800096  0.75925059  0.11497355  1
  Cl  Cl27  1  0.24076539  0.90874284  0.11497088  1
  Cl  Cl28  1  0.09126770  0.33202483  0.38503015  1
  Cl  Cl29  1  0.66800096  0.75925059  0.38502645  1
  Cl  Cl30  1  0.24076539  0.90874284  0.38502912  1
  Cl  Cl31  1  0.90873230  0.66797517  0.88503015  1
  Cl  Cl32  1  0.33199904  0.24074941  0.88502645  1
  Cl  Cl33  1  0.75923461  0.09125716  0.88502912  1
