# generated using pymatgen
data_As2O3
_symmetry_space_group_name_H-M   'P 1'
_cell_length_a   11.21562842
_cell_length_b   13.91101978
_cell_length_c   14.05079888
_cell_angle_alpha   90.00000000
_cell_angle_beta   90.00000000
_cell_angle_gamma   97.85856315
_symmetry_Int_Tables_number   1
_chemical_formula_structural   As2O3
_chemical_formula_sum   'As48 O72'
_cell_volume   2171.62930895
_cell_formula_units_Z   24
loop_
 _symmetry_equiv_pos_site_id
 _symmetry_equiv_pos_as_xyz
  1  'x, y, z'
loop_
 _atom_site_type_symbol
 _atom_site_label
 _atom_site_symmetry_multiplicity
 _atom_site_fract_x
 _atom_site_fract_y
 _atom_site_fract_z
 _atom_site_occupancy
  As  As0  1  0.65802263  0.53011371  0.24659805  1
  As  As1  1  0.34197737  0.96988629  0.74659805  1
  As  As2  1  0.34197737  0.46988629  0.75340195  1
  As  As3  1  0.65802263  0.03011371  0.25340195  1
  As  As4  1  0.59370487  0.29960825  0.22960637  1
  As  As5  1  0.40629513  0.20039175  0.72960637  1
  As  As6  1  0.40629513  0.70039175  0.77039363  1
  As  As7  1  0.59370487  0.79960825  0.27039363  1
  As  As8  1  0.40870124  0.21850384  0.39499218  1
  As  As9  1  0.59129876  0.28149616  0.89499218  1
  As  As10  1  0.59129876  0.78149616  0.60500782  1
  As  As11  1  0.40870124  0.71850384  0.10500782  1
  As  As12  1  0.35016030  0.98572304  0.41542357  1
  As  As13  1  0.64983970  0.51427696  0.91542357  1
  As  As14  1  0.64983970  0.01427696  0.58457643  1
  As  As15  1  0.35016030  0.48572304  0.08457643  1
  As  As16  1  0.84604662  0.47677656  0.07946686  1
  As  As17  1  0.15395338  0.02322344  0.57946686  1
  As  As18  1  0.15395338  0.52322344  0.92053314  1
  As  As19  1  0.84604662  0.97677656  0.42053314  1
  As  As20  1  0.90838685  0.70824876  0.06029896  1
  As  As21  1  0.09161315  0.79175124  0.56029896  1
  As  As22  1  0.09161315  0.29175124  0.93970104  1
  As  As23  1  0.90838685  0.20824876  0.43970104  1
  As  As24  1  0.09265039  0.77937619  0.23030732  1
  As  As25  1  0.90734961  0.72062381  0.73030732  1
  As  As26  1  0.90734961  0.22062381  0.76969268  1
  As  As27  1  0.09265039  0.27937619  0.26969268  1
  As  As28  1  0.09538628  0.79720562  0.89877297  1
  As  As29  1  0.90461372  0.70279438  0.39877297  1
  As  As30  1  0.90461372  0.20279438  0.10122703  1
  As  As31  1  0.09538628  0.29720562  0.60122703  1
  As  As32  1  0.84542493  0.47274272  0.41555549  1
  As  As33  1  0.15457507  0.02725728  0.91555549  1
  As  As34  1  0.15457507  0.52725728  0.58444451  1
  As  As35  1  0.84542493  0.97274272  0.08444451  1
  As  As36  1  0.65141921  0.51880124  0.58514475  1
  As  As37  1  0.34858079  0.98119876  0.08514475  1
  As  As38  1  0.34858079  0.48119876  0.41485525  1
  As  As39  1  0.65141921  0.01880124  0.91485525  1
  As  As40  1  0.15042005  0.01288590  0.25181459  1
  As  As41  1  0.84957995  0.48711410  0.75181459  1
  As  As42  1  0.84957995  0.98711410  0.74818541  1
  As  As43  1  0.15042005  0.51288590  0.24818541  1
  As  As44  1  0.40539519  0.21288533  0.06595152  1
  As  As45  1  0.59460481  0.28711467  0.56595152  1
  As  As46  1  0.59460481  0.78711467  0.93404848  1
  As  As47  1  0.40539519  0.71288533  0.43404848  1
  O  O48  1  0.73598389  0.54845750  0.13364632  1
  O  O49  1  0.26401611  0.95154250  0.63364632  1
  O  O50  1  0.26401611  0.45154250  0.86635368  1
  O  O51  1  0.73598389  0.04845750  0.36635368  1
  O  O52  1  0.55123451  0.42277716  0.22100490  1
  O  O53  1  0.44876549  0.07722284  0.72100490  1
  O  O54  1  0.44876549  0.57722284  0.77899510  1
  O  O55  1  0.55123451  0.92277716  0.27899510  1
  O  O56  1  0.76838006  0.45980576  0.30173539  1
  O  O57  1  0.23161994  0.04019424  0.80173539  1
  O  O58  1  0.23161994  0.54019424  0.69826461  1
  O  O59  1  0.76838006  0.95980576  0.19826461  1
  O  O60  1  0.55693439  0.27582175  0.35411426  1
  O  O61  1  0.44306561  0.22417825  0.85411426  1
  O  O62  1  0.44306561  0.72417825  0.64588574  1
  O  O63  1  0.55693439  0.77582175  0.14588574  1
  O  O64  1  0.44676156  0.24054514  0.18891798  1
  O  O65  1  0.55323844  0.25945486  0.68891798  1
  O  O66  1  0.55323844  0.75945486  0.81108202  1
  O  O67  1  0.44676156  0.74054514  0.31108202  1
  O  O68  1  0.44007455  0.09466836  0.37030775  1
  O  O69  1  0.55992545  0.40533164  0.87030775  1
  O  O70  1  0.55992545  0.90533164  0.62969225  1
  O  O71  1  0.44007455  0.59466836  0.12969225  1
  O  O72  1  0.75998932  0.44500082  0.97227450  1
  O  O73  1  0.24001068  0.05499918  0.47227450  1
  O  O74  1  0.24001068  0.55499918  0.02772550  1
  O  O75  1  0.75998932  0.94500082  0.52772550  1
  O  O76  1  0.25880154  0.94558038  0.31281754  1
  O  O77  1  0.74119846  0.55441962  0.81281754  1
  O  O78  1  0.74119846  0.05441962  0.68718246  1
  O  O79  1  0.25880154  0.44558038  0.18718246  1
  O  O80  1  0.94459312  0.58464953  0.04140227  1
  O  O81  1  0.05540688  0.91535047  0.54140227  1
  O  O82  1  0.05540688  0.41535047  0.95859773  1
  O  O83  1  0.94459312  0.08464953  0.45859773  1
  O  O84  1  0.05745346  0.76616167  0.02150579  1
  O  O85  1  0.94254654  0.73383833  0.52150579  1
  O  O86  1  0.94254654  0.23383833  0.97849421  1
  O  O87  1  0.05745346  0.26616167  0.47849421  1
  O  O88  1  0.94704646  0.72129154  0.18585320  1
  O  O89  1  0.05295354  0.77870846  0.68585320  1
  O  O90  1  0.05295354  0.27870846  0.81414680  1
  O  O91  1  0.94704646  0.22129154  0.31414680  1
  O  O92  1  0.95183853  0.73561666  0.85451113  1
  O  O93  1  0.04816147  0.76438334  0.35451113  1
  O  O94  1  0.04816147  0.26438334  0.14548887  1
  O  O95  1  0.95183853  0.23561666  0.64548887  1
  O  O96  1  0.05777190  0.90325772  0.21135743  1
  O  O97  1  0.94222810  0.59674228  0.71135743  1
  O  O98  1  0.94222810  0.09674228  0.78864257  1
  O  O99  1  0.05777190  0.40325772  0.28864257  1
  O  O100  1  0.95259235  0.58095661  0.39497482  1
  O  O101  1  0.04740765  0.91904339  0.89497482  1
  O  O102  1  0.04740765  0.41904339  0.60502518  1
  O  O103  1  0.95259235  0.08095661  0.10502518  1
  O  O104  1  0.73584462  0.54008681  0.47534830  1
  O  O105  1  0.26415538  0.95991319  0.97534830  1
  O  O106  1  0.26415538  0.45991319  0.52465170  1
  O  O107  1  0.73584462  0.04008681  0.02465170  1
  O  O108  1  0.24127277  0.04809667  0.14777914  1
  O  O109  1  0.75872723  0.45190333  0.64777914  1
  O  O110  1  0.75872723  0.95190333  0.85222086  1
  O  O111  1  0.24127277  0.54809667  0.35222086  1
  O  O112  1  0.45042110  0.09050630  0.05724805  1
  O  O113  1  0.54957890  0.40949370  0.55724805  1
  O  O114  1  0.54957890  0.90949370  0.94275195  1
  O  O115  1  0.45042110  0.59050630  0.44275195  1
  O  O116  1  0.45176355  0.22605322  0.52008743  1
  O  O117  1  0.54823645  0.27394678  0.02008743  1
  O  O118  1  0.54823645  0.77394678  0.47991257  1
  O  O119  1  0.45176355  0.72605322  0.97991257  1
