# generated using pymatgen
data_V6H2Pb4Se3O26
_symmetry_space_group_name_H-M   'P 1'
_cell_length_a   7.25532974
_cell_length_b   7.38695769
_cell_length_c   21.74142122
_cell_angle_alpha   90.00000000
_cell_angle_beta   90.00000000
_cell_angle_gamma   94.75406608
_symmetry_Int_Tables_number   1
_chemical_formula_structural   V6H2Pb4Se3O26
_chemical_formula_sum   'V12 H4 Pb8 Se6 O52'
_cell_volume   1161.21860181
_cell_formula_units_Z   2
loop_
 _symmetry_equiv_pos_site_id
 _symmetry_equiv_pos_as_xyz
  1  'x, y, z'
loop_
 _atom_site_type_symbol
 _atom_site_label
 _atom_site_symmetry_multiplicity
 _atom_site_fract_x
 _atom_site_fract_y
 _atom_site_fract_z
 _atom_site_occupancy
  V  V0  1  0.18319760  0.68307513  0.70147358  1
  V  V1  1  0.81680240  0.31692487  0.20147358  1
  V  V2  1  0.39828087  0.63504302  0.12013300  1
  V  V3  1  0.60171913  0.36495698  0.62013300  1
  V  V4  1  0.02156669  0.33590069  0.91527077  1
  V  V5  1  0.97843331  0.66409931  0.41527077  1
  V  V6  1  0.64627187  0.64569635  0.99812457  1
  V  V7  1  0.35372813  0.35430365  0.49812457  1
  V  V8  1  0.10184885  0.30251649  0.61608937  1
  V  V9  1  0.89815115  0.69748351  0.11608937  1
  V  V10  1  0.84501299  0.29933310  0.50140741  1
  V  V11  1  0.15498701  0.70066690  0.00140741  1
  H  H12  1  0.36672166  0.80429802  0.57145618  1
  H  H13  1  0.63327834  0.19570198  0.07145618  1
  H  H14  1  0.58114466  0.85512194  0.56077200  1
  H  H15  1  0.41885534  0.14487806  0.06077200  1
  Pb  Pb16  1  0.52382076  0.12461249  0.92908973  1
  Pb  Pb17  1  0.47617924  0.87538751  0.42908973  1
  Pb  Pb18  1  0.93100726  0.83929005  0.85976785  1
  Pb  Pb19  1  0.06899274  0.16070995  0.35976785  1
  Pb  Pb20  1  0.28698195  0.18306476  0.75964778  1
  Pb  Pb21  1  0.71301805  0.81693524  0.25964778  1
  Pb  Pb22  1  0.70146473  0.89168334  0.69791291  1
  Pb  Pb23  1  0.29853527  0.10831666  0.19791291  1
  Se  Se24  1  0.42116931  0.69027979  0.83418091  1
  Se  Se25  1  0.57883069  0.30972021  0.33418091  1
  Se  Se26  1  0.78654990  0.33015660  0.78469764  1
  Se  Se27  1  0.21345010  0.66984340  0.28469764  1
  Se  Se28  1  0.99746018  0.18109781  0.05843170  1
  Se  Se29  1  0.00253982  0.81890219  0.55843170  1
  O  O30  1  0.90370341  0.44847997  0.84713521  1
  O  O31  1  0.09629659  0.55152003  0.34713521  1
  O  O32  1  0.21031871  0.26118970  0.88278171  1
  O  O33  1  0.78968129  0.73881030  0.38278171  1
  O  O34  1  0.90174113  0.13596201  0.77939787  1
  O  O35  1  0.09825887  0.86403799  0.27939787  1
  O  O36  1  0.06843591  0.35262065  0.00380213  1
  O  O37  1  0.93156409  0.64737935  0.50380213  1
  O  O38  1  0.86592992  0.14612676  0.91915774  1
  O  O39  1  0.13407008  0.85387324  0.41915774  1
  O  O40  1  0.13190474  0.42083927  0.68711944  1
  O  O41  1  0.86809526  0.57916073  0.18711944  1
  O  O42  1  0.10169611  0.60313494  0.92836729  1
  O  O43  1  0.89830389  0.39686506  0.42836729  1
  O  O44  1  0.39078991  0.62962286  0.02268048  1
  O  O45  1  0.60921009  0.37037714  0.52268048  1
  O  O46  1  0.66312950  0.44585185  0.96429555  1
  O  O47  1  0.33687050  0.55414815  0.46429555  1
  O  O48  1  0.31592458  0.89043990  0.83759662  1
  O  O49  1  0.68407542  0.10956010  0.33759662  1
  O  O50  1  0.30303074  0.57247835  0.77194510  1
  O  O51  1  0.69696926  0.42752165  0.27194510  1
  O  O52  1  0.00547958  0.76994540  0.73791267  1
  O  O53  1  0.99452042  0.23005460  0.23791267  1
  O  O54  1  0.57925583  0.25661533  0.81929564  1
  O  O55  1  0.42074417  0.74338467  0.31929564  1
  O  O56  1  0.35550743  0.85120710  0.69496469  1
  O  O57  1  0.64449257  0.14879290  0.19496469  1
  O  O58  1  0.64447505  0.80638354  0.94084524  1
  O  O59  1  0.35552495  0.19361646  0.44084524  1
  O  O60  1  0.79592301  0.84642015  0.59065111  1
  O  O61  1  0.20407699  0.15357985  0.09065111  1
  O  O62  1  0.79612504  0.08503953  0.48191896  1
  O  O63  1  0.20387496  0.91496047  0.98191896  1
  O  O64  1  0.15083204  0.68132453  0.09638010  1
  O  O65  1  0.84916796  0.31867547  0.59638010  1
  O  O66  1  0.88937608  0.32164347  0.11142563  1
  O  O67  1  0.11062392  0.67835653  0.61142563  1
  O  O68  1  0.10472943  0.09191050  0.64060351  1
  O  O69  1  0.89527057  0.90808950  0.14060351  1
  O  O70  1  0.56410774  0.20665598  0.67746478  1
  O  O71  1  0.43589226  0.79334402  0.17746478  1
  O  O72  1  0.63511272  0.75400750  0.80132813  1
  O  O73  1  0.36488728  0.24599250  0.30132813  1
  O  O74  1  0.10055145  0.29281134  0.52489716  1
  O  O75  1  0.89944855  0.70718866  0.02489716  1
  O  O76  1  0.35323279  0.36031468  0.59046402  1
  O  O77  1  0.64676721  0.63968532  0.09046402  1
  O  O78  1  0.37655126  0.43753769  0.15625619  1
  O  O79  1  0.62344874  0.56246231  0.65625619  1
  O  O80  1  0.45512862  0.88459140  0.54778764  1
  O  O81  1  0.54487138  0.11540860  0.04778764  1
