# generated using pymatgen
data_U2Ta3Ge4
_symmetry_space_group_name_H-M   'P 1'
_cell_length_a   7.03318845
_cell_length_b   7.13280362
_cell_length_c   13.39541098
_cell_angle_alpha   90.00000000
_cell_angle_beta   90.00000000
_cell_angle_gamma   90.00000000
_symmetry_Int_Tables_number   1
_chemical_formula_structural   U2Ta3Ge4
_chemical_formula_sum   'U8 Ta12 Ge16'
_cell_volume   671.99890289
_cell_formula_units_Z   4
loop_
 _symmetry_equiv_pos_site_id
 _symmetry_equiv_pos_as_xyz
  1  'x, y, z'
loop_
 _atom_site_type_symbol
 _atom_site_label
 _atom_site_symmetry_multiplicity
 _atom_site_fract_x
 _atom_site_fract_y
 _atom_site_fract_z
 _atom_site_occupancy
  U  U0  1  0.50774421  0.32976642  0.90929675  1
  U  U1  1  0.00774421  0.17023358  0.59070325  1
  U  U2  1  0.49225579  0.67023358  0.40929675  1
  U  U3  1  0.99225579  0.82976642  0.09070325  1
  U  U4  1  0.49225579  0.67023358  0.09070325  1
  U  U5  1  0.99225579  0.82976642  0.40929675  1
  U  U6  1  0.50774421  0.32976642  0.59070325  1
  U  U7  1  0.00774421  0.17023358  0.90929675  1
  Ta  Ta8  1  0.33975942  0.83488872  0.87543378  1
  Ta  Ta9  1  0.83975942  0.66511128  0.62456622  1
  Ta  Ta10  1  0.66024058  0.16511128  0.37543378  1
  Ta  Ta11  1  0.16024058  0.33488872  0.12456622  1
  Ta  Ta12  1  0.66024058  0.16511128  0.12456622  1
  Ta  Ta13  1  0.16024058  0.33488872  0.37543378  1
  Ta  Ta14  1  0.33975942  0.83488872  0.62456622  1
  Ta  Ta15  1  0.83975942  0.66511128  0.87543378  1
  Ta  Ta16  1  0.16788323  0.50274501  0.75000000  1
  Ta  Ta17  1  0.66788323  0.99725499  0.75000000  1
  Ta  Ta18  1  0.83211677  0.49725499  0.25000000  1
  Ta  Ta19  1  0.33211677  0.00274501  0.25000000  1
  Ge  Ge20  1  0.32466477  0.04302926  0.04284850  1
  Ge  Ge21  1  0.82466477  0.45697074  0.45715150  1
  Ge  Ge22  1  0.67533523  0.95697074  0.54284850  1
  Ge  Ge23  1  0.17533523  0.54302926  0.95715150  1
  Ge  Ge24  1  0.67533523  0.95697074  0.95715150  1
  Ge  Ge25  1  0.17533523  0.54302926  0.54284850  1
  Ge  Ge26  1  0.32466477  0.04302926  0.45715150  1
  Ge  Ge27  1  0.82466477  0.45697074  0.04284850  1
  Ge  Ge28  1  0.53971655  0.62137073  0.75000000  1
  Ge  Ge29  1  0.03971655  0.87862927  0.75000000  1
  Ge  Ge30  1  0.46028345  0.37862927  0.25000000  1
  Ge  Ge31  1  0.96028345  0.12137073  0.25000000  1
  Ge  Ge32  1  0.30811583  0.14450736  0.75000000  1
  Ge  Ge33  1  0.80811583  0.35549264  0.75000000  1
  Ge  Ge34  1  0.69188417  0.85549264  0.25000000  1
  Ge  Ge35  1  0.19188417  0.64450736  0.25000000  1
