# generated using pymatgen
data_SrU(PS4)2
_symmetry_space_group_name_H-M   'P 1'
_cell_length_a   9.63642352
_cell_length_b   11.26350110
_cell_length_c   11.26350110
_cell_angle_alpha   90.00000000
_cell_angle_beta   90.00000000
_cell_angle_gamma   90.00000000
_symmetry_Int_Tables_number   1
_chemical_formula_structural   SrU(PS4)2
_chemical_formula_sum   'Sr4 U4 P8 S32'
_cell_volume   1222.53891042
_cell_formula_units_Z   4
loop_
 _symmetry_equiv_pos_site_id
 _symmetry_equiv_pos_as_xyz
  1  'x, y, z'
loop_
 _atom_site_type_symbol
 _atom_site_label
 _atom_site_symmetry_multiplicity
 _atom_site_fract_x
 _atom_site_fract_y
 _atom_site_fract_z
 _atom_site_occupancy
  Sr  Sr0  1  0.75000000  0.00000000  0.50000000  1
  Sr  Sr1  1  0.25000000  0.50000000  -0.00000000  1
  Sr  Sr2  1  0.75000000  0.50000000  -0.00000000  1
  Sr  Sr3  1  0.25000000  -0.00000000  0.50000000  1
  U  U4  1  0.75000000  0.50000000  0.50000000  1
  U  U5  1  0.25000000  0.50000000  0.50000000  1
  U  U6  1  0.75000000  0.00000000  -0.00000000  1
  U  U7  1  0.25000000  0.00000000  -0.00000000  1
  P  P8  1  0.50000000  0.26319251  0.46423807  1
  P  P9  1  -0.00000000  0.46423807  0.73680749  1
  P  P10  1  0.50000000  0.23680749  0.96423807  1
  P  P11  1  -0.00000000  0.96423807  0.76319251  1
  P  P12  1  0.50000000  0.73680749  0.53576193  1
  P  P13  1  -0.00000000  0.53576193  0.26319251  1
  P  P14  1  0.50000000  0.76319251  0.03576193  1
  P  P15  1  -0.00000000  0.03576193  0.23680749  1
  S  S16  1  0.82367090  0.43248484  0.27236909  1
  S  S17  1  0.32367090  0.27236909  0.56751516  1
  S  S18  1  0.82367090  0.06751516  0.77236909  1
  S  S19  1  0.32367090  0.77236909  0.93248484  1
  S  S20  1  0.17632910  0.43248484  0.27236909  1
  S  S21  1  0.67632910  0.27236909  0.56751516  1
  S  S22  1  0.17632910  0.06751516  0.77236909  1
  S  S23  1  0.67632910  0.77236909  0.93248484  1
  S  S24  1  0.17632910  0.56751516  0.72763091  1
  S  S25  1  0.67632910  0.72763091  0.43248484  1
  S  S26  1  0.17632910  0.93248484  0.22763091  1
  S  S27  1  0.67632910  0.22763091  0.06751516  1
  S  S28  1  0.82367090  0.56751516  0.72763091  1
  S  S29  1  0.32367090  0.72763091  0.43248484  1
  S  S30  1  0.82367090  0.93248484  0.22763091  1
  S  S31  1  0.32367090  0.22763091  0.06751516  1
  S  S32  1  0.50000000  0.42037337  0.36813952  1
  S  S33  1  -0.00000000  0.36813952  0.57962663  1
  S  S34  1  0.50000000  0.07962663  0.86813952  1
  S  S35  1  -0.00000000  0.86813952  0.92037337  1
  S  S36  1  0.50000000  0.57962663  0.63186048  1
  S  S37  1  -0.00000000  0.63186048  0.42037337  1
  S  S38  1  0.50000000  0.92037337  0.13186048  1
  S  S39  1  -0.00000000  0.13186048  0.07962663  1
  S  S40  1  0.50000000  0.11266003  0.36745850  1
  S  S41  1  -0.00000000  0.36745850  0.88733997  1
  S  S42  1  0.50000000  0.38733997  0.86745850  1
  S  S43  1  -0.00000000  0.86745850  0.61266003  1
  S  S44  1  0.50000000  0.88733997  0.63254150  1
  S  S45  1  -0.00000000  0.63254150  0.11266003  1
  S  S46  1  0.50000000  0.61266003  0.13254150  1
  S  S47  1  -0.00000000  0.13254150  0.38733997  1
