# generated using pymatgen
data_Li2MgB12(H4O7)4
_symmetry_space_group_name_H-M   'P 1'
_cell_length_a   6.99297506
_cell_length_b   9.27152666
_cell_length_c   9.58938078
_cell_angle_alpha   72.14914747
_cell_angle_beta   88.94497636
_cell_angle_gamma   68.35431997
_symmetry_Int_Tables_number   1
_chemical_formula_structural   Li2MgB12(H4O7)4
_chemical_formula_sum   'Li2 Mg1 B12 H16 O28'
_cell_volume   546.91149109
_cell_formula_units_Z   1
loop_
 _symmetry_equiv_pos_site_id
 _symmetry_equiv_pos_as_xyz
  1  'x, y, z'
loop_
 _atom_site_type_symbol
 _atom_site_label
 _atom_site_symmetry_multiplicity
 _atom_site_fract_x
 _atom_site_fract_y
 _atom_site_fract_z
 _atom_site_occupancy
  Li  Li0  1  0.74150998  0.76509856  0.72479705  1
  Li  Li1  1  0.25849002  0.23490144  0.27520295  1
  Mg  Mg2  1  0.00000000  0.50000000  0.50000000  1
  B  B3  1  0.89241784  0.39595715  0.84200554  1
  B  B4  1  0.10758216  0.60404285  0.15799446  1
  B  B5  1  0.51730766  0.45283222  0.80445854  1
  B  B6  1  0.48269234  0.54716778  0.19554146  1
  B  B7  1  0.74710318  0.29643605  0.65261676  1
  B  B8  1  0.25289682  0.70356395  0.34738324  1
  B  B9  1  0.95215642  0.01119810  0.67376924  1
  B  B10  1  0.04784358  0.98880190  0.32623076  1
  B  B11  1  0.13736924  0.16510975  0.74819421  1
  B  B12  1  0.86263076  0.83489025  0.25180579  1
  B  B13  1  0.22142605  0.19489138  0.98541722  1
  B  B14  1  0.77857395  0.80510862  0.01458278  1
  H  H15  1  0.33920394  0.27374718  0.66033282  1
  H  H16  1  0.66079606  0.72625282  0.33966718  1
  H  H17  1  0.06891431  0.52803804  0.76953213  1
  H  H18  1  0.93108569  0.47196196  0.23046787  1
  H  H19  1  0.65670280  0.46944604  0.44215459  1
  H  H20  1  0.34329720  0.53055396  0.55784541  1
  H  H21  1  0.48936279  0.05414225  0.10961473  1
  H  H22  1  0.51063721  0.94585775  0.89038527  1
  H  H23  1  0.09975092  0.77755783  0.68611808  1
  H  H24  1  0.90024908  0.22244217  0.31388192  1
  H  H25  1  0.31121602  0.54941630  0.92884937  1
  H  H26  1  0.68878398  0.45058370  0.07115063  1
  H  H27  1  0.42561228  0.84949532  0.52024218  1
  H  H28  1  0.57438772  0.15050468  0.47975782  1
  H  H29  1  0.35561700  0.89898011  0.65999461  1
  H  H30  1  0.64438300  0.10101989  0.34000539  1
  O  O31  1  0.20906949  0.27121067  0.62682001  1
  O  O32  1  0.79093051  0.72878933  0.37317999  1
  O  O33  1  0.93409231  0.53341328  0.73254987  1
  O  O34  1  0.06590769  0.46658672  0.26745013  1
  O  O35  1  0.78201829  0.40346193  0.51348700  1
  O  O36  1  0.21798171  0.59653807  0.48651300  1
  O  O37  1  0.76287818  0.13841906  0.64219175  1
  O  O38  1  0.23712182  0.86158094  0.35780825  1
  O  O39  1  0.13151436  0.02365542  0.71427708  1
  O  O40  1  0.86848564  0.97634458  0.28572292  1
  O  O41  1  0.91549110  0.26565501  0.76788130  1
  O  O42  1  0.08450890  0.73434499  0.23211870  1
  O  O43  1  0.68084621  0.45215542  0.88147577  1
  O  O44  1  0.31915379  0.54784458  0.11852423  1
  O  O45  1  0.54208610  0.38026704  0.69544356  1
  O  O46  1  0.45791390  0.61973296  0.30455644  1
  O  O47  1  0.27200791  0.11211903  0.88369431  1
  O  O48  1  0.72799209  0.88788097  0.11630569  1
  O  O49  1  0.03809723  0.32298673  0.97197800  1
  O  O50  1  0.96190277  0.67701327  0.02802200  1
  O  O51  1  0.35912493  0.14718277  0.10759796  1
  O  O52  1  0.64087507  0.85281723  0.89240204  1
  O  O53  1  0.96018845  0.86276689  0.66294913  1
  O  O54  1  0.03981155  0.13723311  0.33705087  1
  O  O55  1  0.31635411  0.52667296  0.83387990  1
  O  O56  1  0.68364589  0.47332704  0.16612010  1
  O  O57  1  0.47368336  0.82708605  0.62289058  1
  O  O58  1  0.52631664  0.17291395  0.37710942  1
