# generated using pymatgen
data_Ga4Bi2O9
_symmetry_space_group_name_H-M   'P 1'
_cell_length_a   7.82220633
_cell_length_b   8.53231268
_cell_length_c   11.99933010
_cell_angle_alpha   90.00000000
_cell_angle_beta   90.00000000
_cell_angle_gamma   90.00000000
_symmetry_Int_Tables_number   1
_chemical_formula_structural   Ga4Bi2O9
_chemical_formula_sum   'Ga16 Bi8 O36'
_cell_volume   800.85341292
_cell_formula_units_Z   4
loop_
 _symmetry_equiv_pos_site_id
 _symmetry_equiv_pos_as_xyz
  1  'x, y, z'
loop_
 _atom_site_type_symbol
 _atom_site_label
 _atom_site_symmetry_multiplicity
 _atom_site_fract_x
 _atom_site_fract_y
 _atom_site_fract_z
 _atom_site_occupancy
  Ga  Ga0  1  0.51591043  0.50389306  0.12852370  1
  Ga  Ga1  1  0.98408957  0.00389306  0.37147630  1
  Ga  Ga2  1  0.48408957  0.49610694  0.62852370  1
  Ga  Ga3  1  0.01591043  0.99610694  0.87147630  1
  Ga  Ga4  1  0.48408957  0.49610694  0.87147630  1
  Ga  Ga5  1  0.01591043  0.99610694  0.62852370  1
  Ga  Ga6  1  0.51591043  0.50389306  0.37147630  1
  Ga  Ga7  1  0.98408957  0.00389306  0.12852370  1
  Ga  Ga8  1  0.35162360  0.84975523  0.25000000  1
  Ga  Ga9  1  0.14837640  0.34975523  0.25000000  1
  Ga  Ga10  1  0.64837640  0.15024477  0.75000000  1
  Ga  Ga11  1  0.85162360  0.65024477  0.75000000  1
  Ga  Ga12  1  0.86463074  0.67962097  0.25000000  1
  Ga  Ga13  1  0.63536926  0.17962097  0.25000000  1
  Ga  Ga14  1  0.13536926  0.32037903  0.75000000  1
  Ga  Ga15  1  0.36463074  0.82037903  0.75000000  1
  Bi  Bi16  1  0.17029900  0.67827901  0.01796248  1
  Bi  Bi17  1  0.32970100  0.17827901  0.48203752  1
  Bi  Bi18  1  0.82970100  0.32172099  0.51796248  1
  Bi  Bi19  1  0.67029900  0.82172099  0.98203752  1
  Bi  Bi20  1  0.82970100  0.32172099  0.98203752  1
  Bi  Bi21  1  0.67029900  0.82172099  0.51796248  1
  Bi  Bi22  1  0.17029900  0.67827901  0.48203752  1
  Bi  Bi23  1  0.32970100  0.17827901  0.01796248  1
  O  O24  1  0.15574374  0.93906935  0.00871801  1
  O  O25  1  0.34425626  0.43906935  0.49128199  1
  O  O26  1  0.84425626  0.06093065  0.50871801  1
  O  O27  1  0.65574374  0.56093065  0.99128199  1
  O  O28  1  0.84425626  0.06093065  0.99128199  1
  O  O29  1  0.65574374  0.56093065  0.50871801  1
  O  O30  1  0.15574374  0.93906935  0.49128199  1
  O  O31  1  0.34425626  0.43906935  0.00871801  1
  O  O32  1  0.11726653  0.90104375  0.25000000  1
  O  O33  1  0.38273347  0.40104375  0.25000000  1
  O  O34  1  0.88273347  0.09895625  0.75000000  1
  O  O35  1  0.61726653  0.59895625  0.75000000  1
  O  O36  1  0.65453711  0.57984585  0.25000000  1
  O  O37  1  0.84546289  0.07984585  0.25000000  1
  O  O38  1  0.34546289  0.42015415  0.75000000  1
  O  O39  1  0.15453711  0.92015415  0.75000000  1
  O  O40  1  0.39541683  0.72098909  0.12439365  1
  O  O41  1  0.10458317  0.22098909  0.37560635  1
  O  O42  1  0.60458317  0.27901091  0.62439365  1
  O  O43  1  0.89541683  0.77901091  0.87560635  1
  O  O44  1  0.60458317  0.27901091  0.87560635  1
  O  O45  1  0.89541683  0.77901091  0.62439365  1
  O  O46  1  0.39541683  0.72098909  0.37560635  1
  O  O47  1  0.10458317  0.22098909  0.12439365  1
  O  O48  1  0.85920858  0.79755539  0.11693609  1
  O  O49  1  0.64079142  0.29755539  0.38306391  1
  O  O50  1  0.14079142  0.20244461  0.61693609  1
  O  O51  1  0.35920858  0.70244461  0.88306391  1
  O  O52  1  0.14079142  0.20244461  0.88306391  1
  O  O53  1  0.35920858  0.70244461  0.61693609  1
  O  O54  1  0.85920858  0.79755539  0.38306391  1
  O  O55  1  0.64079142  0.29755539  0.11693609  1
  O  O56  1  0.45053353  0.04561992  0.25000000  1
  O  O57  1  0.04946647  0.54561992  0.25000000  1
  O  O58  1  0.54946647  0.95438008  0.75000000  1
  O  O59  1  0.95053353  0.45438008  0.75000000  1
