# generated using pymatgen
data_Li2Nb2(PO4)3
_symmetry_space_group_name_H-M   'P 1'
_cell_length_a   8.90114036
_cell_length_b   8.89733200
_cell_length_c   8.90114098
_cell_angle_alpha   60.38625885
_cell_angle_beta   62.12255442
_cell_angle_gamma   60.38625582
_symmetry_Int_Tables_number   1
_chemical_formula_structural   Li2Nb2(PO4)3
_chemical_formula_sum   'Li4 Nb4 P6 O24'
_cell_volume   508.99796105
_cell_formula_units_Z   2
loop_
 _symmetry_equiv_pos_site_id
 _symmetry_equiv_pos_as_xyz
  1  'x, y, z'
loop_
 _atom_site_type_symbol
 _atom_site_label
 _atom_site_symmetry_multiplicity
 _atom_site_fract_x
 _atom_site_fract_y
 _atom_site_fract_z
 _atom_site_occupancy
  Li  Li0  1  0.31509979  0.45194701  0.67737413  1
  Li  Li1  1  0.82262587  0.04805299  0.18490021  1
  Li  Li2  1  0.17737413  0.95194701  0.81509979  1
  Li  Li3  1  0.68490021  0.54805299  0.32262587  1
  Nb  Nb4  1  0.13933839  0.14203083  0.13958527  1
  Nb  Nb5  1  0.36041473  0.35796917  0.36066161  1
  Nb  Nb6  1  0.63958527  0.64203083  0.63933839  1
  Nb  Nb7  1  0.86066161  0.85796917  0.86041473  1
  P  P8  1  0.03415634  0.75000000  0.46584366  1
  P  P9  1  0.96584366  0.25000000  0.53415634  1
  P  P10  1  0.45275742  0.03692937  0.75671957  1
  P  P11  1  0.74328043  0.46307063  0.04724258  1
  P  P12  1  0.25671957  0.53692937  0.95275742  1
  P  P13  1  0.54724258  0.96307063  0.24328043  1
  O  O14  1  0.12628809  0.29773035  0.50100437  1
  O  O15  1  0.31153125  0.48861061  0.11383780  1
  O  O16  1  0.04378273  0.91310961  0.28402330  1
  O  O17  1  0.53206090  0.10904969  0.30175866  1
  O  O18  1  0.00100437  0.79773035  0.62628809  1
  O  O19  1  0.21597670  0.58689039  0.45621727  1
  O  O20  1  0.27027137  0.05488164  0.91243207  1
  O  O21  1  0.42971737  0.22908291  0.60358387  1
  O  O22  1  0.58756793  0.44511836  0.22972863  1
  O  O23  1  0.19824134  0.39095031  0.96793910  1
  O  O24  1  0.10358387  0.72908291  0.92971737  1
  O  O25  1  0.38616220  0.01138939  0.18846875  1
  O  O26  1  0.61383780  0.98861061  0.81153125  1
  O  O27  1  0.89641613  0.27091709  0.07028263  1
  O  O28  1  0.80175866  0.60904969  0.03206090  1
  O  O29  1  0.41243207  0.55488164  0.77027137  1
  O  O30  1  0.57028263  0.77091709  0.39641613  1
  O  O31  1  0.72972863  0.94511836  0.08756793  1
  O  O32  1  0.78402330  0.41310961  0.54378273  1
  O  O33  1  0.99899563  0.20226965  0.37371191  1
  O  O34  1  0.46793910  0.89095031  0.69824134  1
  O  O35  1  0.95621727  0.08689039  0.71597670  1
  O  O36  1  0.68846875  0.51138939  0.88616220  1
  O  O37  1  0.87371191  0.70226965  0.49899563  1
