# generated using pymatgen
data_K2NaAl3F12
_symmetry_space_group_name_H-M   'P 1'
_cell_length_a   7.07858527
_cell_length_b   11.43990612
_cell_length_c   12.03744422
_cell_angle_alpha   90.00000000
_cell_angle_beta   90.00000000
_cell_angle_gamma   90.00000000
_symmetry_Int_Tables_number   1
_chemical_formula_structural   K2NaAl3F12
_chemical_formula_sum   'K8 Na4 Al12 F48'
_cell_volume   974.77238260
_cell_formula_units_Z   4
loop_
 _symmetry_equiv_pos_site_id
 _symmetry_equiv_pos_as_xyz
  1  'x, y, z'
loop_
 _atom_site_type_symbol
 _atom_site_label
 _atom_site_symmetry_multiplicity
 _atom_site_fract_x
 _atom_site_fract_y
 _atom_site_fract_z
 _atom_site_occupancy
  K  K0  1  0.75000000  0.55931675  0.39512640  1
  K  K1  1  0.75000000  0.05931675  0.10487360  1
  K  K2  1  0.25000000  0.44068325  0.60487360  1
  K  K3  1  0.25000000  0.94068325  0.89512640  1
  K  K4  1  0.75000000  0.45569111  0.07373309  1
  K  K5  1  0.75000000  0.95569111  0.42626691  1
  K  K6  1  0.25000000  0.54430889  0.92626691  1
  K  K7  1  0.25000000  0.04430889  0.57373309  1
  Na  Na8  1  0.25000000  0.98640005  0.27113126  1
  Na  Na9  1  0.25000000  0.48640005  0.22886874  1
  Na  Na10  1  0.75000000  0.01359995  0.72886874  1
  Na  Na11  1  0.75000000  0.51359995  0.77113126  1
  Al  Al12  1  0.50031548  0.25266877  0.33058151  1
  Al  Al13  1  0.99968452  0.75266877  0.16941849  1
  Al  Al14  1  0.00031548  0.74733123  0.66941849  1
  Al  Al15  1  0.49968452  0.24733123  0.83058151  1
  Al  Al16  1  0.49968452  0.74733123  0.66941849  1
  Al  Al17  1  0.00031548  0.24733123  0.83058151  1
  Al  Al18  1  0.99968452  0.25266877  0.33058151  1
  Al  Al19  1  0.50031548  0.75266877  0.16941849  1
  Al  Al20  1  0.25000000  0.20666145  0.07967046  1
  Al  Al21  1  0.25000000  0.70666145  0.42032954  1
  Al  Al22  1  0.75000000  0.79333855  0.92032954  1
  Al  Al23  1  0.75000000  0.29333855  0.57967046  1
  F  F24  1  0.56212269  0.30064909  0.47239082  1
  F  F25  1  0.93787731  0.80064909  0.02760918  1
  F  F26  1  0.06212269  0.69935091  0.52760918  1
  F  F27  1  0.43787731  0.19935091  0.97239082  1
  F  F28  1  0.43787731  0.69935091  0.52760918  1
  F  F29  1  0.06212269  0.19935091  0.97239082  1
  F  F30  1  0.93787731  0.30064909  0.47239082  1
  F  F31  1  0.56212269  0.80064909  0.02760918  1
  F  F32  1  0.75000000  0.21098086  0.30116994  1
  F  F33  1  0.75000000  0.71098086  0.19883006  1
  F  F34  1  0.25000000  0.78901914  0.69883006  1
  F  F35  1  0.25000000  0.28901914  0.80116994  1
  F  F36  1  0.53943078  0.39611167  0.27859335  1
  F  F37  1  0.96056922  0.89611167  0.22140665  1
  F  F38  1  0.03943078  0.60388833  0.72140665  1
  F  F39  1  0.46056922  0.10388833  0.77859335  1
  F  F40  1  0.46056922  0.60388833  0.72140665  1
  F  F41  1  0.03943078  0.10388833  0.77859335  1
  F  F42  1  0.96056922  0.39611167  0.27859335  1
  F  F43  1  0.53943078  0.89611167  0.22140665  1
  F  F44  1  0.25000000  0.29177445  0.35734029  1
  F  F45  1  0.25000000  0.79177445  0.14265971  1
  F  F46  1  0.75000000  0.70822555  0.64265971  1
  F  F47  1  0.75000000  0.20822555  0.85734029  1
  F  F48  1  0.45760969  0.10823459  0.37905321  1
  F  F49  1  0.04239031  0.60823459  0.12094679  1
  F  F50  1  0.95760969  0.89176541  0.62094679  1
  F  F51  1  0.54239031  0.39176541  0.87905321  1
  F  F52  1  0.54239031  0.89176541  0.62094679  1
  F  F53  1  0.95760969  0.39176541  0.87905321  1
  F  F54  1  0.04239031  0.10823459  0.37905321  1
  F  F55  1  0.45760969  0.60823459  0.12094679  1
  F  F56  1  0.44006303  0.20460916  0.18716650  1
  F  F57  1  0.05993697  0.70460916  0.31283350  1
  F  F58  1  0.94006303  0.79539084  0.81283350  1
  F  F59  1  0.55993697  0.29539084  0.68716650  1
  F  F60  1  0.55993697  0.79539084  0.81283350  1
  F  F61  1  0.94006303  0.29539084  0.68716650  1
  F  F62  1  0.05993697  0.20460916  0.18716650  1
  F  F63  1  0.44006303  0.70460916  0.31283350  1
  F  F64  1  0.25000000  0.36046773  0.07797928  1
  F  F65  1  0.25000000  0.86046773  0.42202072  1
  F  F66  1  0.75000000  0.63953227  0.92202072  1
  F  F67  1  0.75000000  0.13953227  0.57797928  1
  F  F68  1  0.25000000  0.05183469  0.08591585  1
  F  F69  1  0.25000000  0.55183469  0.41408415  1
  F  F70  1  0.75000000  0.94816531  0.91408415  1
  F  F71  1  0.75000000  0.44816531  0.58591585  1
