# generated using pymatgen
data_V6H2Pb4Se3O26
_symmetry_space_group_name_H-M   'P 1'
_cell_length_a   7.23889896
_cell_length_b   7.39455798
_cell_length_c   21.97576843
_cell_angle_alpha   89.59607474
_cell_angle_beta   97.83482090
_cell_angle_gamma   94.36350304
_symmetry_Int_Tables_number   1
_chemical_formula_structural   V6H2Pb4Se3O26
_chemical_formula_sum   'V12 H4 Pb8 Se6 O52'
_cell_volume   1161.96375026
_cell_formula_units_Z   2
loop_
 _symmetry_equiv_pos_site_id
 _symmetry_equiv_pos_as_xyz
  1  'x, y, z'
loop_
 _atom_site_type_symbol
 _atom_site_label
 _atom_site_symmetry_multiplicity
 _atom_site_fract_x
 _atom_site_fract_y
 _atom_site_fract_z
 _atom_site_occupancy
  V  V0  1  0.92140981  0.70165608  0.30461726  1
  V  V1  1  0.07859019  0.29834392  0.69538274  1
  V  V2  1  0.12966790  0.69750975  0.18991092  1
  V  V3  1  0.87033210  0.30249025  0.81008908  1
  V  V4  1  0.87781474  0.32276886  0.39093104  1
  V  V5  1  0.12218526  0.67723114  0.60906896  1
  V  V6  1  0.95922685  0.32821077  0.10557803  1
  V  V7  1  0.04077315  0.67178923  0.89442197  1
  V  V8  1  0.42310183  0.63712524  0.30954105  1
  V  V9  1  0.57689817  0.36287476  0.69045895  1
  V  V10  1  0.61966086  0.64039658  0.18750070  1
  V  V11  1  0.38033914  0.35960342  0.81249930  1
  H  H12  1  0.63701175  0.18637947  0.26070989  1
  H  H13  1  0.36298825  0.81362053  0.73929011  1
  H  H14  1  0.41884541  0.13265947  0.24994075  1
  H  H15  1  0.58115459  0.86734053  0.75005925  1
  Pb  Pb16  1  0.46366118  0.11716724  0.11866198  1
  Pb  Pb17  1  0.53633882  0.88283276  0.88133802  1
  Pb  Pb18  1  0.35927977  0.11461237  0.38918812  1
  Pb  Pb19  1  0.64072023  0.88538763  0.61081188  1
  Pb  Pb20  1  0.16154887  0.16562673  0.95204241  1
  Pb  Pb21  1  0.83845113  0.83437327  0.04795759  1
  Pb  Pb22  1  0.80308848  0.82399765  0.44674024  1
  Pb  Pb23  1  0.19691152  0.17600235  0.55325976  1
  Se  Se24  1  0.67114503  0.31562681  0.97543757  1
  Se  Se25  1  0.32885497  0.68437319  0.02456243  1
  Se  Se26  1  0.30289024  0.67289902  0.47574976  1
  Se  Se27  1  0.69710976  0.32710098  0.52425024  1
  Se  Se28  1  0.00203272  0.18212066  0.24887524  1
  Se  Se29  1  0.99796728  0.81787934  0.75112476  1
  O  O30  1  0.48244095  0.79913919  0.36550633  1
  O  O31  1  0.51755905  0.20086081  0.63449367  1
  O  O32  1  0.80775961  0.13888856  0.11070332  1
  O  O33  1  0.19224039  0.86111144  0.88929668  1
  O  O34  1  0.47686575  0.24882583  0.01039559  1
  O  O35  1  0.52313425  0.75117417  0.98960441  1
  O  O36  1  0.58960750  0.79694778  0.12913131  1
  O  O37  1  0.41039250  0.20305222  0.87086869  1
  O  O38  1  0.78002731  0.11769554  0.97180310  1
  O  O39  1  0.21997269  0.88230446  0.02819690  1
  O  O40  1  0.52907411  0.74525591  0.50681503  1
  O  O41  1  0.47092589  0.25474409  0.49318497  1
  O  O42  1  0.21387491  0.56084851  0.53915090  1
  O  O43  1  0.78612509  0.43915149  0.46084910  1
  O  O44  1  0.17243863  0.91148497  0.17092068  1
  O  O45  1  0.82756137  0.08851503  0.82907932  1
  O  O46  1  0.13414464  0.25124317  0.07277765  1
  O  O47  1  0.86585536  0.74875683  0.92722235  1
  O  O48  1  0.70484425  0.15307880  0.38652898  1
  O  O49  1  0.29515575  0.84692120  0.61347102  1
  O  O50  1  0.62613532  0.43814915  0.15552610  1
  O  O51  1  0.37386468  0.56185085  0.84447390  1
  O  O52  1  0.92820945  0.91366273  0.32826868  1
  O  O53  1  0.07179055  0.08633727  0.67173132  1
  O  O54  1  0.07102181  0.23900157  0.42828051  1
  O  O55  1  0.92897819  0.76099843  0.57171949  1
  O  O56  1  0.18984392  0.87068482  0.47028403  1
  O  O57  1  0.81015608  0.12931518  0.52971597  1
  O  O58  1  0.88350589  0.70541752  0.21362316  1
  O  O59  1  0.11649411  0.29458248  0.78637684  1
  O  O60  1  0.65980973  0.64124192  0.27980343  1
  O  O61  1  0.34019027  0.35875808  0.72019657  1
  O  O62  1  0.91604478  0.32315807  0.30222120  1
  O  O63  1  0.08395522  0.67684193  0.69777880  1
  O  O64  1  0.04795455  0.35085557  0.19373202  1
  O  O65  1  0.95204545  0.64914443  0.80626798  1
  O  O66  1  0.81288968  0.43689220  0.03745396  1
  O  O67  1  0.18711032  0.56310780  0.96254604  1
  O  O68  1  0.22272922  0.15497132  0.28132873  1
  O  O69  1  0.77727078  0.84502868  0.71867127  1
  O  O70  1  0.92192955  0.58583127  0.37600869  1
  O  O71  1  0.07807045  0.41416873  0.62399131  1
  O  O72  1  0.04582211  0.59734644  0.11767254  1
  O  O73  1  0.95417789  0.40265356  0.88232746  1
  O  O74  1  0.16491299  0.68256116  0.28507964  1
  O  O75  1  0.83508701  0.31743884  0.71492036  1
  O  O76  1  0.37505647  0.62614470  0.21238381  1
  O  O77  1  0.62494353  0.37385530  0.78761619  1
  O  O78  1  0.41888819  0.44128834  0.34649494  1
  O  O79  1  0.58111181  0.55871166  0.65350506  1
  O  O80  1  0.54049996  0.10574537  0.23665729  1
  O  O81  1  0.45950004  0.89425463  0.76334271  1
