# generated using pymatgen
data_CuP4Se3Cl
_symmetry_space_group_name_H-M   'P 1'
_cell_length_a   6.55557565
_cell_length_b   11.62907497
_cell_length_c   12.52175762
_cell_angle_alpha   90.00000000
_cell_angle_beta   101.04629509
_cell_angle_gamma   90.00000000
_symmetry_Int_Tables_number   1
_chemical_formula_structural   CuP4Se3Cl
_chemical_formula_sum   'Cu4 P16 Se12 Cl4'
_cell_volume   936.91354117
_cell_formula_units_Z   4
loop_
 _symmetry_equiv_pos_site_id
 _symmetry_equiv_pos_as_xyz
  1  'x, y, z'
loop_
 _atom_site_type_symbol
 _atom_site_label
 _atom_site_symmetry_multiplicity
 _atom_site_fract_x
 _atom_site_fract_y
 _atom_site_fract_z
 _atom_site_occupancy
  Cu  Cu0  1  0.26085378  0.85709049  0.98373669  1
  Cu  Cu1  1  0.23914622  0.35709049  0.01626331  1
  Cu  Cu2  1  0.73914622  0.14290951  0.01626331  1
  Cu  Cu3  1  0.76085378  0.64290951  0.98373669  1
  P  P4  1  0.27124619  0.03268599  0.40638279  1
  P  P5  1  0.22875381  0.53268599  0.59361721  1
  P  P6  1  0.72875381  0.96731401  0.59361721  1
  P  P7  1  0.77124619  0.46731401  0.40638279  1
  P  P8  1  0.20227528  0.93120839  0.14280097  1
  P  P9  1  0.29772472  0.43120839  0.85719903  1
  P  P10  1  0.79772472  0.06879161  0.85719903  1
  P  P11  1  0.70227528  0.56879161  0.14280097  1
  P  P12  1  0.94754948  0.85797957  0.21989968  1
  P  P13  1  0.55245052  0.35797957  0.78010032  1
  P  P14  1  0.05245052  0.14202043  0.78010032  1
  P  P15  1  0.44754948  0.64202043  0.21989968  1
  P  P16  1  0.93135093  0.04212492  0.15818434  1
  P  P17  1  0.56864907  0.54212492  0.84181566  1
  P  P18  1  0.06864907  0.95787508  0.84181566  1
  P  P19  1  0.43135093  0.45787508  0.15818434  1
  Se  Se20  1  0.03952902  0.15392306  0.30540683  1
  Se  Se21  1  0.46047098  0.65392306  0.69459317  1
  Se  Se22  1  0.96047098  0.84607694  0.69459317  1
  Se  Se23  1  0.53952902  0.34607694  0.30540683  1
  Se  Se24  1  0.46233615  0.98154487  0.28074776  1
  Se  Se25  1  0.03766385  0.48154487  0.71925224  1
  Se  Se26  1  0.53766385  0.01845513  0.71925224  1
  Se  Se27  1  0.96233615  0.51845513  0.28074776  1
  Se  Se28  1  0.07037073  0.87129643  0.40074069  1
  Se  Se29  1  0.42962927  0.37129643  0.59925931  1
  Se  Se30  1  0.92962927  0.12870357  0.59925931  1
  Se  Se31  1  0.57037073  0.62870357  0.40074069  1
  Cl  Cl32  1  0.10422294  0.67269451  0.97319110  1
  Cl  Cl33  1  0.39577706  0.17269451  0.02680890  1
  Cl  Cl34  1  0.89577706  0.32730549  0.02680890  1
  Cl  Cl35  1  0.60422294  0.82730549  0.97319110  1
