# generated using pymatgen
data_NbP4Se3Cl5
_symmetry_space_group_name_H-M   'P 1'
_cell_length_a   12.75470090
_cell_length_b   13.69048991
_cell_length_c   19.42623004
_cell_angle_alpha   90.00000000
_cell_angle_beta   90.00000000
_cell_angle_gamma   89.99687165
_symmetry_Int_Tables_number   1
_chemical_formula_structural   NbP4Se3Cl5
_chemical_formula_sum   'Nb8 P32 Se24 Cl40'
_cell_volume   3392.17145191
_cell_formula_units_Z   8
loop_
 _symmetry_equiv_pos_site_id
 _symmetry_equiv_pos_as_xyz
  1  'x, y, z'
loop_
 _atom_site_type_symbol
 _atom_site_label
 _atom_site_symmetry_multiplicity
 _atom_site_fract_x
 _atom_site_fract_y
 _atom_site_fract_z
 _atom_site_occupancy
  Nb  Nb0  1  0.66402700  0.57304122  0.23918633  1
  Nb  Nb1  1  0.33597300  0.92695878  0.73918633  1
  Nb  Nb2  1  0.33597300  0.42695878  0.76081367  1
  Nb  Nb3  1  0.66402700  0.07304122  0.26081367  1
  Nb  Nb4  1  0.83579163  0.57290876  0.73906015  1
  Nb  Nb5  1  0.16420837  0.92709124  0.23906015  1
  Nb  Nb6  1  0.16420837  0.42709124  0.26093985  1
  Nb  Nb7  1  0.83579163  0.07290876  0.76093985  1
  P  P8  1  0.59120817  0.65709407  0.10870869  1
  P  P9  1  0.40879183  0.84290593  0.60870869  1
  P  P10  1  0.40879183  0.34290593  0.89129131  1
  P  P11  1  0.59120817  0.15709407  0.39129131  1
  P  P12  1  0.42689074  0.67000536  0.07016376  1
  P  P13  1  0.57310926  0.82999464  0.57016376  1
  P  P14  1  0.57310926  0.32999464  0.92983624  1
  P  P15  1  0.42689074  0.17000536  0.42983624  1
  P  P16  1  0.51890331  0.80518997  0.09826388  1
  P  P17  1  0.48109669  0.69481003  0.59826388  1
  P  P18  1  0.48109669  0.19481003  0.90173612  1
  P  P19  1  0.51890331  0.30518997  0.40173612  1
  P  P20  1  0.60517705  0.71995511  0.93903949  1
  P  P21  1  0.39482295  0.78004489  0.43903949  1
  P  P22  1  0.39482295  0.28004489  0.06096051  1
  P  P23  1  0.60517705  0.21995511  0.56096051  1
  P  P24  1  0.90872193  0.65732191  0.60863365  1
  P  P25  1  0.09127807  0.84267809  0.10863365  1
  P  P26  1  0.09127807  0.34267809  0.39136635  1
  P  P27  1  0.90872193  0.15732191  0.89136635  1
  P  P28  1  0.07304662  0.66997424  0.57008286  1
  P  P29  1  0.92695338  0.83002576  0.07008286  1
  P  P30  1  0.92695338  0.33002576  0.42991714  1
  P  P31  1  0.07304662  0.16997424  0.92991714  1
  P  P32  1  0.98106989  0.80534468  0.59814127  1
  P  P33  1  0.01893011  0.69465532  0.09814127  1
  P  P34  1  0.01893011  0.19465532  0.40185873  1
  P  P35  1  0.98106989  0.30534468  0.90185873  1
  P  P36  1  0.89467605  0.71990103  0.43893443  1
  P  P37  1  0.10532395  0.78009897  0.93893443  1
  P  P38  1  0.10532395  0.28009897  0.56106557  1
  P  P39  1  0.89467605  0.21990103  0.06106557  1
  Se  Se40  1  0.69843578  0.63379442  0.01798447  1
  Se  Se41  1  0.30156422  0.86620558  0.51798447  1
  Se  Se42  1  0.30156422  0.36620558  0.98201553  1
  Se  Se43  1  0.69843578  0.13379442  0.48201553  1
  Se  Se44  1  0.44346890  0.65243218  0.95547926  1
  Se  Se45  1  0.55653110  0.84756782  0.45547926  1
  Se  Se46  1  0.55653110  0.34756782  0.04452074  1
  Se  Se47  1  0.44346890  0.15243218  0.54452074  1
  Se  Se48  1  0.58422743  0.86244313  0.99801016  1
  Se  Se49  1  0.41577257  0.63755687  0.49801016  1
  Se  Se50  1  0.41577257  0.13755687  0.00198984  1
  Se  Se51  1  0.58422743  0.36244313  0.50198984  1
  Se  Se52  1  0.80156750  0.63368502  0.51793979  1
  Se  Se53  1  0.19843250  0.86631498  0.01793979  1
  Se  Se54  1  0.19843250  0.36631498  0.48206021  1
  Se  Se55  1  0.80156750  0.13368502  0.98206021  1
  Se  Se56  1  0.05652727  0.65260654  0.45536404  1
  Se  Se57  1  0.94347273  0.84739346  0.95536404  1
  Se  Se58  1  0.94347273  0.34739346  0.54463596  1
  Se  Se59  1  0.05652727  0.15260654  0.04463596  1
  Se  Se60  1  0.91561269  0.86247546  0.49790712  1
  Se  Se61  1  0.08438731  0.63752454  0.99790712  1
  Se  Se62  1  0.08438731  0.13752454  0.50209288  1
  Se  Se63  1  0.91561269  0.36247546  0.00209288  1
  Cl  Cl64  1  0.72380572  0.51228409  0.34192094  1
  Cl  Cl65  1  0.27619428  0.98771591  0.84192094  1
  Cl  Cl66  1  0.27619428  0.48771591  0.65807906  1
  Cl  Cl67  1  0.72380572  0.01228409  0.15807906  1
  Cl  Cl68  1  0.53931303  0.45233609  0.21416392  1
  Cl  Cl69  1  0.46068697  0.04766391  0.71416392  1
  Cl  Cl70  1  0.46068697  0.54766391  0.78583608  1
  Cl  Cl71  1  0.53931303  0.95233609  0.28583608  1
  Cl  Cl72  1  0.78163207  0.49171570  0.16557414  1
  Cl  Cl73  1  0.21836793  0.00828430  0.66557414  1
  Cl  Cl74  1  0.21836793  0.50828430  0.83442586  1
  Cl  Cl75  1  0.78163207  0.99171570  0.33442586  1
  Cl  Cl76  1  0.77021719  0.71255841  0.23283897  1
  Cl  Cl77  1  0.22978281  0.78744159  0.73283897  1
  Cl  Cl78  1  0.22978281  0.28744159  0.76716103  1
  Cl  Cl79  1  0.77021719  0.21255841  0.26716103  1
  Cl  Cl80  1  0.52681934  0.67181314  0.27974776  1
  Cl  Cl81  1  0.47318066  0.82818686  0.77974776  1
  Cl  Cl82  1  0.47318066  0.32818686  0.72025224  1
  Cl  Cl83  1  0.52681934  0.17181314  0.22025224  1
  Cl  Cl84  1  0.77634088  0.51213035  0.84182709  1
  Cl  Cl85  1  0.22365912  0.98786965  0.34182709  1
  Cl  Cl86  1  0.22365912  0.48786965  0.15817291  1
  Cl  Cl87  1  0.77634088  0.01213035  0.65817291  1
  Cl  Cl88  1  0.96080221  0.45243279  0.71440277  1
  Cl  Cl89  1  0.03919779  0.04756721  0.21440277  1
  Cl  Cl90  1  0.03919779  0.54756721  0.28559723  1
  Cl  Cl91  1  0.96080221  0.95243279  0.78559723  1
  Cl  Cl92  1  0.71835848  0.49150724  0.66539860  1
  Cl  Cl93  1  0.28164152  0.00849276  0.16539860  1
  Cl  Cl94  1  0.28164152  0.50849276  0.33460140  1
  Cl  Cl95  1  0.71835848  0.99150724  0.83460140  1
  Cl  Cl96  1  0.72965915  0.71239483  0.73256460  1
  Cl  Cl97  1  0.27034085  0.78760517  0.23256460  1
  Cl  Cl98  1  0.27034085  0.28760517  0.26743540  1
  Cl  Cl99  1  0.72965915  0.21239483  0.76743540  1
  Cl  Cl100  1  0.97294668  0.67180214  0.77941211  1
  Cl  Cl101  1  0.02705332  0.82819786  0.27941211  1
  Cl  Cl102  1  0.02705332  0.32819786  0.22058789  1
  Cl  Cl103  1  0.97294668  0.17180214  0.72058789  1
