# generated using pymatgen
data_Ti2Cr3Sb3O16
_symmetry_space_group_name_H-M   'P 1'
_cell_length_a   6.09592329
_cell_length_b   6.11115264
_cell_length_c   9.10620858
_cell_angle_alpha   90.00068469
_cell_angle_beta   90.37279240
_cell_angle_gamma   120.08353721
_symmetry_Int_Tables_number   1
_chemical_formula_structural   Ti2Cr3Sb3O16
_chemical_formula_sum   'Ti2 Cr3 Sb3 O16'
_cell_volume   293.52990551
_cell_formula_units_Z   1
loop_
 _symmetry_equiv_pos_site_id
 _symmetry_equiv_pos_as_xyz
  1  'x, y, z'
loop_
 _atom_site_type_symbol
 _atom_site_label
 _atom_site_symmetry_multiplicity
 _atom_site_fract_x
 _atom_site_fract_y
 _atom_site_fract_z
 _atom_site_occupancy
  Ti  Ti0  1  0.29931131  0.64966462  0.47640925  1
  Ti  Ti1  1  0.64470375  0.32235542  0.00572655  1
  Cr  Cr2  1  0.16937821  0.83263542  0.20904652  1
  Cr  Cr3  1  0.16936686  0.33673986  0.20903765  1
  Cr  Cr4  1  0.34300624  0.17152400  0.71002053  1
  Sb  Sb5  1  0.66600231  0.83299918  0.21066514  1
  Sb  Sb6  1  0.83794171  0.17091343  0.71236555  1
  Sb  Sb7  1  0.83795099  0.66705855  0.71236676  1
  O  O8  1  0.16489166  0.82829975  0.60029979  1
  O  O9  1  0.04542063  0.52271397  0.33895312  1
  O  O10  1  0.33710124  0.66855520  0.10119571  1
  O  O11  1  0.99951625  0.99976373  0.31088810  1
  O  O12  1  0.00714498  0.00359059  0.82010924  1
  O  O13  1  0.16489147  0.33662339  0.60030383  1
  O  O14  1  0.47443727  0.94879521  0.34427234  1
  O  O15  1  0.47441291  0.52564033  0.34426664  1
  O  O16  1  0.34446391  0.17223713  0.09995632  1
  O  O17  1  0.67133550  0.83567537  0.60160038  1
  O  O18  1  0.53143049  0.47877346  0.83857344  1
  O  O19  1  0.53141719  0.05267995  0.83856823  1
  O  O20  1  0.67152258  0.33577180  0.59409033  1
  O  O21  1  0.82365177  0.65528460  0.09828174  1
  O  O22  1  0.96706314  0.48354572  0.84044682  1
  O  O23  1  0.82363662  0.16836131  0.09827401  1
