# generated using pymatgen
data_Ni2BiB(PO5)2
_symmetry_space_group_name_H-M   'P 1'
_cell_length_a   5.10644038
_cell_length_b   6.38357990
_cell_length_c   11.34821491
_cell_angle_alpha   90.00000000
_cell_angle_beta   90.00000000
_cell_angle_gamma   107.04343915
_symmetry_Int_Tables_number   1
_chemical_formula_structural   Ni2BiB(PO5)2
_chemical_formula_sum   'Ni4 Bi2 B2 P4 O20'
_cell_volume   353.67603180
_cell_formula_units_Z   2
loop_
 _symmetry_equiv_pos_site_id
 _symmetry_equiv_pos_as_xyz
  1  'x, y, z'
loop_
 _atom_site_type_symbol
 _atom_site_label
 _atom_site_symmetry_multiplicity
 _atom_site_fract_x
 _atom_site_fract_y
 _atom_site_fract_z
 _atom_site_occupancy
  Ni  Ni0  1  0.64995637  0.66504584  0.60528882  1
  Ni  Ni1  1  0.35004363  0.33495416  0.10528882  1
  Ni  Ni2  1  0.35004363  0.33495416  0.39471118  1
  Ni  Ni3  1  0.64995637  0.66504584  0.89471118  1
  Bi  Bi4  1  0.24962628  0.94410873  0.75000000  1
  Bi  Bi5  1  0.75037372  0.05589127  0.25000000  1
  B  B6  1  0.05896087  0.48793803  0.75000000  1
  B  B7  1  0.94103913  0.51206197  0.25000000  1
  P  P8  1  0.79280133  0.21338481  0.56443096  1
  P  P9  1  0.20719867  0.78661519  0.06443096  1
  P  P10  1  0.20719867  0.78661519  0.43556904  1
  P  P11  1  0.79280133  0.21338481  0.93556904  1
  O  O12  1  0.03197231  0.34454293  0.64475038  1
  O  O13  1  0.96802769  0.65545707  0.14475038  1
  O  O14  1  0.96802769  0.65545707  0.35524962  1
  O  O15  1  0.03197231  0.34454293  0.85524962  1
  O  O16  1  0.64519577  0.99154634  0.62539940  1
  O  O17  1  0.35480423  0.00845366  0.12539940  1
  O  O18  1  0.35480423  0.00845366  0.37460060  1
  O  O19  1  0.64519577  0.99154634  0.87460060  1
  O  O20  1  0.92935192  0.18021986  0.44835341  1
  O  O21  1  0.07064808  0.81978014  0.94835341  1
  O  O22  1  0.07064808  0.81978014  0.55164659  1
  O  O23  1  0.92935192  0.18021986  0.05164659  1
  O  O24  1  0.58263733  0.34469849  0.54927690  1
  O  O25  1  0.41736267  0.65530151  0.04927690  1
  O  O26  1  0.41736267  0.65530151  0.45072310  1
  O  O27  1  0.58263733  0.34469849  0.95072310  1
  O  O28  1  0.87108117  0.62540116  0.75000000  1
  O  O29  1  0.12891883  0.37459884  0.25000000  1
  O  O30  1  0.34492275  0.63471562  0.75000000  1
  O  O31  1  0.65507725  0.36528438  0.25000000  1
