# generated using pymatgen
data_Ba20Cd4Hg99
_symmetry_space_group_name_H-M   'P 1'
_cell_length_a   17.19436629
_cell_length_b   17.19436629
_cell_length_c   17.19436629
_cell_angle_alpha   60.00000000
_cell_angle_beta   60.00000000
_cell_angle_gamma   60.00000000
_symmetry_Int_Tables_number   1
_chemical_formula_structural   Ba20Cd4Hg99
_chemical_formula_sum   'Ba20 Cd4 Hg99'
_cell_volume   3594.54168744
_cell_formula_units_Z   1
loop_
 _symmetry_equiv_pos_site_id
 _symmetry_equiv_pos_as_xyz
  1  'x, y, z'
loop_
 _atom_site_type_symbol
 _atom_site_label
 _atom_site_symmetry_multiplicity
 _atom_site_fract_x
 _atom_site_fract_y
 _atom_site_fract_z
 _atom_site_occupancy
  Ba  Ba0  1  0.78725362  0.40424879  0.40424879  1
  Ba  Ba1  1  0.40424879  0.78725362  0.40424879  1
  Ba  Ba2  1  0.40424879  0.40424879  0.78725362  1
  Ba  Ba3  1  0.40424879  0.40424879  0.40424879  1
  Ba  Ba4  1  0.52709070  0.15763643  0.15763643  1
  Ba  Ba5  1  0.15763643  0.52709070  0.15763643  1
  Ba  Ba6  1  0.15763643  0.15763643  0.52709070  1
  Ba  Ba7  1  0.15763643  0.15763643  0.15763643  1
  Ba  Ba8  1  0.18404649  0.81595351  0.81595351  1
  Ba  Ba9  1  0.18404649  0.81595351  0.18404649  1
  Ba  Ba10  1  0.18404649  0.18404649  0.81595351  1
  Ba  Ba11  1  0.81595351  0.18404649  0.18404649  1
  Ba  Ba12  1  0.81595351  0.18404649  0.81595351  1
  Ba  Ba13  1  0.81595351  0.81595351  0.18404649  1
  Ba  Ba14  1  0.55335349  0.94664651  0.94664651  1
  Ba  Ba15  1  0.55335349  0.94664651  0.55335349  1
  Ba  Ba16  1  0.55335349  0.55335349  0.94664651  1
  Ba  Ba17  1  0.94664651  0.55335349  0.55335349  1
  Ba  Ba18  1  0.94664651  0.55335349  0.94664651  1
  Ba  Ba19  1  0.94664651  0.94664651  0.55335349  1
  Cd  Cd20  1  0.37174248  0.87608584  0.87608584  1
  Cd  Cd21  1  0.87608584  0.37174248  0.87608584  1
  Cd  Cd22  1  0.87608584  0.87608584  0.37174248  1
  Cd  Cd23  1  0.87608584  0.87608584  0.87608584  1
  Hg  Hg24  1  0.89203749  0.17410073  0.58115806  1
  Hg  Hg25  1  0.89203749  0.58115806  0.35270371  1
  Hg  Hg26  1  0.89203749  0.35270371  0.17410073  1
  Hg  Hg27  1  0.89203749  0.17410073  0.35270371  1
  Hg  Hg28  1  0.89203749  0.58115806  0.17410073  1
  Hg  Hg29  1  0.89203749  0.35270371  0.58115806  1
  Hg  Hg30  1  0.17410073  0.89203749  0.35270371  1
  Hg  Hg31  1  0.58115806  0.89203749  0.17410073  1
  Hg  Hg32  1  0.35270371  0.89203749  0.58115806  1
  Hg  Hg33  1  0.17410073  0.89203749  0.58115806  1
  Hg  Hg34  1  0.58115806  0.89203749  0.35270371  1
  Hg  Hg35  1  0.35270371  0.89203749  0.17410073  1
  Hg  Hg36  1  0.58115806  0.35270371  0.89203749  1
  Hg  Hg37  1  0.35270371  0.17410073  0.89203749  1
  Hg  Hg38  1  0.17410073  0.58115806  0.89203749  1
  Hg  Hg39  1  0.35270371  0.58115806  0.89203749  1
  Hg  Hg40  1  0.17410073  0.35270371  0.89203749  1
  Hg  Hg41  1  0.58115806  0.17410073  0.89203749  1
  Hg  Hg42  1  0.35270371  0.58115806  0.17410073  1
  Hg  Hg43  1  0.17410073  0.35270371  0.58115806  1
  Hg  Hg44  1  0.58115806  0.17410073  0.35270371  1
  Hg  Hg45  1  0.58115806  0.35270371  0.17410073  1
  Hg  Hg46  1  0.35270371  0.17410073  0.58115806  1
  Hg  Hg47  1  0.17410073  0.58115806  0.35270371  1
  Hg  Hg48  1  0.03140221  0.20481936  0.38188922  1
  Hg  Hg49  1  0.03140221  0.38188922  0.38188922  1
  Hg  Hg50  1  0.03140221  0.38188922  0.20481936  1
  Hg  Hg51  1  0.20481936  0.03140221  0.38188922  1
  Hg  Hg52  1  0.38188922  0.03140221  0.20481936  1
  Hg  Hg53  1  0.38188922  0.03140221  0.38188922  1
  Hg  Hg54  1  0.38188922  0.38188922  0.03140221  1
  Hg  Hg55  1  0.38188922  0.20481936  0.03140221  1
  Hg  Hg56  1  0.20481936  0.38188922  0.03140221  1
  Hg  Hg57  1  0.38188922  0.38188922  0.20481936  1
  Hg  Hg58  1  0.20481936  0.38188922  0.38188922  1
  Hg  Hg59  1  0.38188922  0.20481936  0.38188922  1
  Hg  Hg60  1  0.28878467  0.70114403  0.00503565  1
  Hg  Hg61  1  0.28878467  0.00503565  0.00503565  1
  Hg  Hg62  1  0.28878467  0.00503565  0.70114403  1
  Hg  Hg63  1  0.70114403  0.28878467  0.00503565  1
  Hg  Hg64  1  0.00503565  0.28878467  0.70114403  1
  Hg  Hg65  1  0.00503565  0.28878467  0.00503565  1
  Hg  Hg66  1  0.00503565  0.00503565  0.28878467  1
  Hg  Hg67  1  0.00503565  0.70114403  0.28878467  1
  Hg  Hg68  1  0.70114403  0.00503565  0.28878467  1
  Hg  Hg69  1  0.00503565  0.00503565  0.70114403  1
  Hg  Hg70  1  0.70114403  0.00503565  0.00503565  1
  Hg  Hg71  1  0.00503565  0.70114403  0.00503565  1
  Hg  Hg72  1  0.73123311  0.17619727  0.54628481  1
  Hg  Hg73  1  0.73123311  0.54628481  0.54628481  1
  Hg  Hg74  1  0.73123311  0.54628481  0.17619727  1
  Hg  Hg75  1  0.17619727  0.73123311  0.54628481  1
  Hg  Hg76  1  0.54628481  0.73123311  0.17619727  1
  Hg  Hg77  1  0.54628481  0.73123311  0.54628481  1
  Hg  Hg78  1  0.54628481  0.54628481  0.73123311  1
  Hg  Hg79  1  0.54628481  0.17619727  0.73123311  1
  Hg  Hg80  1  0.17619727  0.54628481  0.73123311  1
  Hg  Hg81  1  0.54628481  0.54628481  0.17619727  1
  Hg  Hg82  1  0.17619727  0.54628481  0.54628481  1
  Hg  Hg83  1  0.54628481  0.17619727  0.54628481  1
  Hg  Hg84  1  0.60350055  0.79883315  0.79883315  1
  Hg  Hg85  1  0.79883315  0.60350055  0.79883315  1
  Hg  Hg86  1  0.79883315  0.79883315  0.60350055  1
  Hg  Hg87  1  0.79883315  0.79883315  0.79883315  1
  Hg  Hg88  1  0.97855439  0.67381520  0.67381520  1
  Hg  Hg89  1  0.67381520  0.97855439  0.67381520  1
  Hg  Hg90  1  0.67381520  0.67381520  0.97855439  1
  Hg  Hg91  1  0.67381520  0.67381520  0.67381520  1
  Hg  Hg92  1  0.36256129  0.54581290  0.54581290  1
  Hg  Hg93  1  0.54581290  0.36256129  0.54581290  1
  Hg  Hg94  1  0.54581290  0.54581290  0.36256129  1
  Hg  Hg95  1  0.54581290  0.54581290  0.54581290  1
  Hg  Hg96  1  0.14810280  0.95063240  0.95063240  1
  Hg  Hg97  1  0.95063240  0.14810280  0.95063240  1
  Hg  Hg98  1  0.95063240  0.95063240  0.14810280  1
  Hg  Hg99  1  0.95063240  0.95063240  0.95063240  1
  Hg  Hg100  1  0.77914230  0.07361923  0.07361923  1
  Hg  Hg101  1  0.07361923  0.77914230  0.07361923  1
  Hg  Hg102  1  0.07361923  0.07361923  0.77914230  1
  Hg  Hg103  1  0.07361923  0.07361923  0.07361923  1
  Hg  Hg104  1  0.44016808  0.03941804  0.76020694  1
  Hg  Hg105  1  0.44016808  0.76020694  0.76020694  1
  Hg  Hg106  1  0.44016808  0.76020694  0.03941804  1
  Hg  Hg107  1  0.03941804  0.44016808  0.76020694  1
  Hg  Hg108  1  0.76020694  0.44016808  0.03941804  1
  Hg  Hg109  1  0.76020694  0.44016808  0.76020694  1
  Hg  Hg110  1  0.76020694  0.76020694  0.44016808  1
  Hg  Hg111  1  0.76020694  0.03941804  0.44016808  1
  Hg  Hg112  1  0.03941804  0.76020694  0.44016808  1
  Hg  Hg113  1  0.76020694  0.76020694  0.03941804  1
  Hg  Hg114  1  0.03941804  0.76020694  0.76020694  1
  Hg  Hg115  1  0.76020694  0.03941804  0.76020694  1
  Hg  Hg116  1  0.32527745  0.67472255  0.67472255  1
  Hg  Hg117  1  0.32527745  0.67472255  0.32527745  1
  Hg  Hg118  1  0.32527745  0.32527745  0.67472255  1
  Hg  Hg119  1  0.67472255  0.32527745  0.32527745  1
  Hg  Hg120  1  0.67472255  0.32527745  0.67472255  1
  Hg  Hg121  1  0.67472255  0.67472255  0.32527745  1
  Hg  Hg122  1  0.25000000  0.25000000  0.25000000  1
