# generated using pymatgen
data_Cs2Mo3P5O19
_symmetry_space_group_name_H-M   'P 1'
_cell_length_a   6.59654248
_cell_length_b   9.97118401
_cell_length_c   14.78462107
_cell_angle_alpha   90.00000000
_cell_angle_beta   90.00000000
_cell_angle_gamma   105.80913662
_symmetry_Int_Tables_number   1
_chemical_formula_structural   Cs2Mo3P5O19
_chemical_formula_sum   'Cs4 Mo6 P10 O38'
_cell_volume   935.67960546
_cell_formula_units_Z   2
loop_
 _symmetry_equiv_pos_site_id
 _symmetry_equiv_pos_as_xyz
  1  'x, y, z'
loop_
 _atom_site_type_symbol
 _atom_site_label
 _atom_site_symmetry_multiplicity
 _atom_site_fract_x
 _atom_site_fract_y
 _atom_site_fract_z
 _atom_site_occupancy
  Cs  Cs0  1  0.00000000  0.50000000  0.50000000  1
  Cs  Cs1  1  0.00000000  0.50000000  -0.00000000  1
  Cs  Cs2  1  0.04457485  0.86272812  0.25000000  1
  Cs  Cs3  1  0.95542515  0.13727188  0.75000000  1
  Mo  Mo4  1  0.37876769  0.53405843  0.25000000  1
  Mo  Mo5  1  0.62123231  0.46594157  0.75000000  1
  Mo  Mo6  1  0.71790890  0.14462664  0.37402968  1
  Mo  Mo7  1  0.28209110  0.85537336  0.87402968  1
  Mo  Mo8  1  0.28209110  0.85537336  0.62597032  1
  Mo  Mo9  1  0.71790890  0.14462664  0.12597032  1
  P  P10  1  0.83731447  0.44556697  0.25000000  1
  P  P11  1  0.16268553  0.55443303  0.75000000  1
  P  P12  1  0.26793165  0.23691331  0.39771926  1
  P  P13  1  0.73206835  0.76308669  0.89771926  1
  P  P14  1  0.73206835  0.76308669  0.60228074  1
  P  P15  1  0.26793165  0.23691331  0.10228074  1
  P  P16  1  0.49038207  0.21040936  0.56596758  1
  P  P17  1  0.50961793  0.78959064  0.06596758  1
  P  P18  1  0.50961793  0.78959064  0.43403242  1
  P  P19  1  0.49038207  0.21040936  0.93403242  1
  O  O20  1  0.69999082  0.54738537  0.25000000  1
  O  O21  1  0.30000918  0.45261463  0.75000000  1
  O  O22  1  0.79640308  0.35439026  0.33727046  1
  O  O23  1  0.20359692  0.64560974  0.83727046  1
  O  O24  1  0.20359692  0.64560974  0.66272954  1
  O  O25  1  0.79640308  0.35439026  0.16272954  1
  O  O26  1  0.06311079  0.54257590  0.25000000  1
  O  O27  1  0.93688921  0.45742410  0.75000000  1
  O  O28  1  0.30454206  0.37673030  0.35191968  1
  O  O29  1  0.69545794  0.62326970  0.85191968  1
  O  O30  1  0.69545794  0.62326970  0.64808032  1
  O  O31  1  0.30454206  0.37673030  0.14808032  1
  O  O32  1  0.39549134  0.13934529  0.36271808  1
  O  O33  1  0.60450866  0.86065471  0.86271808  1
  O  O34  1  0.60450866  0.86065471  0.63728192  1
  O  O35  1  0.39549134  0.13934529  0.13728192  1
  O  O36  1  0.03473274  0.15539932  0.40305142  1
  O  O37  1  0.96526726  0.84460068  0.90305142  1
  O  O38  1  0.96526726  0.84460068  0.59694858  1
  O  O39  1  0.03473274  0.15539932  0.09694858  1
  O  O40  1  0.34360482  0.27841740  0.50220986  1
  O  O41  1  0.65639518  0.72158260  0.00220986  1
  O  O42  1  0.65639518  0.72158260  0.49779014  1
  O  O43  1  0.34360482  0.27841740  0.99779014  1
  O  O44  1  0.68192175  0.20154414  0.50786953  1
  O  O45  1  0.31807825  0.79845586  0.00786953  1
  O  O46  1  0.31807825  0.79845586  0.49213047  1
  O  O47  1  0.68192175  0.20154414  0.99213047  1
  O  O48  1  0.56072319  0.30903006  0.64414067  1
  O  O49  1  0.43927681  0.69096994  0.14414067  1
  O  O50  1  0.43927681  0.69096994  0.35585933  1
  O  O51  1  0.56072319  0.30903006  0.85585933  1
  O  O52  1  0.35300194  0.06760121  0.59417643  1
  O  O53  1  0.64699806  0.93239879  0.09417643  1
  O  O54  1  0.64699806  0.93239879  0.40582357  1
  O  O55  1  0.35300194  0.06760121  0.90582357  1
  O  O56  1  0.73582365  0.10627854  0.25000000  1
  O  O57  1  0.26417635  0.89372146  0.75000000  1
