# generated using pymatgen
data_CoHgH18Br4N6Cl
_symmetry_space_group_name_H-M   'P 1'
_cell_length_a   8.16807920
_cell_length_b   12.49049001
_cell_length_c   17.20591935
_cell_angle_alpha   108.63931061
_cell_angle_beta   90.00000000
_cell_angle_gamma   90.00000000
_symmetry_Int_Tables_number   1
_chemical_formula_structural   CoHgH18Br4N6Cl
_chemical_formula_sum   'Co4 Hg4 H72 Br16 N24 Cl4'
_cell_volume   1663.33274379
_cell_formula_units_Z   4
loop_
 _symmetry_equiv_pos_site_id
 _symmetry_equiv_pos_as_xyz
  1  'x, y, z'
loop_
 _atom_site_type_symbol
 _atom_site_label
 _atom_site_symmetry_multiplicity
 _atom_site_fract_x
 _atom_site_fract_y
 _atom_site_fract_z
 _atom_site_occupancy
  Co  Co0  1  0.75533345  0.75496435  0.49340117  1
  Co  Co1  1  0.25533345  0.74503565  0.00659883  1
  Co  Co2  1  0.24466655  0.24503565  0.50659883  1
  Co  Co3  1  0.74466655  0.25496435  0.99340117  1
  Hg  Hg4  1  0.24907870  0.96044011  0.75033477  1
  Hg  Hg5  1  0.74907870  0.53955989  0.74966523  1
  Hg  Hg6  1  0.75092130  0.03955989  0.24966523  1
  Hg  Hg7  1  0.25092130  0.46044011  0.25033477  1
  H  H8  1  0.82415838  0.56973555  0.38046823  1
  H  H9  1  0.32415838  0.93026445  0.11953177  1
  H  H10  1  0.17584162  0.43026445  0.61953177  1
  H  H11  1  0.67584162  0.06973555  0.88046823  1
  H  H12  1  0.72650509  0.54239332  0.45678562  1
  H  H13  1  0.22650509  0.95760668  0.04321438  1
  H  H14  1  0.27349491  0.45760668  0.54321438  1
  H  H15  1  0.77349491  0.04239332  0.95678562  1
  H  H16  1  0.62473947  0.58324848  0.38751040  1
  H  H17  1  0.12473947  0.91675152  0.11248960  1
  H  H18  1  0.37526053  0.41675152  0.61248960  1
  H  H19  1  0.87526053  0.08324848  0.88751040  1
  H  H20  1  0.62150241  0.88595675  0.42495970  1
  H  H21  1  0.12150241  0.61404325  0.07504030  1
  H  H22  1  0.37849759  0.11404325  0.57504030  1
  H  H23  1  0.87849759  0.38595675  0.92495970  1
  H  H24  1  0.58169453  0.75395732  0.36870506  1
  H  H25  1  0.08169453  0.74604268  0.13129494  1
  H  H26  1  0.41830547  0.24604268  0.63129494  1
  H  H27  1  0.91830547  0.25395732  0.86870506  1
  H  H28  1  0.47583820  0.81577817  0.45335101  1
  H  H29  1  0.97583820  0.68422183  0.04664899  1
  H  H30  1  0.52416180  0.18422183  0.54664899  1
  H  H31  1  0.02416180  0.31577817  0.95335101  1
  H  H32  1  0.02984055  0.68185411  0.52839217  1
  H  H33  1  0.52984055  0.81814589  0.97160783  1
  H  H34  1  0.97015945  0.31814589  0.47160783  1
  H  H35  1  0.47015945  0.18185411  0.02839217  1
  H  H36  1  0.94569150  0.76204458  0.61448079  1
  H  H37  1  0.44569150  0.73795542  0.88551921  1
  H  H38  1  0.05430850  0.23795542  0.38551921  1
  H  H39  1  0.55430850  0.26204458  0.11448079  1
  H  H40  1  0.87940694  0.63231406  0.57091315  1
  H  H41  1  0.37940694  0.86768594  0.92908685  1
  H  H42  1  0.12059306  0.36768594  0.42908685  1
  H  H43  1  0.62059306  0.13231406  0.07091315  1
  H  H44  1  0.59851021  0.65344129  0.57680015  1
  H  H45  1  0.09851021  0.84655871  0.92319985  1
  H  H46  1  0.40148979  0.34655871  0.42319985  1
  H  H47  1  0.90148979  0.15344129  0.07680015  1
  H  H48  1  0.57403628  0.78953169  0.62160016  1
  H  H49  1  0.07403628  0.71046831  0.87839984  1
  H  H50  1  0.42596372  0.21046831  0.37839984  1
  H  H51  1  0.92596372  0.28953169  0.12160016  1
  H  H52  1  0.46548167  0.72391517  0.53986136  1
  H  H53  1  0.96548167  0.77608483  0.96013864  1
  H  H54  1  0.53451833  0.27608483  0.46013864  1
  H  H55  1  0.03451833  0.22391517  0.03986136  1
  H  H56  1  0.94618204  0.71553270  0.36864023  1
  H  H57  1  0.44618204  0.78446730  0.13135977  1
  H  H58  1  0.05381796  0.28446730  0.63135977  1
  H  H59  1  0.55381796  0.21553270  0.86864023  1
  H  H60  1  0.90511258  0.85131171  0.40393603  1
  H  H61  1  0.40511258  0.64868829  0.09606397  1
  H  H62  1  0.09488742  0.14868829  0.59606397  1
  H  H63  1  0.59488742  0.35131171  0.90393603  1
  H  H64  1  0.04127378  0.79905600  0.45186134  1
  H  H65  1  0.54127378  0.70094400  0.04813866  1
  H  H66  1  0.95872622  0.20094400  0.54813866  1
  H  H67  1  0.45872622  0.29905600  0.95186134  1
  H  H68  1  0.73553470  0.92822972  0.62307439  1
  H  H69  1  0.23553470  0.57177028  0.87692561  1
  H  H70  1  0.26446530  0.07177028  0.37692561  1
  H  H71  1  0.76446530  0.42822972  0.12307439  1
  H  H72  1  0.90850540  0.92998051  0.57429280  1
  H  H73  1  0.40850540  0.57001949  0.92570720  1
  H  H74  1  0.09149460  0.07001949  0.42570720  1
  H  H75  1  0.59149460  0.42998051  0.07429280  1
  H  H76  1  0.73927535  0.97004947  0.54084750  1
  H  H77  1  0.23927535  0.52995053  0.95915250  1
  H  H78  1  0.26072465  0.02995053  0.45915250  1
  H  H79  1  0.76072465  0.47004947  0.04084750  1
  Br  Br80  1  0.24167653  0.04723369  0.93659431  1
  Br  Br81  1  0.74167653  0.45276631  0.56340569  1
  Br  Br82  1  0.75832347  0.95276631  0.06340569  1
  Br  Br83  1  0.25832347  0.54723369  0.43659431  1
  Br  Br84  1  0.24342040  0.74554206  0.72685237  1
  Br  Br85  1  0.74342040  0.75445794  0.77314763  1
  Br  Br86  1  0.75657960  0.25445794  0.27314763  1
  Br  Br87  1  0.25657960  0.24554206  0.22685237  1
  Br  Br88  1  0.53531190  0.05285369  0.73724938  1
  Br  Br89  1  0.03531190  0.44714631  0.76275062  1
  Br  Br90  1  0.46468810  0.94714631  0.26275062  1
  Br  Br91  1  0.96468810  0.55285369  0.23724938  1
  Br  Br92  1  0.99974131  0.08698829  0.73929480  1
  Br  Br93  1  0.49974131  0.41301171  0.76070520  1
  Br  Br94  1  0.00025869  0.91301171  0.26070520  1
  Br  Br95  1  0.50025869  0.58698829  0.23929480  1
  N  N96  1  0.73009659  0.59642400  0.42206940  1
  N  N97  1  0.23009659  0.90357600  0.07793060  1
  N  N98  1  0.26990341  0.40357600  0.57793060  1
  N  N99  1  0.76990341  0.09642400  0.92206940  1
  N  N100  1  0.59211513  0.80715635  0.42824267  1
  N  N101  1  0.09211513  0.69284365  0.07175733  1
  N  N102  1  0.40788487  0.19284365  0.57175733  1
  N  N103  1  0.90788487  0.30715635  0.92824267  1
  N  N104  1  0.91969472  0.70366213  0.55846963  1
  N  N105  1  0.41969472  0.79633787  0.94153037  1
  N  N106  1  0.08030528  0.29633787  0.44153037  1
  N  N107  1  0.58030528  0.20366213  0.05846963  1
  N  N108  1  0.58041877  0.72852292  0.56513074  1
  N  N109  1  0.08041877  0.77147708  0.93486926  1
  N  N110  1  0.41958123  0.27147708  0.43486926  1
  N  N111  1  0.91958123  0.22852292  0.06513074  1
  N  N112  1  0.92931215  0.78203775  0.42212288  1
  N  N113  1  0.42931215  0.71796225  0.07787712  1
  N  N114  1  0.07068785  0.21796225  0.57787712  1
  N  N115  1  0.57068785  0.28203775  0.92212288  1
  N  N116  1  0.78600586  0.91069487  0.56551448  1
  N  N117  1  0.28600586  0.58930513  0.93448552  1
  N  N118  1  0.21399414  0.08930513  0.43448552  1
  N  N119  1  0.71399414  0.41069487  0.06551448  1
  Cl  Cl120  1  0.24662023  0.91161755  0.53629565  1
  Cl  Cl121  1  0.74662023  0.58838245  0.96370435  1
  Cl  Cl122  1  0.75337977  0.08838245  0.46370435  1
  Cl  Cl123  1  0.25337977  0.41161755  0.03629565  1
