# generated using pymatgen
data_Ba5Al3F19
_symmetry_space_group_name_H-M   'P 1'
_cell_length_a   7.56836466
_cell_length_b   11.14996469
_cell_length_c   11.14996469
_cell_angle_alpha   83.38568452
_cell_angle_beta   70.16030658
_cell_angle_gamma   70.16030658
_symmetry_Int_Tables_number   1
_chemical_formula_structural   Ba5Al3F19
_chemical_formula_sum   'Ba10 Al6 F38'
_cell_volume   832.53277813
_cell_formula_units_Z   2
loop_
 _symmetry_equiv_pos_site_id
 _symmetry_equiv_pos_as_xyz
  1  'x, y, z'
loop_
 _atom_site_type_symbol
 _atom_site_label
 _atom_site_symmetry_multiplicity
 _atom_site_fract_x
 _atom_site_fract_y
 _atom_site_fract_z
 _atom_site_occupancy
  Ba  Ba0  1  0.24096060  0.84350834  0.67457047  1
  Ba  Ba1  1  0.75903940  0.15649166  0.32542953  1
  Ba  Ba2  1  0.08446893  0.67457047  0.15649166  1
  Ba  Ba3  1  0.91553107  0.32542953  0.84350834  1
  Ba  Ba4  1  0.71470946  0.72825546  0.84232562  1
  Ba  Ba5  1  0.28529054  0.27174454  0.15767438  1
  Ba  Ba6  1  0.44296492  0.84232562  0.27174454  1
  Ba  Ba7  1  0.55703508  0.15767438  0.72825546  1
  Ba  Ba8  1  0.25000000  0.50000000  0.50000000  1
  Ba  Ba9  1  0.75000000  0.50000000  0.50000000  1
  Al  Al10  1  0.67574706  0.48274302  0.16576285  1
  Al  Al11  1  0.32425294  0.51725698  0.83423715  1
  Al  Al12  1  0.15849008  0.16576285  0.51725698  1
  Al  Al13  1  0.84150992  0.83423715  0.48274302  1
  Al  Al14  1  0.75254363  0.00000000  0.00000000  1
  Al  Al15  1  0.24745637  1.00000000  1.00000000  1
  F  F16  1  0.30874427  0.83945862  0.06152501  1
  F  F17  1  0.20972790  0.16054138  0.93847499  1
  F  F18  1  0.14820289  0.06152501  0.16054138  1
  F  F19  1  0.37026928  0.93847499  0.83945862  1
  F  F20  1  0.69125573  0.16054138  0.93847499  1
  F  F21  1  0.79027210  0.83945862  0.06152501  1
  F  F22  1  0.85179711  0.93847499  0.83945862  1
  F  F23  1  0.62973072  0.06152501  0.16054138  1
  F  F24  1  0.42692765  0.60415689  0.20692147  1
  F  F25  1  0.23800601  0.39584311  0.79307853  1
  F  F26  1  0.03108454  0.20692147  0.39584311  1
  F  F27  1  0.63384912  0.79307853  0.60415689  1
  F  F28  1  0.57307235  0.39584311  0.79307853  1
  F  F29  1  0.76199399  0.60415689  0.20692147  1
  F  F30  1  0.96891546  0.79307853  0.60415689  1
  F  F31  1  0.36615088  0.20692147  0.39584311  1
  F  F32  1  0.08115428  0.64097443  0.86431123  1
  F  F33  1  0.58643993  0.35902557  0.13568877  1
  F  F34  1  0.72212870  0.86431123  0.35902557  1
  F  F35  1  0.94546550  0.13568877  0.64097443  1
  F  F36  1  0.91884572  0.35902557  0.13568877  1
  F  F37  1  0.41356007  0.64097443  0.86431123  1
  F  F38  1  0.27787130  0.13568877  0.64097443  1
  F  F39  1  0.05453450  0.86431123  0.35902557  1
  F  F40  1  0.73604496  0.52855217  0.99935792  1
  F  F41  1  0.26395504  0.47144783  0.00064208  1
  F  F42  1  0.26459713  0.99935792  0.47144783  1
  F  F43  1  0.73540287  0.00064208  0.52855217  1
  F  F44  1  0.38221117  0.56787906  0.66769861  1
  F  F45  1  0.61778883  0.43212094  0.33230139  1
  F  F46  1  0.95009023  0.66769861  0.43212094  1
  F  F47  1  0.04990977  0.33230139  0.56787906  1
  F  F48  1  0.88373888  0.53689069  0.69563155  1
  F  F49  1  0.11626112  0.46310931  0.30436845  1
  F  F50  1  0.42062957  0.69563155  0.46310931  1
  F  F51  1  0.57937043  0.30436845  0.53689069  1
  F  F52  1  -0.00000000  0.00000000  0.00000000  1
  F  F53  1  0.50000000  0.00000000  0.00000000  1
