# generated using pymatgen
data_Pr4B4O11F2
_symmetry_space_group_name_H-M   'P 1'
_cell_length_a   4.76839029
_cell_length_b   7.43735974
_cell_length_c   14.12558500
_cell_angle_alpha   90.94737767
_cell_angle_beta   90.00000000
_cell_angle_gamma   108.69740556
_symmetry_Int_Tables_number   1
_chemical_formula_structural   Pr4B4O11F2
_chemical_formula_sum   'Pr8 B8 O22 F4'
_cell_volume   474.44285626
_cell_formula_units_Z   2
loop_
 _symmetry_equiv_pos_site_id
 _symmetry_equiv_pos_as_xyz
  1  'x, y, z'
loop_
 _atom_site_type_symbol
 _atom_site_label
 _atom_site_symmetry_multiplicity
 _atom_site_fract_x
 _atom_site_fract_y
 _atom_site_fract_z
 _atom_site_occupancy
  Pr  Pr0  1  0.46612892  0.88307510  0.12922109  1
  Pr  Pr1  1  0.58305381  0.11692490  0.37077891  1
  Pr  Pr2  1  0.53387108  0.11692490  0.87077891  1
  Pr  Pr3  1  0.41694619  0.88307510  0.62922109  1
  Pr  Pr4  1  0.74211250  0.44188648  0.12820577  1
  Pr  Pr5  1  0.30022601  0.55811352  0.37179423  1
  Pr  Pr6  1  0.25788750  0.55811352  0.87179423  1
  Pr  Pr7  1  0.69977399  0.44188648  0.62820577  1
  B  B8  1  0.07319686  0.18464034  0.21506197  1
  B  B9  1  0.88855652  0.81535966  0.28493803  1
  B  B10  1  0.92680314  0.81535966  0.78493803  1
  B  B11  1  0.11144348  0.18464034  0.71506197  1
  B  B12  1  0.85712399  0.81188957  0.97278771  1
  B  B13  1  0.04523442  0.18811043  0.52721229  1
  B  B14  1  0.14287601  0.18811043  0.02721229  1
  B  B15  1  0.95476558  0.81188957  0.47278771  1
  O  O16  1  0.96348889  0.17524823  0.10762672  1
  O  O17  1  0.78824066  0.82475177  0.39237328  1
  O  O18  1  0.03651111  0.82475177  0.89237328  1
  O  O19  1  0.21175934  0.17524823  0.60762672  1
  O  O20  1  0.64826057  0.65939925  0.24271044  1
  O  O21  1  0.98886133  0.34060075  0.25728956  1
  O  O22  1  0.35173943  0.34060075  0.75728956  1
  O  O23  1  0.01113867  0.65939925  0.74271044  1
  O  O24  1  0.58683716  0.84044826  0.96289010  1
  O  O25  1  0.74638890  0.15955174  0.53710990  1
  O  O26  1  0.41316284  0.15955174  0.03710990  1
  O  O27  1  0.25361110  0.84044826  0.46289010  1
  O  O28  1  0.85799931  -0.00000000  0.25000000  1
  O  O29  1  0.14200069  -0.00000000  0.75000000  1
  O  O30  1  0.94421195  0.77496433  0.06095144  1
  O  O31  1  0.16924762  0.22503567  0.43904856  1
  O  O32  1  0.05578805  0.22503567  0.93904856  1
  O  O33  1  0.83075238  0.77496433  0.56095144  1
  O  O34  1  0.37667745  0.20001536  0.22556684  1
  O  O35  1  0.17666209  0.79998464  0.27443316  1
  O  O36  1  0.62332255  0.79998464  0.77443316  1
  O  O37  1  0.82333791  0.20001536  0.72556684  1
  F  F38  1  0.29232515  0.53914847  0.07457603  1
  F  F39  1  0.75317668  0.46085153  0.42542397  1
  F  F40  1  0.70767485  0.46085153  0.92542397  1
  F  F41  1  0.24682332  0.53914847  0.57457603  1
