# generated using pymatgen
data_In2Te5
_symmetry_space_group_name_H-M   'P 1'
_cell_length_a   4.37950987
_cell_length_b   8.91843946
_cell_length_c   41.84055067
_cell_angle_alpha   88.04601869
_cell_angle_beta   87.00001412
_cell_angle_gamma   75.78677325
_symmetry_Int_Tables_number   1
_chemical_formula_structural   In2Te5
_chemical_formula_sum   'In12 Te30'
_cell_volume   1581.64679738
_cell_formula_units_Z   6
loop_
 _symmetry_equiv_pos_site_id
 _symmetry_equiv_pos_as_xyz
  1  'x, y, z'
loop_
 _atom_site_type_symbol
 _atom_site_label
 _atom_site_symmetry_multiplicity
 _atom_site_fract_x
 _atom_site_fract_y
 _atom_site_fract_z
 _atom_site_occupancy
  In  In0  1  0.06364828  0.43241280  0.55627496  1
  In  In1  1  0.05233603  0.06758720  0.94372504  1
  In  In2  1  0.93635172  0.56758720  0.44372504  1
  In  In3  1  0.94766397  0.93241280  0.05627496  1
  In  In4  1  0.42052515  0.66075270  0.61090165  1
  In  In5  1  0.69217951  0.83924730  0.88909835  1
  In  In6  1  0.57947485  0.33924730  0.38909835  1
  In  In7  1  0.30782049  0.16075270  0.11090165  1
  In  In8  1  0.82493504  0.87174594  0.72192204  1
  In  In9  1  0.41860301  0.62825406  0.77807796  1
  In  In10  1  0.17506496  0.12825406  0.27807796  1
  In  In11  1  0.58139699  0.37174594  0.22192204  1
  Te  Te12  1  0.01474273  0.45448953  0.62574016  1
  Te  Te13  1  0.09497242  0.04551047  0.87425984  1
  Te  Te14  1  0.98525727  0.54551047  0.37425984  1
  Te  Te15  1  0.90502758  0.95448953  0.12574016  1
  Te  Te16  1  0.46607052  0.63772435  0.54111807  1
  Te  Te17  1  0.64491294  0.86227565  0.95888193  1
  Te  Te18  1  0.53392948  0.36227565  0.45888193  1
  Te  Te19  1  0.35508706  0.13772435  0.04111807  1
  Te  Te20  1  0.22919186  0.96589383  0.63051918  1
  Te  Te21  1  0.82560487  0.53410617  0.86948082  1
  Te  Te22  1  0.77080814  0.03410617  0.36948082  1
  Te  Te23  1  0.17439513  0.46589383  0.13051918  1
  Te  Te24  1  0.75470824  0.04904889  0.58119481  1
  Te  Te25  1  0.38495194  0.45095111  0.91880519  1
  Te  Te26  1  0.24529176  0.95095111  0.41880519  1
  Te  Te27  1  0.61504806  0.54904889  0.08119481  1
  Te  Te28  1  0.19347734  0.13521758  0.53245536  1
  Te  Te29  1  0.86115028  0.36478242  0.96754464  1
  Te  Te30  1  0.80652266  0.86478242  0.46754464  1
  Te  Te31  1  0.13884972  0.63521758  0.03245536  1
  Te  Te32  1  0.43086568  0.66706690  0.70828060  1
  Te  Te33  1  0.80621318  0.83293310  0.79171940  1
  Te  Te34  1  0.56913432  0.33293310  0.29171940  1
  Te  Te35  1  0.19378682  0.16706690  0.20828060  1
  Te  Te36  1  0.64232987  0.17663823  0.70049936  1
  Te  Te37  1  0.51946746  0.32336177  0.79950064  1
  Te  Te38  1  0.35767013  0.82336177  0.29950064  1
  Te  Te39  1  0.48053254  0.67663823  0.20049936  1
  Te  Te40  1  0.13352655  0.25000000  0.75000000  1
  Te  Te41  1  0.86647345  0.75000000  0.25000000  1
