# generated using pymatgen
data_USiPbO6
_symmetry_space_group_name_H-M   'P 1'
_cell_length_a   6.72443420
_cell_length_b   6.93079759
_cell_length_c   13.38840579
_cell_angle_alpha   90.00000000
_cell_angle_beta   103.24904133
_cell_angle_gamma   90.00000000
_symmetry_Int_Tables_number   1
_chemical_formula_structural   USiPbO6
_chemical_formula_sum   'U4 Si4 Pb4 O24'
_cell_volume   607.36761274
_cell_formula_units_Z   4
loop_
 _symmetry_equiv_pos_site_id
 _symmetry_equiv_pos_as_xyz
  1  'x, y, z'
loop_
 _atom_site_type_symbol
 _atom_site_label
 _atom_site_symmetry_multiplicity
 _atom_site_fract_x
 _atom_site_fract_y
 _atom_site_fract_z
 _atom_site_occupancy
  U  U0  1  0.47717333  0.22253910  0.67736390  1
  U  U1  1  0.52282667  0.72253910  0.82263610  1
  U  U2  1  0.52282667  0.77746090  0.32263610  1
  U  U3  1  0.47717333  0.27746090  0.17736390  1
  Si  Si4  1  0.40573583  0.71247529  0.57381711  1
  Si  Si5  1  0.59426417  0.21247529  0.92618289  1
  Si  Si6  1  0.59426417  0.28752471  0.42618289  1
  Si  Si7  1  0.40573583  0.78752471  0.07381711  1
  Pb  Pb8  1  0.05669289  0.02154071  0.87100473  1
  Pb  Pb9  1  0.94330711  0.52154071  0.62899527  1
  Pb  Pb10  1  0.94330711  0.97845929  0.12899527  1
  Pb  Pb11  1  0.05669289  0.47845929  0.37100473  1
  O  O12  1  0.19627860  0.26772767  0.66562350  1
  O  O13  1  0.80372140  0.76772767  0.83437650  1
  O  O14  1  0.80372140  0.73227233  0.33437650  1
  O  O15  1  0.19627860  0.23227233  0.16562350  1
  O  O16  1  0.23916398  0.69834431  0.79753654  1
  O  O17  1  0.76083602  0.19834431  0.70246346  1
  O  O18  1  0.76083602  0.30165569  0.20246346  1
  O  O19  1  0.23916398  0.80165569  0.29753654  1
  O  O20  1  0.17014724  0.64230005  0.52733314  1
  O  O21  1  0.82985276  0.14230005  0.97266686  1
  O  O22  1  0.82985276  0.35769995  0.47266686  1
  O  O23  1  0.17014724  0.85769995  0.02733314  1
  O  O24  1  0.46127313  0.26646244  0.51344856  1
  O  O25  1  0.53872687  0.76646244  0.98655144  1
  O  O26  1  0.53872687  0.73353756  0.48655144  1
  O  O27  1  0.46127313  0.23353756  0.01344856  1
  O  O28  1  0.51957349  0.55755599  0.66535893  1
  O  O29  1  0.48042651  0.05755599  0.83464107  1
  O  O30  1  0.48042651  0.44244401  0.33464107  1
  O  O31  1  0.51957349  0.94244401  0.16535893  1
  O  O32  1  0.42538403  0.90803591  0.64561619  1
  O  O33  1  0.57461597  0.40803591  0.85438381  1
  O  O34  1  0.57461597  0.09196409  0.35438381  1
  O  O35  1  0.42538403  0.59196409  0.14561619  1
