# generated using pymatgen
data_Na4Ti11O24
_symmetry_space_group_name_H-M   'P 1'
_cell_length_a   6.15520899
_cell_length_b   10.50394866
_cell_length_c   8.76497492
_cell_angle_alpha   66.07108832
_cell_angle_beta   92.28588135
_cell_angle_gamma   73.95213228
_symmetry_Int_Tables_number   1
_chemical_formula_structural   Na4Ti11O24
_chemical_formula_sum   'Na4 Ti11 O24'
_cell_volume   490.28794272
_cell_formula_units_Z   1
loop_
 _symmetry_equiv_pos_site_id
 _symmetry_equiv_pos_as_xyz
  1  'x, y, z'
loop_
 _atom_site_type_symbol
 _atom_site_label
 _atom_site_symmetry_multiplicity
 _atom_site_fract_x
 _atom_site_fract_y
 _atom_site_fract_z
 _atom_site_occupancy
  Na  Na0  1  0.51132171  0.01023648  0.74246285  1
  Na  Na1  1  0.18833676  0.65651420  0.41926924  1
  Na  Na2  1  0.58349076  0.33333273  0.70914218  1
  Na  Na3  1  0.82008288  0.33343056  0.09188037  1
  Ti  Ti4  1  0.07657050  0.33298026  0.70702098  1
  Ti  Ti5  1  0.23240383  0.49704492  0.87564858  1
  Ti  Ti6  1  0.08376012  0.83152533  0.70999339  1
  Ti  Ti7  1  0.39611929  0.17003354  0.03956907  1
  Ti  Ti8  1  0.25590335  0.99426386  0.37672273  1
  Ti  Ti9  1  0.41096294  0.67076148  0.03840859  1
  Ti  Ti10  1  0.58195758  0.83526104  0.20799913  1
  Ti  Ti11  1  0.93180489  0.17270318  0.53902858  1
  Ti  Ti12  1  0.77119415  0.49392289  0.37874494  1
  Ti  Ti13  1  0.74808237  0.99618820  0.37564332  1
  Ti  Ti14  1  0.91728709  0.67197570  0.03810053  1
  O  O15  1  0.09115887  0.33332344  0.94086870  1
  O  O16  1  0.07776139  0.33319707  0.47662619  1
  O  O17  1  0.22735511  0.48552946  0.67330063  1
  O  O18  1  0.37965163  0.18126492  0.82551008  1
  O  O19  1  0.09991090  0.82029145  0.94237935  1
  O  O20  1  0.06736679  0.84742456  0.47395593  1
  O  O21  1  0.42715881  0.12940439  0.30672562  1
  O  O22  1  0.22328502  0.53742597  0.10303386  1
  O  O23  1  0.50048595  0.33339844  0.98592283  1
  O  O24  1  0.37205382  0.66249208  0.81729572  1
  O  O25  1  0.22855991  0.98941664  0.60547628  1
  O  O26  1  0.70124777  0.00422605  0.14646827  1
  O  O27  1  0.28064210  0.98921980  0.15477161  1
  O  O28  1  0.79542288  0.00314452  0.59962582  1
  O  O29  1  0.46533901  0.66350942  0.26943422  1
  O  O30  1  0.66367788  0.33330197  0.42761581  1
  O  O31  1  0.58120173  0.81945983  0.98816555  1
  O  O32  1  0.58676710  0.84651002  0.42937796  1
  O  O33  1  0.94128037  0.17980372  0.74512699  1
  O  O34  1  0.78780112  0.48669566  0.59174024  1
  O  O35  1  0.94471449  0.12804281  0.31707015  1
  O  O36  1  0.73932156  0.53882139  0.11149996  1
  O  O37  1  0.88469852  0.67707494  0.26172942  1
  O  O38  1  0.93671004  0.67730407  0.81073435  1
