# generated using pymatgen
data_K3Al5P8(H21O25)2
_symmetry_space_group_name_H-M   'P 1'
_cell_length_a   8.77172057
_cell_length_b   8.77197207
_cell_length_c   32.41034459
_cell_angle_alpha   82.22248651
_cell_angle_beta   82.22230382
_cell_angle_gamma   59.99905373
_symmetry_Int_Tables_number   1
_chemical_formula_structural   K3Al5P8(H21O25)2
_chemical_formula_sum   'K6 Al10 P16 H84 O100'
_cell_volume   2133.16296203
_cell_formula_units_Z   2
loop_
 _symmetry_equiv_pos_site_id
 _symmetry_equiv_pos_as_xyz
  1  'x, y, z'
loop_
 _atom_site_type_symbol
 _atom_site_label
 _atom_site_symmetry_multiplicity
 _atom_site_fract_x
 _atom_site_fract_y
 _atom_site_fract_z
 _atom_site_occupancy
  K  K0  1  0.17243934  0.32760094  0.75000251  1
  K  K1  1  0.32756066  0.75004279  0.74999749  1
  K  K2  1  0.75000000  0.17243236  0.75000000  1
  K  K3  1  0.67243934  0.24995721  0.25000251  1
  K  K4  1  0.25000000  0.82756764  0.25000000  1
  K  K5  1  0.82756066  0.67239906  0.24999749  1
  Al  Al6  1  0.75000000  0.75000326  0.75000000  1
  Al  Al7  1  0.25000000  0.24999674  0.25000000  1
  Al  Al8  1  0.45113939  0.45111245  0.64663192  1
  Al  Al9  1  0.95113939  0.95111625  0.14663192  1
  Al  Al10  1  0.54886061  0.54888755  0.35336808  1
  Al  Al11  1  0.04886061  0.04888375  0.85336808  1
  Al  Al12  1  0.79730356  0.79729493  0.60810529  1
  Al  Al13  1  0.29730356  0.29729622  0.10810529  1
  Al  Al14  1  0.20269644  0.20270507  0.39189471  1
  Al  Al15  1  0.70269644  0.70270378  0.89189471  1
  P  P16  1  0.53841453  0.05630090  0.68067564  1
  P  P17  1  0.05631699  0.72459889  0.68067492  1
  P  P18  1  0.72460260  0.53842763  0.68067470  1
  P  P19  1  0.03841453  0.22460893  0.18067564  1
  P  P20  1  0.22460260  0.55629507  0.18067470  1
  P  P21  1  0.55631699  0.03840919  0.18067492  1
  P  P22  1  0.46158547  0.94369910  0.31932436  1
  P  P23  1  0.94368301  0.27540111  0.31932508  1
  P  P24  1  0.27539740  0.46157237  0.31932530  1
  P  P25  1  0.96158547  0.77539107  0.81932436  1
  P  P26  1  0.77539740  0.44370493  0.81932530  1
  P  P27  1  0.44368301  0.96159081  0.81932508  1
  P  P28  1  0.13522091  0.13520255  0.59435303  1
  P  P29  1  0.63522091  0.63522350  0.09435303  1
  P  P30  1  0.86477909  0.86479745  0.40564697  1
  P  P31  1  0.36477909  0.36477650  0.90564697  1
  H  H32  1  0.98141042  0.28585504  0.66833192  1
  H  H33  1  0.28583189  0.06442531  0.66832928  1
  H  H34  1  0.06441563  0.98140710  0.66833028  1
  H  H35  1  0.48141042  0.56440262  0.16833192  1
  H  H36  1  0.56441563  0.78584700  0.16833028  1
  H  H37  1  0.78583189  0.48141351  0.16832928  1
  H  H38  1  0.01858958  0.71414496  0.33166808  1
  H  H39  1  0.71416811  0.93557469  0.33167072  1
  H  H40  1  0.93558437  0.01859290  0.33166972  1
  H  H41  1  0.51858958  0.43559738  0.83166808  1
  H  H42  1  0.43558437  0.21415300  0.83166972  1
  H  H43  1  0.21416811  0.51858649  0.83167072  1
  H  H44  1  0.76249071  0.30969250  0.59958800  1
  H  H45  1  0.30969391  0.32823250  0.59959087  1
  H  H46  1  0.32822851  0.76247475  0.59958974  1
  H  H47  1  0.26249071  0.82822880  0.09958800  1
  H  H48  1  0.82822851  0.80970700  0.09958974  1
  H  H49  1  0.80969391  0.26248273  0.09959087  1
  H  H50  1  0.23750929  0.69030750  0.40041200  1
  H  H51  1  0.69030609  0.67176750  0.40040913  1
  H  H52  1  0.67177149  0.23752525  0.40041026  1
  H  H53  1  0.73750929  0.17177120  0.90041200  1
  H  H54  1  0.17177149  0.19029300  0.90041026  1
  H  H55  1  0.19030609  0.73751727  0.90040913  1
  H  H56  1  0.68467176  0.17578973  0.61241491  1
  H  H57  1  0.17578229  0.52713152  0.61241671  1
  H  H58  1  0.52713009  0.68465897  0.61241580  1
  H  H59  1  0.18467176  0.02712360  0.11241491  1
  H  H60  1  0.02713009  0.67579515  0.11241580  1
  H  H61  1  0.67578229  0.18466948  0.11241671  1
  H  H62  1  0.31532824  0.82421027  0.38758509  1
  H  H63  1  0.82421771  0.47286848  0.38758329  1
  H  H64  1  0.47286991  0.31534103  0.38758420  1
  H  H65  1  0.81532824  0.97287640  0.88758509  1
  H  H66  1  0.97286991  0.32420485  0.88758420  1
  H  H67  1  0.32421771  0.81533052  0.88758329  1
  H  H68  1  0.00988835  0.62122589  0.54495066  1
  H  H69  1  0.62123590  0.82392869  0.54494840  1
  H  H70  1  0.82393296  0.00988299  0.54495121  1
  H  H71  1  0.50988835  0.32393510  0.04495066  1
  H  H72  1  0.32393296  0.12123283  0.04495121  1
  H  H73  1  0.12123590  0.50988701  0.04494840  1
  H  H74  1  0.99011165  0.37877411  0.45504934  1
  H  H75  1  0.37876410  0.17607131  0.45505160  1
  H  H76  1  0.17606704  0.99011701  0.45504879  1
  H  H77  1  0.49011165  0.67606490  0.95504934  1
  H  H78  1  0.67606704  0.87876717  0.95504879  1
  H  H79  1  0.87876410  0.49011299  0.95505160  1
  H  H80  1  0.95006466  0.49024643  0.57617491  1
  H  H81  1  0.49025031  0.98350685  0.57617366  1
  H  H82  1  0.98351633  0.95006052  0.57617569  1
  H  H83  1  0.45006466  0.48351401  0.07617491  1
  H  H84  1  0.48351633  0.99024746  0.07617569  1
  H  H85  1  0.99025031  0.45006918  0.07617366  1
  H  H86  1  0.04993534  0.50975357  0.42382509  1
  H  H87  1  0.50974969  0.01649315  0.42382634  1
  H  H88  1  0.01648367  0.04993948  0.42382431  1
  H  H89  1  0.54993534  0.51648599  0.92382509  1
  H  H90  1  0.51648367  0.00975254  0.92382431  1
  H  H91  1  0.00974969  0.54993082  0.92382634  1
  H  H92  1  0.91404095  0.34028141  0.52735738  1
  H  H93  1  0.34028610  0.21831448  0.52735874  1
  H  H94  1  0.21831491  0.91403490  0.52735767  1
  H  H95  1  0.41404095  0.71832026  0.02735738  1
  H  H96  1  0.71831491  0.84029252  0.02735767  1
  H  H97  1  0.84028610  0.41404067  0.02735874  1
  H  H98  1  0.08595905  0.65971859  0.47264262  1
  H  H99  1  0.65971390  0.78168552  0.47264126  1
  H  H100  1  0.78168509  0.08596510  0.47264233  1
  H  H101  1  0.58595905  0.28167974  0.97264262  1
  H  H102  1  0.28168509  0.15970748  0.97264233  1
  H  H103  1  0.15971390  0.58595933  0.97264126  1
  H  H104  1  0.69962763  0.60900018  0.50180747  1
  H  H105  1  0.60899876  0.18956546  0.50180968  1
  H  H106  1  0.18956579  0.69962773  0.50180827  1
  H  H107  1  0.19962763  0.68956472  0.00180747  1
  H  H108  1  0.68956579  0.10899821  0.00180827  1
  H  H109  1  0.10899876  0.19962610  0.00180968  1
  H  H110  1  0.30037237  0.39099982  0.49819253  1
  H  H111  1  0.39100124  0.81043454  0.49819032  1
  H  H112  1  0.81043421  0.30037227  0.49819173  1
  H  H113  1  0.80037237  0.31043528  0.99819253  1
  H  H114  1  0.31043421  0.89100179  0.99819173  1
  H  H115  1  0.89100124  0.80037390  0.99819032  1
  O  O116  1  0.65440939  0.96683611  0.71686897  1
  O  O117  1  0.96683853  0.66187718  0.71686579  1
  O  O118  1  0.66186976  0.65442820  0.71686647  1
  O  O119  1  0.15440939  0.16188553  0.21686897  1
  O  O120  1  0.16186976  0.46683558  0.21686647  1
  O  O121  1  0.46683853  0.15441850  0.21686579  1
  O  O122  1  0.34559061  0.03316389  0.28313103  1
  O  O123  1  0.03316147  0.33812282  0.28313421  1
  O  O124  1  0.33813024  0.34557180  0.28313353  1
  O  O125  1  0.84559061  0.83811447  0.78313103  1
  O  O126  1  0.83813024  0.53316442  0.78313353  1
  O  O127  1  0.53316147  0.84558150  0.78313421  1
  O  O128  1  0.63618610  0.99177997  0.63807460  1
  O  O129  1  0.99180628  0.73394072  0.63807262  1
  O  O130  1  0.73393102  0.63619981  0.63807124  1
  O  O131  1  0.13618610  0.23395933  0.13807460  1
  O  O132  1  0.23393102  0.49179793  0.13807124  1
  O  O133  1  0.49180628  0.13618037  0.13807262  1
  O  O134  1  0.36381390  0.00822003  0.36192540  1
  O  O135  1  0.00819372  0.26605928  0.36192738  1
  O  O136  1  0.26606898  0.36380019  0.36192876  1
  O  O137  1  0.86381390  0.76604067  0.86192540  1
  O  O138  1  0.76606898  0.50820207  0.86192876  1
  O  O139  1  0.50819372  0.86381963  0.86192738  1
  O  O140  1  0.37490274  0.02074226  0.69045535  1
  O  O141  1  0.02071889  0.91389672  0.69045432  1
  O  O142  1  0.91392029  0.37495825  0.69045153  1
  O  O143  1  0.87490274  0.41389965  0.19045535  1
  O  O144  1  0.41392029  0.52066993  0.19045153  1
  O  O145  1  0.52071889  0.87493007  0.19045432  1
  O  O146  1  0.62509726  0.97925774  0.30954465  1
  O  O147  1  0.97928111  0.08610328  0.30954568  1
  O  O148  1  0.08607971  0.62504175  0.30954847  1
  O  O149  1  0.12509726  0.58610035  0.80954465  1
  O  O150  1  0.58607971  0.47933007  0.80954847  1
  O  O151  1  0.47928111  0.12506993  0.80954568  1
  O  O152  1  0.46378931  0.25608326  0.67995664  1
  O  O153  1  0.25611057  0.60017690  0.67995808  1
  O  O154  1  0.60020095  0.46375593  0.67995771  1
  O  O155  1  0.96378931  0.10017079  0.17995664  1
  O  O156  1  0.10020095  0.75608540  0.17995771  1
  O  O157  1  0.75611057  0.96375446  0.17995808  1
  O  O158  1  0.53621069  0.74391674  0.32004336  1
  O  O159  1  0.74388943  0.39982310  0.32004192  1
  O  O160  1  0.39979905  0.53624407  0.32004229  1
  O  O161  1  0.03621069  0.89982921  0.82004336  1
  O  O162  1  0.89979905  0.24391460  0.82004229  1
  O  O163  1  0.24388943  0.03624554  0.82004192  1
  O  O164  1  0.11878679  0.11878890  0.64361883  1
  O  O165  1  0.61878679  0.61880548  0.14361883  1
  O  O166  1  0.88121321  0.88121110  0.35638117  1
  O  O167  1  0.38121321  0.38119452  0.85638117  1
  O  O168  1  0.16138286  0.96216665  0.57901561  1
  O  O169  1  0.96214863  0.29743333  0.57901528  1
  O  O170  1  0.29742773  0.16138542  0.57901652  1
  O  O171  1  0.66138286  0.79743488  0.07901561  1
  O  O172  1  0.79742773  0.46217033  0.07901652  1
  O  O173  1  0.46214863  0.66140276  0.07901528  1
  O  O174  1  0.83861714  0.03783335  0.42098439  1
  O  O175  1  0.03785137  0.70256667  0.42098472  1
  O  O176  1  0.70257227  0.83861458  0.42098348  1
  O  O177  1  0.33861714  0.20256512  0.92098439  1
  O  O178  1  0.20257227  0.53782967  0.92098348  1
  O  O179  1  0.53785137  0.33859724  0.92098472  1
  O  O180  1  0.65269431  0.30179245  0.60932790  1
  O  O181  1  0.30178783  0.43619190  0.60933258  1
  O  O182  1  0.43620092  0.65267461  0.60932926  1
  O  O183  1  0.15269431  0.93618534  0.10932790  1
  O  O184  1  0.93620092  0.80179521  0.10932926  1
  O  O185  1  0.80178783  0.15268770  0.10933258  1
  O  O186  1  0.34730569  0.69820755  0.39067210  1
  O  O187  1  0.69821217  0.56380810  0.39066742  1
  O  O188  1  0.56379908  0.34732539  0.39067074  1
  O  O189  1  0.84730569  0.06381466  0.89067210  1
  O  O190  1  0.06379908  0.19820479  0.89067074  1
  O  O191  1  0.19821217  0.84731230  0.89066742  1
  O  O192  1  0.94611011  0.60882406  0.57226006  1
  O  O193  1  0.60883639  0.87279335  0.57225877  1
  O  O194  1  0.87279849  0.94610627  0.57226149  1
  O  O195  1  0.44611011  0.37280577  0.07226006  1
  O  O196  1  0.37279849  0.10883374  0.07226149  1
  O  O197  1  0.10883639  0.44611150  0.07225877  1
  O  O198  1  0.05388989  0.39117594  0.42773994  1
  O  O199  1  0.39116361  0.12720665  0.42774123  1
  O  O200  1  0.12720151  0.05389373  0.42773851  1
  O  O201  1  0.55388989  0.62719423  0.92773994  1
  O  O202  1  0.62720151  0.89116626  0.92773851  1
  O  O203  1  0.89116361  0.55388850  0.92774123  1
  O  O204  1  0.86260333  0.37760152  0.49954851  1
  O  O205  1  0.37760572  0.26024862  0.49954835  1
  O  O206  1  0.26024773  0.86259896  0.49954629  1
  O  O207  1  0.36260333  0.76024663  0.99954851  1
  O  O208  1  0.76024773  0.87760702  0.99954629  1
  O  O209  1  0.87760572  0.36259732  0.99954835  1
  O  O210  1  0.13739667  0.62239848  0.50045149  1
  O  O211  1  0.62239428  0.73975138  0.50045165  1
  O  O212  1  0.73975227  0.13740104  0.50045371  1
  O  O213  1  0.63739667  0.23975337  0.00045149  1
  O  O214  1  0.23975227  0.12239298  0.00045371  1
  O  O215  1  0.12239428  0.63740268  0.00045165  1
