# generated using pymatgen
data_Fe2AsH19SO18
_symmetry_space_group_name_H-M   'P 1'
_cell_length_a   7.64534611
_cell_length_b   10.44312388
_cell_length_c   11.03765554
_cell_angle_alpha   114.97545353
_cell_angle_beta   98.62083040
_cell_angle_gamma   93.27152082
_symmetry_Int_Tables_number   1
_chemical_formula_structural   Fe2AsH19SO18
_chemical_formula_sum   'Fe4 As2 H38 S2 O36'
_cell_volume   782.67316897
_cell_formula_units_Z   2
loop_
 _symmetry_equiv_pos_site_id
 _symmetry_equiv_pos_as_xyz
  1  'x, y, z'
loop_
 _atom_site_type_symbol
 _atom_site_label
 _atom_site_symmetry_multiplicity
 _atom_site_fract_x
 _atom_site_fract_y
 _atom_site_fract_z
 _atom_site_occupancy
  Fe  Fe0  1  0.69290722  0.19932441  0.72320570  1
  Fe  Fe1  1  0.30709278  0.80067559  0.27679430  1
  Fe  Fe2  1  0.86572028  0.17868593  0.41997194  1
  Fe  Fe3  1  0.13427972  0.82131407  0.58002806  1
  As  As4  1  0.26881267  0.11766586  0.54489901  1
  As  As5  1  0.73118733  0.88233414  0.45510099  1
  H  H6  1  0.69441419  0.06152491  0.87723923  1
  H  H7  1  0.30558581  0.93847509  0.12276077  1
  H  H8  1  0.51789526  0.13731337  0.89978784  1
  H  H9  1  0.48210474  0.86268663  0.10021216  1
  H  H10  1  0.42371945  0.58532173  0.85033920  1
  H  H11  1  0.57628055  0.41467827  0.14966080  1
  H  H12  1  0.38388726  0.42213257  0.81545025  1
  H  H13  1  0.61611274  0.57786743  0.18454975  1
  H  H14  1  0.86318388  0.47959490  0.21186649  1
  H  H15  1  0.13681612  0.52040510  0.78813351  1
  H  H16  1  0.03604317  0.39943076  0.19162707  1
  H  H17  1  0.96395683  0.60056924  0.80837293  1
  H  H18  1  0.02256251  0.22723472  0.90039574  1
  H  H19  1  0.97743749  0.77276528  0.09960426  1
  H  H20  1  0.03809257  0.13269067  0.74321284  1
  H  H21  1  0.96190743  0.86730933  0.25678716  1
  H  H22  1  0.79952733  0.44577290  0.48000072  1
  H  H23  1  0.20047267  0.55422710  0.51999928  1
  H  H24  1  0.91988806  0.40376530  0.36096580  1
  H  H25  1  0.08011194  0.59623470  0.63903420  1
  H  H26  1  0.02372203  0.10984711  0.19345362  1
  H  H27  1  0.97627797  0.89015289  0.80654638  1
  H  H28  1  0.82088858  0.02719690  0.15474756  1
  H  H29  1  0.17911142  0.97280310  0.84525244  1
  H  H30  1  0.69190131  0.43084824  0.97038516  1
  H  H31  1  0.30809869  0.56915176  0.02961484  1
  H  H32  1  0.76035238  0.49817039  0.87710831  1
  H  H33  1  0.23964762  0.50182961  0.12289169  1
  H  H34  1  0.37588202  0.40876312  0.38432375  1
  H  H35  1  0.62411798  0.59123688  0.61567625  1
  H  H36  1  0.25470007  0.34498220  0.45828179  1
  H  H37  1  0.74529993  0.65501780  0.54171821  1
  H  H38  1  0.88515585  0.35642911  0.65890568  1
  H  H39  1  0.11484415  0.64357089  0.34109432  1
  H  H40  1  0.49741518  0.10106555  0.35388266  1
  H  H41  1  0.50258482  0.89893445  0.64611734  1
  H  H42  1  0.54858165  0.20246870  0.28235027  1
  H  H43  1  0.45141835  0.79753130  0.71764973  1
  S  S44  1  0.28729272  0.20456067  0.08615236  1
  S  S45  1  0.71270728  0.79543933  0.91384764  1
  O  O46  1  0.13260532  0.21957459  0.49589320  1
  O  O47  1  0.86739468  0.78042541  0.50410680  1
  O  O48  1  0.80466135  0.26400506  0.60614056  1
  O  O49  1  0.19533865  0.73599494  0.39385944  1
  O  O50  1  0.15340590  0.02419049  0.61099806  1
  O  O51  1  0.84659410  0.97580951  0.38900194  1
  O  O52  1  0.63908256  0.14462387  0.87647445  1
  O  O53  1  0.36091744  0.85537613  0.12352555  1
  O  O54  1  0.44208997  0.23080453  0.67131247  1
  O  O55  1  0.55791003  0.76919547  0.32868753  1
  O  O56  1  0.21033553  0.10553510  0.13565631  1
  O  O57  1  0.78966447  0.89446490  0.86434369  1
  O  O58  1  0.33162920  0.11925127  0.94991081  1
  O  O59  1  0.66837080  0.88074873  0.05008919  1
  O  O60  1  0.72312059  0.40744895  0.87915992  1
  O  O61  1  0.27687941  0.59255105  0.12084008  1
  O  O62  1  0.34895803  0.00746300  0.40314628  1
  O  O63  1  0.65104197  0.99253700  0.59685372  1
  O  O64  1  0.90634403  0.11115428  0.22331261  1
  O  O65  1  0.09365597  0.88884572  0.77668739  1
  O  O66  1  0.45095582  0.29441267  0.18634862  1
  O  O67  1  0.54904418  0.70558733  0.81365138  1
  O  O68  1  0.95812387  0.18574273  0.80454129  1
  O  O69  1  0.04187613  0.81425727  0.19545871  1
  O  O70  1  0.59609609  0.14460090  0.32798417  1
  O  O71  1  0.40390391  0.85539910  0.67201583  1
  O  O72  1  0.15521203  0.30085837  0.07097350  1
  O  O73  1  0.84478797  0.69914163  0.92902650  1
  O  O74  1  0.87357971  0.37197356  0.42576428  1
  O  O75  1  0.12642029  0.62802644  0.57423572  1
  O  O76  1  0.34621794  0.51565681  0.86616902  1
  O  O77  1  0.65378206  0.48434319  0.13383098  1
  O  O78  1  0.98094970  0.47269181  0.26064885  1
  O  O79  1  0.01905030  0.52730819  0.73935115  1
  O  O80  1  0.31525002  0.43300198  0.46144167  1
  O  O81  1  0.68474998  0.56699802  0.53855833  1
