# generated using pymatgen
data_Ag13As3(IO3)4
_symmetry_space_group_name_H-M   'P 1'
_cell_length_a   7.14040511
_cell_length_b   9.44517288
_cell_length_c   18.11065216
_cell_angle_alpha   90.45101990
_cell_angle_beta   90.00000000
_cell_angle_gamma   90.00000000
_symmetry_Int_Tables_number   1
_chemical_formula_structural   Ag13As3(IO3)4
_chemical_formula_sum   'Ag26 As6 I8 O24'
_cell_volume   1221.38729254
_cell_formula_units_Z   2
loop_
 _symmetry_equiv_pos_site_id
 _symmetry_equiv_pos_as_xyz
  1  'x, y, z'
loop_
 _atom_site_type_symbol
 _atom_site_label
 _atom_site_symmetry_multiplicity
 _atom_site_fract_x
 _atom_site_fract_y
 _atom_site_fract_z
 _atom_site_occupancy
  Ag  Ag0  1  0.75000000  0.70543632  0.66605819  1
  Ag  Ag1  1  0.25000000  0.29456368  0.33394181  1
  Ag  Ag2  1  0.25000000  0.04802921  0.61948390  1
  Ag  Ag3  1  0.75000000  0.95197079  0.38051610  1
  Ag  Ag4  1  0.03890254  0.97587455  0.75569699  1
  Ag  Ag5  1  0.53890254  0.02412545  0.24430301  1
  Ag  Ag6  1  0.96109746  0.02412545  0.24430301  1
  Ag  Ag7  1  0.46109746  0.97587455  0.75569699  1
  Ag  Ag8  1  0.95936963  0.39358725  0.66632301  1
  Ag  Ag9  1  0.45936963  0.60641275  0.33367699  1
  Ag  Ag10  1  0.04063037  0.60641275  0.33367699  1
  Ag  Ag11  1  0.54063037  0.39358725  0.66632301  1
  Ag  Ag12  1  0.98552707  0.76865402  0.52352011  1
  Ag  Ag13  1  0.48552707  0.23134598  0.47647989  1
  Ag  Ag14  1  0.01447293  0.23134598  0.47647989  1
  Ag  Ag15  1  0.51447293  0.76865402  0.52352011  1
  Ag  Ag16  1  0.98757954  0.62860185  0.84639890  1
  Ag  Ag17  1  0.48757954  0.37139815  0.15360110  1
  Ag  Ag18  1  0.01242046  0.37139815  0.15360110  1
  Ag  Ag19  1  0.51242046  0.62860185  0.84639890  1
  Ag  Ag20  1  0.25000000  0.91265805  0.91001560  1
  Ag  Ag21  1  0.75000000  0.08734195  0.08998440  1
  Ag  Ag22  1  0.00378667  0.27332622  0.93145982  1
  Ag  Ag23  1  0.50378667  0.72667378  0.06854018  1
  Ag  Ag24  1  0.99621333  0.72667378  0.06854018  1
  Ag  Ag25  1  0.49621333  0.27332622  0.93145982  1
  As  As26  1  0.25000000  0.68687062  0.67828910  1
  As  As27  1  0.75000000  0.31312938  0.32171090  1
  As  As28  1  0.75000000  0.93057485  0.92720407  1
  As  As29  1  0.25000000  0.06942515  0.07279593  1
  As  As30  1  0.75000000  0.06204161  0.60560351  1
  As  As31  1  0.25000000  0.93795839  0.39439649  1
  I  I32  1  0.25000000  0.21362144  0.78124933  1
  I  I33  1  0.75000000  0.78637856  0.21875067  1
  I  I34  1  0.75000000  0.52715749  0.54256392  1
  I  I35  1  0.25000000  0.47284251  0.45743608  1
  I  I36  1  0.75000000  0.40092510  0.80642477  1
  I  I37  1  0.25000000  0.59907490  0.19357523  1
  I  I38  1  0.25000000  0.53815586  0.95317181  1
  I  I39  1  0.75000000  0.46184414  0.04682819  1
  O  O40  1  0.04995808  0.72931486  0.72892935  1
  O  O41  1  0.54995808  0.27068514  0.27107065  1
  O  O42  1  0.95004192  0.27068514  0.27107065  1
  O  O43  1  0.45004192  0.72931486  0.72892935  1
  O  O44  1  0.25000000  0.79189011  0.59962913  1
  O  O45  1  0.75000000  0.20810989  0.40037087  1
  O  O46  1  0.25000000  0.50894234  0.65706166  1
  O  O47  1  0.75000000  0.49105766  0.34293834  1
  O  O48  1  0.94441145  0.87297094  0.87769687  1
  O  O49  1  0.44441145  0.12702906  0.12230313  1
  O  O50  1  0.05558855  0.12702906  0.12230313  1
  O  O51  1  0.55558855  0.87297094  0.87769687  1
  O  O52  1  0.75000000  0.85904227  0.01513792  1
  O  O53  1  0.25000000  0.14095773  0.98486208  1
  O  O54  1  0.95038232  0.16801875  0.60336110  1
  O  O55  1  0.45038232  0.83198125  0.39663890  1
  O  O56  1  0.04961768  0.83198125  0.39663890  1
  O  O57  1  0.54961768  0.16801875  0.60336110  1
  O  O58  1  0.75000000  0.95251716  0.52869615  1
  O  O59  1  0.25000000  0.04748284  0.47130385  1
  O  O60  1  0.75000000  0.96474042  0.68691134  1
  O  O61  1  0.25000000  0.03525958  0.31308866  1
  O  O62  1  0.75000000  0.11321312  0.93763017  1
  O  O63  1  0.25000000  0.88678688  0.06236983  1
