# generated using pymatgen
data_Rb3FeMo4O15
_symmetry_space_group_name_H-M   'P 1'
_cell_length_a   10.01850841
_cell_length_b   11.87337023
_cell_length_c   14.04711916
_cell_angle_alpha   90.00000000
_cell_angle_beta   90.00000000
_cell_angle_gamma   93.05877510
_symmetry_Int_Tables_number   1
_chemical_formula_structural   Rb3FeMo4O15
_chemical_formula_sum   'Rb12 Fe4 Mo16 O60'
_cell_volume   1668.57284934
_cell_formula_units_Z   4
loop_
 _symmetry_equiv_pos_site_id
 _symmetry_equiv_pos_as_xyz
  1  'x, y, z'
loop_
 _atom_site_type_symbol
 _atom_site_label
 _atom_site_symmetry_multiplicity
 _atom_site_fract_x
 _atom_site_fract_y
 _atom_site_fract_z
 _atom_site_occupancy
  Rb  Rb0  1  0.81839756  0.73958405  0.94805694  1
  Rb  Rb1  1  0.68160244  0.26041595  0.44805694  1
  Rb  Rb2  1  0.18160244  0.26041595  0.05194306  1
  Rb  Rb3  1  0.31839756  0.73958405  0.55194306  1
  Rb  Rb4  1  0.89370379  0.50090004  0.18500656  1
  Rb  Rb5  1  0.60629621  0.49909996  0.68500656  1
  Rb  Rb6  1  0.10629621  0.49909996  0.81499344  1
  Rb  Rb7  1  0.39370379  0.50090004  0.31499344  1
  Rb  Rb8  1  0.38150899  0.00790526  0.31409709  1
  Rb  Rb9  1  0.11849101  0.99209474  0.81409709  1
  Rb  Rb10  1  0.61849101  0.99209474  0.68590291  1
  Rb  Rb11  1  0.88150899  0.00790526  0.18590291  1
  Fe  Fe12  1  -0.00000000  0.50000000  0.50000000  1
  Fe  Fe13  1  0.50000000  0.50000000  0.00000000  1
  Fe  Fe14  1  -0.00000000  -0.00000000  0.50000000  1
  Fe  Fe15  1  0.50000000  -0.00000000  0.00000000  1
  Mo  Mo16  1  0.72266955  0.60116127  0.44049694  1
  Mo  Mo17  1  0.77733045  0.39883873  0.94049694  1
  Mo  Mo18  1  0.27733045  0.39883873  0.55950306  1
  Mo  Mo19  1  0.22266955  0.60116127  0.05950306  1
  Mo  Mo20  1  0.69856629  0.90197115  0.43102441  1
  Mo  Mo21  1  0.80143371  0.09802885  0.93102441  1
  Mo  Mo22  1  0.30143371  0.09802885  0.56897559  1
  Mo  Mo23  1  0.19856629  0.90197115  0.06897559  1
  Mo  Mo24  1  0.05736552  0.26417814  0.36618010  1
  Mo  Mo25  1  0.44263448  0.73582186  0.86618010  1
  Mo  Mo26  1  0.94263448  0.73582186  0.63381990  1
  Mo  Mo27  1  0.55736552  0.26417814  0.13381990  1
  Mo  Mo28  1  0.00873810  0.76805917  0.35240915  1
  Mo  Mo29  1  0.49126190  0.23194083  0.85240915  1
  Mo  Mo30  1  0.99126190  0.23194083  0.64759085  1
  Mo  Mo31  1  0.50873810  0.76805917  0.14759085  1
  O  O32  1  0.56169134  0.61210565  0.48664770  1
  O  O33  1  0.93830866  0.38789435  0.98664770  1
  O  O34  1  0.43830866  0.38789435  0.51335230  1
  O  O35  1  0.06169134  0.61210565  0.01335230  1
  O  O36  1  0.69295027  0.52671854  0.33382397  1
  O  O37  1  0.80704973  0.47328146  0.83382397  1
  O  O38  1  0.30704973  0.47328146  0.66617603  1
  O  O39  1  0.19295027  0.52671854  0.16617603  1
  O  O40  1  0.79821138  0.49338820  0.51726971  1
  O  O41  1  0.70178862  0.50661180  0.01726971  1
  O  O42  1  0.20178862  0.50661180  0.48273029  1
  O  O43  1  0.29821138  0.49338820  0.98273029  1
  O  O44  1  0.75258980  0.75923150  0.38965934  1
  O  O45  1  0.74741020  0.24076850  0.88965934  1
  O  O46  1  0.24741020  0.24076850  0.61034066  1
  O  O47  1  0.25258980  0.75923150  0.11034066  1
  O  O48  1  0.94969507  0.63611786  0.42310190  1
  O  O49  1  0.55030493  0.36388214  0.92310190  1
  O  O50  1  0.05030493  0.36388214  0.57689810  1
  O  O51  1  0.44969507  0.63611786  0.07689810  1
  O  O52  1  0.77458034  0.71721803  0.59283194  1
  O  O53  1  0.72541966  0.28278197  0.09283194  1
  O  O54  1  0.22541966  0.28278197  0.40716806  1
  O  O55  1  0.27458034  0.71721803  0.90716806  1
  O  O56  1  0.54032118  0.88093681  0.48221900  1
  O  O57  1  0.95967882  0.11906319  0.98221900  1
  O  O58  1  0.45967882  0.11906319  0.51778100  1
  O  O59  1  0.04032118  0.88093681  0.01778100  1
  O  O60  1  0.67679380  0.99268283  0.33387739  1
  O  O61  1  0.82320620  0.00731717  0.83387739  1
  O  O62  1  0.32320620  0.00731717  0.66612261  1
  O  O63  1  0.17679380  0.99268283  0.16612261  1
  O  O64  1  0.80015650  0.97634075  0.52227986  1
  O  O65  1  0.69984350  0.02365925  0.02227986  1
  O  O66  1  0.19984350  0.02365925  0.47772014  1
  O  O67  1  0.30015650  0.97634075  0.97772014  1
  O  O68  1  0.05489380  0.22936100  0.24424574  1
  O  O69  1  0.44510620  0.77063900  0.74424574  1
  O  O70  1  0.94510620  0.77063900  0.75575426  1
  O  O71  1  0.55489380  0.22936100  0.25575426  1
  O  O72  1  0.96835244  0.15260063  0.43524828  1
  O  O73  1  0.53164756  0.84739937  0.93524828  1
  O  O74  1  0.03164756  0.84739937  0.56475172  1
  O  O75  1  0.46835244  0.15260063  0.06475172  1
  O  O76  1  0.97475045  0.39683718  0.38150989  1
  O  O77  1  0.52524955  0.60316282  0.88150989  1
  O  O78  1  0.02524955  0.60316282  0.61849011  1
  O  O79  1  0.47475045  0.39683718  0.11849011  1
  O  O80  1  0.18202086  0.77075104  0.36396517  1
  O  O81  1  0.31797914  0.22924896  0.86396517  1
  O  O82  1  0.81797914  0.22924896  0.63603483  1
  O  O83  1  0.68202086  0.77075104  0.13603483  1
  O  O84  1  0.97520662  0.74438656  0.23197568  1
  O  O85  1  0.52479338  0.25561344  0.73197568  1
  O  O86  1  0.02479338  0.25561344  0.76802432  1
  O  O87  1  0.47520662  0.74438656  0.26802432  1
  O  O88  1  0.96307630  0.91536564  0.37833048  1
  O  O89  1  0.53692370  0.08463436  0.87833048  1
  O  O90  1  0.03692370  0.08463436  0.62166952  1
  O  O91  1  0.46307630  0.91536564  0.12166952  1
