# generated using pymatgen
data_KCu2SbSe3
_symmetry_space_group_name_H-M   'P 1'
_cell_length_a   6.79020565
_cell_length_b   10.99822353
_cell_length_c   18.85034006
_cell_angle_alpha   90.00000000
_cell_angle_beta   90.98450851
_cell_angle_gamma   90.00000000
_symmetry_Int_Tables_number   1
_chemical_formula_structural   KCu2SbSe3
_chemical_formula_sum   'K8 Cu16 Sb8 Se24'
_cell_volume   1407.53934161
_cell_formula_units_Z   8
loop_
 _symmetry_equiv_pos_site_id
 _symmetry_equiv_pos_as_xyz
  1  'x, y, z'
loop_
 _atom_site_type_symbol
 _atom_site_label
 _atom_site_symmetry_multiplicity
 _atom_site_fract_x
 _atom_site_fract_y
 _atom_site_fract_z
 _atom_site_occupancy
  K  K0  1  0.69927887  0.36749573  0.21396355  1
  K  K1  1  0.19927887  0.13250427  0.71396355  1
  K  K2  1  0.30072113  0.63250427  0.78603645  1
  K  K3  1  0.80072113  0.86749573  0.28603645  1
  K  K4  1  0.70044519  0.37109253  0.71100326  1
  K  K5  1  0.20044519  0.12890747  0.21100326  1
  K  K6  1  0.29955481  0.62890747  0.28899674  1
  K  K7  1  0.79955481  0.87109253  0.78899674  1
  Cu  Cu8  1  0.01773815  0.36318198  0.37046051  1
  Cu  Cu9  1  0.51773815  0.13681802  0.87046051  1
  Cu  Cu10  1  0.98226185  0.63681802  0.62953949  1
  Cu  Cu11  1  0.48226185  0.86318198  0.12953949  1
  Cu  Cu12  1  0.49834135  0.16897029  0.55501077  1
  Cu  Cu13  1  0.99834135  0.33102971  0.05501077  1
  Cu  Cu14  1  0.50165865  0.83102971  0.44498923  1
  Cu  Cu15  1  0.00165865  0.66897029  0.94498923  1
  Cu  Cu16  1  0.07873665  0.03687716  0.41788941  1
  Cu  Cu17  1  0.57873665  0.46312284  0.91788941  1
  Cu  Cu18  1  0.92126335  0.96312284  0.58211059  1
  Cu  Cu19  1  0.42126335  0.53687716  0.08211059  1
  Cu  Cu20  1  0.58238694  0.44980367  0.41477468  1
  Cu  Cu21  1  0.08238694  0.05019633  0.91477468  1
  Cu  Cu22  1  0.41761306  0.55019633  0.58522532  1
  Cu  Cu23  1  0.91761306  0.94980367  0.08522532  1
  Sb  Sb24  1  0.53040321  0.14420572  0.41016375  1
  Sb  Sb25  1  0.03040321  0.35579428  0.91016375  1
  Sb  Sb26  1  0.46959679  0.85579428  0.58983625  1
  Sb  Sb27  1  0.96959679  0.64420572  0.08983625  1
  Sb  Sb28  1  0.02378290  0.35432968  0.51751154  1
  Sb  Sb29  1  0.52378290  0.14567032  0.01751154  1
  Sb  Sb30  1  0.97621710  0.64567032  0.48248846  1
  Sb  Sb31  1  0.47621710  0.85432968  0.98248846  1
  Se  Se32  1  0.63571143  0.36758710  0.53562197  1
  Se  Se33  1  0.13571143  0.13241290  0.03562197  1
  Se  Se34  1  0.36428857  0.63241290  0.46437803  1
  Se  Se35  1  0.86428857  0.86758710  0.96437803  1
  Se  Se36  1  0.15113429  0.44249565  0.64258507  1
  Se  Se37  1  0.65113429  0.05750435  0.14258507  1
  Se  Se38  1  0.84886571  0.55750435  0.35741493  1
  Se  Se39  1  0.34886571  0.94249565  0.85741493  1
  Se  Se40  1  0.35144205  0.95175816  0.35153201  1
  Se  Se41  1  0.85144205  0.54824184  0.85153201  1
  Se  Se42  1  0.64855795  0.04824184  0.64846799  1
  Se  Se43  1  0.14855795  0.45175816  0.14846799  1
  Se  Se44  1  0.36210981  0.32829979  0.34087263  1
  Se  Se45  1  0.86210981  0.17170021  0.84087263  1
  Se  Se46  1  0.63789019  0.67170021  0.65912737  1
  Se  Se47  1  0.13789019  0.82829979  0.15912737  1
  Se  Se48  1  0.14828506  0.12755724  0.53594898  1
  Se  Se49  1  0.64828506  0.37244276  0.03594898  1
  Se  Se50  1  0.85171494  0.87244276  0.46405102  1
  Se  Se51  1  0.35171494  0.62755724  0.96405102  1
  Se  Se52  1  0.87013942  0.16748874  0.34221658  1
  Se  Se53  1  0.37013942  0.33251126  0.84221658  1
  Se  Se54  1  0.12986058  0.83251126  0.65778342  1
  Se  Se55  1  0.62986058  0.66748874  0.15778342  1
