# generated using pymatgen
data_LaB2O4F
_symmetry_space_group_name_H-M   'P 1'
_cell_length_a   7.42134775
_cell_length_b   8.30432311
_cell_length_c   12.77009856
_cell_angle_alpha   90.00000000
_cell_angle_beta   90.00000000
_cell_angle_gamma   90.00000000
_symmetry_Int_Tables_number   1
_chemical_formula_structural   LaB2O4F
_chemical_formula_sum   'La8 B16 O32 F8'
_cell_volume   787.01184733
_cell_formula_units_Z   8
loop_
 _symmetry_equiv_pos_site_id
 _symmetry_equiv_pos_as_xyz
  1  'x, y, z'
loop_
 _atom_site_type_symbol
 _atom_site_label
 _atom_site_symmetry_multiplicity
 _atom_site_fract_x
 _atom_site_fract_y
 _atom_site_fract_z
 _atom_site_occupancy
  La  La0  1  0.24768026  0.61363889  0.47563446  1
  La  La1  1  0.75231974  0.11363889  0.02436554  1
  La  La2  1  0.25231974  0.38636111  0.97563446  1
  La  La3  1  0.74768026  0.88636111  0.52436554  1
  La  La4  1  0.75231974  0.38636111  0.52436554  1
  La  La5  1  0.24768026  0.88636111  0.97563446  1
  La  La6  1  0.74768026  0.61363889  0.02436554  1
  La  La7  1  0.25231974  0.11363889  0.47563446  1
  B  B8  1  0.34477877  0.65930892  0.17215549  1
  B  B9  1  0.65522123  0.15930892  0.32784451  1
  B  B10  1  0.15522123  0.34069108  0.67215549  1
  B  B11  1  0.84477877  0.84069108  0.82784451  1
  B  B12  1  0.65522123  0.34069108  0.82784451  1
  B  B13  1  0.34477877  0.84069108  0.67215549  1
  B  B14  1  0.84477877  0.65930892  0.32784451  1
  B  B15  1  0.15522123  0.15930892  0.17215549  1
  B  B16  1  0.26141622  0.90974941  0.27124560  1
  B  B17  1  0.73858378  0.40974941  0.22875440  1
  B  B18  1  0.23858378  0.09025059  0.77124560  1
  B  B19  1  0.76141622  0.59025059  0.72875440  1
  B  B20  1  0.73858378  0.09025059  0.72875440  1
  B  B21  1  0.26141622  0.59025059  0.77124560  1
  B  B22  1  0.76141622  0.90974941  0.22875440  1
  B  B23  1  0.23858378  0.40974941  0.27124560  1
  O  O24  1  0.42606527  0.60265409  0.08583055  1
  O  O25  1  0.57393473  0.10265409  0.41416945  1
  O  O26  1  0.07393473  0.39734591  0.58583055  1
  O  O27  1  0.92606527  0.89734591  0.91416945  1
  O  O28  1  0.57393473  0.39734591  0.91416945  1
  O  O29  1  0.42606527  0.89734591  0.58583055  1
  O  O30  1  0.92606527  0.60265409  0.41416945  1
  O  O31  1  0.07393473  0.10265409  0.08583055  1
  O  O32  1  0.30867957  0.82627007  0.17964459  1
  O  O33  1  0.69132043  0.32627007  0.32035541  1
  O  O34  1  0.19132043  0.17372993  0.67964459  1
  O  O35  1  0.80867957  0.67372993  0.82035541  1
  O  O36  1  0.69132043  0.17372993  0.82035541  1
  O  O37  1  0.30867957  0.67372993  0.67964459  1
  O  O38  1  0.80867957  0.82627007  0.32035541  1
  O  O39  1  0.19132043  0.32627007  0.17964459  1
  O  O40  1  0.29240687  0.56970576  0.25880952  1
  O  O41  1  0.70759313  0.06970576  0.24119048  1
  O  O42  1  0.20759313  0.43029424  0.75880952  1
  O  O43  1  0.79240687  0.93029424  0.74119048  1
  O  O44  1  0.70759313  0.43029424  0.74119048  1
  O  O45  1  0.29240687  0.93029424  0.75880952  1
  O  O46  1  0.79240687  0.56970576  0.24119048  1
  O  O47  1  0.20759313  0.06970576  0.25880952  1
  O  O48  1  0.27282883  0.85717782  0.36972425  1
  O  O49  1  0.72717117  0.35717782  0.13027575  1
  O  O50  1  0.22717117  0.14282218  0.86972425  1
  O  O51  1  0.77282883  0.64282218  0.63027575  1
  O  O52  1  0.72717117  0.14282218  0.63027575  1
  O  O53  1  0.27282883  0.64282218  0.86972425  1
  O  O54  1  0.77282883  0.85717782  0.13027575  1
  O  O55  1  0.22717117  0.35717782  0.36972425  1
  F  F56  1  0.06707749  0.63436357  0.04829131  1
  F  F57  1  0.93292251  0.13436357  0.45170869  1
  F  F58  1  0.43292251  0.36563643  0.54829131  1
  F  F59  1  0.56707749  0.86563643  0.95170869  1
  F  F60  1  0.93292251  0.36563643  0.95170869  1
  F  F61  1  0.06707749  0.86563643  0.54829131  1
  F  F62  1  0.56707749  0.63436357  0.45170869  1
  F  F63  1  0.43292251  0.13436357  0.04829131  1
