# generated using pymatgen
data_GaBP2H5NO9
_symmetry_space_group_name_H-M   'P 1'
_cell_length_a   8.60526703
_cell_length_b   9.45097492
_cell_length_c   9.69727540
_cell_angle_alpha   104.06233669
_cell_angle_beta   90.00000000
_cell_angle_gamma   90.00000000
_symmetry_Int_Tables_number   1
_chemical_formula_structural   GaBP2H5NO9
_chemical_formula_sum   'Ga4 B4 P8 H20 N4 O36'
_cell_volume   765.02693928
_cell_formula_units_Z   4
loop_
 _symmetry_equiv_pos_site_id
 _symmetry_equiv_pos_as_xyz
  1  'x, y, z'
loop_
 _atom_site_type_symbol
 _atom_site_label
 _atom_site_symmetry_multiplicity
 _atom_site_fract_x
 _atom_site_fract_y
 _atom_site_fract_z
 _atom_site_occupancy
  Ga  Ga0  1  0.65862280  0.20090242  0.93423398  1
  Ga  Ga1  1  0.15862280  0.79909758  0.56576602  1
  Ga  Ga2  1  0.34137720  0.79909758  0.06576602  1
  Ga  Ga3  1  0.84137720  0.20090242  0.43423398  1
  B  B4  1  0.45295051  0.33660192  0.19472771  1
  B  B5  1  0.95295051  0.66339808  0.30527229  1
  B  B6  1  0.54704949  0.66339808  0.80527229  1
  B  B7  1  0.04704949  0.33660192  0.69472771  1
  P  P8  1  0.56469900  0.07183239  0.20725031  1
  P  P9  1  0.06469900  0.92816761  0.29274969  1
  P  P10  1  0.43530100  0.92816761  0.79274969  1
  P  P11  1  0.93530100  0.07183239  0.70725031  1
  P  P12  1  0.73483121  0.41662010  0.72339247  1
  P  P13  1  0.23483121  0.58337990  0.77660753  1
  P  P14  1  0.26516879  0.58337990  0.27660753  1
  P  P15  1  0.76516879  0.41662010  0.22339247  1
  H  H16  1  0.44401423  0.38902974  0.99673714  1
  H  H17  1  0.94401423  0.61097026  0.50326286  1
  H  H18  1  0.55598577  0.61097026  0.00326286  1
  H  H19  1  0.05598577  0.38902974  0.49673714  1
  H  H20  1  0.53410991  0.79031481  0.51106871  1
  H  H21  1  0.03410991  0.20968519  0.98893129  1
  H  H22  1  0.46589009  0.20968519  0.48893129  1
  H  H23  1  0.96589009  0.79031481  0.01106871  1
  H  H24  1  0.67031713  0.72175173  0.38586730  1
  H  H25  1  0.17031713  0.27824827  0.11413270  1
  H  H26  1  0.32968287  0.27824827  0.61413270  1
  H  H27  1  0.82968287  0.72175173  0.88586730  1
  H  H28  1  0.68355232  0.89625751  0.48121316  1
  H  H29  1  0.18355232  0.10374249  0.01878684  1
  H  H30  1  0.31644768  0.10374249  0.51878684  1
  H  H31  1  0.81644768  0.89625751  0.98121316  1
  H  H32  1  0.54309974  0.84535952  0.35735648  1
  H  H33  1  0.04309974  0.15464048  0.14264352  1
  H  H34  1  0.45690026  0.15464048  0.64264352  1
  H  H35  1  0.95690026  0.84535952  0.85735648  1
  N  N36  1  0.60742988  0.81328676  0.43545414  1
  N  N37  1  0.10742988  0.18671324  0.06454586  1
  N  N38  1  0.39257012  0.18671324  0.56454586  1
  N  N39  1  0.89257012  0.81328676  0.93545414  1
  O  O40  1  0.66251586  0.07373859  0.07447029  1
  O  O41  1  0.16251586  0.92626141  0.42552971  1
  O  O42  1  0.33748414  0.92626141  0.92552971  1
  O  O43  1  0.83748414  0.07373859  0.57447029  1
  O  O44  1  0.84178611  0.10216645  0.84683851  1
  O  O45  1  0.34178611  0.89783355  0.65316149  1
  O  O46  1  0.15821389  0.89783355  0.15316149  1
  O  O47  1  0.65821389  0.10216645  0.34683851  1
  O  O48  1  0.51701434  0.07440510  0.80104978  1
  O  O49  1  0.01701434  0.92559490  0.69895022  1
  O  O50  1  0.48298566  0.92559490  0.19895022  1
  O  O51  1  0.98298566  0.07440510  0.30104978  1
  O  O52  1  0.63371913  0.34456812  0.81600107  1
  O  O53  1  0.13371913  0.65543188  0.68399893  1
  O  O54  1  0.36628087  0.65543188  0.18399893  1
  O  O55  1  0.86628087  0.34456812  0.31600107  1
  O  O56  1  0.46381440  0.30566632  0.03632232  1
  O  O57  1  0.96381440  0.69433368  0.46367768  1
  O  O58  1  0.53618560  0.69433368  0.96367768  1
  O  O59  1  0.03618560  0.30566632  0.53632232  1
  O  O60  1  0.78756069  0.35046085  0.06458686  1
  O  O61  1  0.28756069  0.64953915  0.43541314  1
  O  O62  1  0.21243931  0.64953915  0.93541314  1
  O  O63  1  0.71243931  0.35046085  0.56458686  1
  O  O64  1  0.91123511  0.41941838  0.76530860  1
  O  O65  1  0.41123511  0.58058162  0.73469140  1
  O  O66  1  0.08876489  0.58058162  0.23469140  1
  O  O67  1  0.58876489  0.41941838  0.26530860  1
  O  O68  1  0.43520223  0.19430965  0.22788241  1
  O  O69  1  0.93520223  0.80569035  0.27211759  1
  O  O70  1  0.56479777  0.80569035  0.77211759  1
  O  O71  1  0.06479777  0.19430965  0.72788241  1
  O  O72  1  0.69339104  0.58437314  0.75842049  1
  O  O73  1  0.19339104  0.41562686  0.74157951  1
  O  O74  1  0.30660896  0.41562686  0.24157951  1
  O  O75  1  0.80660896  0.58437314  0.25842049  1
