# generated using pymatgen
data_Dy2HfS5
_symmetry_space_group_name_H-M   'P 1'
_cell_length_a   7.24994971
_cell_length_b   7.73539856
_cell_length_c   11.54747678
_cell_angle_alpha   90.00000000
_cell_angle_beta   90.00000000
_cell_angle_gamma   90.00000000
_symmetry_Int_Tables_number   1
_chemical_formula_structural   Dy2HfS5
_chemical_formula_sum   'Dy8 Hf4 S20'
_cell_volume   647.59693848
_cell_formula_units_Z   4
loop_
 _symmetry_equiv_pos_site_id
 _symmetry_equiv_pos_as_xyz
  1  'x, y, z'
loop_
 _atom_site_type_symbol
 _atom_site_label
 _atom_site_symmetry_multiplicity
 _atom_site_fract_x
 _atom_site_fract_y
 _atom_site_fract_z
 _atom_site_occupancy
  Dy  Dy0  1  0.02366489  0.99745266  0.82157535  1
  Dy  Dy1  1  0.47633511  0.50254734  0.32157535  1
  Dy  Dy2  1  0.97633511  0.49745266  0.17842465  1
  Dy  Dy3  1  0.52366489  0.00254734  0.67842465  1
  Dy  Dy4  1  0.97633511  0.00254734  0.17842465  1
  Dy  Dy5  1  0.52366489  0.49745266  0.67842465  1
  Dy  Dy6  1  0.02366489  0.50254734  0.82157535  1
  Dy  Dy7  1  0.47633511  0.99745266  0.32157535  1
  Hf  Hf8  1  0.57548464  0.25000000  0.99407943  1
  Hf  Hf9  1  0.92451536  0.25000000  0.49407943  1
  Hf  Hf10  1  0.42451536  0.75000000  0.00592057  1
  Hf  Hf11  1  0.07548464  0.75000000  0.50592057  1
  S  S12  1  0.33895625  0.46383338  0.09368930  1
  S  S13  1  0.16104375  0.03616662  0.59368930  1
  S  S14  1  0.66104375  0.96383338  0.90631070  1
  S  S15  1  0.83895625  0.53616662  0.40631070  1
  S  S16  1  0.66104375  0.53616662  0.90631070  1
  S  S17  1  0.83895625  0.96383338  0.40631070  1
  S  S18  1  0.33895625  0.03616662  0.09368930  1
  S  S19  1  0.16104375  0.46383338  0.59368930  1
  S  S20  1  0.33294664  0.25000000  0.81879501  1
  S  S21  1  0.16705336  0.25000000  0.31879501  1
  S  S22  1  0.66705336  0.75000000  0.18120499  1
  S  S23  1  0.83294664  0.75000000  0.68120499  1
  S  S24  1  0.94662174  0.25000000  0.99668272  1
  S  S25  1  0.55337826  0.25000000  0.49668272  1
  S  S26  1  0.05337826  0.75000000  0.00331728  1
  S  S27  1  0.44662174  0.75000000  0.50331728  1
  S  S28  1  0.68825963  0.25000000  0.20717087  1
  S  S29  1  0.81174037  0.25000000  0.70717087  1
  S  S30  1  0.31174037  0.75000000  0.79282913  1
  S  S31  1  0.18825963  0.75000000  0.29282913  1
