# generated using pymatgen
data_CsH4NF2
_symmetry_space_group_name_H-M   'P 1'
_cell_length_a   4.20171412
_cell_length_b   7.38824167
_cell_length_c   13.74616046
_cell_angle_alpha   90.00000000
_cell_angle_beta   90.00000000
_cell_angle_gamma   90.00000000
_symmetry_Int_Tables_number   1
_chemical_formula_structural   CsH4NF2
_chemical_formula_sum   'Cs4 H16 N4 F8'
_cell_volume   426.72589911
_cell_formula_units_Z   4
loop_
 _symmetry_equiv_pos_site_id
 _symmetry_equiv_pos_as_xyz
  1  'x, y, z'
loop_
 _atom_site_type_symbol
 _atom_site_label
 _atom_site_symmetry_multiplicity
 _atom_site_fract_x
 _atom_site_fract_y
 _atom_site_fract_z
 _atom_site_occupancy
  Cs  Cs0  1  0.75000000  0.38971951  0.14372948  1
  Cs  Cs1  1  0.75000000  0.88971951  0.35627052  1
  Cs  Cs2  1  0.25000000  0.61028049  0.85627052  1
  Cs  Cs3  1  0.25000000  0.11028049  0.64372948  1
  H  H4  1  0.25000000  0.76693939  0.16718000  1
  H  H5  1  0.25000000  0.26693939  0.33282000  1
  H  H6  1  0.75000000  0.23306061  0.83282000  1
  H  H7  1  0.75000000  0.73306061  0.66718000  1
  H  H8  1  0.04520229  0.83309764  0.06509162  1
  H  H9  1  0.45479771  0.33309764  0.43490838  1
  H  H10  1  0.54520229  0.16690236  0.93490838  1
  H  H11  1  0.95479771  0.66690236  0.56509162  1
  H  H12  1  0.95479771  0.16690236  0.93490838  1
  H  H13  1  0.54520229  0.66690236  0.56509162  1
  H  H14  1  0.45479771  0.83309764  0.06509162  1
  H  H15  1  0.04520229  0.33309764  0.43490838  1
  H  H16  1  0.25000000  0.98795816  0.13817508  1
  H  H17  1  0.25000000  0.48795816  0.36182492  1
  H  H18  1  0.75000000  0.01204184  0.86182492  1
  H  H19  1  0.75000000  0.51204184  0.63817508  1
  N  N20  1  0.25000000  0.85936074  0.10776509  1
  N  N21  1  0.25000000  0.35936074  0.39223491  1
  N  N22  1  0.75000000  0.14063926  0.89223491  1
  N  N23  1  0.75000000  0.64063926  0.60776509  1
  F  F24  1  0.25000000  0.13529512  0.24232390  1
  F  F25  1  0.25000000  0.63529512  0.25767610  1
  F  F26  1  0.75000000  0.86470488  0.75767610  1
  F  F27  1  0.75000000  0.36470488  0.74232390  1
  F  F28  1  0.75000000  0.74474008  0.00520014  1
  F  F29  1  0.75000000  0.24474008  0.49479986  1
  F  F30  1  0.25000000  0.25525992  0.99479986  1
  F  F31  1  0.25000000  0.75525992  0.50520014  1
