# generated using pymatgen
data_BaV2SeO8
_symmetry_space_group_name_H-M   'P 1'
_cell_length_a   5.46162861
_cell_length_b   9.23575974
_cell_length_c   14.19202955
_cell_angle_alpha   90.00000000
_cell_angle_beta   90.00000000
_cell_angle_gamma   90.00000000
_symmetry_Int_Tables_number   1
_chemical_formula_structural   BaV2SeO8
_chemical_formula_sum   'Ba4 V8 Se4 O32'
_cell_volume   715.87846501
_cell_formula_units_Z   4
loop_
 _symmetry_equiv_pos_site_id
 _symmetry_equiv_pos_as_xyz
  1  'x, y, z'
loop_
 _atom_site_type_symbol
 _atom_site_label
 _atom_site_symmetry_multiplicity
 _atom_site_fract_x
 _atom_site_fract_y
 _atom_site_fract_z
 _atom_site_occupancy
  Ba  Ba0  1  0.25000000  0.30403993  0.57706224  1
  Ba  Ba1  1  0.25000000  0.19596007  0.07706224  1
  Ba  Ba2  1  0.75000000  0.69596007  0.42293776  1
  Ba  Ba3  1  0.75000000  0.80403993  0.92293776  1
  V  V4  1  0.25000000  0.06802544  0.78630493  1
  V  V5  1  0.25000000  0.43197456  0.28630493  1
  V  V6  1  0.75000000  0.93197456  0.21369507  1
  V  V7  1  0.75000000  0.56802544  0.71369507  1
  V  V8  1  0.25000000  0.47534549  0.84009473  1
  V  V9  1  0.25000000  0.02465451  0.34009473  1
  V  V10  1  0.75000000  0.52465451  0.15990527  1
  V  V11  1  0.75000000  0.97534549  0.65990527  1
  Se  Se12  1  0.25000000  0.72103822  0.60184282  1
  Se  Se13  1  0.25000000  0.77896178  0.10184282  1
  Se  Se14  1  0.75000000  0.27896178  0.39815718  1
  Se  Se15  1  0.75000000  0.22103822  0.89815718  1
  O  O16  1  0.25000000  0.89366425  0.80200022  1
  O  O17  1  0.25000000  0.60633575  0.30200022  1
  O  O18  1  0.75000000  0.10633575  0.19799978  1
  O  O19  1  0.75000000  0.39366425  0.69799978  1
  O  O20  1  0.48709598  0.08498038  0.69184456  1
  O  O21  1  0.01290402  0.41501962  0.19184456  1
  O  O22  1  0.98709598  0.91501962  0.30815544  1
  O  O23  1  0.51290402  0.58498038  0.80815544  1
  O  O24  1  0.51290402  0.91501962  0.30815544  1
  O  O25  1  0.98709598  0.58498038  0.80815544  1
  O  O26  1  0.01290402  0.08498038  0.69184456  1
  O  O27  1  0.48709598  0.41501962  0.19184456  1
  O  O28  1  0.50275606  0.09643031  0.88877224  1
  O  O29  1  0.99724394  0.40356969  0.38877224  1
  O  O30  1  0.00275606  0.90356969  0.11122776  1
  O  O31  1  0.49724394  0.59643031  0.61122776  1
  O  O32  1  0.49724394  0.90356969  0.11122776  1
  O  O33  1  0.00275606  0.59643031  0.61122776  1
  O  O34  1  0.99724394  0.09643031  0.88877224  1
  O  O35  1  0.50275606  0.40356969  0.38877224  1
  O  O36  1  0.25000000  0.31873369  0.77556347  1
  O  O37  1  0.25000000  0.18126631  0.27556347  1
  O  O38  1  0.75000000  0.68126631  0.22443653  1
  O  O39  1  0.75000000  0.81873369  0.72443653  1
  O  O40  1  0.25000000  0.42625447  0.95318113  1
  O  O41  1  0.25000000  0.07374553  0.45318113  1
  O  O42  1  0.75000000  0.57374553  0.04681887  1
  O  O43  1  0.75000000  0.92625447  0.54681887  1
  O  O44  1  0.25000000  0.76350528  0.98408560  1
  O  O45  1  0.25000000  0.73649472  0.48408560  1
  O  O46  1  0.75000000  0.23649472  0.01591440  1
  O  O47  1  0.75000000  0.26350528  0.51591440  1
