# generated using pymatgen
data_Li15H9N8
_symmetry_space_group_name_H-M   'P 1'
_cell_length_a   7.18604869
_cell_length_b   7.18575195
_cell_length_c   10.41769308
_cell_angle_alpha   90.00000000
_cell_angle_beta   90.00000000
_cell_angle_gamma   91.38456788
_symmetry_Int_Tables_number   1
_chemical_formula_structural   Li15H9N8
_chemical_formula_sum   'Li30 H18 N16'
_cell_volume   537.78305953
_cell_formula_units_Z   2
loop_
 _symmetry_equiv_pos_site_id
 _symmetry_equiv_pos_as_xyz
  1  'x, y, z'
loop_
 _atom_site_type_symbol
 _atom_site_label
 _atom_site_symmetry_multiplicity
 _atom_site_fract_x
 _atom_site_fract_y
 _atom_site_fract_z
 _atom_site_occupancy
  Li  Li0  1  0.37641847  0.76637237  0.61496677  1
  Li  Li1  1  0.37641847  0.26637237  0.38503323  1
  Li  Li2  1  0.81782889  0.24392581  0.15026288  1
  Li  Li3  1  0.81782889  0.74392581  0.84973712  1
  Li  Li4  1  0.36425037  0.70145980  0.10286268  1
  Li  Li5  1  0.36425037  0.20145980  0.89713732  1
  Li  Li6  1  0.87189077  0.23131380  0.61225883  1
  Li  Li7  1  0.87189077  0.73131380  0.38774117  1
  Li  Li8  1  0.37338245  0.78854665  0.88669824  1
  Li  Li9  1  0.37338245  0.28854665  0.11330176  1
  Li  Li10  1  0.86275613  0.27770944  0.38506807  1
  Li  Li11  1  0.86275613  0.77770944  0.61493193  1
  Li  Li12  1  0.11739805  0.71551171  0.75467763  1
  Li  Li13  1  0.11739805  0.21551171  0.24532237  1
  Li  Li14  1  0.10637845  0.99797230  0.87657356  1
  Li  Li15  1  0.10637845  0.49797230  0.12342644  1
  Li  Li16  1  0.68239809  0.50853385  0.59212859  1
  Li  Li17  1  0.68239809  0.00853385  0.40787141  1
  Li  Li18  1  0.14127318  0.98203521  0.10489280  1
  Li  Li19  1  0.14127318  0.48203521  0.89510720  1
  Li  Li20  1  0.61967817  0.49081854  0.36678531  1
  Li  Li21  1  0.61967817  0.99081854  0.63321469  1
  Li  Li22  1  0.12082184  0.00545362  0.63169704  1
  Li  Li23  1  0.12082184  0.50545362  0.36830296  1
  Li  Li24  1  0.56373183  0.49497536  0.91063975  1
  Li  Li25  1  0.56373183  0.99497536  0.08936025  1
  Li  Li26  1  0.07274551  0.00004960  0.41071667  1
  Li  Li27  1  0.07274551  0.50004960  0.58928333  1
  Li  Li28  1  0.62722860  0.50459697  0.13596042  1
  Li  Li29  1  0.62722860  0.00459697  0.86403958  1
  H  H30  1  0.22216442  0.76344549  0.45469920  1
  H  H31  1  0.22216442  0.26344549  0.54530080  1
  H  H32  1  0.72171179  0.26354023  0.95578301  1
  H  H33  1  0.72171179  0.76354023  0.04421699  1
  H  H34  1  0.52732746  0.75345969  0.43828646  1
  H  H35  1  0.52732746  0.25345969  0.56171354  1
  H  H36  1  0.00272424  0.23928446  0.98175577  1
  H  H37  1  0.00272424  0.73928446  0.01824423  1
  H  H38  1  0.88646646  0.11463974  0.79166492  1
  H  H39  1  0.88646646  0.61463974  0.20833508  1
  H  H40  1  0.34560803  0.42061884  0.70557073  1
  H  H41  1  0.34560803  0.92061884  0.29442927  1
  H  H42  1  0.84987984  0.92720432  0.20959715  1
  H  H43  1  0.84987984  0.42720432  0.79040285  1
  H  H44  1  0.36775858  0.61007659  0.29629074  1
  H  H45  1  0.36775858  0.11007659  0.70370926  1
  H  H46  1  0.49226725  0.58530526  0.73870451  1
  H  H47  1  0.49226725  0.08530526  0.26129549  1
  N  N48  1  0.60010335  0.75060991  0.99107085  1
  N  N49  1  0.60010335  0.25060991  0.00892915  1
  N  N50  1  0.10758343  0.25790816  0.48460590  1
  N  N51  1  0.10758343  0.75790816  0.51539410  1
  N  N52  1  0.13887069  0.74445233  0.98551176  1
  N  N53  1  0.13887069  0.24445233  0.01448824  1
  N  N54  1  0.63266346  0.25776133  0.49371728  1
  N  N55  1  0.63266346  0.75776133  0.50628272  1
  N  N56  1  0.36374259  0.98751851  0.75658895  1
  N  N57  1  0.36374259  0.48751851  0.24341105  1
  N  N58  1  0.89021636  0.53317014  0.72844539  1
  N  N59  1  0.89021636  0.03317014  0.27155461  1
  N  N60  1  0.36075982  0.03519865  0.23617431  1
  N  N61  1  0.36075982  0.53519865  0.76382569  1
  N  N62  1  0.87097145  0.48853132  0.25649643  1
  N  N63  1  0.87097145  0.98853132  0.74350357  1
