# generated using pymatgen
data_Sr2Re6S11
_symmetry_space_group_name_H-M   'P 1'
_cell_length_a   9.15818447
_cell_length_b   9.15818447
_cell_length_c   11.89024556
_cell_angle_alpha   67.34922406
_cell_angle_beta   67.34922406
_cell_angle_gamma   59.99999744
_symmetry_Int_Tables_number   1
_chemical_formula_structural   Sr2Re6S11
_chemical_formula_sum   'Sr4 Re12 S22'
_cell_volume   773.56206609
_cell_formula_units_Z   2
loop_
 _symmetry_equiv_pos_site_id
 _symmetry_equiv_pos_as_xyz
  1  'x, y, z'
loop_
 _atom_site_type_symbol
 _atom_site_label
 _atom_site_symmetry_multiplicity
 _atom_site_fract_x
 _atom_site_fract_y
 _atom_site_fract_z
 _atom_site_occupancy
  Sr  Sr0  1  0.31064851  0.31064851  0.06805446  1
  Sr  Sr1  1  0.81064851  0.81064851  0.56805446  1
  Sr  Sr2  1  0.68935149  0.68935149  0.93194554  1
  Sr  Sr3  1  0.18935149  0.18935149  0.43194554  1
  Re  Re4  1  0.50627845  0.38362608  0.39740296  1
  Re  Re5  1  0.38362608  0.71269251  0.39740296  1
  Re  Re6  1  0.71269251  0.50627845  0.39740296  1
  Re  Re7  1  0.00627845  0.21269251  0.89740296  1
  Re  Re8  1  0.21269251  0.88362608  0.89740296  1
  Re  Re9  1  0.88362608  0.00627845  0.89740296  1
  Re  Re10  1  0.49372155  0.61637392  0.60259704  1
  Re  Re11  1  0.61637392  0.28730749  0.60259704  1
  Re  Re12  1  0.28730749  0.49372155  0.60259704  1
  Re  Re13  1  0.99372155  0.78730749  0.10259704  1
  Re  Re14  1  0.78730749  0.11637392  0.10259704  1
  Re  Re15  1  0.11637392  0.99372155  0.10259704  1
  S  S16  1  0.80809856  0.20099630  0.40903488  1
  S  S17  1  0.20099630  0.58187025  0.40903488  1
  S  S18  1  0.58187025  0.80809856  0.40903488  1
  S  S19  1  0.30809856  0.08187025  0.90903488  1
  S  S20  1  0.08187025  0.70099630  0.90903488  1
  S  S21  1  0.70099630  0.30809856  0.90903488  1
  S  S22  1  0.19190144  0.79900370  0.59096512  1
  S  S23  1  0.79900370  0.41812975  0.59096512  1
  S  S24  1  0.41812975  0.19190144  0.59096512  1
  S  S25  1  0.69190144  0.91812975  0.09096512  1
  S  S26  1  0.91812975  0.29900370  0.09096512  1
  S  S27  1  0.29900370  0.69190144  0.09096512  1
  S  S28  1  0.00347547  0.49652453  0.75000000  1
  S  S29  1  0.49652453  0.75000000  0.75000000  1
  S  S30  1  0.75000000  0.00347547  0.75000000  1
  S  S31  1  0.50347547  0.25000000  0.25000000  1
  S  S32  1  0.25000000  0.99652453  0.25000000  1
  S  S33  1  0.99652453  0.50347547  0.25000000  1
  S  S34  1  0.59206577  0.59206577  0.22380270  1
  S  S35  1  0.09206577  0.09206577  0.72380270  1
  S  S36  1  0.40793423  0.40793423  0.77619730  1
  S  S37  1  0.90793423  0.90793423  0.27619730  1
