# generated using pymatgen
data_SmBiW2O9
_symmetry_space_group_name_H-M   'P 1'
_cell_length_a   3.93670105
_cell_length_b   5.81326829
_cell_length_c   33.34176935
_cell_angle_alpha   90.00000000
_cell_angle_beta   90.00000000
_cell_angle_gamma   90.00000000
_symmetry_Int_Tables_number   1
_chemical_formula_structural   SmBiW2O9
_chemical_formula_sum   'Sm4 Bi4 W8 O36'
_cell_volume   763.02970512
_cell_formula_units_Z   4
loop_
 _symmetry_equiv_pos_site_id
 _symmetry_equiv_pos_as_xyz
  1  'x, y, z'
loop_
 _atom_site_type_symbol
 _atom_site_label
 _atom_site_symmetry_multiplicity
 _atom_site_fract_x
 _atom_site_fract_y
 _atom_site_fract_z
 _atom_site_occupancy
  Sm  Sm0  1  0.73895879  0.25000000  0.33377673  1
  Sm  Sm1  1  0.76104121  0.25000000  0.83377673  1
  Sm  Sm2  1  0.26104121  0.75000000  0.66622327  1
  Sm  Sm3  1  0.23895879  0.75000000  0.16622327  1
  Bi  Bi4  1  0.71697960  0.75000000  0.52591820  1
  Bi  Bi5  1  0.78302040  0.75000000  0.02591820  1
  Bi  Bi6  1  0.28302040  0.25000000  0.47408180  1
  Bi  Bi7  1  0.21697960  0.25000000  0.97408180  1
  W  W8  1  0.27117676  0.75000000  0.29320246  1
  W  W9  1  0.22882324  0.75000000  0.79320246  1
  W  W10  1  0.72882324  0.25000000  0.70679754  1
  W  W11  1  0.77117676  0.25000000  0.20679754  1
  W  W12  1  0.76637163  0.75000000  0.42159538  1
  W  W13  1  0.73362837  0.75000000  0.92159538  1
  W  W14  1  0.23362837  0.25000000  0.57840462  1
  W  W15  1  0.26637163  0.25000000  0.07840462  1
  O  O16  1  0.74308612  0.52135739  0.47116686  1
  O  O17  1  0.75691388  0.97864261  0.97116686  1
  O  O18  1  0.25691388  0.02135739  0.52883314  1
  O  O19  1  0.24308612  0.47864261  0.02883314  1
  O  O20  1  0.25691388  0.47864261  0.52883314  1
  O  O21  1  0.24308612  0.02135739  0.02883314  1
  O  O22  1  0.74308612  0.97864261  0.47116686  1
  O  O23  1  0.75691388  0.52135739  0.97116686  1
  O  O24  1  0.74181429  0.50408040  0.38787879  1
  O  O25  1  0.75818571  0.99591960  0.88787879  1
  O  O26  1  0.25818571  0.00408040  0.61212121  1
  O  O27  1  0.24181429  0.49591960  0.11212121  1
  O  O28  1  0.25818571  0.49591960  0.61212121  1
  O  O29  1  0.24181429  0.00408040  0.11212121  1
  O  O30  1  0.74181429  0.99591960  0.38787879  1
  O  O31  1  0.75818571  0.50408040  0.88787879  1
  O  O32  1  0.23821144  0.02619965  0.32088382  1
  O  O33  1  0.26178856  0.47380035  0.82088382  1
  O  O34  1  0.76178856  0.52619965  0.67911618  1
  O  O35  1  0.73821144  0.97380035  0.17911618  1
  O  O36  1  0.76178856  0.97380035  0.67911618  1
  O  O37  1  0.73821144  0.52619965  0.17911618  1
  O  O38  1  0.23821144  0.47380035  0.32088382  1
  O  O39  1  0.26178856  0.02619965  0.82088382  1
  O  O40  1  0.24760725  0.75000000  0.42807732  1
  O  O41  1  0.25239275  0.75000000  0.92807732  1
  O  O42  1  0.75239275  0.25000000  0.57192268  1
  O  O43  1  0.74760725  0.25000000  0.07192268  1
  O  O44  1  0.73627187  0.25000000  0.26063774  1
  O  O45  1  0.76372813  0.25000000  0.76063774  1
  O  O46  1  0.26372813  0.75000000  0.73936226  1
  O  O47  1  0.23627187  0.75000000  0.23936226  1
  O  O48  1  0.74777457  0.75000000  0.29747989  1
  O  O49  1  0.75222543  0.75000000  0.79747989  1
  O  O50  1  0.25222543  0.25000000  0.70252011  1
  O  O51  1  0.24777457  0.25000000  0.20252011  1
