# generated using pymatgen
data_Li9Nb3P8O29
_symmetry_space_group_name_H-M   'P 1'
_cell_length_a   10.07452666
_cell_length_b   10.07379665
_cell_length_c   13.98011517
_cell_angle_alpha   90.00507411
_cell_angle_beta   90.00836044
_cell_angle_gamma   60.00576158
_symmetry_Int_Tables_number   1
_chemical_formula_structural   Li9Nb3P8O29
_chemical_formula_sum   'Li18 Nb6 P16 O58'
_cell_volume   1228.80909735
_cell_formula_units_Z   2
loop_
 _symmetry_equiv_pos_site_id
 _symmetry_equiv_pos_as_xyz
  1  'x, y, z'
loop_
 _atom_site_type_symbol
 _atom_site_label
 _atom_site_symmetry_multiplicity
 _atom_site_fract_x
 _atom_site_fract_y
 _atom_site_fract_z
 _atom_site_occupancy
  Li  Li0  1  0.00000347  0.00000771  0.49999950  1
  Li  Li1  1  0.99998981  0.00000351  0.99999870  1
  Li  Li2  1  0.09976342  0.23006964  0.56409987  1
  Li  Li3  1  0.23007851  0.09977219  0.06410325  1
  Li  Li4  1  0.09975913  0.67016176  0.06410082  1
  Li  Li5  1  0.33330824  0.33331040  0.38234516  1
  Li  Li6  1  0.33337395  0.33332091  0.88234696  1
  Li  Li7  1  0.23007917  0.67015988  0.56410373  1
  Li  Li8  1  0.67015111  0.09977954  0.56409866  1
  Li  Li9  1  0.32984145  0.76992689  0.93589554  1
  Li  Li10  1  0.67016469  0.23006512  0.06409814  1
  Li  Li11  1  0.32983839  0.90023741  0.43590076  1
  Li  Li12  1  0.76993358  0.32983897  0.43589982  1
  Li  Li13  1  0.66667664  0.66669978  0.61765393  1
  Li  Li14  1  0.66668406  0.66670057  0.11765233  1
  Li  Li15  1  0.90022955  0.32984355  0.93589760  1
  Li  Li16  1  0.76992357  0.90023783  0.93589839  1
  Li  Li17  1  0.90022429  0.76992961  0.43589445  1
  Nb  Nb18  1  -0.00000617  0.43399793  0.74997616  1
  Nb  Nb19  1  0.00001602  0.56598964  0.24994868  1
  Nb  Nb20  1  0.43399501  0.99998902  0.25001714  1
  Nb  Nb21  1  0.56601121  -0.00000321  0.75007401  1
  Nb  Nb22  1  0.43400479  0.56599685  0.74998258  1
  Nb  Nb23  1  0.56601316  0.43399105  0.24999911  1
  P  P24  1  0.08704765  0.22525401  0.34611099  1
  P  P25  1  0.22525385  0.08699896  0.84609291  1
  P  P26  1  0.08702534  0.68769837  0.84610949  1
  P  P27  1  0.33334496  0.33330249  0.11875756  1
  P  P28  1  0.33336974  0.33330363  0.61876304  1
  P  P29  1  0.22526857  0.68772382  0.34609847  1
  P  P30  1  0.31227081  0.77473086  0.15389894  1
  P  P31  1  0.68776336  0.08700224  0.34608707  1
  P  P32  1  0.31229457  0.91297090  0.65389167  1
  P  P33  1  0.68772152  0.22526583  0.84609955  1
  P  P34  1  0.77475862  0.31226709  0.65390921  1
  P  P35  1  0.66668293  0.66664117  0.88124221  1
  P  P36  1  0.66670038  0.66666267  0.38124282  1
  P  P37  1  0.91300124  0.31223322  0.15391574  1
  P  P38  1  0.77474077  0.91295502  0.15389212  1
  P  P39  1  0.91299454  0.77477246  0.65390750  1
  O  O40  1  -0.00001128  0.21936439  0.24999425  1
  O  O41  1  0.00849839  0.22179298  0.06777946  1
  O  O42  1  0.07557414  0.24177237  0.84795549  1
  O  O43  1  0.21936200  0.00000252  0.75000111  1
  O  O44  1  0.22177306  0.00850444  0.56777893  1
  O  O45  1  0.24173739  0.07555139  0.34798620  1
  O  O46  1  0.11455313  0.36228100  0.33861802  1
  O  O47  1  0.19396843  0.32036663  0.65755528  1
  O  O48  1  0.11455486  0.52315652  0.83859563  1
  O  O49  1  0.00849431  0.76971994  0.56777265  1
  O  O50  1  0.99999690  0.78064438  0.74999290  1
  O  O51  1  0.07557115  0.68265428  0.34794344  1
  O  O52  1  0.32036852  0.19398423  0.15757020  1
  O  O53  1  0.36236201  0.11452925  0.83856950  1
  O  O54  1  0.19396883  0.48568013  0.15756404  1
  O  O55  1  0.33331286  0.33332583  0.01111653  1
  O  O56  1  0.33336518  0.33332389  0.51111883  1
  O  O57  1  0.32035773  0.48566573  0.65756271  1
  O  O58  1  0.52313078  0.11452443  0.33856222  1
  O  O59  1  0.48562919  0.19401899  0.65757149  1
  O  O60  1  0.24177181  0.68266161  0.84795395  1
  O  O61  1  0.21936271  0.78064156  0.24999834  1
  O  O62  1  0.22178549  0.76972888  0.06777748  1
  O  O63  1  0.23027180  0.77822056  0.43222437  1
  O  O64  1  0.36231356  0.52314672  0.33857925  1
  O  O65  1  0.48566392  0.32036446  0.15755677  1
  O  O66  1  0.31731306  0.75825390  0.65201835  1
  O  O67  1  0.52316093  0.36229547  0.83860695  1
  O  O68  1  0.68269821  0.07555960  0.84797731  1
  O  O69  1  0.23027783  0.99150799  0.93222592  1
  O  O70  1  0.76973224  0.00851487  0.06777057  1
  O  O71  1  0.78063557  0.00001571  0.25000867  1
  O  O72  1  0.31734657  0.92443177  0.15205539  1
  O  O73  1  0.47685962  0.63768620  0.16141982  1
  O  O74  1  0.68265642  0.24176230  0.34796567  1
  O  O75  1  0.51434795  0.67964125  0.84244587  1
  O  O76  1  0.63765252  0.47686784  0.66142647  1
  O  O77  1  0.76970661  0.22178783  0.56777500  1
  O  O78  1  0.77824158  0.23027090  0.93222707  1
  O  O79  1  0.78063310  0.21936373  0.75000349  1
  O  O80  1  0.75824622  0.31733798  0.15203095  1
  O  O81  1  0.51433415  0.80601454  0.34243762  1
  O  O82  1  0.47682162  0.88545642  0.66139311  1
  O  O83  1  0.67963670  0.51434902  0.34244466  1
  O  O84  1  0.66668606  0.66669809  0.98888866  1
  O  O85  1  0.66667535  0.66669067  0.48888696  1
  O  O86  1  0.80600640  0.51435307  0.84243586  1
  O  O87  1  0.63771219  0.88544621  0.16139220  1
  O  O88  1  0.67963269  0.80605856  0.84241773  1
  O  O89  1  0.92441767  0.31732416  0.65201742  1
  O  O90  1  0.99148290  0.23027388  0.43222848  1
  O  O91  1  0.88548397  0.47688115  0.16144134  1
  O  O92  1  0.80599556  0.67964616  0.34243023  1
  O  O93  1  0.88548113  0.63764759  0.66142962  1
  O  O94  1  0.75823919  0.92442571  0.65204184  1
  O  O95  1  0.77820105  0.99151375  0.43221800  1
  O  O96  1  0.92445267  0.75825971  0.15201248  1
  O  O97  1  0.99150548  0.77822753  0.93222165  1
