# generated using pymatgen
data_Li7H5N4
_symmetry_space_group_name_H-M   'P 1'
_cell_length_a   7.19605106
_cell_length_b   7.26964756
_cell_length_c   10.65571522
_cell_angle_alpha   90.00000000
_cell_angle_beta   90.00000000
_cell_angle_gamma   90.00000000
_symmetry_Int_Tables_number   1
_chemical_formula_structural   Li7H5N4
_chemical_formula_sum   'Li28 H20 N16'
_cell_volume   557.42981997
_cell_formula_units_Z   4
loop_
 _symmetry_equiv_pos_site_id
 _symmetry_equiv_pos_as_xyz
  1  'x, y, z'
loop_
 _atom_site_type_symbol
 _atom_site_label
 _atom_site_symmetry_multiplicity
 _atom_site_fract_x
 _atom_site_fract_y
 _atom_site_fract_z
 _atom_site_occupancy
  Li  Li0  1  0.40989440  0.51022369  0.39580681  1
  Li  Li1  1  0.90989440  0.48977631  0.60419319  1
  Li  Li2  1  0.90989440  0.98977631  0.89580681  1
  Li  Li3  1  0.40989440  0.01022369  0.10419319  1
  Li  Li4  1  0.36228497  0.43390672  0.84751420  1
  Li  Li5  1  0.86228497  0.56609328  0.15248580  1
  Li  Li6  1  0.86228497  0.06609328  0.34751420  1
  Li  Li7  1  0.36228497  0.93390672  0.65248580  1
  Li  Li8  1  0.32516179  0.50343991  0.61377244  1
  Li  Li9  1  0.82516179  0.49656009  0.38622756  1
  Li  Li10  1  0.82516179  0.99656009  0.11377244  1
  Li  Li11  1  0.32516179  0.00343991  0.88622756  1
  Li  Li12  1  0.09843825  0.75209748  0.62841126  1
  Li  Li13  1  0.59843825  0.24790252  0.37158874  1
  Li  Li14  1  0.59843825  0.74790252  0.12841126  1
  Li  Li15  1  0.09843825  0.25209748  0.87158874  1
  Li  Li16  1  0.16526213  0.73273314  0.85018011  1
  Li  Li17  1  0.66526213  0.26726686  0.14981989  1
  Li  Li18  1  0.66526213  0.76726686  0.35018011  1
  Li  Li19  1  0.16526213  0.23273314  0.64981989  1
  Li  Li20  1  0.10886735  0.69061536  0.41102360  1
  Li  Li21  1  0.60886735  0.30938464  0.58897640  1
  Li  Li22  1  0.60886735  0.80938464  0.91102360  1
  Li  Li23  1  0.10886735  0.19061536  0.08897640  1
  Li  Li24  1  0.11919879  0.80572873  0.08064650  1
  Li  Li25  1  0.61919879  0.19427127  0.91935350  1
  Li  Li26  1  0.61919879  0.69427127  0.58064650  1
  Li  Li27  1  0.11919879  0.30572873  0.41935350  1
  H  H28  1  0.20528340  0.52193373  0.21264340  1
  H  H29  1  0.70528340  0.47806627  0.78735660  1
  H  H30  1  0.70528340  0.97806627  0.71264340  1
  H  H31  1  0.20528340  0.02193373  0.28735660  1
  H  H32  1  0.50603265  0.49949416  0.20812319  1
  H  H33  1  0.00603265  0.50050584  0.79187681  1
  H  H34  1  0.00603265  0.00050584  0.70812319  1
  H  H35  1  0.50603265  0.99949416  0.29187681  1
  H  H36  1  0.86391413  0.85833529  0.51967111  1
  H  H37  1  0.36391413  0.14166471  0.48032889  1
  H  H38  1  0.36391413  0.64166471  0.01967111  1
  H  H39  1  0.86391413  0.35833529  0.98032889  1
  H  H40  1  0.87314734  0.66258063  0.95562710  1
  H  H41  1  0.37314734  0.33741937  0.04437290  1
  H  H42  1  0.37314734  0.83741937  0.45562710  1
  H  H43  1  0.87314734  0.16258063  0.54437290  1
  H  H44  1  0.54315679  0.62580425  0.75869415  1
  H  H45  1  0.04315679  0.37419575  0.24130585  1
  H  H46  1  0.04315679  0.87419575  0.25869415  1
  H  H47  1  0.54315679  0.12580425  0.74130585  1
  N  N48  1  0.59247578  0.49880975  0.72952894  1
  N  N49  1  0.09247578  0.50119025  0.27047106  1
  N  N50  1  0.09247578  0.00119025  0.22952894  1
  N  N51  1  0.59247578  0.99880975  0.77047106  1
  N  N52  1  0.12831594  0.48922831  0.74160562  1
  N  N53  1  0.62831594  0.51077169  0.25839438  1
  N  N54  1  0.62831594  0.01077169  0.24160562  1
  N  N55  1  0.12831594  0.98922831  0.75839438  1
  N  N56  1  0.35206086  0.72862711  0.51623628  1
  N  N57  1  0.85206086  0.27137289  0.48376372  1
  N  N58  1  0.85206086  0.77137289  0.01623628  1
  N  N59  1  0.35206086  0.22862711  0.98376372  1
  N  N60  1  0.36450543  0.77895408  0.99476368  1
  N  N61  1  0.86450543  0.22104592  0.00523632  1
  N  N62  1  0.86450543  0.72104592  0.49476368  1
  N  N63  1  0.36450543  0.27895408  0.50523632  1
