# generated using pymatgen
data_Ho4GaSbS9
_symmetry_space_group_name_H-M   'P 1'
_cell_length_a   9.86643220
_cell_length_b   9.86643220
_cell_length_c   13.50691074
_cell_angle_alpha   90.00000000
_cell_angle_beta   90.00000000
_cell_angle_gamma   90.93480379
_symmetry_Int_Tables_number   1
_chemical_formula_structural   Ho4GaSbS9
_chemical_formula_sum   'Ho16 Ga4 Sb4 S36'
_cell_volume   1314.67527715
_cell_formula_units_Z   4
loop_
 _symmetry_equiv_pos_site_id
 _symmetry_equiv_pos_as_xyz
  1  'x, y, z'
loop_
 _atom_site_type_symbol
 _atom_site_label
 _atom_site_symmetry_multiplicity
 _atom_site_fract_x
 _atom_site_fract_y
 _atom_site_fract_z
 _atom_site_occupancy
  Ho  Ho0  1  0.33795127  0.32024144  0.60061551  1
  Ho  Ho1  1  0.67975856  0.66204873  0.39938449  1
  Ho  Ho2  1  0.83795127  0.82024144  0.89938449  1
  Ho  Ho3  1  0.17975856  0.16204873  0.10061551  1
  Ho  Ho4  1  0.62559787  0.04298136  0.68342094  1
  Ho  Ho5  1  0.95701864  0.37440213  0.31657906  1
  Ho  Ho6  1  0.12559787  0.54298136  0.81657906  1
  Ho  Ho7  1  0.45701864  0.87440213  0.18342094  1
  Ho  Ho8  1  0.12781435  0.09157227  0.81246969  1
  Ho  Ho9  1  0.90842773  0.87218565  0.18753031  1
  Ho  Ho10  1  0.62781435  0.59157227  0.68753031  1
  Ho  Ho11  1  0.40842773  0.37218565  0.31246969  1
  Ho  Ho12  1  0.44925458  0.32956118  0.89625938  1
  Ho  Ho13  1  0.67043882  0.55074542  0.10374062  1
  Ho  Ho14  1  0.94925458  0.82956118  0.60374062  1
  Ho  Ho15  1  0.17043882  0.05074542  0.39625938  1
  Ga  Ga16  1  0.38714785  0.82389573  0.90868260  1
  Ga  Ga17  1  0.17610427  0.61285215  0.09131740  1
  Ga  Ga18  1  0.88714785  0.32389573  0.59131740  1
  Ga  Ga19  1  0.67610427  0.11285215  0.40868260  1
  Sb  Sb20  1  0.33049628  0.83177259  0.61318157  1
  Sb  Sb21  1  0.16822741  0.66950372  0.38681843  1
  Sb  Sb22  1  0.83049628  0.33177259  0.88681843  1
  Sb  Sb23  1  0.66822741  0.16950372  0.11318157  1
  S  S24  1  0.16326275  0.01552193  0.59897992  1
  S  S25  1  0.98447807  0.83673725  0.40102008  1
  S  S26  1  0.66326275  0.51552193  0.90102008  1
  S  S27  1  0.48447807  0.33673725  0.09897992  1
  S  S28  1  0.66156608  0.14774752  0.91807233  1
  S  S29  1  0.85225248  0.33843392  0.08192767  1
  S  S30  1  0.16156608  0.64774752  0.58192767  1
  S  S31  1  0.35225248  0.83843392  0.41807233  1
  S  S32  1  0.20382029  0.81883882  0.80295006  1
  S  S33  1  0.18116118  0.79617971  0.19704994  1
  S  S34  1  0.70382029  0.31883882  0.69704994  1
  S  S35  1  0.68116118  0.29617971  0.30295006  1
  S  S36  1  0.57836180  0.82189277  0.80941037  1
  S  S37  1  0.17810723  0.42163820  0.19058963  1
  S  S38  1  0.07836180  0.32189277  0.69058963  1
  S  S39  1  0.67810723  0.92163820  0.30941037  1
  S  S40  1  0.87530768  0.12469232  0.50000000  1
  S  S41  1  0.37530768  0.62469232  0.00000000  1
  S  S42  1  0.49202253  0.11636791  0.51200739  1
  S  S43  1  0.88363209  0.50797747  0.48799261  1
  S  S44  1  0.99202253  0.61636791  0.98799261  1
  S  S45  1  0.38363209  0.00797747  0.01200739  1
  S  S46  1  0.68137936  0.81132147  0.56850193  1
  S  S47  1  0.18867853  0.31862064  0.43149807  1
  S  S48  1  0.18137936  0.31132147  0.93149807  1
  S  S49  1  0.68867853  0.81862064  0.06850193  1
  S  S50  1  0.88153487  0.00317561  0.75173710  1
  S  S51  1  0.99682439  0.11846513  0.24826290  1
  S  S52  1  0.38153487  0.50317561  0.74826290  1
  S  S53  1  0.49682439  0.61846513  0.25173710  1
  S  S54  1  0.50023035  0.49976965  0.50000000  1
  S  S55  1  0.00023035  0.99976965  0.00000000  1
  S  S56  1  0.39038600  0.14276333  0.75476287  1
  S  S57  1  0.85723667  0.60961400  0.24523713  1
  S  S58  1  0.89038600  0.64276333  0.74523713  1
  S  S59  1  0.35723667  0.10961400  0.25476287  1
