# generated using pymatgen
data_MgB4(H10N)2
_symmetry_space_group_name_H-M   'P 1'
_cell_length_a   5.19840513
_cell_length_b   13.27585367
_cell_length_c   14.49462749
_cell_angle_alpha   90.00000000
_cell_angle_beta   90.00000000
_cell_angle_gamma   90.00000000
_symmetry_Int_Tables_number   1
_chemical_formula_structural   MgB4(H10N)2
_chemical_formula_sum   'Mg4 B16 H80 N8'
_cell_volume   1000.32157998
_cell_formula_units_Z   4
loop_
 _symmetry_equiv_pos_site_id
 _symmetry_equiv_pos_as_xyz
  1  'x, y, z'
loop_
 _atom_site_type_symbol
 _atom_site_label
 _atom_site_symmetry_multiplicity
 _atom_site_fract_x
 _atom_site_fract_y
 _atom_site_fract_z
 _atom_site_occupancy
  Mg  Mg0  1  0.46122655  0.75818051  0.12108093  1
  Mg  Mg1  1  0.96122655  0.24181949  0.37891907  1
  Mg  Mg2  1  0.53877345  0.74181949  0.62108093  1
  Mg  Mg3  1  0.03877345  0.25818051  0.87891907  1
  B  B4  1  0.70610884  0.63260776  0.50302224  1
  B  B5  1  0.20610884  0.36739224  0.99697776  1
  B  B6  1  0.29389116  0.86739224  0.00302224  1
  B  B7  1  0.79389116  0.13260776  0.49697776  1
  B  B8  1  0.78288244  0.34249171  0.25775846  1
  B  B9  1  0.28288244  0.65750829  0.24224154  1
  B  B10  1  0.21711756  0.15750829  0.75775846  1
  B  B11  1  0.71711756  0.84249171  0.74224154  1
  B  B12  1  0.65038954  0.61684697  0.02923636  1
  B  B13  1  0.15038954  0.38315303  0.47076364  1
  B  B14  1  0.34961046  0.88315303  0.52923636  1
  B  B15  1  0.84961046  0.11684697  0.97076364  1
  B  B16  1  0.32639348  0.61027526  0.71781632  1
  B  B17  1  0.82639348  0.38972474  0.78218368  1
  B  B18  1  0.67360652  0.88972474  0.21781632  1
  B  B19  1  0.17360652  0.11027526  0.28218368  1
  H  H20  1  0.56936951  0.46029998  0.06145200  1
  H  H21  1  0.06936951  0.53970002  0.43854800  1
  H  H22  1  0.43063049  0.03970002  0.56145200  1
  H  H23  1  0.93063049  0.96029998  0.93854800  1
  H  H24  1  0.88173878  0.48432330  0.06076944  1
  H  H25  1  0.38173878  0.51567670  0.43923056  1
  H  H26  1  0.11826122  0.01567670  0.56076944  1
  H  H27  1  0.61826122  0.98432330  0.93923056  1
  H  H28  1  0.70213488  0.51771290  0.15018899  1
  H  H29  1  0.20213488  0.48228710  0.34981101  1
  H  H30  1  0.29786512  0.98228710  0.65018899  1
  H  H31  1  0.79786512  0.01771290  0.84981101  1
  H  H32  1  0.27210724  0.70805774  0.83899802  1
  H  H33  1  0.77210724  0.29194226  0.66100198  1
  H  H34  1  0.72789276  0.79194226  0.33899802  1
  H  H35  1  0.22789276  0.20805774  0.16100198  1
  H  H36  1  0.04460013  0.62134462  0.82932352  1
  H  H37  1  0.54460013  0.37865538  0.67067648  1
  H  H38  1  0.95539987  0.87865538  0.32932352  1
  H  H39  1  0.45539987  0.12134462  0.17067648  1
  H  H40  1  0.33305600  0.58995911  0.86735347  1
  H  H41  1  0.83305600  0.41004089  0.63264653  1
  H  H42  1  0.66694400  0.91004089  0.36735347  1
  H  H43  1  0.16694400  0.08995911  0.13264653  1
  H  H44  1  0.48128986  0.66381011  0.50325131  1
  H  H45  1  0.98128986  0.33618989  0.99674869  1
  H  H46  1  0.51871014  0.83618989  0.00325131  1
  H  H47  1  0.01871014  0.16381011  0.49674869  1
  H  H48  1  0.79666697  0.65048342  0.42728444  1
  H  H49  1  0.29666697  0.34951658  0.07271556  1
  H  H50  1  0.20333303  0.84951658  0.92728444  1
  H  H51  1  0.70333303  0.15048342  0.57271556  1
  H  H52  1  0.84210708  0.67567456  0.56093221  1
  H  H53  1  0.34210708  0.32432544  0.93906779  1
  H  H54  1  0.15789292  0.82432544  0.06093221  1
  H  H55  1  0.65789292  0.17567456  0.43906779  1
  H  H56  1  0.70458670  0.54274582  0.52139347  1
  H  H57  1  0.20458670  0.45725418  0.97860653  1
  H  H58  1  0.29541330  0.95725418  0.02139347  1
  H  H59  1  0.79541330  0.04274582  0.47860653  1
  H  H60  1  0.73474425  0.31086599  0.18106362  1
  H  H61  1  0.23474425  0.68913401  0.31893638  1
  H  H62  1  0.26525575  0.18913401  0.68106362  1
  H  H63  1  0.76525575  0.81086599  0.81893638  1
  H  H64  1  0.01893516  0.33301140  0.27105537  1
  H  H65  1  0.51893516  0.66698860  0.22894463  1
  H  H66  1  0.98106484  0.16698860  0.77105537  1
  H  H67  1  0.48106484  0.83301140  0.72894463  1
  H  H68  1  0.72762045  0.43078058  0.26906023  1
  H  H69  1  0.22762045  0.56921942  0.23093977  1
  H  H70  1  0.27237955  0.06921942  0.76906023  1
  H  H71  1  0.77237955  0.93078058  0.73093977  1
  H  H72  1  0.65431670  0.29297989  0.31408901  1
  H  H73  1  0.15431670  0.70702011  0.18591099  1
  H  H74  1  0.34568330  0.20702011  0.81408901  1
  H  H75  1  0.84568330  0.79297989  0.68591099  1
  H  H76  1  0.41837290  0.63436160  0.03559215  1
  H  H77  1  0.91837290  0.36563840  0.46440785  1
  H  H78  1  0.58162710  0.86563840  0.53559215  1
  H  H79  1  0.08162710  0.13436160  0.96440785  1
  H  H80  1  0.78342874  0.68272240  0.06512204  1
  H  H81  1  0.28342874  0.31727760  0.43487796  1
  H  H82  1  0.21657126  0.81727760  0.56512204  1
  H  H83  1  0.71657126  0.18272240  0.93487796  1
  H  H84  1  0.70767299  0.61023967  0.94836465  1
  H  H85  1  0.20767299  0.38976033  0.55163535  1
  H  H86  1  0.29232701  0.88976033  0.44836465  1
  H  H87  1  0.79232701  0.11023967  0.05163535  1
  H  H88  1  0.56083745  0.62074559  0.71410871  1
  H  H89  1  0.06083745  0.37925441  0.78589129  1
  H  H90  1  0.43916255  0.87925441  0.21410871  1
  H  H91  1  0.93916255  0.12074559  0.28589129  1
  H  H92  1  0.26935900  0.52471678  0.69871439  1
  H  H93  1  0.76935900  0.47528322  0.80128561  1
  H  H94  1  0.73064100  0.97528322  0.19871439  1
  H  H95  1  0.23064100  0.02471678  0.30128561  1
  H  H96  1  0.20947831  0.66796242  0.66626574  1
  H  H97  1  0.70947831  0.33203758  0.83373426  1
  H  H98  1  0.79052169  0.83203758  0.16626574  1
  H  H99  1  0.29052169  0.16796242  0.33373426  1
  N  N100  1  0.70540006  0.51338858  0.07920383  1
  N  N101  1  0.20540006  0.48661142  0.42079617  1
  N  N102  1  0.29459994  0.98661142  0.57920383  1
  N  N103  1  0.79459994  0.01338858  0.92079617  1
  N  N104  1  0.23817849  0.63457828  0.82049774  1
  N  N105  1  0.73817849  0.36542172  0.67950226  1
  N  N106  1  0.76182151  0.86542172  0.32049774  1
  N  N107  1  0.26182151  0.13457828  0.17950226  1
