# generated using pymatgen
data_PrYSi2O7
_symmetry_space_group_name_H-M   'P 1'
_cell_length_a   5.45213196
_cell_length_b   8.65652037
_cell_length_c   12.94538843
_cell_angle_alpha   90.00000000
_cell_angle_beta   90.68312246
_cell_angle_gamma   90.00000000
_symmetry_Int_Tables_number   1
_chemical_formula_structural   PrYSi2O7
_chemical_formula_sum   'Pr4 Y4 Si8 O28'
_cell_volume   610.93348869
_cell_formula_units_Z   4
loop_
 _symmetry_equiv_pos_site_id
 _symmetry_equiv_pos_as_xyz
  1  'x, y, z'
loop_
 _atom_site_type_symbol
 _atom_site_label
 _atom_site_symmetry_multiplicity
 _atom_site_fract_x
 _atom_site_fract_y
 _atom_site_fract_z
 _atom_site_occupancy
  Pr  Pr0  1  0.74730767  0.30990669  0.27118678  1
  Pr  Pr1  1  0.75269233  0.80990669  0.22881322  1
  Pr  Pr2  1  0.25269233  0.69009331  0.72881322  1
  Pr  Pr3  1  0.24730767  0.19009331  0.77118678  1
  Y  Y4  1  0.26360756  0.10309455  0.09128869  1
  Y  Y5  1  0.23639244  0.60309455  0.40871131  1
  Y  Y6  1  0.73639244  0.89690545  0.90871131  1
  Y  Y7  1  0.76360756  0.39690545  0.59128869  1
  Si  Si8  1  0.78005302  0.74696274  0.52092204  1
  Si  Si9  1  0.71994698  0.24696274  0.97907796  1
  Si  Si10  1  0.21994698  0.25303726  0.47907796  1
  Si  Si11  1  0.28005302  0.75303726  0.02092204  1
  Si  Si12  1  0.71664543  0.00527535  0.67933884  1
  Si  Si13  1  0.78335457  0.50527535  0.82066116  1
  Si  Si14  1  0.28335457  0.99472465  0.32066116  1
  Si  Si15  1  0.21664543  0.49472465  0.17933884  1
  O  O16  1  0.77657313  0.92221993  0.56893992  1
  O  O17  1  0.72342687  0.42221993  0.93106008  1
  O  O18  1  0.22342687  0.07778007  0.43106008  1
  O  O19  1  0.27657313  0.57778007  0.06893992  1
  O  O20  1  0.51951329  0.65598949  0.53811849  1
  O  O21  1  0.98048671  0.15598949  0.96188151  1
  O  O22  1  0.48048671  0.34401051  0.46188151  1
  O  O23  1  0.01951329  0.84401051  0.03811849  1
  O  O24  1  0.99023871  0.63439961  0.57862760  1
  O  O25  1  0.50976129  0.13439961  0.92137240  1
  O  O26  1  0.00976129  0.36560039  0.42137240  1
  O  O27  1  0.49023871  0.86560039  0.07862760  1
  O  O28  1  0.87802145  0.75190131  0.40302505  1
  O  O29  1  0.62197855  0.25190131  0.09697495  1
  O  O30  1  0.12197855  0.24809869  0.59697495  1
  O  O31  1  0.37802145  0.74809869  0.90302505  1
  O  O32  1  0.95300825  0.98820132  0.75946852  1
  O  O33  1  0.54699175  0.48820132  0.74053148  1
  O  O34  1  0.04699175  0.01179868  0.24053148  1
  O  O35  1  0.45300825  0.51179868  0.25946852  1
  O  O36  1  0.48640088  0.92233695  0.73780544  1
  O  O37  1  0.01359912  0.42233695  0.76219456  1
  O  O38  1  0.51359912  0.07766305  0.26219456  1
  O  O39  1  0.98640088  0.57766305  0.23780544  1
  O  O40  1  0.62894221  0.18465487  0.66864150  1
  O  O41  1  0.87105779  0.68465487  0.83135850  1
  O  O42  1  0.37105779  0.81534513  0.33135850  1
  O  O43  1  0.12894221  0.31534513  0.16864150  1
