# generated using pymatgen
data_KAlF4
_symmetry_space_group_name_H-M   'P 1'
_cell_length_a   7.35945919
_cell_length_b   8.38895953
_cell_length_c   12.08879641
_cell_angle_alpha   90.00000000
_cell_angle_beta   90.00000000
_cell_angle_gamma   90.00000000
_symmetry_Int_Tables_number   1
_chemical_formula_structural   KAlF4
_chemical_formula_sum   'K8 Al8 F32'
_cell_volume   746.34059468
_cell_formula_units_Z   8
loop_
 _symmetry_equiv_pos_site_id
 _symmetry_equiv_pos_as_xyz
  1  'x, y, z'
loop_
 _atom_site_type_symbol
 _atom_site_label
 _atom_site_symmetry_multiplicity
 _atom_site_fract_x
 _atom_site_fract_y
 _atom_site_fract_z
 _atom_site_occupancy
  K  K0  1  0.75000000  0.92492898  0.89482151  1
  K  K1  1  0.75000000  0.42492898  0.60517849  1
  K  K2  1  0.25000000  0.07507102  0.10517849  1
  K  K3  1  0.25000000  0.57507102  0.39482151  1
  K  K4  1  0.75000000  0.87284186  0.25034524  1
  K  K5  1  0.75000000  0.37284186  0.24965476  1
  K  K6  1  0.25000000  0.12715814  0.74965476  1
  K  K7  1  0.25000000  0.62715814  0.75034524  1
  Al  Al8  1  0.50393938  0.36918193  0.91808545  1
  Al  Al9  1  0.99606062  0.86918193  0.58191455  1
  Al  Al10  1  0.00393938  0.63081807  0.08191455  1
  Al  Al11  1  0.49606062  0.13081807  0.41808545  1
  Al  Al12  1  0.49606062  0.63081807  0.08191455  1
  Al  Al13  1  0.00393938  0.13081807  0.41808545  1
  Al  Al14  1  0.99606062  0.36918193  0.91808545  1
  Al  Al15  1  0.50393938  0.86918193  0.58191455  1
  F  F16  1  0.49456637  0.40468206  0.07219600  1
  F  F17  1  0.00543363  0.90468206  0.42780400  1
  F  F18  1  0.99456637  0.59531794  0.92780400  1
  F  F19  1  0.50543363  0.09531794  0.57219600  1
  F  F20  1  0.50543363  0.59531794  0.92780400  1
  F  F21  1  0.99456637  0.09531794  0.57219600  1
  F  F22  1  0.00543363  0.40468206  0.07219600  1
  F  F23  1  0.49456637  0.90468206  0.42780400  1
  F  F24  1  0.50123120  0.37898688  0.77208490  1
  F  F25  1  0.99876880  0.87898688  0.72791510  1
  F  F26  1  0.00123120  0.62101312  0.22791510  1
  F  F27  1  0.49876880  0.12101312  0.27208490  1
  F  F28  1  0.49876880  0.62101312  0.22791510  1
  F  F29  1  0.00123120  0.12101312  0.27208490  1
  F  F30  1  0.99876880  0.37898688  0.77208490  1
  F  F31  1  0.50123120  0.87898688  0.72791510  1
  F  F32  1  0.48873073  0.16102123  0.93265314  1
  F  F33  1  0.01126927  0.66102123  0.56734686  1
  F  F34  1  0.98873073  0.83897877  0.06734686  1
  F  F35  1  0.51126927  0.33897877  0.43265314  1
  F  F36  1  0.51126927  0.83897877  0.06734686  1
  F  F37  1  0.98873073  0.33897877  0.43265314  1
  F  F38  1  0.01126927  0.16102123  0.93265314  1
  F  F39  1  0.48873073  0.66102123  0.56734686  1
  F  F40  1  0.25000000  0.38327471  0.91535396  1
  F  F41  1  0.25000000  0.88327471  0.58464604  1
  F  F42  1  0.75000000  0.61672529  0.08464604  1
  F  F43  1  0.75000000  0.11672529  0.41535396  1
  F  F44  1  0.75000000  0.36634858  0.92895288  1
  F  F45  1  0.75000000  0.86634858  0.57104712  1
  F  F46  1  0.25000000  0.63365142  0.07104712  1
  F  F47  1  0.25000000  0.13365142  0.42895288  1
