# generated using pymatgen
data_Ca(Al4Ni)2
_symmetry_space_group_name_H-M   'P 1'
_cell_length_a   3.94074438
_cell_length_b   14.44817847
_cell_length_c   12.69049350
_cell_angle_alpha   90.00000000
_cell_angle_beta   90.00000000
_cell_angle_gamma   90.00000000
_symmetry_Int_Tables_number   1
_chemical_formula_structural   Ca(Al4Ni)2
_chemical_formula_sum   'Ca4 Al32 Ni8'
_cell_volume   722.55327438
_cell_formula_units_Z   4
loop_
 _symmetry_equiv_pos_site_id
 _symmetry_equiv_pos_as_xyz
  1  'x, y, z'
loop_
 _atom_site_type_symbol
 _atom_site_label
 _atom_site_symmetry_multiplicity
 _atom_site_fract_x
 _atom_site_fract_y
 _atom_site_fract_z
 _atom_site_occupancy
  Ca  Ca0  1  0.00000000  0.82159024  0.15282407  1
  Ca  Ca1  1  0.00000000  0.17840976  0.84717593  1
  Ca  Ca2  1  0.00000000  0.67840976  0.65282407  1
  Ca  Ca3  1  -0.00000000  0.32159024  0.34717593  1
  Al  Al4  1  0.00000000  0.50000000  0.50000000  1
  Al  Al5  1  0.00000000  0.00000000  0.00000000  1
  Al  Al6  1  0.50000000  0.00000000  0.50000000  1
  Al  Al7  1  0.50000000  0.50000000  0.00000000  1
  Al  Al8  1  0.00000000  0.54726677  0.15838906  1
  Al  Al9  1  0.00000000  0.45273323  0.84161094  1
  Al  Al10  1  0.00000000  0.95273323  0.65838906  1
  Al  Al11  1  0.00000000  0.04726677  0.34161094  1
  Al  Al12  1  0.00000000  0.75509124  0.39488695  1
  Al  Al13  1  0.00000000  0.24490876  0.60511305  1
  Al  Al14  1  0.00000000  0.74490876  0.89488695  1
  Al  Al15  1  0.00000000  0.25509124  0.10511305  1
  Al  Al16  1  0.50000000  0.67708894  0.25989634  1
  Al  Al17  1  0.50000000  0.32291106  0.74010366  1
  Al  Al18  1  0.50000000  0.82291106  0.75989634  1
  Al  Al19  1  0.50000000  0.17708894  0.24010366  1
  Al  Al20  1  0.50000000  0.67895925  0.04769511  1
  Al  Al21  1  0.50000000  0.32104075  0.95230489  1
  Al  Al22  1  0.50000000  0.82104075  0.54769511  1
  Al  Al23  1  0.50000000  0.17895925  0.45230489  1
  Al  Al24  1  0.50000000  0.88259113  0.33521408  1
  Al  Al25  1  0.50000000  0.11740887  0.66478592  1
  Al  Al26  1  0.50000000  0.61740887  0.83521408  1
  Al  Al27  1  0.50000000  0.38259113  0.16478592  1
  Al  Al28  1  0.50000000  0.99157603  0.16763297  1
  Al  Al29  1  0.50000000  0.00842397  0.83236703  1
  Al  Al30  1  0.50000000  0.50842397  0.66763297  1
  Al  Al31  1  0.50000000  0.49157603  0.33236703  1
  Al  Al32  1  0.50000000  0.63418614  0.47063255  1
  Al  Al33  1  0.50000000  0.36581386  0.52936745  1
  Al  Al34  1  0.50000000  0.86581386  0.97063255  1
  Al  Al35  1  0.50000000  0.13418614  0.02936745  1
  Ni  Ni36  1  0.00000000  0.90612182  0.46333190  1
  Ni  Ni37  1  0.00000000  0.09387818  0.53666810  1
  Ni  Ni38  1  -0.00000000  0.59387818  0.96333190  1
  Ni  Ni39  1  -0.00000000  0.40612182  0.03666810  1
  Ni  Ni40  1  -0.00000000  0.59732685  0.34485971  1
  Ni  Ni41  1  0.00000000  0.40267315  0.65514029  1
  Ni  Ni42  1  0.00000000  0.90267315  0.84485971  1
  Ni  Ni43  1  -0.00000000  0.09732685  0.15514029  1
