# generated using pymatgen
data_Ba4NaGe3S10Cl
_symmetry_space_group_name_H-M   'P 1'
_cell_length_a   9.97266646
_cell_length_b   9.97260364
_cell_length_c   12.32709990
_cell_angle_alpha   90.00000000
_cell_angle_beta   90.00000000
_cell_angle_gamma   119.99928517
_symmetry_Int_Tables_number   1
_chemical_formula_structural   Ba4NaGe3S10Cl
_chemical_formula_sum   'Ba8 Na2 Ge6 S20 Cl2'
_cell_volume   1061.73107341
_cell_formula_units_Z   2
loop_
 _symmetry_equiv_pos_site_id
 _symmetry_equiv_pos_as_xyz
  1  'x, y, z'
loop_
 _atom_site_type_symbol
 _atom_site_label
 _atom_site_symmetry_multiplicity
 _atom_site_fract_x
 _atom_site_fract_y
 _atom_site_fract_z
 _atom_site_occupancy
  Ba  Ba0  1  0.26249338  0.91022612  0.63543322  1
  Ba  Ba1  1  0.08977662  0.35227521  0.63543238  1
  Ba  Ba2  1  0.64775364  0.73751183  0.63542818  1
  Ba  Ba3  1  0.73750662  0.08977388  0.13543322  1
  Ba  Ba4  1  0.91022338  0.64772479  0.13543238  1
  Ba  Ba5  1  0.35224636  0.26248817  0.13542818  1
  Ba  Ba6  1  0.33335861  0.66667970  0.94523799  1
  Ba  Ba7  1  0.66664139  0.33332030  0.44523799  1
  Na  Na8  1  0.00000180  -0.00000003  0.88834400  1
  Na  Na9  1  0.99999820  0.00000003  0.38834400  1
  Ge  Ge10  1  0.67068485  0.11820865  0.79749339  1
  Ge  Ge11  1  0.88179817  0.55248057  0.79749410  1
  Ge  Ge12  1  0.44752290  0.32931847  0.79749666  1
  Ge  Ge13  1  0.32931515  0.88179135  0.29749339  1
  Ge  Ge14  1  0.11820183  0.44751943  0.29749410  1
  Ge  Ge15  1  0.55247710  0.67068153  0.29749666  1
  S  S16  1  0.45358402  0.11553557  0.86180194  1
  S  S17  1  0.88446213  0.33804780  0.86180262  1
  S  S18  1  0.66195531  0.54641760  0.86180239  1
  S  S19  1  0.54641598  0.88446443  0.36180194  1
  S  S20  1  0.11553787  0.66195220  0.36180262  1
  S  S21  1  0.33804469  0.45358240  0.36180239  1
  S  S22  1  0.66714286  0.08939966  0.62233992  1
  S  S23  1  0.91060202  0.57773904  0.62233908  1
  S  S24  1  0.42224988  0.33285695  0.62234289  1
  S  S25  1  0.33285714  0.91060034  0.12233992  1
  S  S26  1  0.08939798  0.42226096  0.12233908  1
  S  S27  1  0.57775012  0.66714305  0.12234289  1
  S  S28  1  0.68939708  0.93931837  0.89001957  1
  S  S29  1  0.06069425  0.75007443  0.89001986  1
  S  S30  1  0.24992376  0.31061751  0.89001828  1
  S  S31  1  0.31060292  0.06068163  0.39001957  1
  S  S32  1  0.93930575  0.24992557  0.39001986  1
  S  S33  1  0.75007624  0.68938249  0.39001828  1
  S  S34  1  0.33335293  0.66667368  0.69907490  1
  S  S35  1  0.66664707  0.33332632  0.19907490  1
  Cl  Cl36  1  0.00000517  0.00000637  0.64114865  1
  Cl  Cl37  1  0.99999483  0.99999363  0.14114865  1
