# generated using pymatgen
data_ZnCoH22C5N10(Cl2O3)2
_symmetry_space_group_name_H-M   'P 1'
_cell_length_a   7.83244005
_cell_length_b   12.30385080
_cell_length_c   13.92812162
_cell_angle_alpha   108.08853402
_cell_angle_beta   103.46728672
_cell_angle_gamma   100.61421279
_symmetry_Int_Tables_number   1
_chemical_formula_structural   ZnCoH22C5N10(Cl2O3)2
_chemical_formula_sum   'Zn2 Co2 H44 C10 N20 Cl8 O12'
_cell_volume   1192.09991977
_cell_formula_units_Z   2
loop_
 _symmetry_equiv_pos_site_id
 _symmetry_equiv_pos_as_xyz
  1  'x, y, z'
loop_
 _atom_site_type_symbol
 _atom_site_label
 _atom_site_symmetry_multiplicity
 _atom_site_fract_x
 _atom_site_fract_y
 _atom_site_fract_z
 _atom_site_occupancy
  Zn  Zn0  1  0.95265898  0.71759274  0.29852843  1
  Zn  Zn1  1  0.04734102  0.28240726  0.70147157  1
  Co  Co2  1  0.46035456  0.76706841  0.74466202  1
  Co  Co3  1  0.53964544  0.23293159  0.25533798  1
  H  H4  1  0.44507915  0.63166847  0.06033079  1
  H  H5  1  0.55492085  0.36833153  0.93966921  1
  H  H6  1  0.28070878  0.54759794  0.93673975  1
  H  H7  1  0.71929122  0.45240206  0.06326025  1
  H  H8  1  0.66575142  0.84096665  0.97409898  1
  H  H9  1  0.33424858  0.15903335  0.02590102  1
  H  H10  1  0.66542497  0.79356997  0.08168012  1
  H  H11  1  0.33457503  0.20643003  0.91831988  1
  H  H12  1  0.02377955  0.69232045  0.76197401  1
  H  H13  1  0.97622045  0.30767955  0.23802599  1
  H  H14  1  0.97935824  0.55254264  0.77166483  1
  H  H15  1  0.02064176  0.44745736  0.22833517  1
  H  H16  1  0.70412868  0.46343309  0.77885664  1
  H  H17  1  0.29587132  0.53656691  0.22114336  1
  H  H18  1  0.52419020  0.52939568  0.76674624  1
  H  H19  1  0.47580980  0.47060432  0.23325376  1
  H  H20  1  0.64827830  0.00476784  0.73298057  1
  H  H21  1  0.35172170  0.99523216  0.26701943  1
  H  H22  1  0.76565800  0.15177832  0.81988666  1
  H  H23  1  0.23434200  0.84822168  0.18011334  1
  H  H24  1  0.72456501  0.09006330  0.04749035  1
  H  H25  1  0.27543499  0.90993670  0.95250965  1
  H  H26  1  0.79958819  0.20016922  0.00308383  1
  H  H27  1  0.20041181  0.79983078  0.99691617  1
  H  H28  1  0.38580565  0.85468225  0.44316837  1
  H  H29  1  0.61419435  0.14531775  0.55683163  1
  H  H30  1  0.53748100  0.78492709  0.39053825  1
  H  H31  1  0.46251900  0.21507291  0.60946175  1
  H  H32  1  0.71742521  0.72483590  0.62129815  1
  H  H33  1  0.28257479  0.27516410  0.37870185  1
  H  H34  1  0.72713439  0.70403829  0.49166254  1
  H  H35  1  0.27286561  0.29596171  0.50833746  1
  H  H36  1  0.30071214  0.90787920  0.62340689  1
  H  H37  1  0.69928786  0.09212080  0.37659311  1
  H  H38  1  0.14779127  0.99815876  0.62932499  1
  H  H39  1  0.85220873  0.00184124  0.37067501  1
  H  H40  1  0.98535652  0.91138002  0.81461873  1
  H  H41  1  0.01464348  0.08861998  0.18538127  1
  H  H42  1  0.97566548  0.00176959  0.74162129  1
  H  H43  1  0.02433452  0.99823041  0.25837871  1
  H  H44  1  0.21907940  0.62407262  0.55576783  1
  H  H45  1  0.78092060  0.37592738  0.44423217  1
  H  H46  1  0.22807640  0.54476137  0.62444904  1
  H  H47  1  0.77192360  0.45523863  0.37555096  1
  C  C48  1  0.46481284  0.69140419  0.93958730  1
  C  C49  1  0.53518716  0.30859581  0.06041270  1
  C  C50  1  0.76228595  0.62473867  0.76132429  1
  C  C51  1  0.23771405  0.37526133  0.23867571  1
  C  C52  1  0.69121963  0.03064105  0.88898344  1
  C  C53  1  0.30878037  0.96935895  0.11101656  1
  C  C54  1  0.55336431  0.80003031  0.54437258  1
  C  C55  1  0.44663569  0.19996969  0.45562742  1
  C  C56  1  0.16427288  0.90691983  0.73049050  1
  C  C57  1  0.83572712  0.09308017  0.26950950  1
  N  N58  1  0.38097299  0.62334134  0.98465926  1
  N  N59  1  0.61902701  0.37665866  0.01534074  1
  N  N60  1  0.61745195  0.77926586  0.00315075  1
  N  N61  1  0.38254805  0.22073414  0.99684925  1
  N  N62  1  0.93915429  0.62687435  0.77304484  1
  N  N63  1  0.06084571  0.37312565  0.22695516  1
  N  N64  1  0.65137069  0.52800549  0.76274517  1
  N  N65  1  0.34862931  0.47199451  0.23725483  1
  N  N66  1  0.70812955  0.06569095  0.80850801  1
  N  N67  1  0.29187045  0.93430905  0.19149199  1
  N  N68  1  0.76410584  0.11190717  0.98984039  1
  N  N69  1  0.23589416  0.88809283  0.01015961  1
  N  N70  1  0.49078497  0.81685409  0.45320341  1
  N  N71  1  0.50921503  0.18314591  0.54679659  1
  N  N72  1  0.68188709  0.74204401  0.55317708  1
  N  N73  1  0.31811291  0.25795599  0.44682292  1
  N  N74  1  0.20986755  0.94307589  0.65659573  1
  N  N75  1  0.79013245  0.05692411  0.34340427  1
  N  N76  1  0.05012158  0.95784143  0.77841952  1
  N  N77  1  0.94987842  0.04215857  0.22158048  1
  Cl  Cl78  1  0.11809452  0.91177836  0.38942108  1
  Cl  Cl79  1  0.88190548  0.08822164  0.61057892  1
  Cl  Cl80  1  0.97480842  0.61947433  0.41586486  1
  Cl  Cl81  1  0.02519158  0.38052567  0.58413514  1
  Cl  Cl82  1  0.65137090  0.71085030  0.23357144  1
  Cl  Cl83  1  0.34862910  0.28914970  0.76642856  1
  Cl  Cl84  1  0.06195800  0.63120530  0.16459446  1
  Cl  Cl85  1  0.93804200  0.36879470  0.83540554  1
  O  O86  1  0.39713964  0.67252676  0.84158850  1
  O  O87  1  0.60286036  0.32747324  0.15841150  1
  O  O88  1  0.70657521  0.71251018  0.74889530  1
  O  O89  1  0.29342479  0.28748982  0.25110470  1
  O  O90  1  0.61637912  0.92320869  0.87401574  1
  O  O91  1  0.38362088  0.07679131  0.12598426  1
  O  O92  1  0.49331062  0.84125505  0.62308300  1
  O  O93  1  0.50668938  0.15874495  0.37691700  1
  O  O94  1  0.22764944  0.82971839  0.76011027  1
  O  O95  1  0.77235056  0.17028161  0.23988973  1
  O  O96  1  0.30115988  0.61311032  0.61500153  1
  O  O97  1  0.69884012  0.38688968  0.38499847  1
