# generated using pymatgen
data_Sr4Li2Ta2Al2N8O
_symmetry_space_group_name_H-M   'P 1'
_cell_length_a   6.05211109
_cell_length_b   9.49756046
_cell_length_c   10.09011088
_cell_angle_alpha   90.00000000
_cell_angle_beta   90.00000000
_cell_angle_gamma   93.30748545
_symmetry_Int_Tables_number   1
_chemical_formula_structural   Sr4Li2Ta2Al2N8O
_chemical_formula_sum   'Sr8 Li4 Ta4 Al4 N16 O2'
_cell_volume   579.01642537
_cell_formula_units_Z   2
loop_
 _symmetry_equiv_pos_site_id
 _symmetry_equiv_pos_as_xyz
  1  'x, y, z'
loop_
 _atom_site_type_symbol
 _atom_site_label
 _atom_site_symmetry_multiplicity
 _atom_site_fract_x
 _atom_site_fract_y
 _atom_site_fract_z
 _atom_site_occupancy
  Sr  Sr0  1  0.49793491  0.93059251  0.23968259  1
  Sr  Sr1  1  0.99793491  0.43059251  0.26031741  1
  Sr  Sr2  1  0.50206509  0.06940749  0.76031741  1
  Sr  Sr3  1  0.00206509  0.56940749  0.73968259  1
  Sr  Sr4  1  0.53521059  0.30295964  0.06544940  1
  Sr  Sr5  1  0.03521059  0.80295964  0.43455060  1
  Sr  Sr6  1  0.46478941  0.69704036  0.93455060  1
  Sr  Sr7  1  0.96478941  0.19704036  0.56544940  1
  Li  Li8  1  0.19339450  0.00336541  0.99345448  1
  Li  Li9  1  0.69339450  0.50336541  0.50654552  1
  Li  Li10  1  0.80660550  0.99663459  0.00654552  1
  Li  Li11  1  0.30660550  0.49663459  0.49345448  1
  Ta  Ta12  1  0.46613406  0.23937458  0.40246882  1
  Ta  Ta13  1  0.96613406  0.73937458  0.09753118  1
  Ta  Ta14  1  0.53386594  0.76062542  0.59753118  1
  Ta  Ta15  1  0.03386594  0.26062542  0.90246882  1
  Al  Al16  1  0.98259045  0.10029945  0.24417465  1
  Al  Al17  1  0.48259045  0.60029945  0.25582535  1
  Al  Al18  1  0.01740955  0.89970055  0.75582535  1
  Al  Al19  1  0.51740955  0.39970055  0.74417465  1
  N  N20  1  0.21626652  0.10384410  0.36577263  1
  N  N21  1  0.71626652  0.60384410  0.13422737  1
  N  N22  1  0.78373348  0.89615590  0.63422737  1
  N  N23  1  0.28373348  0.39615590  0.86577263  1
  N  N24  1  0.73664640  0.16668120  0.33371181  1
  N  N25  1  0.23664640  0.66668120  0.16628819  1
  N  N26  1  0.26335360  0.83331880  0.66628819  1
  N  N27  1  0.76335360  0.33331880  0.83371181  1
  N  N28  1  0.92458006  0.91494319  0.18872804  1
  N  N29  1  0.42458006  0.41494319  0.31127196  1
  N  N30  1  0.07541994  0.08505681  0.81127196  1
  N  N31  1  0.57541994  0.58505681  0.68872804  1
  N  N32  1  0.01922664  0.21225672  0.08999555  1
  N  N33  1  0.51922664  0.71225672  0.41000445  1
  N  N34  1  0.98077336  0.78774328  0.91000445  1
  N  N35  1  0.48077336  0.28774328  0.58999555  1
  O  O36  1  0.50000000  0.00000000  -0.00000000  1
  O  O37  1  0.00000000  0.50000000  0.50000000  1
