# generated using pymatgen
data_Fe2Co3O10
_symmetry_space_group_name_H-M   'P 1'
_cell_length_a   5.02593865
_cell_length_b   2.90499203
_cell_length_c   23.55269336
_cell_angle_alpha   90.00000051
_cell_angle_beta   93.47312507
_cell_angle_gamma   89.99999462
_symmetry_Int_Tables_number   1
_chemical_formula_structural   Fe2Co3O10
_chemical_formula_sum   'Fe4 Co6 O20'
_cell_volume   343.24507471
_cell_formula_units_Z   2
loop_
 _symmetry_equiv_pos_site_id
 _symmetry_equiv_pos_as_xyz
  1  'x, y, z'
loop_
 _atom_site_type_symbol
 _atom_site_label
 _atom_site_symmetry_multiplicity
 _atom_site_fract_x
 _atom_site_fract_y
 _atom_site_fract_z
 _atom_site_occupancy
  Fe  Fe0  1  0.50406365  1.00000000  0.50171402  1
  Fe  Fe1  1  0.10460697  1.00000000  0.30149164  1
  Fe  Fe2  1  0.89702233  0.50000000  0.19974697  1
  Fe  Fe3  1  0.69367238  0.00000000  0.09702933  1
  Co  Co4  1  0.29645332  0.00000000  0.89838869  1
  Co  Co5  1  0.09968520  0.50000000  0.79986400  1
  Co  Co6  1  0.90251924  1.00000000  0.70118687  1
  Co  Co7  1  0.70489739  0.50000000  0.60246560  1
  Co  Co8  1  0.30167311  0.50000000  0.40154146  1
  Co  Co9  1  0.49595509  0.50000000  0.99611991  1
  O  O10  1  0.59939013  0.00000000  0.95018504  1
  O  O11  1  0.19338358  0.50000000  0.94498824  1
  O  O12  1  0.99569087  1.00000000  0.84633467  1
  O  O13  1  0.40045324  0.50000000  0.85222070  1
  O  O14  1  0.20431983  0.00000000  0.75365369  1
  O  O15  1  0.79939125  0.50000000  0.74793777  1
  O  O16  1  0.60300428  1.00000000  0.64860390  1
  O  O17  1  0.81506910  0.00000000  0.55674853  1
  O  O18  1  0.00321282  0.50000000  0.65483485  1
  O  O19  1  0.40065359  0.50000000  0.55232675  1
  O  O20  1  0.60433646  0.50000000  0.45093628  1
  O  O21  1  0.19202397  1.00000000  0.44667765  1
  O  O22  1  0.41050551  0.00000000  0.35609355  1
  O  O23  1  -0.00017529  0.50000000  0.35258029  1
  O  O24  1  0.79143491  1.00000000  0.25104114  1
  O  O25  1  0.22417808  0.50000000  0.25505021  1
  O  O26  1  0.00214197  0.00000000  0.14763871  1
  O  O27  1  0.57015633  0.50000000  0.14331703  1
  O  O28  1  0.80210731  0.50000000  0.04695629  1
  O  O29  1  0.38817335  1.00000000  0.04232521  1
