# generated using pymatgen
data_PbI2
_symmetry_space_group_name_H-M   'P 1'
_cell_length_a   4.66280128
_cell_length_b   4.66012430
_cell_length_c   86.88354454
_cell_angle_alpha   90.00000000
_cell_angle_beta   90.00981224
_cell_angle_gamma   119.98101066
_symmetry_Int_Tables_number   1
_chemical_formula_structural   PbI2
_chemical_formula_sum   'Pb12 I24'
_cell_volume   1635.29320219
_cell_formula_units_Z   12
loop_
 _symmetry_equiv_pos_site_id
 _symmetry_equiv_pos_as_xyz
  1  'x, y, z'
loop_
 _atom_site_type_symbol
 _atom_site_label
 _atom_site_symmetry_multiplicity
 _atom_site_fract_x
 _atom_site_fract_y
 _atom_site_fract_z
 _atom_site_occupancy
  Pb  Pb0  1  0.33404373  0.66702186  0.97916536  1
  Pb  Pb1  1  0.33402912  0.66701456  0.89584577  1
  Pb  Pb2  1  0.33385447  0.66692724  0.81252144  1
  Pb  Pb3  1  0.33390904  0.66695452  0.72915500  1
  Pb  Pb4  1  0.33405468  0.66702734  0.64582284  1
  Pb  Pb5  1  0.33327530  0.66663765  0.56253637  1
  Pb  Pb6  1  0.99954406  0.99977203  0.47917514  1
  Pb  Pb7  1  0.99922698  0.99961349  0.39582477  1
  Pb  Pb8  1  0.33224609  0.66612304  0.31249470  1
  Pb  Pb9  1  0.33255557  0.66627778  0.22914842  1
  Pb  Pb10  1  0.00002106  0.00001053  0.14584614  1
  Pb  Pb11  1  0.00003282  0.00001641  0.06251624  1
  I  I12  1  -0.00002485  -0.00001243  0.00086647  1
  I  I13  1  0.66674219  0.33337110  0.95746039  1
  I  I14  1  0.99904014  0.99952007  0.91755227  1
  I  I15  1  0.66722207  0.33361104  0.87411312  1
  I  I16  1  0.99964646  0.99982323  0.83419630  1
  I  I17  1  0.66669761  0.33334881  0.79077708  1
  I  I18  1  -0.00025066  -0.00012533  0.75089520  1
  I  I19  1  0.66677338  0.33338669  0.70744373  1
  I  I20  1  0.00018540  0.00009270  0.66751732  1
  I  I21  1  0.66644263  0.33322131  0.62416223  1
  I  I22  1  0.99919510  0.99959755  0.58421101  1
  I  I23  1  0.66714757  0.33357379  0.54078901  1
  I  I24  1  0.33399395  0.66699698  0.50085068  1
  I  I25  1  0.66654010  0.33327005  0.45747073  1
  I  I26  1  0.33356234  0.66678117  0.41753782  1
  I  I27  1  0.66662414  0.33331207  0.37413587  1
  I  I28  1  0.00044591  0.00022296  0.33419403  1
  I  I29  1  0.66645181  0.33322590  0.29079649  1
  I  I30  1  -0.00031189  -0.00015594  0.25088399  1
  I  I31  1  0.66743613  0.33371806  0.20745290  1
  I  I32  1  0.33302227  0.66651114  0.16751233  1
  I  I33  1  0.66625810  0.33312905  0.12413467  1
  I  I34  1  0.33402170  0.66701085  0.08416964  1
  I  I35  1  0.66634547  0.33317273  0.04082455  1
