# generated using pymatgen
data_K2Cr2AsHO10
_symmetry_space_group_name_H-M   'P 1'
_cell_length_a   7.92351585
_cell_length_b   7.92305985
_cell_length_c   14.78183104
_cell_angle_alpha   90.00220451
_cell_angle_beta   90.01147687
_cell_angle_gamma   119.99681427
_symmetry_Int_Tables_number   1
_chemical_formula_structural   K2Cr2AsHO10
_chemical_formula_sum   'K6 Cr6 As3 H3 O30'
_cell_volume   803.68092286
_cell_formula_units_Z   3
loop_
 _symmetry_equiv_pos_site_id
 _symmetry_equiv_pos_as_xyz
  1  'x, y, z'
loop_
 _atom_site_type_symbol
 _atom_site_label
 _atom_site_symmetry_multiplicity
 _atom_site_fract_x
 _atom_site_fract_y
 _atom_site_fract_z
 _atom_site_occupancy
  K  K0  1  0.44718237  0.44720931  0.33331390  1
  K  K1  1  0.99999837  0.55282767  0.66667379  1
  K  K2  1  0.55275021  0.99996953  0.00001047  1
  K  K3  1  0.61627676  0.99996111  0.49999002  1
  K  K4  1  0.38372300  0.38374706  0.83333320  1
  K  K5  1  0.00003203  0.61634443  0.16668624  1
  Cr  Cr6  1  0.42608247  0.41761558  0.58771864  1
  Cr  Cr7  1  0.99126612  0.57394240  0.92121976  1
  Cr  Cr8  1  0.58254158  0.00876704  0.25445760  1
  Cr  Cr9  1  0.00854030  0.58236937  0.41223558  1
  Cr  Cr10  1  0.41757458  0.42598946  0.07888585  1
  Cr  Cr11  1  0.57371285  0.99108724  0.74538038  1
  As  As12  1  0.12099971  -0.00000825  0.49999077  1
  As  As13  1  0.87903208  0.87906048  0.83333909  1
  As  As14  1  0.00007799  0.12099658  0.16665480  1
  H  H15  1  0.04827922  0.04828078  0.33334233  1
  H  H16  1  0.00000311  0.95174437  0.66665265  1
  H  H17  1  0.95172068  0.00000856  0.00000578  1
  O  O18  1  0.60752901  0.46131473  0.65397293  1
  O  O19  1  0.85389030  0.39255760  0.98720727  1
  O  O20  1  0.53876971  0.14620873  0.32060374  1
  O  O21  1  0.14607066  0.53854436  0.34609084  1
  O  O22  1  0.46137937  0.60760237  0.01269348  1
  O  O23  1  0.39252787  0.85385975  0.67937584  1
  O  O24  1  0.48721852  0.59020385  0.51368766  1
  O  O25  1  0.10302776  0.51274695  0.84693299  1
  O  O26  1  0.40992726  0.89716562  0.18037653  1
  O  O27  1  0.89685157  0.40956962  0.48639905  1
  O  O28  1  0.59023483  0.48720429  0.15300435  1
  O  O29  1  0.51272934  0.10308339  0.81969213  1
  O  O30  1  0.24504340  0.39342503  0.64897811  1
  O  O31  1  0.14830734  0.75496519  0.98222748  1
  O  O32  1  0.60668184  0.85167232  0.31567372  1
  O  O33  1  0.85161899  0.60655649  0.35111228  1
  O  O34  1  0.39344895  0.24509606  0.01774128  1
  O  O35  1  0.75487896  0.14827250  0.68438901  1
  O  O36  1  0.35700778  0.18693698  0.52671567  1
  O  O37  1  0.82992530  0.64299399  0.85998580  1
  O  O38  1  0.81314876  0.17015094  0.19336172  1
  O  O39  1  0.16999455  0.81294368  0.47332802  1
  O  O40  1  0.18702393  0.35699889  0.13995429  1
  O  O41  1  0.64298434  0.82995075  0.80663022  1
  O  O42  1  0.96003525  0.92712244  0.58705021  1
  O  O43  1  0.96707547  0.03998789  0.92038410  1
  O  O44  1  0.07289558  0.03291431  0.25370859  1
  O  O45  1  0.03292745  0.07291017  0.41295616  1
  O  O46  1  0.92708397  0.96002865  0.07960911  1
  O  O47  1  0.03996854  0.96709972  0.74628659  1
