# generated using pymatgen
data_Na2Cu2(B4O7)3
_symmetry_space_group_name_H-M   'P 1'
_cell_length_a   4.71387036
_cell_length_b   12.06988614
_cell_length_c   14.57010961
_cell_angle_alpha   81.06049486
_cell_angle_beta   80.69063846
_cell_angle_gamma   78.73927099
_symmetry_Int_Tables_number   1
_chemical_formula_structural   Na2Cu2(B4O7)3
_chemical_formula_sum   'Na4 Cu4 B24 O42'
_cell_volume   795.72104547
_cell_formula_units_Z   2
loop_
 _symmetry_equiv_pos_site_id
 _symmetry_equiv_pos_as_xyz
  1  'x, y, z'
loop_
 _atom_site_type_symbol
 _atom_site_label
 _atom_site_symmetry_multiplicity
 _atom_site_fract_x
 _atom_site_fract_y
 _atom_site_fract_z
 _atom_site_occupancy
  Na  Na0  1  0.72775870  0.71086943  0.01013381  1
  Na  Na1  1  0.44876194  0.78913057  0.48986619  1
  Na  Na2  1  0.27224130  0.28913057  0.98986619  1
  Na  Na3  1  0.55123806  0.21086943  0.51013381  1
  Cu  Cu4  1  0.46129372  0.98946096  0.10646304  1
  Cu  Cu5  1  0.55721772  0.51053904  0.39353696  1
  Cu  Cu6  1  0.53870628  0.01053904  0.89353696  1
  Cu  Cu7  1  0.44278228  0.48946096  0.60646304  1
  B  B8  1  0.10830505  0.87648742  0.00850198  1
  B  B9  1  0.99329445  0.62351258  0.49149802  1
  B  B10  1  0.89169495  0.12351258  0.99149802  1
  B  B11  1  0.00670555  0.37648742  0.50850198  1
  B  B12  1  0.90486358  0.46338446  0.20721072  1
  B  B13  1  0.57545876  0.03661554  0.29278928  1
  B  B14  1  0.09513642  0.53661554  0.79278928  1
  B  B15  1  0.42454124  0.96338446  0.70721072  1
  B  B16  1  0.66097734  0.67735890  0.81577184  1
  B  B17  1  0.15410808  0.82264110  0.68422816  1
  B  B18  1  0.33902266  0.32264110  0.18422816  1
  B  B19  1  0.84589192  0.17735890  0.31577184  1
  B  B20  1  0.09414034  0.32976119  0.34661098  1
  B  B21  1  0.77051251  0.17023881  0.15338902  1
  B  B22  1  0.90585966  0.67023881  0.65338902  1
  B  B23  1  0.22948749  0.82976119  0.84661098  1
  B  B24  1  0.07102328  0.70365115  0.32769200  1
  B  B25  1  0.10236644  0.79634885  0.17230800  1
  B  B26  1  0.92897672  0.29634885  0.67230800  1
  B  B27  1  0.89763356  0.20365115  0.82769200  1
  B  B28  1  0.46716366  0.62281885  0.20327964  1
  B  B29  1  0.29326214  0.87718115  0.29672036  1
  B  B30  1  0.53283634  0.37718115  0.79672036  1
  B  B31  1  0.70673786  0.12281885  0.70327964  1
  O  O32  1  0.01852039  0.85649300  0.92827090  1
  O  O33  1  0.80328429  0.64350700  0.57172910  1
  O  O34  1  0.98147961  0.14350700  0.07172910  1
  O  O35  1  0.19671571  0.35649300  0.42827090  1
  O  O36  1  0.94775321  0.84444214  0.09309039  1
  O  O37  1  0.88528574  0.65555786  0.40690961  1
  O  O38  1  0.05224679  0.15555786  0.90690961  1
  O  O39  1  0.11471426  0.34444214  0.59309039  1
  O  O40  1  0.35423231  0.92234304  0.00426476  1
  O  O41  1  0.28084011  0.57765696  0.49573524  1
  O  O42  1  0.64576769  0.07765696  0.99573524  1
  O  O43  1  0.71915989  0.42234304  0.50426476  1
  O  O44  1  0.70870802  0.54882525  0.16651325  1
  O  O45  1  0.42404652  0.95117475  0.33348675  1
  O  O46  1  0.29129198  0.45117475  0.83348675  1
  O  O47  1  0.57595348  0.04882525  0.66651325  1
  O  O48  1  0.87084645  0.58966483  0.85321066  1
  O  O49  1  0.31372194  0.91033517  0.64678934  1
  O  O50  1  0.12915355  0.41033517  0.14678934  1
  O  O51  1  0.68627806  0.08966483  0.35321066  1
  O  O52  1  0.88146582  0.43300401  0.30340109  1
  O  O53  1  0.61787092  0.06699599  0.19659891  1
  O  O54  1  0.11853418  0.56699599  0.69659891  1
  O  O55  1  0.38212908  0.93300401  0.80340109  1
  O  O56  1  0.45791583  0.73435162  0.87769036  1
  O  O57  1  0.06995781  0.76564838  0.62230964  1
  O  O58  1  0.54208417  0.26564838  0.12230964  1
  O  O59  1  0.93004219  0.23435162  0.37769036  1
  O  O60  1  0.34525364  0.30245764  0.27821434  1
  O  O61  1  0.92592562  0.19754236  0.22178566  1
  O  O62  1  0.65474636  0.69754236  0.72178566  1
  O  O63  1  0.07407438  0.80245764  0.77821434  1
  O  O64  1  0.33954743  0.60751237  0.29584431  1
  O  O65  1  0.24290411  0.89248763  0.20415569  1
  O  O66  1  0.66045257  0.39248763  0.70415569  1
  O  O67  1  0.75709589  0.10751237  0.79584431  1
  O  O68  1  0.35683009  0.70970667  0.14069965  1
  O  O69  1  0.20723641  0.79029333  0.35930035  1
  O  O70  1  0.64316991  0.29029333  0.85930035  1
  O  O71  1  0.79276359  0.20970667  0.64069965  1
  O  O72  1  0.91943115  0.75000000  0.25000000  1
  O  O73  1  0.08056885  0.25000000  0.75000000  1
