# generated using pymatgen
data_Ba6Nb3HO14
_symmetry_space_group_name_H-M   'P 1'
_cell_length_a   6.14856541
_cell_length_b   10.67553117
_cell_length_c   12.75860805
_cell_angle_alpha   90.00000000
_cell_angle_beta   90.00000000
_cell_angle_gamma   90.00000000
_symmetry_Int_Tables_number   1
_chemical_formula_structural   Ba6Nb3HO14
_chemical_formula_sum   'Ba12 Nb6 H2 O28'
_cell_volume   837.46484702
_cell_formula_units_Z   2
loop_
 _symmetry_equiv_pos_site_id
 _symmetry_equiv_pos_as_xyz
  1  'x, y, z'
loop_
 _atom_site_type_symbol
 _atom_site_label
 _atom_site_symmetry_multiplicity
 _atom_site_fract_x
 _atom_site_fract_y
 _atom_site_fract_z
 _atom_site_occupancy
  Ba  Ba0  1  0.00000000  0.49962015  0.49524388  1
  Ba  Ba1  1  0.50000000  0.99962015  0.50475612  1
  Ba  Ba2  1  -0.00000000  0.17571615  0.64337528  1
  Ba  Ba3  1  0.50000000  0.67571615  0.35662472  1
  Ba  Ba4  1  -0.00000000  0.45909688  0.83450570  1
  Ba  Ba5  1  0.50000000  0.95909688  0.16549430  1
  Ba  Ba6  1  -0.00000000  0.17774750  0.32800984  1
  Ba  Ba7  1  0.50000000  0.67774750  0.67199016  1
  Ba  Ba8  1  0.50000000  0.05795104  0.83208892  1
  Ba  Ba9  1  0.00000000  0.55795104  0.16791108  1
  Ba  Ba10  1  -0.00000000  0.83362701  0.91278047  1
  Ba  Ba11  1  0.50000000  0.33362701  0.08721953  1
  Nb  Nb12  1  0.00000000  0.83813368  0.64106709  1
  Nb  Nb13  1  0.50000000  0.33813368  0.35893291  1
  Nb  Nb14  1  -0.00000000  0.84562990  0.40314037  1
  Nb  Nb15  1  0.50000000  0.34562990  0.59685963  1
  Nb  Nb16  1  0.50000000  0.65450517  0.00714018  1
  Nb  Nb17  1  -0.00000000  0.15450517  0.99285982  1
  H  H18  1  0.50000000  0.33677949  0.82435997  1
  H  H19  1  0.00000000  0.83677949  0.17564003  1
  O  O20  1  0.75932153  0.91957908  0.33150446  1
  O  O21  1  0.24067847  0.91957908  0.33150446  1
  O  O22  1  0.74067847  0.41957908  0.66849554  1
  O  O23  1  0.25932153  0.41957908  0.66849554  1
  O  O24  1  0.77360625  0.76839028  0.52663887  1
  O  O25  1  0.22639375  0.76839028  0.52663887  1
  O  O26  1  0.72639375  0.26839028  0.47336113  1
  O  O27  1  0.27360625  0.26839028  0.47336113  1
  O  O28  1  0.77125686  0.92664181  0.71169996  1
  O  O29  1  0.22874314  0.92664181  0.71169996  1
  O  O30  1  0.72874314  0.42664181  0.28830004  1
  O  O31  1  0.27125686  0.42664181  0.28830004  1
  O  O32  1  -0.00000000  0.68885574  0.72790416  1
  O  O33  1  0.50000000  0.18885574  0.27209584  1
  O  O34  1  -0.00000000  0.98673123  0.51595925  1
  O  O35  1  0.50000000  0.48673123  0.48404075  1
  O  O36  1  -0.00000000  0.67886856  0.34660716  1
  O  O37  1  0.50000000  0.17886856  0.65339284  1
  O  O38  1  0.25683946  0.55015812  0.99260429  1
  O  O39  1  0.74316054  0.55015812  0.99260429  1
  O  O40  1  0.24316054  0.05015812  0.00739571  1
  O  O41  1  0.75683946  0.05015812  0.00739571  1
  O  O42  1  -0.00000000  0.20980256  0.85344925  1
  O  O43  1  0.50000000  0.70980256  0.14655075  1
  O  O44  1  0.50000000  0.78060250  0.90354522  1
  O  O45  1  -0.00000000  0.28060250  0.09645478  1
  O  O46  1  0.50000000  0.30298390  0.89556269  1
  O  O47  1  -0.00000000  0.80298390  0.10443731  1
