# generated using pymatgen
data_BaP6H16(N2O9)2
_symmetry_space_group_name_H-M   'P 1'
_cell_length_a   9.12714006
_cell_length_b   11.30797258
_cell_length_c   11.30797381
_cell_angle_alpha   119.99999604
_cell_angle_beta   89.99990216
_cell_angle_gamma   90.00019566
_symmetry_Int_Tables_number   1
_chemical_formula_structural   BaP6H16(N2O9)2
_chemical_formula_sum   'Ba2 P12 H32 N8 O36'
_cell_volume   1010.72941393
_cell_formula_units_Z   2
loop_
 _symmetry_equiv_pos_site_id
 _symmetry_equiv_pos_as_xyz
  1  'x, y, z'
loop_
 _atom_site_type_symbol
 _atom_site_label
 _atom_site_symmetry_multiplicity
 _atom_site_fract_x
 _atom_site_fract_y
 _atom_site_fract_z
 _atom_site_occupancy
  Ba  Ba0  1  0.24694452  0.66666884  0.33333118  1
  Ba  Ba1  1  0.74694452  0.33333766  0.66666882  1
  P  P2  1  0.01536231  0.44852709  0.45468279  1
  P  P3  1  0.01536458  0.00615480  0.55147160  1
  P  P4  1  0.01535836  0.54532029  0.99384563  1
  P  P5  1  0.51536231  0.99384430  0.54531721  1
  P  P6  1  0.51536458  0.45468320  0.44852840  1
  P  P7  1  0.51535836  0.55147466  0.00615437  1
  P  P8  1  0.26272371  0.29468165  0.27875585  1
  P  P9  1  0.26272163  0.98406661  0.70531725  1
  P  P10  1  0.26272004  0.72125085  0.01592954  1
  P  P11  1  0.76272371  0.01592580  0.72124415  1
  P  P12  1  0.76272163  0.27874936  0.29468275  1
  P  P13  1  0.76272004  0.70532131  0.98407046  1
  H  H14  1  0.87518054  0.66666923  0.33333024  1
  H  H15  1  0.37518054  0.33333899  0.66666976  1
  H  H16  1  0.72460437  0.58877092  0.34804003  1
  H  H17  1  0.72460067  0.75926945  0.41123014  1
  H  H18  1  0.72459754  0.65196061  0.24073194  1
  H  H19  1  0.22460437  0.24073089  0.65195997  1
  H  H20  1  0.22460067  0.34803931  0.58876986  1
  H  H21  1  0.22459754  0.41122867  0.75926806  1
  H  H22  1  0.06798201  0.05288117  0.20960788  1
  H  H23  1  0.06798020  0.15672545  0.94711723  1
  H  H24  1  0.06798304  0.79039072  0.84327239  1
  H  H25  1  0.56798201  0.84327329  0.79039212  1
  H  H26  1  0.56798020  0.20960822  0.05288277  1
  H  H27  1  0.56798304  0.94711833  0.15672761  1
  H  H28  1  0.94010347  0.07063543  0.32671297  1
  H  H29  1  0.94010281  0.25607853  0.92936456  1
  H  H30  1  0.94010538  0.67328548  0.74392032  1
  H  H31  1  0.44010347  0.74392246  0.67328703  1
  H  H32  1  0.44010281  0.32671398  0.07063544  1
  H  H33  1  0.44010538  0.92936517  0.25607968  1
  H  H34  1  0.03886657  0.92625739  0.24322099  1
  H  H35  1  0.03886594  0.31696214  0.07374225  1
  H  H36  1  0.03886897  0.75677962  0.68303600  1
  H  H37  1  0.53886657  0.68303640  0.75677901  1
  H  H38  1  0.53886594  0.24321989  0.92625775  1
  H  H39  1  0.53886897  0.07374361  0.31696400  1
  H  H40  1  0.90402580  0.95988703  0.16163047  1
  H  H41  1  0.90402397  0.20174333  0.04011172  1
  H  H42  1  0.90402700  0.83836816  0.79825613  1
  H  H43  1  0.40402580  0.79825656  0.83836953  1
  H  H44  1  0.40402397  0.16163161  0.95988828  1
  H  H45  1  0.40402700  0.04011203  0.20174387  1
  N  N46  1  0.76241952  0.66666665  0.33333163  1
  N  N47  1  0.26241952  0.33333502  0.66666837  1
  N  N48  1  0.98759459  0.00281034  0.23406931  1
  N  N49  1  0.98759296  0.23126077  0.99718959  1
  N  N50  1  0.98759776  0.76592877  0.76874084  1
  N  N51  1  0.48759459  0.76874103  0.76593069  1
  N  N52  1  0.48759296  0.23407118  0.00281041  1
  N  N53  1  0.48759776  0.99718792  0.23125916  1
  O  O54  1  0.95749760  0.45409332  0.58114443  1
  O  O55  1  0.95750059  0.12705323  0.54590768  1
  O  O56  1  0.95749299  0.41885768  0.87295250  1
  O  O57  1  0.45749760  0.87294889  0.41885557  1
  O  O58  1  0.45750059  0.58114555  0.45409232  1
  O  O59  1  0.45749299  0.54590517  0.12704750  1
  O  O60  1  0.02984523  0.57740966  0.44867688  1
  O  O61  1  0.02984470  0.87126711  0.42258711  1
  O  O62  1  0.02984328  0.55132530  0.12873705  1
  O  O63  1  0.52984523  0.12873278  0.55132312  1
  O  O64  1  0.52984470  0.44867999  0.57741289  1
  O  O65  1  0.52984328  0.42258824  0.87126295  1
  O  O66  1  0.17320248  0.36875762  0.42483696  1
  O  O67  1  0.17320376  0.05607677  0.63124230  1
  O  O68  1  0.17319799  0.57516591  0.94392299  1
  O  O69  1  0.67320248  0.94392065  0.57516304  1
  O  O70  1  0.67320376  0.42483447  0.36875770  1
  O  O71  1  0.67319799  0.63124292  0.05607701  1
  O  O72  1  0.23812372  0.14306888  0.20910922  1
  O  O73  1  0.23812275  0.06603546  0.85693083  1
  O  O74  1  0.23812039  0.79089601  0.93396394  1
  O  O75  1  0.73812372  0.93395966  0.79089078  1
  O  O76  1  0.73812275  0.20910463  0.14306917  1
  O  O77  1  0.73812039  0.85693207  0.06603606  1
  O  O78  1  0.23666957  0.37143033  0.20459556  1
  O  O79  1  0.23666785  0.83316503  0.62856875  1
  O  O80  1  0.23666931  0.79540572  0.16683555  1
  O  O81  1  0.73666957  0.16683477  0.79540444  1
  O  O82  1  0.73666785  0.20459629  0.37143125  1
  O  O83  1  0.73666931  0.62857017  0.83316445  1
  O  O84  1  0.42872302  0.31743450  0.33651560  1
  O  O85  1  0.42872409  0.01907638  0.68256561  1
  O  O86  1  0.42872244  0.66348547  0.98091793  1
  O  O87  1  0.92872302  0.98091890  0.66348440  1
  O  O88  1  0.92872409  0.33651078  0.31743439  1
  O  O89  1  0.92872244  0.68256753  0.01908207  1
