# generated using pymatgen
data_Gd4B4O11F2
_symmetry_space_group_name_H-M   'P 1'
_cell_length_a   4.67423785
_cell_length_b   7.24530979
_cell_length_c   13.82864256
_cell_angle_alpha   91.16656986
_cell_angle_beta   90.00000000
_cell_angle_gamma   108.81841358
_symmetry_Int_Tables_number   1
_chemical_formula_structural   Gd4B4O11F2
_chemical_formula_sum   'Gd8 B8 O22 F4'
_cell_volume   443.18841261
_cell_formula_units_Z   2
loop_
 _symmetry_equiv_pos_site_id
 _symmetry_equiv_pos_as_xyz
  1  'x, y, z'
loop_
 _atom_site_type_symbol
 _atom_site_label
 _atom_site_symmetry_multiplicity
 _atom_site_fract_x
 _atom_site_fract_y
 _atom_site_fract_z
 _atom_site_occupancy
  Gd  Gd0  1  0.46079846  0.88286797  0.12958282  1
  Gd  Gd1  1  0.57793049  0.11713203  0.37041718  1
  Gd  Gd2  1  0.53920154  0.11713203  0.87041718  1
  Gd  Gd3  1  0.42206951  0.88286797  0.62958282  1
  Gd  Gd4  1  0.73748085  0.43982414  0.12983190  1
  Gd  Gd5  1  0.29765672  0.56017586  0.37016810  1
  Gd  Gd6  1  0.26251915  0.56017586  0.87016810  1
  Gd  Gd7  1  0.70234328  0.43982414  0.62983190  1
  B  B8  1  0.07050039  0.18610078  0.21382634  1
  B  B9  1  0.88439962  0.81389922  0.28617366  1
  B  B10  1  0.92949961  0.81389922  0.78617366  1
  B  B11  1  0.11560038  0.18610078  0.71382634  1
  B  B12  1  0.86072170  0.80931270  0.97591816  1
  B  B13  1  0.05140899  0.19068730  0.52408184  1
  B  B14  1  0.13927830  0.19068730  0.02408184  1
  B  B15  1  0.94859101  0.80931270  0.47591816  1
  O  O16  1  0.95467439  0.17484215  0.10546882  1
  O  O17  1  0.77983224  0.82515785  0.39453118  1
  O  O18  1  0.04532561  0.82515785  0.89453118  1
  O  O19  1  0.22016776  0.17484215  0.60546882  1
  O  O20  1  0.64295812  0.65138072  0.24329066  1
  O  O21  1  0.99157740  0.34861928  0.25670934  1
  O  O22  1  0.35704188  0.34861928  0.75670934  1
  O  O23  1  0.00842260  0.65138072  0.74329066  1
  O  O24  1  0.58753300  0.84116917  0.96583822  1
  O  O25  1  0.74636383  0.15883083  0.53416178  1
  O  O26  1  0.41246700  0.15883083  0.03416178  1
  O  O27  1  0.25363617  0.84116917  0.46583822  1
  O  O28  1  0.84700562  0.00000000  0.25000000  1
  O  O29  1  0.15299438  -0.00000000  0.75000000  1
  O  O30  1  0.94753283  0.77099549  0.06612048  1
  O  O31  1  0.17653734  0.22900451  0.43387952  1
  O  O32  1  0.05246717  0.22900451  0.93387952  1
  O  O33  1  0.82346266  0.77099549  0.56612048  1
  O  O34  1  0.37862603  0.19674905  0.22384611  1
  O  O35  1  0.18187698  0.80325095  0.27615389  1
  O  O36  1  0.62137397  0.80325095  0.77615389  1
  O  O37  1  0.81812302  0.19674905  0.72384611  1
  F  F38  1  0.29378481  0.53793376  0.07639530  1
  F  F39  1  0.75585105  0.46206624  0.42360470  1
  F  F40  1  0.70621519  0.46206624  0.92360470  1
  F  F41  1  0.24414895  0.53793376  0.57639530  1
