# generated using pymatgen
data_HfGe2Ru
_symmetry_space_group_name_H-M   'P 1'
_cell_length_a   8.07864320
_cell_length_b   9.30961313
_cell_length_c   10.48103045
_cell_angle_alpha   90.00000000
_cell_angle_beta   90.00000000
_cell_angle_gamma   90.00000000
_symmetry_Int_Tables_number   1
_chemical_formula_structural   HfGe2Ru
_chemical_formula_sum   'Hf12 Ge24 Ru12'
_cell_volume   788.26826778
_cell_formula_units_Z   12
loop_
 _symmetry_equiv_pos_site_id
 _symmetry_equiv_pos_as_xyz
  1  'x, y, z'
loop_
 _atom_site_type_symbol
 _atom_site_label
 _atom_site_symmetry_multiplicity
 _atom_site_fract_x
 _atom_site_fract_y
 _atom_site_fract_z
 _atom_site_occupancy
  Hf  Hf0  1  0.24123100  0.82671329  0.45177973  1
  Hf  Hf1  1  0.24123100  0.17328671  0.54822027  1
  Hf  Hf2  1  0.75876900  0.32671329  0.04822027  1
  Hf  Hf3  1  0.75876900  0.67328671  0.95177973  1
  Hf  Hf4  1  0.75876900  0.17328671  0.54822027  1
  Hf  Hf5  1  0.75876900  0.82671329  0.45177973  1
  Hf  Hf6  1  0.24123100  0.67328671  0.95177973  1
  Hf  Hf7  1  0.24123100  0.32671329  0.04822027  1
  Hf  Hf8  1  0.00000000  0.83366633  0.18088282  1
  Hf  Hf9  1  0.00000000  0.16633367  0.81911718  1
  Hf  Hf10  1  0.00000000  0.33366633  0.31911718  1
  Hf  Hf11  1  0.00000000  0.66633367  0.68088282  1
  Ge  Ge12  1  0.34688408  0.84551634  0.18253912  1
  Ge  Ge13  1  0.34688408  0.15448366  0.81746088  1
  Ge  Ge14  1  0.65311592  0.34551634  0.31746088  1
  Ge  Ge15  1  0.65311592  0.65448366  0.68253912  1
  Ge  Ge16  1  0.65311592  0.15448366  0.81746088  1
  Ge  Ge17  1  0.65311592  0.84551634  0.18253912  1
  Ge  Ge18  1  0.34688408  0.65448366  0.68253912  1
  Ge  Ge19  1  0.34688408  0.34551634  0.31746088  1
  Ge  Ge20  1  0.50000000  0.54682508  0.11310728  1
  Ge  Ge21  1  0.50000000  0.45317492  0.88689272  1
  Ge  Ge22  1  0.50000000  0.04682508  0.38689272  1
  Ge  Ge23  1  0.50000000  0.95317492  0.61310728  1
  Ge  Ge24  1  0.00000000  0.53624114  0.11608795  1
  Ge  Ge25  1  0.00000000  0.46375886  0.88391205  1
  Ge  Ge26  1  0.00000000  0.03624114  0.38391205  1
  Ge  Ge27  1  0.00000000  0.96375886  0.61608795  1
  Ge  Ge28  1  0.50000000  0.63660949  0.40506434  1
  Ge  Ge29  1  0.50000000  0.36339051  0.59493566  1
  Ge  Ge30  1  0.50000000  0.13660949  0.09493566  1
  Ge  Ge31  1  0.50000000  0.86339051  0.90506434  1
  Ge  Ge32  1  0.00000000  0.63205260  0.40161081  1
  Ge  Ge33  1  0.00000000  0.36794740  0.59838919  1
  Ge  Ge34  1  0.00000000  0.13205260  0.09838919  1
  Ge  Ge35  1  0.00000000  0.86794740  0.90161081  1
  Ru  Ru36  1  0.25029004  0.59766318  0.24253855  1
  Ru  Ru37  1  0.25029004  0.40233682  0.75746145  1
  Ru  Ru38  1  0.74970996  0.09766318  0.25746145  1
  Ru  Ru39  1  0.74970996  0.90233682  0.74253855  1
  Ru  Ru40  1  0.74970996  0.40233682  0.75746145  1
  Ru  Ru41  1  0.74970996  0.59766318  0.24253855  1
  Ru  Ru42  1  0.25029004  0.90233682  0.74253855  1
  Ru  Ru43  1  0.25029004  0.09766318  0.25746145  1
  Ru  Ru44  1  0.24651709  0.50000000  0.50000000  1
  Ru  Ru45  1  0.75348291  0.00000000  0.00000000  1
  Ru  Ru46  1  0.75348291  0.50000000  0.50000000  1
  Ru  Ru47  1  0.24651709  0.00000000  0.00000000  1
