# generated using pymatgen
data_NaSnPHO4F
_symmetry_space_group_name_H-M   'P 1'
_cell_length_a   4.97134067
_cell_length_b   5.31939569
_cell_length_c   19.36443794
_cell_angle_alpha   90.00000000
_cell_angle_beta   90.00000000
_cell_angle_gamma   90.00000000
_symmetry_Int_Tables_number   1
_chemical_formula_structural   NaSnPHO4F
_chemical_formula_sum   'Na4 Sn4 P4 H4 O16 F4'
_cell_volume   512.08342389
_cell_formula_units_Z   4
loop_
 _symmetry_equiv_pos_site_id
 _symmetry_equiv_pos_as_xyz
  1  'x, y, z'
loop_
 _atom_site_type_symbol
 _atom_site_label
 _atom_site_symmetry_multiplicity
 _atom_site_fract_x
 _atom_site_fract_y
 _atom_site_fract_z
 _atom_site_occupancy
  Na  Na0  1  0.25314916  0.25000000  0.50861655  1
  Na  Na1  1  0.75314916  0.25000000  0.99138345  1
  Na  Na2  1  0.74685084  0.75000000  0.49138345  1
  Na  Na3  1  0.24685084  0.75000000  0.00861655  1
  Sn  Sn4  1  0.70494094  0.25000000  0.36155589  1
  Sn  Sn5  1  0.20494094  0.25000000  0.13844411  1
  Sn  Sn6  1  0.29505906  0.75000000  0.63844411  1
  Sn  Sn7  1  0.79505906  0.75000000  0.86155589  1
  P  P8  1  0.27602735  0.75000000  0.37284010  1
  P  P9  1  0.77602735  0.75000000  0.12715990  1
  P  P10  1  0.72397265  0.25000000  0.62715990  1
  P  P11  1  0.22397265  0.25000000  0.87284010  1
  H  H12  1  0.20526969  0.75000000  0.26085101  1
  H  H13  1  0.70526969  0.75000000  0.23914899  1
  H  H14  1  0.79473031  0.25000000  0.73914899  1
  H  H15  1  0.29473031  0.25000000  0.76085101  1
  O  O16  1  0.40770445  0.98704835  0.40476682  1
  O  O17  1  0.90770445  0.51295165  0.09523318  1
  O  O18  1  0.59229555  0.48704835  0.59523318  1
  O  O19  1  0.09229555  0.01295165  0.90476682  1
  O  O20  1  0.59229555  0.01295165  0.59523318  1
  O  O21  1  0.09229555  0.48704835  0.90476682  1
  O  O22  1  0.40770445  0.51295165  0.40476682  1
  O  O23  1  0.90770445  0.98704835  0.09523318  1
  O  O24  1  0.97113468  0.75000000  0.37695574  1
  O  O25  1  0.47113468  0.75000000  0.12304426  1
  O  O26  1  0.02886532  0.25000000  0.62304426  1
  O  O27  1  0.52886532  0.25000000  0.87695574  1
  O  O28  1  0.36499248  0.75000000  0.29135376  1
  O  O29  1  0.86499248  0.75000000  0.20864624  1
  O  O30  1  0.63500752  0.25000000  0.70864624  1
  O  O31  1  0.13500752  0.25000000  0.79135376  1
  F  F32  1  0.83001167  0.25000000  0.46356643  1
  F  F33  1  0.33001167  0.25000000  0.03643357  1
  F  F34  1  0.16998833  0.75000000  0.53643357  1
  F  F35  1  0.66998833  0.75000000  0.96356643  1
