# generated using pymatgen
data_UH2(SO5)2
_symmetry_space_group_name_H-M   'P 1'
_cell_length_a   8.13767288
_cell_length_b   8.34407396
_cell_length_c   13.15878960
_cell_angle_alpha   90.00000000
_cell_angle_beta   105.23497028
_cell_angle_gamma   90.00000000
_symmetry_Int_Tables_number   1
_chemical_formula_structural   UH2(SO5)2
_chemical_formula_sum   'U4 H8 S8 O40'
_cell_volume   862.09861508
_cell_formula_units_Z   4
loop_
 _symmetry_equiv_pos_site_id
 _symmetry_equiv_pos_as_xyz
  1  'x, y, z'
loop_
 _atom_site_type_symbol
 _atom_site_label
 _atom_site_symmetry_multiplicity
 _atom_site_fract_x
 _atom_site_fract_y
 _atom_site_fract_z
 _atom_site_occupancy
  U  U0  1  0.26729398  0.72257323  0.08451343  1
  U  U1  1  0.76729398  0.77742677  0.58451343  1
  U  U2  1  0.73270602  0.27742677  0.91548657  1
  U  U3  1  0.23270602  0.22257323  0.41548657  1
  H  H4  1  0.20875660  0.44574311  0.73141775  1
  H  H5  1  0.70875660  0.05425689  0.23141775  1
  H  H6  1  0.79124340  0.55425689  0.26858225  1
  H  H7  1  0.29124340  0.94574311  0.76858225  1
  H  H8  1  0.34948636  0.19673697  0.10536655  1
  H  H9  1  0.84948636  0.30326303  0.60536655  1
  H  H10  1  0.65051364  0.80326303  0.89463345  1
  H  H11  1  0.15051364  0.69673697  0.39463345  1
  S  S12  1  0.38020181  0.60173501  0.84498136  1
  S  S13  1  0.88020181  0.89826499  0.34498136  1
  S  S14  1  0.61979819  0.39826499  0.15501864  1
  S  S15  1  0.11979819  0.10173501  0.65501864  1
  S  S16  1  0.10682804  0.12628662  0.12910457  1
  S  S17  1  0.60682804  0.37371338  0.62910457  1
  S  S18  1  0.89317196  0.87371338  0.87089543  1
  S  S19  1  0.39317196  0.62628662  0.37089543  1
  O  O20  1  0.10058137  0.59679315  0.10324333  1
  O  O21  1  0.60058137  0.90320685  0.60324333  1
  O  O22  1  0.89941863  0.40320685  0.89675667  1
  O  O23  1  0.39941863  0.09679315  0.39675667  1
  O  O24  1  0.43305598  0.85110445  0.06618441  1
  O  O25  1  0.93305598  0.64889555  0.56618441  1
  O  O26  1  0.56694402  0.14889555  0.93381559  1
  O  O27  1  0.06694402  0.35110445  0.43381559  1
  O  O28  1  0.52252106  0.48769985  0.87025726  1
  O  O29  1  0.02252106  0.01230015  0.37025726  1
  O  O30  1  0.47747894  0.51230015  0.12974274  1
  O  O31  1  0.97747894  0.98769985  0.62974274  1
  O  O32  1  0.27920160  0.59114006  0.92295324  1
  O  O33  1  0.77920160  0.90885994  0.42295324  1
  O  O34  1  0.72079840  0.40885994  0.07704676  1
  O  O35  1  0.22079840  0.09114006  0.57704676  1
  O  O36  1  0.43491332  0.76444650  0.82820791  1
  O  O37  1  0.93491332  0.73555350  0.32820791  1
  O  O38  1  0.56508668  0.23555350  0.17179209  1
  O  O39  1  0.06508668  0.26444650  0.67179209  1
  O  O40  1  0.25946276  0.55496516  0.73515567  1
  O  O41  1  0.75946276  0.94503484  0.23515567  1
  O  O42  1  0.74053724  0.44503484  0.26484433  1
  O  O43  1  0.24053724  0.05496516  0.76484433  1
  O  O44  1  0.93620396  0.14234021  0.05812659  1
  O  O45  1  0.43620396  0.35765979  0.55812659  1
  O  O46  1  0.06379604  0.85765979  0.94187341  1
  O  O47  1  0.56379604  0.64234021  0.44187341  1
  O  O48  1  0.12424670  0.22074019  0.22564986  1
  O  O49  1  0.62424670  0.27925981  0.72564986  1
  O  O50  1  0.87575330  0.77925981  0.77435014  1
  O  O51  1  0.37575330  0.72074019  0.27435014  1
  O  O52  1  0.15426627  0.95797049  0.15411094  1
  O  O53  1  0.65426627  0.54202951  0.65411094  1
  O  O54  1  0.84573373  0.04202951  0.84588906  1
  O  O55  1  0.34573373  0.45797049  0.34588906  1
  O  O56  1  0.22590168  0.19860872  0.06525682  1
  O  O57  1  0.72590168  0.30139128  0.56525682  1
  O  O58  1  0.77409832  0.80139128  0.93474318  1
  O  O59  1  0.27409832  0.69860872  0.43474318  1
