# generated using pymatgen
data_Li4V3Cr3(CuO8)2
_symmetry_space_group_name_H-M   'P 1'
_cell_length_a   5.83872497
_cell_length_b   5.89897128
_cell_length_c   9.75097164
_cell_angle_alpha   86.73981279
_cell_angle_beta   90.61733917
_cell_angle_gamma   120.27603459
_symmetry_Int_Tables_number   1
_chemical_formula_structural   Li4V3Cr3(CuO8)2
_chemical_formula_sum   'Li4 V3 Cr3 Cu2 O16'
_cell_volume   289.50833328
_cell_formula_units_Z   1
loop_
 _symmetry_equiv_pos_site_id
 _symmetry_equiv_pos_as_xyz
  1  'x, y, z'
loop_
 _atom_site_type_symbol
 _atom_site_label
 _atom_site_symmetry_multiplicity
 _atom_site_fract_x
 _atom_site_fract_y
 _atom_site_fract_z
 _atom_site_occupancy
  Li  Li0  1  0.33933435  0.65615872  0.90241722  1
  Li  Li1  1  0.01541503  0.03339551  0.99531921  1
  Li  Li2  1  0.99088112  0.01510381  0.49257865  1
  Li  Li3  1  0.67717294  0.32381685  0.39458427  1
  V  V4  1  0.85095103  0.64159131  0.72677583  1
  V  V5  1  0.67469016  0.81459851  0.21055073  1
  V  V6  1  0.78880393  0.11710894  0.70277719  1
  Cr  Cr7  1  0.19224584  0.84810560  0.21746288  1
  Cr  Cr8  1  0.17278443  0.34412460  0.21302599  1
  Cr  Cr9  1  0.32900005  0.17931048  0.71295766  1
  Cu  Cu10  1  0.31176961  0.66281125  0.48347300  1
  Cu  Cu11  1  0.66186299  0.33341476  0.00074059  1
  O  O12  1  0.13776806  0.84247437  0.60784557  1
  O  O13  1  0.04195852  0.51465265  0.33283887  1
  O  O14  1  0.36255074  0.69371639  0.10558651  1
  O  O15  1  0.99612566  0.99143484  0.31216435  1
  O  O16  1  0.97571973  0.98537997  0.81142956  1
  O  O17  1  0.12845547  0.32204983  0.60520056  1
  O  O18  1  0.50050147  0.95670794  0.33899479  1
  O  O19  1  0.50403845  0.51863575  0.32617611  1
  O  O20  1  0.32735829  0.17592519  0.10166248  1
  O  O21  1  0.66046157  0.84367048  0.60348169  1
  O  O22  1  0.51724094  0.47886581  0.83152850  1
  O  O23  1  0.51752645  0.01774620  0.81996103  1
  O  O24  1  0.67691312  0.34598052  0.60827583  1
  O  O25  1  0.84718262  0.70371456  0.10562104  1
  O  O26  1  0.96760866  0.47944482  0.83805666  1
  O  O27  1  0.83367978  0.16035734  0.10635224  1
