# generated using pymatgen
data_Cs2KPdF6
_symmetry_space_group_name_H-M   'P 1'
_cell_length_a   6.49640757
_cell_length_b   6.49640757
_cell_length_c   6.65009192
_cell_angle_alpha   119.23842346
_cell_angle_beta   119.23842346
_cell_angle_gamma   90.00000000
_symmetry_Int_Tables_number   1
_chemical_formula_structural   Cs2KPdF6
_chemical_formula_sum   'Cs2 K1 Pd1 F6'
_cell_volume   202.93635448
_cell_formula_units_Z   1
loop_
 _symmetry_equiv_pos_site_id
 _symmetry_equiv_pos_as_xyz
  1  'x, y, z'
loop_
 _atom_site_type_symbol
 _atom_site_label
 _atom_site_symmetry_multiplicity
 _atom_site_fract_x
 _atom_site_fract_y
 _atom_site_fract_z
 _atom_site_occupancy
  Cs  Cs0  1  0.25000000  0.75000000  0.50000000  1
  Cs  Cs1  1  0.75000000  0.25000000  0.50000000  1
  K  K2  1  0.50000000  0.50000000  0.00000000  1
  Pd  Pd3  1  0.00000000  0.00000000  -0.00000000  1
  F  F4  1  0.21768921  0.21768921  0.00000000  1
  F  F5  1  0.78231079  0.78231079  -0.00000000  1
  F  F6  1  0.78231079  0.21768921  0.00000000  1
  F  F7  1  0.21768921  0.78231079  0.00000000  1
  F  F8  1  0.23164755  0.23164755  0.46329509  1
  F  F9  1  0.76835245  0.76835245  0.53670491  1
