# generated using pymatgen
data_Fe3O5F
_symmetry_space_group_name_H-M   'P 1'
_cell_length_a   4.64925860
_cell_length_b   4.64162775
_cell_length_c   9.01804126
_cell_angle_alpha   90.00269648
_cell_angle_beta   89.99784226
_cell_angle_gamma   90.12618063
_symmetry_Int_Tables_number   1
_chemical_formula_structural   Fe3O5F
_chemical_formula_sum   'Fe6 O10 F2'
_cell_volume   194.61001031
_cell_formula_units_Z   2
loop_
 _symmetry_equiv_pos_site_id
 _symmetry_equiv_pos_as_xyz
  1  'x, y, z'
loop_
 _atom_site_type_symbol
 _atom_site_label
 _atom_site_symmetry_multiplicity
 _atom_site_fract_x
 _atom_site_fract_y
 _atom_site_fract_z
 _atom_site_occupancy
  Fe  Fe0  1  0.00277844  0.98929501  0.00608053  1
  Fe  Fe1  1  0.02246107  0.01750387  0.33332547  1
  Fe  Fe2  1  0.00272299  0.98922185  0.66056900  1
  Fe  Fe3  1  0.49684674  0.49011046  0.16025265  1
  Fe  Fe4  1  0.47732468  0.51605665  0.83332841  1
  Fe  Fe5  1  0.49688669  0.49015978  0.50646247  1
  O  O6  1  0.20147629  0.80602355  0.17286669  1
  O  O7  1  0.20145963  0.80601725  0.49375746  1
  O  O8  1  0.17480129  0.81337247  0.83336533  1
  O  O9  1  0.29822955  0.30516064  0.99292541  1
  O  O10  1  0.32349092  0.31294902  0.33335792  1
  O  O11  1  0.29816638  0.30509813  0.67375625  1
  O  O12  1  0.68686313  0.69142469  0.99601083  1
  O  O13  1  0.68688997  0.69142451  0.67062650  1
  O  O14  1  0.81414896  0.19121990  0.16898213  1
  O  O15  1  0.81413818  0.19120178  0.49765891  1
  F  F16  1  0.70704782  0.69822405  0.33336652  1
  F  F17  1  0.79426526  0.19553439  0.83330554  1
