# generated using pymatgen
data_Ho2MgPd2
_symmetry_space_group_name_H-M   'P 1'
_cell_length_a   3.83195424
_cell_length_b   7.60376008
_cell_length_c   7.60376008
_cell_angle_alpha   90.00000000
_cell_angle_beta   90.00000000
_cell_angle_gamma   90.00000000
_symmetry_Int_Tables_number   1
_chemical_formula_structural   Ho2MgPd2
_chemical_formula_sum   'Ho4 Mg2 Pd4'
_cell_volume   221.55273959
_cell_formula_units_Z   2
loop_
 _symmetry_equiv_pos_site_id
 _symmetry_equiv_pos_as_xyz
  1  'x, y, z'
loop_
 _atom_site_type_symbol
 _atom_site_label
 _atom_site_symmetry_multiplicity
 _atom_site_fract_x
 _atom_site_fract_y
 _atom_site_fract_z
 _atom_site_occupancy
  Ho  Ho0  1  0.50000000  0.17096337  0.67096337  1
  Ho  Ho1  1  0.50000000  0.82903663  0.32903663  1
  Ho  Ho2  1  0.50000000  0.32903663  0.17096337  1
  Ho  Ho3  1  0.50000000  0.67096337  0.82903663  1
  Mg  Mg4  1  -0.00000000  -0.00000000  -0.00000000  1
  Mg  Mg5  1  0.00000000  0.50000000  0.50000000  1
  Pd  Pd6  1  0.00000000  0.63071755  0.13071755  1
  Pd  Pd7  1  -0.00000000  0.36928245  0.86928245  1
  Pd  Pd8  1  -0.00000000  0.86928245  0.63071755  1
  Pd  Pd9  1  0.00000000  0.13071755  0.36928245  1
