# generated using pymatgen
data_Ho2FeSi2
_symmetry_space_group_name_H-M   'P 1'
_cell_length_a   4.12799316
_cell_length_b   5.60654768
_cell_length_c   8.92025206
_cell_angle_alpha   82.83440809
_cell_angle_beta   76.62148236
_cell_angle_gamma   68.39903030
_symmetry_Int_Tables_number   1
_chemical_formula_structural   Ho2FeSi2
_chemical_formula_sum   'Ho4 Fe2 Si4'
_cell_volume   186.56198581
_cell_formula_units_Z   2
loop_
 _symmetry_equiv_pos_site_id
 _symmetry_equiv_pos_as_xyz
  1  'x, y, z'
loop_
 _atom_site_type_symbol
 _atom_site_label
 _atom_site_symmetry_multiplicity
 _atom_site_fract_x
 _atom_site_fract_y
 _atom_site_fract_z
 _atom_site_occupancy
  Ho  Ho0  1  0.99896096  0.67355803  0.32852004  1
  Ho  Ho1  1  0.00103904  0.32644197  0.67147996  1
  Ho  Ho2  1  0.81176720  0.26737016  0.10909544  1
  Ho  Ho3  1  0.18823280  0.73262984  0.89090456  1
  Fe  Fe4  1  0.72802481  0.92014647  0.62380391  1
  Fe  Fe5  1  0.27197519  0.07985353  0.37619609  1
  Si  Si6  1  0.65397504  0.25639314  0.43565678  1
  Si  Si7  1  0.34602496  0.74360686  0.56434322  1
  Si  Si8  1  0.50182360  0.87055048  0.12580232  1
  Si  Si9  1  0.49817640  0.12944952  0.87419768  1
