# generated using pymatgen
data_Zr2Ag3F14
_symmetry_space_group_name_H-M   'P 1'
_cell_length_a   5.86446648
_cell_length_b   5.86446648
_cell_length_c   9.34201331
_cell_angle_alpha   89.11659647
_cell_angle_beta   89.11659647
_cell_angle_gamma   71.34736896
_symmetry_Int_Tables_number   1
_chemical_formula_structural   Zr2Ag3F14
_chemical_formula_sum   'Zr2 Ag3 F14'
_cell_volume   304.35962093
_cell_formula_units_Z   1
loop_
 _symmetry_equiv_pos_site_id
 _symmetry_equiv_pos_as_xyz
  1  'x, y, z'
loop_
 _atom_site_type_symbol
 _atom_site_label
 _atom_site_symmetry_multiplicity
 _atom_site_fract_x
 _atom_site_fract_y
 _atom_site_fract_z
 _atom_site_occupancy
  Zr  Zr0  1  0.09107395  0.09107395  0.78561690  1
  Zr  Zr1  1  0.90892605  0.90892605  0.21438310  1
  Ag  Ag2  1  0.31177858  0.31177858  0.39750105  1
  Ag  Ag3  1  0.68822142  0.68822142  0.60249895  1
  Ag  Ag4  1  0.50000000  0.50000000  -0.00000000  1
  F  F5  1  0.35819843  0.76723533  0.84017492  1
  F  F6  1  0.64180157  0.23276467  0.15982508  1
  F  F7  1  0.23276467  0.64180157  0.15982508  1
  F  F8  1  0.76723533  0.35819843  0.84017492  1
  F  F9  1  0.27476925  0.27476925  0.87983696  1
  F  F10  1  0.72523075  0.72523075  0.12016304  1
  F  F11  1  0.10950636  0.10950636  0.29570374  1
  F  F12  1  0.89049364  0.89049364  0.70429626  1
  F  F13  1  0.50000000  0.50000000  0.50000000  1
  F  F14  1  0.35185655  0.99347182  0.61631448  1
  F  F15  1  0.64814345  0.00652818  0.38368552  1
  F  F16  1  0.00652818  0.64814345  0.38368552  1
  F  F17  1  0.99347182  0.35185655  0.61631448  1
  F  F18  1  0.00000000  -0.00000000  -0.00000000  1
