# generated using pymatgen
data_YCu5Sn
_symmetry_space_group_name_H-M   'P 1'
_cell_length_a   4.99763830
_cell_length_b   8.20693012
_cell_length_c   10.53337345
_cell_angle_alpha   90.00000000
_cell_angle_beta   90.00000000
_cell_angle_gamma   90.00000000
_symmetry_Int_Tables_number   1
_chemical_formula_structural   YCu5Sn
_chemical_formula_sum   'Y4 Cu20 Sn4'
_cell_volume   432.02913808
_cell_formula_units_Z   4
loop_
 _symmetry_equiv_pos_site_id
 _symmetry_equiv_pos_as_xyz
  1  'x, y, z'
loop_
 _atom_site_type_symbol
 _atom_site_label
 _atom_site_symmetry_multiplicity
 _atom_site_fract_x
 _atom_site_fract_y
 _atom_site_fract_z
 _atom_site_occupancy
  Y  Y0  1  0.75000000  0.74564400  0.43684211  1
  Y  Y1  1  0.25000000  0.25435600  0.56315789  1
  Y  Y2  1  0.25000000  0.75435600  0.93684211  1
  Y  Y3  1  0.75000000  0.24564400  0.06315789  1
  Cu  Cu4  1  0.75000000  0.68601437  0.75391670  1
  Cu  Cu5  1  0.25000000  0.31398563  0.24608330  1
  Cu  Cu6  1  0.25000000  0.81398563  0.25391670  1
  Cu  Cu7  1  0.75000000  0.18601437  0.74608330  1
  Cu  Cu8  1  0.49896018  0.93497488  0.68699156  1
  Cu  Cu9  1  0.50103982  0.06502512  0.31300844  1
  Cu  Cu10  1  0.50103982  0.56502512  0.18699156  1
  Cu  Cu11  1  0.99896018  0.06502512  0.31300844  1
  Cu  Cu12  1  0.49896018  0.43497488  0.81300844  1
  Cu  Cu13  1  0.00103982  0.93497488  0.68699156  1
  Cu  Cu14  1  0.00103982  0.43497488  0.81300844  1
  Cu  Cu15  1  0.99896018  0.56502512  0.18699156  1
  Cu  Cu16  1  0.75000000  0.58745971  0.98228211  1
  Cu  Cu17  1  0.25000000  0.41254029  0.01771789  1
  Cu  Cu18  1  0.25000000  0.91254029  0.48228211  1
  Cu  Cu19  1  0.75000000  0.08745971  0.51771789  1
  Cu  Cu20  1  0.75000000  0.94165553  0.89714494  1
  Cu  Cu21  1  0.25000000  0.05834447  0.10285506  1
  Cu  Cu22  1  0.25000000  0.55834447  0.39714494  1
  Cu  Cu23  1  0.75000000  0.44165553  0.60285506  1
  Sn  Sn24  1  0.75000000  0.85923776  0.13897461  1
  Sn  Sn25  1  0.25000000  0.14076224  0.86102539  1
  Sn  Sn26  1  0.25000000  0.64076224  0.63897461  1
  Sn  Sn27  1  0.75000000  0.35923776  0.36102539  1
