# generated using pymatgen
data_Er2NiGe6
_symmetry_space_group_name_H-M   'P 1'
_cell_length_a   4.01782300
_cell_length_b   4.04580021
_cell_length_c   10.86038924
_cell_angle_alpha   90.00000000
_cell_angle_beta   100.65973390
_cell_angle_gamma   90.00000000
_symmetry_Int_Tables_number   1
_chemical_formula_structural   Er2NiGe6
_chemical_formula_sum   'Er2 Ni1 Ge6'
_cell_volume   173.49245748
_cell_formula_units_Z   1
loop_
 _symmetry_equiv_pos_site_id
 _symmetry_equiv_pos_as_xyz
  1  'x, y, z'
loop_
 _atom_site_type_symbol
 _atom_site_label
 _atom_site_symmetry_multiplicity
 _atom_site_fract_x
 _atom_site_fract_y
 _atom_site_fract_z
 _atom_site_occupancy
  Er  Er0  1  0.77680565  0.50000000  0.55361131  1
  Er  Er1  1  0.11393414  0.50000000  0.22786828  1
  Ni  Ni2  1  0.55601936  0.00000000  0.11203871  1
  Ge  Ge3  1  0.49854598  0.50000000  0.99709197  1
  Ge  Ge4  1  0.38112169  0.50000000  0.76224338  1
  Ge  Ge5  1  0.99844708  -0.00000000  0.99689415  1
  Ge  Ge6  1  0.88019598  0.00000000  0.76039196  1
  Ge  Ge7  1  0.66352496  0.00000000  0.32704993  1
  Ge  Ge8  1  0.23840516  0.00000000  0.47681031  1
