# generated using pymatgen
data_Sm(PO3)3
_symmetry_space_group_name_H-M   'P 1'
_cell_length_a   7.05935898
_cell_length_b   7.05935898
_cell_length_c   7.35205324
_cell_angle_alpha   90.00000000
_cell_angle_beta   90.00000000
_cell_angle_gamma   105.25445918
_symmetry_Int_Tables_number   1
_chemical_formula_structural   Sm(PO3)3
_chemical_formula_sum   'Sm2 P6 O18'
_cell_volume   353.47731735
_cell_formula_units_Z   2
loop_
 _symmetry_equiv_pos_site_id
 _symmetry_equiv_pos_as_xyz
  1  'x, y, z'
loop_
 _atom_site_type_symbol
 _atom_site_label
 _atom_site_symmetry_multiplicity
 _atom_site_fract_x
 _atom_site_fract_y
 _atom_site_fract_z
 _atom_site_occupancy
  Sm  Sm0  1  0.37401233  0.37401233  0.00000000  1
  Sm  Sm1  1  0.62598767  0.62598767  0.50000000  1
  P  P2  1  0.81458271  0.16558097  0.54556021  1
  P  P3  1  0.18541729  0.83441903  0.04556021  1
  P  P4  1  0.83441903  0.18541729  0.95443979  1
  P  P5  1  0.16558097  0.81458271  0.45443979  1
  P  P6  1  0.74915034  0.74915034  0.00000000  1
  P  P7  1  0.25084966  0.25084966  0.50000000  1
  O  O8  1  0.63237003  0.66899755  0.83085496  1
  O  O9  1  0.36762997  0.33100245  0.33085496  1
  O  O10  1  0.33100245  0.36762997  0.66914504  1
  O  O11  1  0.66899755  0.63237003  0.16914504  1
  O  O12  1  0.87487125  0.12512875  0.75000000  1
  O  O13  1  0.12512875  0.87487125  0.25000000  1
  O  O14  1  0.67257864  0.28472669  0.96341031  1
  O  O15  1  0.32742136  0.71527331  0.46341031  1
  O  O16  1  0.71527331  0.32742136  0.53658969  1
  O  O17  1  0.28472669  0.67257864  0.03658969  1
  O  O18  1  0.25023082  0.03035711  0.54360708  1
  O  O19  1  0.74976918  0.96964289  0.04360708  1
  O  O20  1  0.96964289  0.74976918  0.95639292  1
  O  O21  1  0.03035711  0.25023082  0.45639292  1
  O  O22  1  0.28122505  0.02930253  0.96297921  1
  O  O23  1  0.71877495  0.97069747  0.46297921  1
  O  O24  1  0.97069747  0.71877495  0.53702079  1
  O  O25  1  0.02930253  0.28122505  0.03702079  1
