# generated using pymatgen
data_Sr2InBr5
_symmetry_space_group_name_H-M   'P 1'
_cell_length_a   8.49566111
_cell_length_b   9.43775247
_cell_length_c   13.51527053
_cell_angle_alpha   89.94200590
_cell_angle_beta   90.00043213
_cell_angle_gamma   89.99962119
_symmetry_Int_Tables_number   1
_chemical_formula_structural   Sr2InBr5
_chemical_formula_sum   'Sr8 In4 Br20'
_cell_volume   1083.65311462
_cell_formula_units_Z   4
loop_
 _symmetry_equiv_pos_site_id
 _symmetry_equiv_pos_as_xyz
  1  'x, y, z'
loop_
 _atom_site_type_symbol
 _atom_site_label
 _atom_site_symmetry_multiplicity
 _atom_site_fract_x
 _atom_site_fract_y
 _atom_site_fract_z
 _atom_site_occupancy
  Sr  Sr0  1  0.97567773  0.00096588  0.67832441  1
  Sr  Sr1  1  0.02432227  0.99903412  0.32167559  1
  Sr  Sr2  1  0.47568027  0.99903741  0.82167150  1
  Sr  Sr3  1  0.52431973  0.00096259  0.17832850  1
  Sr  Sr4  1  0.92648814  0.75231227  0.99434282  1
  Sr  Sr5  1  0.07351186  0.24768773  0.00565718  1
  Sr  Sr6  1  0.42648356  0.24769595  0.50565121  1
  Sr  Sr7  1  0.57351644  0.75230405  0.49434879  1
  In  In8  1  0.98967654  0.51029322  0.67855155  1
  In  In9  1  0.01032346  0.48970678  0.32144845  1
  In  In10  1  0.48967977  0.48969297  0.82145704  1
  In  In11  1  0.51032023  0.51030703  0.17854296  1
  Br  Br12  1  0.83737914  0.46293478  0.90757584  1
  Br  Br13  1  0.16262086  0.53706522  0.09242416  1
  Br  Br14  1  0.33738023  0.53706903  0.59242476  1
  Br  Br15  1  0.66261977  0.46293097  0.40757524  1
  Br  Br16  1  0.15921869  0.78037610  0.81481849  1
  Br  Br17  1  0.84078131  0.21962390  0.18518151  1
  Br  Br18  1  0.65921594  0.21963828  0.68517506  1
  Br  Br19  1  0.34078406  0.78036172  0.31482494  1
  Br  Br20  1  0.69351086  0.77391749  0.71619564  1
  Br  Br21  1  0.30648914  0.22608251  0.28380436  1
  Br  Br22  1  0.19350851  0.22608185  0.78380505  1
  Br  Br23  1  0.80649149  0.77391815  0.21619495  1
  Br  Br24  1  0.54544445  0.78240929  0.99770965  1
  Br  Br25  1  0.45455555  0.21759071  0.00229035  1
  Br  Br26  1  0.04544147  0.21759070  0.50228855  1
  Br  Br27  1  0.95455853  0.78240930  0.49771145  1
  Br  Br28  1  0.34022997  0.95898840  0.60067470  1
  Br  Br29  1  0.65977003  0.04101160  0.39932530  1
  Br  Br30  1  0.84019971  0.04104420  0.89931191  1
  Br  Br31  1  0.15980029  0.95895580  0.10068809  1
