# generated using pymatgen
data_U6P13Rh20
_symmetry_space_group_name_H-M   'P 1'
_cell_length_a   3.86549743
_cell_length_b   13.46052375
_cell_length_c   13.46052375
_cell_angle_alpha   119.99999868
_cell_angle_beta   90.00000000
_cell_angle_gamma   90.00000000
_symmetry_Int_Tables_number   1
_chemical_formula_structural   U6P13Rh20
_chemical_formula_sum   'U6 P13 Rh20'
_cell_volume   606.54069386
_cell_formula_units_Z   1
loop_
 _symmetry_equiv_pos_site_id
 _symmetry_equiv_pos_as_xyz
  1  'x, y, z'
loop_
 _atom_site_type_symbol
 _atom_site_label
 _atom_site_symmetry_multiplicity
 _atom_site_fract_x
 _atom_site_fract_y
 _atom_site_fract_z
 _atom_site_occupancy
  U  U0  1  0.00000000  0.52566951  0.80974557  1
  U  U1  1  -0.00000000  0.28407606  0.47433049  1
  U  U2  1  0.00000000  0.19025443  0.71592394  1
  U  U3  1  0.50000000  0.81110829  0.28210259  1
  U  U4  1  0.50000000  0.47099431  0.18889171  1
  U  U5  1  0.50000000  0.71789741  0.52900569  1
  P  P6  1  0.50000000  0.47330527  0.61158343  1
  P  P7  1  0.50000000  0.13827816  0.52669473  1
  P  P8  1  0.50000000  0.38841657  0.86172184  1
  P  P9  1  0.00000000  0.94213302  0.22841373  1
  P  P10  1  -0.00000000  0.28628071  0.05786698  1
  P  P11  1  0.00000000  0.77158627  0.71371929  1
  P  P12  1  0.50000000  0.71461960  0.94581206  1
  P  P13  1  0.50000000  0.23119246  0.28538040  1
  P  P14  1  0.50000000  0.05418794  0.76880754  1
  P  P15  1  0.00000000  0.86056571  0.47355443  1
  P  P16  1  -0.00000000  0.61298872  0.13943429  1
  P  P17  1  0.00000000  0.52644557  0.38701128  1
  P  P18  1  -0.00000000  -0.00000000  0.00000000  1
  Rh  Rh19  1  0.50000000  0.97904976  0.56065030  1
  Rh  Rh20  1  0.50000000  0.58160054  0.02095024  1
  Rh  Rh21  1  0.50000000  0.43934970  0.41839946  1
  Rh  Rh22  1  -0.00000000  0.66666700  0.33333300  1
  Rh  Rh23  1  -0.00000000  0.56296434  0.58261920  1
  Rh  Rh24  1  0.00000000  0.01965485  0.43703566  1
  Rh  Rh25  1  0.00000000  0.41738080  0.98034515  1
  Rh  Rh26  1  0.00000000  0.74719137  0.07577137  1
  Rh  Rh27  1  0.00000000  0.32858000  0.25280863  1
  Rh  Rh28  1  -0.00000000  0.92422863  0.67142000  1
  Rh  Rh29  1  0.50000000  0.33333300  0.66666700  1
  Rh  Rh30  1  0.50000000  0.90737484  0.09357040  1
  Rh  Rh31  1  0.50000000  0.18619556  0.09262516  1
  Rh  Rh32  1  0.50000000  0.90642960  0.81380444  1
  Rh  Rh33  1  0.00000000  0.80758124  0.90253489  1
  Rh  Rh34  1  -0.00000000  0.09495364  0.19241876  1
  Rh  Rh35  1  0.00000000  0.09746511  0.90504636  1
  Rh  Rh36  1  0.50000000  0.66892002  0.74939726  1
  Rh  Rh37  1  0.50000000  0.08047725  0.33107998  1
  Rh  Rh38  1  0.50000000  0.25060274  0.91952275  1
