# generated using pymatgen
data_SrRhO3
_symmetry_space_group_name_H-M   'P 1'
_cell_length_a   5.57977835
_cell_length_b   5.66864378
_cell_length_c   7.96772842
_cell_angle_alpha   90.00000000
_cell_angle_beta   90.00000000
_cell_angle_gamma   90.00000000
_symmetry_Int_Tables_number   1
_chemical_formula_structural   SrRhO3
_chemical_formula_sum   'Sr4 Rh4 O12'
_cell_volume   252.01746386
_cell_formula_units_Z   4
loop_
 _symmetry_equiv_pos_site_id
 _symmetry_equiv_pos_as_xyz
  1  'x, y, z'
loop_
 _atom_site_type_symbol
 _atom_site_label
 _atom_site_symmetry_multiplicity
 _atom_site_fract_x
 _atom_site_fract_y
 _atom_site_fract_z
 _atom_site_occupancy
  Sr  Sr0  1  0.00831035  0.45534157  0.25000000  1
  Sr  Sr1  1  0.99168965  0.54465843  0.75000000  1
  Sr  Sr2  1  0.50831035  0.04465843  0.75000000  1
  Sr  Sr3  1  0.49168965  0.95534157  0.25000000  1
  Rh  Rh4  1  0.00000000  0.00000000  0.00000000  1
  Rh  Rh5  1  0.50000000  0.50000000  0.00000000  1
  Rh  Rh6  1  0.00000000  0.00000000  0.50000000  1
  Rh  Rh7  1  0.50000000  0.50000000  0.50000000  1
  O  O8  1  0.29662891  0.20484279  0.03760374  1
  O  O9  1  0.70337109  0.79515721  0.96239626  1
  O  O10  1  0.79662891  0.29515721  0.96239626  1
  O  O11  1  0.70337109  0.79515721  0.53760374  1
  O  O12  1  0.20337109  0.70484279  0.03760374  1
  O  O13  1  0.29662891  0.20484279  0.46239626  1
  O  O14  1  0.20337109  0.70484279  0.46239626  1
  O  O15  1  0.79662891  0.29515721  0.53760374  1
  O  O16  1  0.57314455  0.51319619  0.25000000  1
  O  O17  1  0.42685545  0.48680381  0.75000000  1
  O  O18  1  0.07314455  0.98680381  0.75000000  1
  O  O19  1  0.92685545  0.01319619  0.25000000  1
