# generated using pymatgen
data_Tm2Be2GeO7
_symmetry_space_group_name_H-M   'P 1'
_cell_length_a   4.78513993
_cell_length_b   7.37474827
_cell_length_c   7.37474827
_cell_angle_alpha   90.00000000
_cell_angle_beta   90.00000000
_cell_angle_gamma   90.00000000
_symmetry_Int_Tables_number   1
_chemical_formula_structural   Tm2Be2GeO7
_chemical_formula_sum   'Tm4 Be4 Ge2 O14'
_cell_volume   260.24898450
_cell_formula_units_Z   2
loop_
 _symmetry_equiv_pos_site_id
 _symmetry_equiv_pos_as_xyz
  1  'x, y, z'
loop_
 _atom_site_type_symbol
 _atom_site_label
 _atom_site_symmetry_multiplicity
 _atom_site_fract_x
 _atom_site_fract_y
 _atom_site_fract_z
 _atom_site_occupancy
  Tm  Tm0  1  0.50701540  0.15763704  0.65763704  1
  Tm  Tm1  1  0.50701540  0.84236296  0.34236296  1
  Tm  Tm2  1  0.49298460  0.65763704  0.84236296  1
  Tm  Tm3  1  0.49298460  0.34236296  0.15763704  1
  Be  Be4  1  0.94964268  0.63557831  0.13557831  1
  Be  Be5  1  0.94964268  0.36442169  0.86442169  1
  Be  Be6  1  0.05035732  0.13557831  0.36442169  1
  Be  Be7  1  0.05035732  0.86442169  0.63557831  1
  Ge  Ge8  1  -0.00000000  -0.00000000  0.00000000  1
  Ge  Ge9  1  -0.00000000  0.50000000  0.50000000  1
  O  O10  1  0.19391589  -0.00000000  0.50000000  1
  O  O11  1  0.80608411  0.50000000  0.00000000  1
  O  O12  1  0.28172513  0.64226003  0.14226003  1
  O  O13  1  0.28172513  0.35773997  0.85773997  1
  O  O14  1  0.71827487  0.14226003  0.35773997  1
  O  O15  1  0.71827487  0.85773997  0.64226003  1
  O  O16  1  0.22182594  0.08273844  0.17114253  1
  O  O17  1  0.22182594  0.91726156  0.82885747  1
  O  O18  1  0.77817406  0.17114253  0.91726156  1
  O  O19  1  0.77817406  0.41726156  0.67114253  1
  O  O20  1  0.77817406  0.82885747  0.08273844  1
  O  O21  1  0.77817406  0.58273844  0.32885747  1
  O  O22  1  0.22182594  0.32885747  0.41726156  1
  O  O23  1  0.22182594  0.67114253  0.58273844  1
