# generated using pymatgen
data_SmAl3(BO3)4
_symmetry_space_group_name_H-M   'P 1'
_cell_length_a   5.95951550
_cell_length_b   5.95951550
_cell_length_c   11.19933646
_cell_angle_alpha   98.11519524
_cell_angle_beta   98.11519524
_cell_angle_gamma   104.41891359
_symmetry_Int_Tables_number   1
_chemical_formula_structural   SmAl3(BO3)4
_chemical_formula_sum   'Sm2 Al6 B8 O24'
_cell_volume   374.86371869
_cell_formula_units_Z   2
loop_
 _symmetry_equiv_pos_site_id
 _symmetry_equiv_pos_as_xyz
  1  'x, y, z'
loop_
 _atom_site_type_symbol
 _atom_site_label
 _atom_site_symmetry_multiplicity
 _atom_site_fract_x
 _atom_site_fract_y
 _atom_site_fract_z
 _atom_site_occupancy
  Sm  Sm0  1  0.96394235  0.03605765  0.75000000  1
  Sm  Sm1  1  0.03605765  0.96394235  0.25000000  1
  Al  Al2  1  0.69529989  0.19501768  0.47181378  1
  Al  Al3  1  0.30470011  0.80498232  0.52818622  1
  Al  Al4  1  0.80498232  0.30470011  0.02818622  1
  Al  Al5  1  0.19501768  0.69529989  0.97181378  1
  Al  Al6  1  0.41162204  0.58837796  0.75000000  1
  Al  Al7  1  0.58837796  0.41162204  0.25000000  1
  B  B8  1  0.49297611  0.12062066  0.77776940  1
  B  B9  1  0.50702389  0.87937934  0.22223060  1
  B  B10  1  0.87937934  0.50702389  0.72223060  1
  B  B11  1  0.12062066  0.49297611  0.27776940  1
  B  B12  1  0.71984384  0.77691433  0.99525220  1
  B  B13  1  0.28015616  0.22308567  0.00474780  1
  B  B14  1  0.22308567  0.28015616  0.50474780  1
  B  B15  1  0.77691433  0.71984384  0.49525220  1
  O  O16  1  0.19302138  0.99731968  0.93650515  1
  O  O17  1  0.80697862  0.00268032  0.06349485  1
  O  O18  1  0.00268032  0.80697862  0.56349485  1
  O  O19  1  0.99731968  0.19302138  0.43650515  1
  O  O20  1  0.42237832  0.89567335  0.70515731  1
  O  O21  1  0.57762168  0.10432665  0.29484269  1
  O  O22  1  0.10432665  0.57762168  0.79484269  1
  O  O23  1  0.89567335  0.42237832  0.20515731  1
  O  O24  1  0.69905552  0.17983360  0.86149255  1
  O  O25  1  0.30094448  0.82016640  0.13850745  1
  O  O26  1  0.82016640  0.30094448  0.63850745  1
  O  O27  1  0.17983360  0.69905552  0.36149255  1
  O  O28  1  0.63067769  0.86995615  0.50323173  1
  O  O29  1  0.36932231  0.13004385  0.49676827  1
  O  O30  1  0.13004385  0.36932231  0.99676827  1
  O  O31  1  0.86995615  0.63067769  0.00323173  1
  O  O32  1  0.35320069  0.26874613  0.75854456  1
  O  O33  1  0.64679931  0.73125387  0.24145544  1
  O  O34  1  0.73125387  0.64679931  0.74145544  1
  O  O35  1  0.26874613  0.35320069  0.25854456  1
  O  O36  1  0.49374854  0.69787127  0.92632629  1
  O  O37  1  0.50625146  0.30212873  0.07367371  1
  O  O38  1  0.30212873  0.50625146  0.57367371  1
  O  O39  1  0.69787127  0.49374854  0.42632629  1
