# generated using pymatgen
data_Y2Si3Rh
_symmetry_space_group_name_H-M   'P 1'
_cell_length_a   7.97287650
_cell_length_b   8.18334977
_cell_length_c   8.18334977
_cell_angle_alpha   119.99999637
_cell_angle_beta   90.00000000
_cell_angle_gamma   90.00000000
_symmetry_Int_Tables_number   1
_chemical_formula_structural   Y2Si3Rh
_chemical_formula_sum   'Y8 Si12 Rh4'
_cell_volume   462.38944588
_cell_formula_units_Z   4
loop_
 _symmetry_equiv_pos_site_id
 _symmetry_equiv_pos_as_xyz
  1  'x, y, z'
loop_
 _atom_site_type_symbol
 _atom_site_label
 _atom_site_symmetry_multiplicity
 _atom_site_fract_x
 _atom_site_fract_y
 _atom_site_fract_z
 _atom_site_occupancy
  Y  Y0  1  0.75000000  0.00000000  -0.00000000  1
  Y  Y1  1  0.25000000  0.00000000  -0.00000000  1
  Y  Y2  1  0.75000000  0.99202024  0.49592250  1
  Y  Y3  1  0.75000000  0.50390225  0.00797976  1
  Y  Y4  1  0.25000000  0.49609775  0.50407750  1
  Y  Y5  1  0.75000000  0.50407750  0.49609775  1
  Y  Y6  1  0.25000000  0.49592250  0.99202024  1
  Y  Y7  1  0.25000000  0.00797976  0.50390225  1
  Si  Si8  1  0.00072262  0.83360347  0.16613317  1
  Si  Si9  1  0.00072262  0.33252970  0.16639653  1
  Si  Si10  1  0.49927738  0.83360347  0.16613317  1
  Si  Si11  1  0.99927738  0.66747030  0.83386683  1
  Si  Si12  1  0.00072262  0.83386683  0.66747030  1
  Si  Si13  1  0.49927738  0.33252970  0.16639653  1
  Si  Si14  1  0.99927738  0.16613317  0.83360347  1
  Si  Si15  1  0.50072262  0.66747030  0.83386683  1
  Si  Si16  1  0.49927738  0.83386683  0.66747030  1
  Si  Si17  1  0.50072262  0.16613317  0.83360347  1
  Si  Si18  1  0.99927738  0.16639653  0.33252970  1
  Si  Si19  1  0.50072262  0.16639653  0.33252970  1
  Rh  Rh20  1  0.01399228  0.66666700  0.33333300  1
  Rh  Rh21  1  0.48600772  0.66666700  0.33333300  1
  Rh  Rh22  1  0.98600772  0.33333300  0.66666700  1
  Rh  Rh23  1  0.51399228  0.33333300  0.66666700  1
