# generated using pymatgen
data_TmAg(WO4)2
_symmetry_space_group_name_H-M   'P 1'
_cell_length_a   7.28485358
_cell_length_b   7.32965612
_cell_length_c   7.32965612
_cell_angle_alpha   94.30640080
_cell_angle_beta   114.02798001
_cell_angle_gamma   114.02798001
_symmetry_Int_Tables_number   1
_chemical_formula_structural   TmAg(WO4)2
_chemical_formula_sum   'Tm2 Ag2 W4 O16'
_cell_volume   312.57402555
_cell_formula_units_Z   2
loop_
 _symmetry_equiv_pos_site_id
 _symmetry_equiv_pos_as_xyz
  1  'x, y, z'
loop_
 _atom_site_type_symbol
 _atom_site_label
 _atom_site_symmetry_multiplicity
 _atom_site_fract_x
 _atom_site_fract_y
 _atom_site_fract_z
 _atom_site_occupancy
  Tm  Tm0  1  -0.00000000  0.69842165  0.30157835  1
  Tm  Tm1  1  -0.00000000  0.30157835  0.69842165  1
  Ag  Ag2  1  0.51823623  0.68147413  0.68147413  1
  Ag  Ag3  1  0.48176377  0.31852587  0.31852587  1
  W  W4  1  0.96822311  0.21133353  0.21133353  1
  W  W5  1  0.03177689  0.78866647  0.78866647  1
  W  W6  1  0.50000000  0.83428231  0.16571769  1
  W  W7  1  0.50000000  0.16571769  0.83428231  1
  O  O8  1  0.75600913  0.35574144  0.10207771  1
  O  O9  1  0.24399087  0.64425856  0.89792229  1
  O  O10  1  0.24399087  0.89792229  0.64425856  1
  O  O11  1  0.75600913  0.10207771  0.35574144  1
  O  O12  1  0.65257199  0.68545592  0.22161735  1
  O  O13  1  0.34742801  0.31454408  0.77838265  1
  O  O14  1  0.34742801  0.77838265  0.31454408  1
  O  O15  1  0.65257199  0.22161735  0.68545592  1
  O  O16  1  0.91497564  0.69891696  0.96318541  1
  O  O17  1  0.08502436  0.30108304  0.03681459  1
  O  O18  1  0.08502436  0.03681459  0.30108304  1
  O  O19  1  0.91497564  0.96318541  0.69891696  1
  O  O20  1  0.65852793  0.97754742  0.97754742  1
  O  O21  1  0.34147207  0.02245258  0.02245258  1
  O  O22  1  0.86385053  0.55391093  0.55391093  1
  O  O23  1  0.13614947  0.44608907  0.44608907  1
