# generated using pymatgen
data_Sb2Cl7F3
_symmetry_space_group_name_H-M   'P 1'
_cell_length_a   8.00221849
_cell_length_b   10.33721180
_cell_length_c   10.32379713
_cell_angle_alpha   81.18732575
_cell_angle_beta   67.19713064
_cell_angle_gamma   67.22838668
_symmetry_Int_Tables_number   1
_chemical_formula_structural   Sb2Cl7F3
_chemical_formula_sum   'Sb4 Cl14 F6'
_cell_volume   725.87922453
_cell_formula_units_Z   2
loop_
 _symmetry_equiv_pos_site_id
 _symmetry_equiv_pos_as_xyz
  1  'x, y, z'
loop_
 _atom_site_type_symbol
 _atom_site_label
 _atom_site_symmetry_multiplicity
 _atom_site_fract_x
 _atom_site_fract_y
 _atom_site_fract_z
 _atom_site_occupancy
  Sb  Sb0  1  0.74287421  0.17040964  0.26357998  1
  Sb  Sb1  1  0.17686383  0.82959036  0.73642002  1
  Sb  Sb2  1  0.01187162  0.73382051  0.17242807  1
  Sb  Sb3  1  0.91812021  0.26617949  0.82757193  1
  Cl  Cl4  1  0.88199625  0.70014777  0.41409865  1
  Cl  Cl5  1  0.99624267  0.29985223  0.58590135  1
  Cl  Cl6  1  0.28727354  0.76488553  0.16903713  1
  Cl  Cl7  1  0.22119620  0.23511447  0.83096287  1
  Cl  Cl8  1  0.63313427  0.23043460  0.86273178  1
  Cl  Cl9  1  0.72630064  0.76956540  0.13726822  1
  Cl  Cl10  1  0.68384785  0.09722334  0.49601748  1
  Cl  Cl11  1  0.27708867  0.90277666  0.50398252  1
  Cl  Cl12  1  0.59488076  0.41183682  0.29756411  1
  Cl  Cl13  1  0.30428169  0.58816318  0.70243589  1
  Cl  Cl14  1  0.16843372  0.50146289  0.09873243  1
  Cl  Cl15  1  0.76862905  0.49853711  0.90126757  1
  Cl  Cl16  1  0.48600202  0.14071797  0.23319591  1
  Cl  Cl17  1  0.85991590  0.85928203  0.76680409  1
  F  F18  1  0.85506997  0.19829300  0.04385458  1
  F  F19  1  0.09721756  0.80170700  0.95614542  1
  F  F20  1  0.99439584  0.16753320  0.23753104  1
  F  F21  1  0.39946007  0.83246680  0.76246896  1
  F  F22  1  0.89518131  0.96036239  0.19917847  1
  F  F23  1  0.05472217  0.03963761  0.80082153  1
