# generated using pymatgen
data_Sr5(RhO3)4
_symmetry_space_group_name_H-M   'P 1'
_cell_length_a   9.68936373
_cell_length_b   9.68936373
_cell_length_c   21.81697772
_cell_angle_alpha   90.00000000
_cell_angle_beta   90.00000000
_cell_angle_gamma   119.99999885
_symmetry_Int_Tables_number   1
_chemical_formula_structural   Sr5(RhO3)4
_chemical_formula_sum   'Sr30 Rh24 O72'
_cell_volume   1773.84530772
_cell_formula_units_Z   6
loop_
 _symmetry_equiv_pos_site_id
 _symmetry_equiv_pos_as_xyz
  1  'x, y, z'
loop_
 _atom_site_type_symbol
 _atom_site_label
 _atom_site_symmetry_multiplicity
 _atom_site_fract_x
 _atom_site_fract_y
 _atom_site_fract_z
 _atom_site_occupancy
  Sr  Sr0  1  0.66151477  0.98452010  0.84777345  1
  Sr  Sr1  1  0.33848523  0.01547990  0.15222655  1
  Sr  Sr2  1  0.32300533  0.33848523  0.84777345  1
  Sr  Sr3  1  0.67699467  0.01547990  0.65222655  1
  Sr  Sr4  1  0.67699467  0.66151477  0.15222655  1
  Sr  Sr5  1  0.32300533  0.98452010  0.34777345  1
  Sr  Sr6  1  0.01547990  0.67699467  0.84777345  1
  Sr  Sr7  1  0.98452010  0.66151477  0.65222655  1
  Sr  Sr8  1  0.98452010  0.32300533  0.15222655  1
  Sr  Sr9  1  0.01547990  0.33848523  0.34777345  1
  Sr  Sr10  1  0.33848523  0.32300533  0.65222655  1
  Sr  Sr11  1  0.66151477  0.67699467  0.34777345  1
  Sr  Sr12  1  0.66563739  0.68556627  0.95222362  1
  Sr  Sr13  1  0.33436261  0.31443373  0.04777638  1
  Sr  Sr14  1  0.01992888  0.33436261  0.95222362  1
  Sr  Sr15  1  0.98007112  0.31443373  0.54777638  1
  Sr  Sr16  1  0.98007112  0.66563739  0.04777638  1
  Sr  Sr17  1  0.01992888  0.68556627  0.45222362  1
  Sr  Sr18  1  0.31443373  0.98007112  0.95222362  1
  Sr  Sr19  1  0.68556627  0.66563739  0.54777638  1
  Sr  Sr20  1  0.68556627  0.01992888  0.04777638  1
  Sr  Sr21  1  0.31443373  0.33436261  0.45222362  1
  Sr  Sr22  1  0.33436261  0.01992888  0.54777638  1
  Sr  Sr23  1  0.66563739  0.98007112  0.45222362  1
  Sr  Sr24  1  0.64290444  0.64290444  0.75000000  1
  Sr  Sr25  1  0.35709556  0.35709556  0.25000000  1
  Sr  Sr26  1  1.00000000  0.35709556  0.75000000  1
  Sr  Sr27  1  0.00000000  0.64290444  0.25000000  1
  Sr  Sr28  1  0.35709556  1.00000000  0.75000000  1
  Sr  Sr29  1  0.64290444  0.00000000  0.25000000  1
  Rh  Rh30  1  0.66666700  0.33333300  0.58725210  1
  Rh  Rh31  1  0.33333300  0.66666700  0.41274790  1
  Rh  Rh32  1  0.33333300  0.66666700  0.91274790  1
  Rh  Rh33  1  0.66666700  0.33333300  0.08725210  1
  Rh  Rh34  1  0.00000000  -0.00000000  0.87882281  1
  Rh  Rh35  1  -0.00000000  -0.00000000  0.12117719  1
  Rh  Rh36  1  0.00000000  -0.00000000  0.62117719  1
  Rh  Rh37  1  0.00000000  -0.00000000  0.37882281  1
  Rh  Rh38  1  0.66666700  0.33333300  0.70743007  1
  Rh  Rh39  1  0.33333300  0.66666700  0.29256993  1
  Rh  Rh40  1  0.33333300  0.66666700  0.79256993  1
  Rh  Rh41  1  0.66666700  0.33333300  0.20743007  1
  Rh  Rh42  1  0.00000000  -0.00000000  0.75000000  1
  Rh  Rh43  1  0.00000000  -0.00000000  0.25000000  1
  Rh  Rh44  1  0.66666700  0.33333300  0.95884543  1
  Rh  Rh45  1  0.33333300  0.66666700  0.04115457  1
  Rh  Rh46  1  0.33333300  0.66666700  0.54115457  1
  Rh  Rh47  1  0.66666700  0.33333300  0.45884543  1
  Rh  Rh48  1  -0.00000000  -0.00000000  0.00000000  1
  Rh  Rh49  1  0.00000000  -0.00000000  0.50000000  1
  Rh  Rh50  1  0.66666700  0.33333300  0.83013267  1
  Rh  Rh51  1  0.33333300  0.66666700  0.16986733  1
  Rh  Rh52  1  0.33333300  0.66666700  0.66986733  1
  Rh  Rh53  1  0.66666700  0.33333300  0.33013267  1
  O  O54  1  0.83395132  0.00011386  0.94080782  1
  O  O55  1  0.16604868  0.99988614  0.05919218  1
  O  O56  1  0.16616254  0.16604868  0.94080782  1
  O  O57  1  0.83383746  0.99988614  0.55919218  1
  O  O58  1  0.83383746  0.83395132  0.05919218  1
  O  O59  1  0.16616254  0.00011386  0.44080782  1
  O  O60  1  0.99988614  0.83383746  0.94080782  1
  O  O61  1  0.00011386  0.83395132  0.55919218  1
  O  O62  1  0.00011386  0.16616254  0.05919218  1
  O  O63  1  0.99988614  0.16604868  0.44080782  1
  O  O64  1  0.16604868  0.16616254  0.55919218  1
  O  O65  1  0.83395132  0.83383746  0.44080782  1
  O  O66  1  0.84149970  0.40088454  0.89348233  1
  O  O67  1  0.15850030  0.59911546  0.10651767  1
  O  O68  1  0.55938484  0.15850030  0.89348233  1
  O  O69  1  0.44061516  0.59911546  0.60651767  1
  O  O70  1  0.44061516  0.84149970  0.10651767  1
  O  O71  1  0.55938484  0.40088454  0.39348233  1
  O  O72  1  0.59911546  0.44061516  0.89348233  1
  O  O73  1  0.40088454  0.84149970  0.60651767  1
  O  O74  1  0.40088454  0.55938484  0.10651767  1
  O  O75  1  0.59911546  0.15850030  0.39348233  1
  O  O76  1  0.15850030  0.55938484  0.60651767  1
  O  O77  1  0.84149970  0.44061516  0.39348233  1
  O  O78  1  0.49649644  0.66150412  0.85158426  1
  O  O79  1  0.50350356  0.33849588  0.14841574  1
  O  O80  1  0.16500768  0.50350356  0.85158426  1
  O  O81  1  0.83499232  0.33849588  0.64841574  1
  O  O82  1  0.83499232  0.49649644  0.14841574  1
  O  O83  1  0.16500768  0.66150412  0.35158426  1
  O  O84  1  0.33849588  0.83499232  0.85158426  1
  O  O85  1  0.66150412  0.49649644  0.64841574  1
  O  O86  1  0.66150412  0.16500768  0.14841574  1
  O  O87  1  0.33849588  0.50350356  0.35158426  1
  O  O88  1  0.50350356  0.16500768  0.64841574  1
  O  O89  1  0.49649644  0.83499232  0.35158426  1
  O  O90  1  0.49697767  0.81658735  0.97394453  1
  O  O91  1  0.50302233  0.18341265  0.02605547  1
  O  O92  1  0.31960968  0.50302233  0.97394453  1
  O  O93  1  0.68039032  0.18341265  0.52605547  1
  O  O94  1  0.68039032  0.49697767  0.02605547  1
  O  O95  1  0.31960968  0.81658735  0.47394453  1
  O  O96  1  0.18341265  0.68039032  0.97394453  1
  O  O97  1  0.81658735  0.49697767  0.52605547  1
  O  O98  1  0.81658735  0.31960968  0.02605547  1
  O  O99  1  0.18341265  0.50302233  0.47394453  1
  O  O100  1  0.50302233  0.31960968  0.52605547  1
  O  O101  1  0.49697767  0.68039032  0.47394453  1
  O  O102  1  0.96511469  0.13486102  0.81741355  1
  O  O103  1  0.03488531  0.86513898  0.18258645  1
  O  O104  1  0.16974633  0.03488531  0.81741355  1
  O  O105  1  0.83025367  0.86513898  0.68258645  1
  O  O106  1  0.83025367  0.96511469  0.18258645  1
  O  O107  1  0.16974633  0.13486102  0.31741355  1
  O  O108  1  0.86513898  0.83025367  0.81741355  1
  O  O109  1  0.13486102  0.96511469  0.68258645  1
  O  O110  1  0.13486102  0.16974633  0.18258645  1
  O  O111  1  0.86513898  0.03488531  0.31741355  1
  O  O112  1  0.03488531  0.16974633  0.68258645  1
  O  O113  1  0.96511469  0.83025367  0.31741355  1
  O  O114  1  0.68764427  0.18003603  0.76605879  1
  O  O115  1  0.31235573  0.81996397  0.23394121  1
  O  O116  1  0.49239176  0.31235573  0.76605879  1
  O  O117  1  0.50760824  0.81996397  0.73394121  1
  O  O118  1  0.50760824  0.68764427  0.23394121  1
  O  O119  1  0.49239176  0.18003603  0.26605879  1
  O  O120  1  0.81996397  0.50760824  0.76605879  1
  O  O121  1  0.18003603  0.68764427  0.73394121  1
  O  O122  1  0.18003603  0.49239176  0.23394121  1
  O  O123  1  0.81996397  0.31235573  0.26605879  1
  O  O124  1  0.31235573  0.49239176  0.73394121  1
  O  O125  1  0.68764427  0.50760824  0.26605879  1
