# generated using pymatgen
data_Sr3Sm2(BO3)4
_symmetry_space_group_name_H-M   'P 1'
_cell_length_a   7.42272016
_cell_length_b   8.80107316
_cell_length_c   16.56943556
_cell_angle_alpha   90.00000000
_cell_angle_beta   90.00000000
_cell_angle_gamma   90.00000000
_symmetry_Int_Tables_number   1
_chemical_formula_structural   Sr3Sm2(BO3)4
_chemical_formula_sum   'Sr12 Sm8 B16 O48'
_cell_volume   1082.44648192
_cell_formula_units_Z   4
loop_
 _symmetry_equiv_pos_site_id
 _symmetry_equiv_pos_as_xyz
  1  'x, y, z'
loop_
 _atom_site_type_symbol
 _atom_site_label
 _atom_site_symmetry_multiplicity
 _atom_site_fract_x
 _atom_site_fract_y
 _atom_site_fract_z
 _atom_site_occupancy
  Sr  Sr0  1  0.02855147  0.32951001  0.45829210  1
  Sr  Sr1  1  0.97144853  0.67048999  0.95829210  1
  Sr  Sr2  1  0.52855147  0.17048999  0.45829210  1
  Sr  Sr3  1  0.47144853  0.82951001  0.95829210  1
  Sr  Sr4  1  0.17959653  0.84802801  0.41363610  1
  Sr  Sr5  1  0.82040347  0.15197199  0.91363610  1
  Sr  Sr6  1  0.67959653  0.65197199  0.41363610  1
  Sr  Sr7  1  0.32040347  0.34802801  0.91363610  1
  Sr  Sr8  1  0.31294664  0.35078199  0.66436731  1
  Sr  Sr9  1  0.68705336  0.64921801  0.16436731  1
  Sr  Sr10  1  0.81294664  0.14921801  0.66436731  1
  Sr  Sr11  1  0.18705336  0.85078199  0.16436731  1
  Sm  Sm12  1  0.31814398  0.46518154  0.29021910  1
  Sm  Sm13  1  0.68185602  0.53481846  0.79021910  1
  Sm  Sm14  1  0.81814398  0.03481846  0.29021910  1
  Sm  Sm15  1  0.18185602  0.96518154  0.79021910  1
  Sm  Sm16  1  0.03075236  0.32952326  0.11987801  1
  Sm  Sm17  1  0.96924764  0.67047674  0.61987801  1
  Sm  Sm18  1  0.53075236  0.17047674  0.11987801  1
  Sm  Sm19  1  0.46924764  0.82952326  0.61987801  1
  B  B20  1  0.17054875  0.06106669  0.99785789  1
  B  B21  1  0.82945125  0.93893331  0.49785789  1
  B  B22  1  0.67054875  0.43893331  0.99785789  1
  B  B23  1  0.32945125  0.56106669  0.49785789  1
  B  B24  1  0.00815313  0.37263883  0.78688029  1
  B  B25  1  0.99184687  0.62736117  0.28688029  1
  B  B26  1  0.50815313  0.12736117  0.78688029  1
  B  B27  1  0.49184687  0.87263883  0.28688029  1
  B  B28  1  0.16082473  0.04471266  0.58462518  1
  B  B29  1  0.83917527  0.95528734  0.08462518  1
  B  B30  1  0.66082473  0.45528734  0.58462518  1
  B  B31  1  0.33917527  0.54471266  0.08462518  1
  B  B32  1  0.21689000  0.14610537  0.28741556  1
  B  B33  1  0.78311000  0.85389463  0.78741556  1
  B  B34  1  0.71689000  0.35389463  0.28741556  1
  B  B35  1  0.28311000  0.64610537  0.78741556  1
  O  O36  1  0.24562543  0.22028263  0.21396163  1
  O  O37  1  0.75437457  0.77971737  0.71396163  1
  O  O38  1  0.74562543  0.27971737  0.21396163  1
  O  O39  1  0.25437457  0.72028263  0.71396163  1
  O  O40  1  0.09293669  0.19035258  0.58443893  1
  O  O41  1  0.90706331  0.80964742  0.08443893  1
  O  O42  1  0.59293669  0.30964742  0.58443893  1
  O  O43  1  0.40706331  0.69035258  0.08443893  1
  O  O44  1  0.09271713  0.20551437  0.00051789  1
  O  O45  1  0.90728287  0.79448563  0.50051789  1
  O  O46  1  0.59271713  0.29448563  0.00051789  1
  O  O47  1  0.40728287  0.70551437  0.50051789  1
  O  O48  1  0.13178967  0.00843904  0.29070259  1
  O  O49  1  0.86821033  0.99156096  0.79070259  1
  O  O50  1  0.63178967  0.49156096  0.29070259  1
  O  O51  1  0.36821033  0.50843904  0.79070259  1
  O  O52  1  0.19865213  0.50297718  0.03393386  1
  O  O53  1  0.80134787  0.49702282  0.53393386  1
  O  O54  1  0.69865213  0.99702282  0.03393386  1
  O  O55  1  0.30134787  0.00297718  0.53393386  1
  O  O56  1  0.11092535  0.24112980  0.78416619  1
  O  O57  1  0.88907465  0.75887020  0.28416619  1
  O  O58  1  0.61092535  0.25887020  0.78416619  1
  O  O59  1  0.38907465  0.74112980  0.28416619  1
  O  O60  1  0.04710802  0.55197895  0.21578752  1
  O  O61  1  0.95289198  0.44802105  0.71578752  1
  O  O62  1  0.54710802  0.94802105  0.21578752  1
  O  O63  1  0.45289198  0.05197895  0.71578752  1
  O  O64  1  0.26792229  0.22424505  0.35589735  1
  O  O65  1  0.73207771  0.77575495  0.85589735  1
  O  O66  1  0.76792229  0.27575495  0.35589735  1
  O  O67  1  0.23207771  0.72424505  0.85589735  1
  O  O68  1  0.38373255  0.46220082  0.43801621  1
  O  O69  1  0.61626745  0.53779918  0.93801621  1
  O  O70  1  0.88373255  0.03779918  0.43801621  1
  O  O71  1  0.11626745  0.96220082  0.93801621  1
  O  O72  1  0.40456882  0.43744445  0.13984905  1
  O  O73  1  0.59543118  0.56255555  0.63984905  1
  O  O74  1  0.90456882  0.06255555  0.13984905  1
  O  O75  1  0.09543118  0.93744445  0.63984905  1
  O  O76  1  0.30537445  0.02621963  0.05314206  1
  O  O77  1  0.69462555  0.97378037  0.55314206  1
  O  O78  1  0.80537445  0.47378037  0.05314206  1
  O  O79  1  0.19462555  0.52621963  0.55314206  1
  O  O80  1  0.05741117  0.57088984  0.35941518  1
  O  O81  1  0.94258883  0.42911016  0.85941518  1
  O  O82  1  0.55741117  0.92911016  0.35941518  1
  O  O83  1  0.44258883  0.07088984  0.85941518  1
