# generated using pymatgen
data_Pr3Sb4Pt7
_symmetry_space_group_name_H-M   'P 1'
_cell_length_a   4.47560578
_cell_length_b   8.64494166
_cell_length_c   8.67361687
_cell_angle_alpha   70.36913207
_cell_angle_beta   75.04851118
_cell_angle_gamma   74.99775393
_symmetry_Int_Tables_number   1
_chemical_formula_structural   Pr3Sb4Pt7
_chemical_formula_sum   'Pr3 Sb4 Pt7'
_cell_volume   299.87049104
_cell_formula_units_Z   1
loop_
 _symmetry_equiv_pos_site_id
 _symmetry_equiv_pos_as_xyz
  1  'x, y, z'
loop_
 _atom_site_type_symbol
 _atom_site_label
 _atom_site_symmetry_multiplicity
 _atom_site_fract_x
 _atom_site_fract_y
 _atom_site_fract_z
 _atom_site_occupancy
  Pr  Pr0  1  0.83175123  0.67865344  0.65784409  1
  Pr  Pr1  1  0.16824877  0.32134656  0.34215591  1
  Pr  Pr2  1  0.50000000  0.00000000  0.00000000  1
  Sb  Sb3  1  0.62133115  0.60247674  0.15486097  1
  Sb  Sb4  1  0.37866885  0.39752326  0.84513903  1
  Sb  Sb5  1  0.82372732  0.04783758  0.30470778  1
  Sb  Sb6  1  0.17627268  0.95216242  0.69529222  1
  Pt  Pt7  1  0.81378893  0.32307463  0.04934750  1
  Pt  Pt8  1  0.18621107  0.67692537  0.95065250  1
  Pt  Pt9  1  -0.00006501  0.72407371  0.27605632  1
  Pt  Pt10  1  0.00006501  0.27592629  0.72394368  1
  Pt  Pt11  1  0.63167807  0.13520284  0.60144102  1
  Pt  Pt12  1  0.36832193  0.86479716  0.39855898  1
  Pt  Pt13  1  0.50000000  0.50000000  0.50000000  1
