# generated using pymatgen
data_RbAlAgF6
_symmetry_space_group_name_H-M   'P 1'
_cell_length_a   7.16394112
_cell_length_b   7.33515993
_cell_length_c   10.47738796
_cell_angle_alpha   90.00000000
_cell_angle_beta   90.00000000
_cell_angle_gamma   90.00000000
_symmetry_Int_Tables_number   1
_chemical_formula_structural   RbAlAgF6
_chemical_formula_sum   'Rb4 Al4 Ag4 F24'
_cell_volume   550.57263310
_cell_formula_units_Z   4
loop_
 _symmetry_equiv_pos_site_id
 _symmetry_equiv_pos_as_xyz
  1  'x, y, z'
loop_
 _atom_site_type_symbol
 _atom_site_label
 _atom_site_symmetry_multiplicity
 _atom_site_fract_x
 _atom_site_fract_y
 _atom_site_fract_z
 _atom_site_occupancy
  Rb  Rb0  1  0.01792599  0.25000000  0.63595374  1
  Rb  Rb1  1  0.98207401  0.75000000  0.36404626  1
  Rb  Rb2  1  0.48207401  0.75000000  0.13595374  1
  Rb  Rb3  1  0.51792599  0.25000000  0.86404626  1
  Al  Al4  1  0.00000000  0.00000000  0.00000000  1
  Al  Al5  1  0.50000000  -0.00000000  0.50000000  1
  Al  Al6  1  0.00000000  0.50000000  0.00000000  1
  Al  Al7  1  0.50000000  0.50000000  0.50000000  1
  Ag  Ag8  1  0.21556934  0.25000000  0.25356479  1
  Ag  Ag9  1  0.78443066  0.75000000  0.74643521  1
  Ag  Ag10  1  0.28443066  0.75000000  0.75356479  1
  Ag  Ag11  1  0.71556934  0.25000000  0.24643521  1
  F  F12  1  0.28718334  0.02582412  0.40839257  1
  F  F13  1  0.71281666  0.97417588  0.59160743  1
  F  F14  1  0.21281666  0.97417588  0.90839257  1
  F  F15  1  0.71281666  0.52582412  0.59160743  1
  F  F16  1  0.78718334  0.02582412  0.09160743  1
  F  F17  1  0.28718334  0.47417588  0.40839257  1
  F  F18  1  0.78718334  0.47417588  0.09160743  1
  F  F19  1  0.21281666  0.52582412  0.90839257  1
  F  F20  1  0.53955472  0.25000000  0.49765641  1
  F  F21  1  0.46044528  0.75000000  0.50234359  1
  F  F22  1  0.96044528  0.75000000  0.99765641  1
  F  F23  1  0.03955472  0.25000000  0.00234359  1
  F  F24  1  0.13513281  0.52127178  0.14705343  1
  F  F25  1  0.86486719  0.47872822  0.85294657  1
  F  F26  1  0.36486719  0.47872822  0.64705343  1
  F  F27  1  0.86486719  0.02127178  0.85294657  1
  F  F28  1  0.63513281  0.52127178  0.35294657  1
  F  F29  1  0.13513281  0.97872822  0.14705343  1
  F  F30  1  0.63513281  0.97872822  0.35294657  1
  F  F31  1  0.36486719  0.02127178  0.64705343  1
  F  F32  1  0.46175062  0.25000000  0.14556601  1
  F  F33  1  0.53824938  0.75000000  0.85443399  1
  F  F34  1  0.03824938  0.75000000  0.64556601  1
  F  F35  1  0.96175062  0.25000000  0.35443399  1
