# generated using pymatgen
data_Na4Sr(Ge2O5)3
_symmetry_space_group_name_H-M   'P 1'
_cell_length_a   5.99472937
_cell_length_b   11.10149308
_cell_length_c   11.10149307
_cell_angle_alpha   119.99999395
_cell_angle_beta   90.00000000
_cell_angle_gamma   90.00000000
_symmetry_Int_Tables_number   1
_chemical_formula_structural   Na4Sr(Ge2O5)3
_chemical_formula_sum   'Na8 Sr2 Ge12 O30'
_cell_volume   639.82768035
_cell_formula_units_Z   2
loop_
 _symmetry_equiv_pos_site_id
 _symmetry_equiv_pos_as_xyz
  1  'x, y, z'
loop_
 _atom_site_type_symbol
 _atom_site_label
 _atom_site_symmetry_multiplicity
 _atom_site_fract_x
 _atom_site_fract_y
 _atom_site_fract_z
 _atom_site_occupancy
  Na  Na0  1  0.75000000  0.83761583  0.12373251  1
  Na  Na1  1  0.25000000  0.16238417  0.87626749  1
  Na  Na2  1  0.75000000  0.28611668  0.16238417  1
  Na  Na3  1  0.25000000  0.71388332  0.83761583  1
  Na  Na4  1  0.75000000  0.87626749  0.71388332  1
  Na  Na5  1  0.25000000  0.12373251  0.28611668  1
  Na  Na6  1  -0.00000000  -0.00000000  0.00000000  1
  Na  Na7  1  0.50000000  -0.00000000  0.00000000  1
  Sr  Sr8  1  0.75000000  0.66666700  0.33333300  1
  Sr  Sr9  1  0.25000000  0.33333300  0.66666700  1
  Ge  Ge10  1  0.75000000  0.61214554  0.78566570  1
  Ge  Ge11  1  0.25000000  0.38785446  0.21433430  1
  Ge  Ge12  1  0.75000000  0.17352016  0.38785446  1
  Ge  Ge13  1  0.25000000  0.82647984  0.61214554  1
  Ge  Ge14  1  0.75000000  0.21433430  0.82647984  1
  Ge  Ge15  1  0.25000000  0.78566570  0.17352016  1
  Ge  Ge16  1  -0.00000000  0.50000000  0.50000000  1
  Ge  Ge17  1  -0.00000000  -0.00000000  0.50000000  1
  Ge  Ge18  1  0.50000000  0.50000000  0.50000000  1
  Ge  Ge19  1  -0.00000000  0.50000000  0.00000000  1
  Ge  Ge20  1  0.50000000  -0.00000000  0.50000000  1
  Ge  Ge21  1  0.50000000  0.50000000  0.00000000  1
  O  O22  1  0.75000000  0.92117541  0.38211745  1
  O  O23  1  0.25000000  0.07882459  0.61788255  1
  O  O24  1  0.75000000  0.46094204  0.07882459  1
  O  O25  1  0.25000000  0.53905796  0.92117541  1
  O  O26  1  0.75000000  0.61788255  0.53905796  1
  O  O27  1  0.25000000  0.38211745  0.46094204  1
  O  O28  1  0.75000000  0.79379025  0.87863374  1
  O  O29  1  0.25000000  0.20620975  0.12136626  1
  O  O30  1  0.75000000  0.08484349  0.20620975  1
  O  O31  1  0.25000000  0.91515651  0.79379025  1
  O  O32  1  0.75000000  0.12136626  0.91515651  1
  O  O33  1  0.25000000  0.87863374  0.08484349  1
  O  O34  1  0.99573654  0.53314090  0.68616101  1
  O  O35  1  0.00426346  0.46685910  0.31383899  1
  O  O36  1  0.99573654  0.15302011  0.46685910  1
  O  O37  1  0.49573654  0.46685910  0.31383899  1
  O  O38  1  0.00426346  0.84697989  0.53314090  1
  O  O39  1  0.50426346  0.53314090  0.68616101  1
  O  O40  1  0.99573654  0.31383899  0.84697989  1
  O  O41  1  0.49573654  0.84697989  0.53314090  1
  O  O42  1  0.00426346  0.68616101  0.15302011  1
  O  O43  1  0.50426346  0.15302011  0.46685910  1
  O  O44  1  0.49573654  0.68616101  0.15302011  1
  O  O45  1  0.50426346  0.31383899  0.84697989  1
  O  O46  1  0.75000000  0.55396578  0.91322422  1
  O  O47  1  0.25000000  0.44603422  0.08677578  1
  O  O48  1  0.75000000  0.35925845  0.44603422  1
  O  O49  1  0.25000000  0.64074155  0.55396578  1
  O  O50  1  0.75000000  0.08677578  0.64074155  1
  O  O51  1  0.25000000  0.91322422  0.35925845  1
