# generated using pymatgen
data_LiCu5(PO4)2
_symmetry_space_group_name_H-M   'P 1'
_cell_length_a   6.22955523
_cell_length_b   5.61406299
_cell_length_c   10.36514377
_cell_angle_alpha   89.76445806
_cell_angle_beta   89.73170764
_cell_angle_gamma   88.93076325
_symmetry_Int_Tables_number   1
_chemical_formula_structural   LiCu5(PO4)2
_chemical_formula_sum   'Li2 Cu10 P4 O16'
_cell_volume   362.43134085
_cell_formula_units_Z   2
loop_
 _symmetry_equiv_pos_site_id
 _symmetry_equiv_pos_as_xyz
  1  'x, y, z'
loop_
 _atom_site_type_symbol
 _atom_site_label
 _atom_site_symmetry_multiplicity
 _atom_site_fract_x
 _atom_site_fract_y
 _atom_site_fract_z
 _atom_site_occupancy
  Li  Li0  1  0.00271640  0.14998481  0.74590549  1
  Li  Li1  1  0.25235522  0.32770573  0.49902820  1
  Cu  Cu2  1  0.99251774  0.22451589  0.24488625  1
  Cu  Cu3  1  0.23919253  0.34344638  0.00218085  1
  Cu  Cu4  1  0.25628446  0.66425768  0.25150116  1
  Cu  Cu5  1  0.28684093  0.64722368  0.74467579  1
  Cu  Cu6  1  0.49967956  0.76873311  0.98834245  1
  Cu  Cu7  1  0.50330837  0.76442241  0.48801840  1
  Cu  Cu8  1  0.70496941  0.64805224  0.73591896  1
  Cu  Cu9  1  0.75073734  0.65063534  0.25052061  1
  Cu  Cu10  1  0.74070879  0.35476664  0.49405164  1
  Cu  Cu11  1  0.76137457  0.34629527  0.00068411  1
  P  P12  1  0.99787226  0.83973571  0.99786197  1
  P  P13  1  0.00905721  0.84335959  0.50750658  1
  P  P14  1  0.49482429  0.16815963  0.25464095  1
  P  P15  1  0.49961376  0.17920179  0.74861598  1
  O  O16  1  0.00232811  0.83643995  0.65629111  1
  O  O17  1  0.01751170  0.10314446  0.45642163  1
  O  O18  1  0.99704585  0.84691694  0.14710561  1
  O  O19  1  0.99675053  0.09179281  0.93589030  1
  O  O20  1  0.20457065  0.68751383  0.45721476  1
  O  O21  1  0.20149963  0.69954901  0.94715461  1
  O  O22  1  0.29089538  0.30754358  0.20376346  1
  O  O23  1  0.29283625  0.30255851  0.69130621  1
  O  O24  1  0.49472520  0.17826049  0.89756000  1
  O  O25  1  0.50244160  0.92073144  0.69484941  1
  O  O26  1  0.49602845  0.17546477  0.40376703  1
  O  O27  1  0.49652984  0.91228541  0.20072172  1
  O  O28  1  0.71312693  0.29891441  0.69988030  1
  O  O29  1  0.69358561  0.30259580  0.19895029  1
  O  O30  1  0.80787923  0.71599954  0.45070367  1
  O  O31  1  0.80019320  0.69979314  0.94667249  1
