# generated using pymatgen
data_PrCrSb3
_symmetry_space_group_name_H-M   'P 1'
_cell_length_a   6.10808811
_cell_length_b   6.24277621
_cell_length_c   13.22318011
_cell_angle_alpha   90.00000000
_cell_angle_beta   90.00000000
_cell_angle_gamma   90.00000000
_symmetry_Int_Tables_number   1
_chemical_formula_structural   PrCrSb3
_chemical_formula_sum   'Pr4 Cr4 Sb12'
_cell_volume   504.21872895
_cell_formula_units_Z   4
loop_
 _symmetry_equiv_pos_site_id
 _symmetry_equiv_pos_as_xyz
  1  'x, y, z'
loop_
 _atom_site_type_symbol
 _atom_site_label
 _atom_site_symmetry_multiplicity
 _atom_site_fract_x
 _atom_site_fract_y
 _atom_site_fract_z
 _atom_site_occupancy
  Pr  Pr0  1  0.75000000  0.99560022  0.69223325  1
  Pr  Pr1  1  0.25000000  0.00439978  0.30776675  1
  Pr  Pr2  1  0.75000000  0.49560022  0.30776675  1
  Pr  Pr3  1  0.25000000  0.50439978  0.69223325  1
  Cr  Cr4  1  0.00000000  0.75000000  0.09242966  1
  Cr  Cr5  1  -0.00000000  0.25000000  0.90757034  1
  Cr  Cr6  1  0.50000000  0.25000000  0.90757034  1
  Cr  Cr7  1  0.50000000  0.75000000  0.09242966  1
  Sb  Sb8  1  0.00000000  0.75000000  0.49873641  1
  Sb  Sb9  1  -0.00000000  0.25000000  0.50126359  1
  Sb  Sb10  1  0.50000000  0.25000000  0.50126359  1
  Sb  Sb11  1  0.50000000  0.75000000  0.49873641  1
  Sb  Sb12  1  0.75000000  0.90085030  0.93869221  1
  Sb  Sb13  1  0.25000000  0.09914970  0.06130779  1
  Sb  Sb14  1  0.75000000  0.40085030  0.06130779  1
  Sb  Sb15  1  0.25000000  0.59914970  0.93869221  1
  Sb  Sb16  1  0.75000000  0.50016476  0.78266416  1
  Sb  Sb17  1  0.25000000  0.49983524  0.21733584  1
  Sb  Sb18  1  0.75000000  0.00016476  0.21733584  1
  Sb  Sb19  1  0.25000000  -0.00016476  0.78266416  1
