# generated using pymatgen
data_SrCrF5
_symmetry_space_group_name_H-M   'P 1'
_cell_length_a   7.51301748
_cell_length_b   11.06637316
_cell_length_c   11.06637316
_cell_angle_alpha   83.38322282
_cell_angle_beta   70.15647713
_cell_angle_gamma   70.15647713
_symmetry_Int_Tables_number   1
_chemical_formula_structural   SrCrF5
_chemical_formula_sum   'Sr8 Cr8 F40'
_cell_volume   814.05993451
_cell_formula_units_Z   8
loop_
 _symmetry_equiv_pos_site_id
 _symmetry_equiv_pos_as_xyz
  1  'x, y, z'
loop_
 _atom_site_type_symbol
 _atom_site_label
 _atom_site_symmetry_multiplicity
 _atom_site_fract_x
 _atom_site_fract_y
 _atom_site_fract_z
 _atom_site_occupancy
  Sr  Sr0  1  0.06955191  0.17693277  0.72611690  1
  Sr  Sr1  1  0.97260158  0.82306723  0.27388310  1
  Sr  Sr2  1  0.79566881  0.27388310  0.17693277  1
  Sr  Sr3  1  0.24648468  0.72611690  0.82306723  1
  Sr  Sr4  1  0.27799852  0.17493746  0.31551987  1
  Sr  Sr5  1  0.76845586  0.82506254  0.68448013  1
  Sr  Sr6  1  0.59351839  0.68448013  0.17493746  1
  Sr  Sr7  1  0.45293598  0.31551987  0.82506254  1
  Cr  Cr8  1  0.28272893  0.00000000  0.00000000  1
  Cr  Cr9  1  0.35569317  0.84916675  0.48041590  1
  Cr  Cr10  1  0.68527583  0.15083325  0.51958410  1
  Cr  Cr11  1  0.83610908  0.51958410  0.84916675  1
  Cr  Cr12  1  0.20485993  0.48041590  0.15083325  1
  Cr  Cr13  1  0.78167531  1.00000000  1.00000000  1
  Cr  Cr14  1  0.02751199  0.50000000  0.50000000  1
  Cr  Cr15  1  0.52751199  0.50000000  0.50000000  1
  F  F16  1  0.48723967  0.81119381  0.61181582  1
  F  F17  1  0.91024930  0.18880619  0.38818418  1
  F  F18  1  0.09905549  0.38818418  0.81119381  1
  F  F19  1  0.29843348  0.61181582  0.18880619  1
  F  F20  1  0.27755589  0.50000000  0.50000000  1
  F  F21  1  0.77755589  0.50000000  0.50000000  1
  F  F22  1  0.53193441  0.00000000  0.00000000  1
  F  F23  1  0.58906182  0.86616760  0.33985177  1
  F  F24  1  0.79508119  0.13383240  0.66014823  1
  F  F25  1  0.92891359  0.66014823  0.86616760  1
  F  F26  1  0.45522942  0.33985177  0.13383240  1
  F  F27  1  0.24168616  0.03300068  0.51354806  1
  F  F28  1  0.78823490  0.96699932  0.48645194  1
  F  F29  1  0.75523422  0.48645194  0.03300068  1
  F  F30  1  0.27468684  0.51354806  0.96699932  1
  F  F31  1  0.44490269  0.13779993  0.65319615  1
  F  F32  1  0.23589876  0.86220007  0.34680385  1
  F  F33  1  0.09809884  0.34680385  0.13779993  1
  F  F34  1  0.58270261  0.65319615  0.86220007  1
  F  F35  1  0.03174145  1.00000000  1.00000000  1
  F  F36  1  0.09300621  0.31924471  0.54603022  1
  F  F37  1  0.95828114  0.68075529  0.45396978  1
  F  F38  1  0.63903643  0.45396978  0.31924471  1
  F  F39  1  0.41225092  0.54603022  0.68075529  1
  F  F40  1  0.66878572  0.08030091  0.16749973  1
  F  F41  1  0.91658635  0.91969909  0.83250027  1
  F  F42  1  0.83628544  0.83250027  0.08030091  1
  F  F43  1  0.74908663  0.16749973  0.91969909  1
  F  F44  1  0.48210069  0.66918392  0.42428680  1
  F  F45  1  0.57557141  0.33081608  0.57571320  1
  F  F46  1  0.90638749  0.57571320  0.66918392  1
  F  F47  1  0.15128461  0.42428680  0.33081608  1
  F  F48  1  0.39755961  0.91556267  0.83475495  1
  F  F49  1  0.14787722  0.08443733  0.16524505  1
  F  F50  1  0.23231456  0.16524505  0.91556267  1
  F  F51  1  0.31312227  0.83475495  0.08443733  1
  F  F52  1  0.55478670  0.19783117  0.38718782  1
  F  F53  1  0.13980569  0.80216883  0.61281218  1
  F  F54  1  0.94197452  0.61281218  0.19783117  1
  F  F55  1  0.75261787  0.38718782  0.80216883  1
