# generated using pymatgen
data_Rb2Cr(ICl)2
_symmetry_space_group_name_H-M   'P 1'
_cell_length_a   7.49443048
_cell_length_b   7.49351075
_cell_length_c   9.71964732
_cell_angle_alpha   90.00000000
_cell_angle_beta   112.67664068
_cell_angle_gamma   90.00000000
_symmetry_Int_Tables_number   1
_chemical_formula_structural   Rb2Cr(ICl)2
_chemical_formula_sum   'Rb4 Cr2 I4 Cl4'
_cell_volume   503.65460192
_cell_formula_units_Z   2
loop_
 _symmetry_equiv_pos_site_id
 _symmetry_equiv_pos_as_xyz
  1  'x, y, z'
loop_
 _atom_site_type_symbol
 _atom_site_label
 _atom_site_symmetry_multiplicity
 _atom_site_fract_x
 _atom_site_fract_y
 _atom_site_fract_z
 _atom_site_occupancy
  Rb  Rb0  1  0.37361175  -0.00000000  0.74722351  1
  Rb  Rb1  1  0.62638825  -0.00000000  0.25277649  1
  Rb  Rb2  1  0.12638825  0.50000000  0.25277649  1
  Rb  Rb3  1  0.87361175  0.50000000  0.74722351  1
  Cr  Cr4  1  -0.00000000  -0.00000000  -0.00000000  1
  Cr  Cr5  1  0.50000000  0.50000000  -0.00000000  1
  I  I6  1  0.15581989  -0.00000000  0.31163979  1
  I  I7  1  0.84418011  -0.00000000  0.68836021  1
  I  I8  1  0.34418011  0.50000000  0.68836021  1
  I  I9  1  0.65581989  0.50000000  0.31163979  1
  Cl  Cl10  1  0.22897270  0.22851645  1.00000000  1
  Cl  Cl11  1  0.77102730  0.77148355  0.00000000  1
  Cl  Cl12  1  0.27102730  0.72851645  0.00000000  1
  Cl  Cl13  1  0.72897270  0.27148355  1.00000000  1
