# generated using pymatgen
data_Pr(ClO2)3
_symmetry_space_group_name_H-M   'P 1'
_cell_length_a   6.96299662
_cell_length_b   5.90272217
_cell_length_c   9.00420176
_cell_angle_alpha   90.00000000
_cell_angle_beta   63.36225314
_cell_angle_gamma   90.00000000
_symmetry_Int_Tables_number   1
_chemical_formula_structural   Pr(ClO2)3
_chemical_formula_sum   'Pr2 Cl6 O12'
_cell_volume   330.79793426
_cell_formula_units_Z   2
loop_
 _symmetry_equiv_pos_site_id
 _symmetry_equiv_pos_as_xyz
  1  'x, y, z'
loop_
 _atom_site_type_symbol
 _atom_site_label
 _atom_site_symmetry_multiplicity
 _atom_site_fract_x
 _atom_site_fract_y
 _atom_site_fract_z
 _atom_site_occupancy
  Pr  Pr0  1  0.75000000  0.87957509  0.75000000  1
  Pr  Pr1  1  0.25000000  0.12042491  0.25000000  1
  Cl  Cl2  1  0.75294270  0.37075575  0.00501687  1
  Cl  Cl3  1  0.24705730  0.62924425  0.99498313  1
  Cl  Cl4  1  0.74705730  0.37075575  0.49498313  1
  Cl  Cl5  1  0.25294270  0.62924425  0.50501687  1
  Cl  Cl6  1  0.75000000  0.86052457  0.25000000  1
  Cl  Cl7  1  0.25000000  0.13947543  0.75000000  1
  O  O8  1  0.45473885  0.98391381  0.69362919  1
  O  O9  1  0.54526115  0.01608619  0.30637081  1
  O  O10  1  0.04526115  0.98391381  0.80637081  1
  O  O11  1  0.95473885  0.01608619  0.19362919  1
  O  O12  1  0.63804746  0.54176580  0.64171587  1
  O  O13  1  0.36195254  0.45823420  0.35828413  1
  O  O14  1  0.86195254  0.54176580  0.85828413  1
  O  O15  1  0.13804746  0.45823420  0.14171587  1
  O  O16  1  0.09651684  0.80497988  0.47196598  1
  O  O17  1  0.90348316  0.19502012  0.52803402  1
  O  O18  1  0.40348316  0.80497988  0.02803402  1
  O  O19  1  0.59651684  0.19502012  0.97196598  1
