# generated using pymatgen
data_Na5Ca7Zr2Ti2Si8(O5F)6
_symmetry_space_group_name_H-M   'P 1'
_cell_length_a   7.30110692
_cell_length_b   10.21571917
_cell_length_c   11.52559446
_cell_angle_alpha   111.88051360
_cell_angle_beta   89.98078173
_cell_angle_gamma   100.72605494
_symmetry_Int_Tables_number   1
_chemical_formula_structural   Na5Ca7Zr2Ti2Si8(O5F)6
_chemical_formula_sum   'Na5 Ca7 Zr2 Ti2 Si8 O30 F6'
_cell_volume   781.53535152
_cell_formula_units_Z   1
loop_
 _symmetry_equiv_pos_site_id
 _symmetry_equiv_pos_as_xyz
  1  'x, y, z'
loop_
 _atom_site_type_symbol
 _atom_site_label
 _atom_site_symmetry_multiplicity
 _atom_site_fract_x
 _atom_site_fract_y
 _atom_site_fract_z
 _atom_site_occupancy
  Na  Na0  1  0.08940409  0.36029006  0.29152492  1
  Na  Na1  1  0.91059591  0.63970994  0.70847508  1
  Na  Na2  1  0.24858225  0.99932572  0.74546158  1
  Na  Na3  1  0.75141775  0.00067428  0.25453842  1
  Na  Na4  1  -0.00000000  -0.00000000  0.50000000  1
  Ca  Ca5  1  0.08704921  0.36697206  0.78747093  1
  Ca  Ca6  1  0.91295079  0.63302794  0.21252907  1
  Ca  Ca7  1  0.26576324  0.01263112  0.25775062  1
  Ca  Ca8  1  0.73423676  0.98736888  0.74224938  1
  Ca  Ca9  1  0.40765067  0.62656973  0.20954238  1
  Ca  Ca10  1  0.59234933  0.37343027  0.79045762  1
  Ca  Ca11  1  -0.00000000  -0.00000000  0.00000000  1
  Zr  Zr12  1  0.58747753  0.34819295  0.27798146  1
  Zr  Zr13  1  0.41252247  0.65180705  0.72201854  1
  Ti  Ti14  1  0.50000000  -0.00000000  0.50000000  1
  Ti  Ti15  1  0.50000000  -0.00000000  0.00000000  1
  Si  Si16  1  0.29129003  0.29080346  0.50872547  1
  Si  Si17  1  0.70870997  0.70919654  0.49127453  1
  Si  Si18  1  0.29373340  0.27833795  0.00879117  1
  Si  Si19  1  0.70626660  0.72166205  0.99120883  1
  Si  Si20  1  0.84915405  0.28479011  0.01262083  1
  Si  Si21  1  0.15084595  0.71520989  0.98737917  1
  Si  Si22  1  0.15749370  0.71206319  0.48867337  1
  Si  Si23  1  0.84250630  0.28793681  0.51132663  1
  O  O24  1  0.06117904  0.26323130  0.49190197  1
  O  O25  1  0.93882096  0.73676870  0.50809803  1
  O  O26  1  0.35877678  0.40668747  0.65191393  1
  O  O27  1  0.64122322  0.59331253  0.34808607  1
  O  O28  1  0.66175816  0.65522335  0.09683306  1
  O  O29  1  0.33824184  0.34477665  0.90316694  1
  O  O30  1  0.80371975  0.37844931  0.15565533  1
  O  O31  1  0.19628025  0.62155069  0.84434467  1
  O  O32  1  0.32946381  0.12872833  0.47919368  1
  O  O33  1  0.67053619  0.87127167  0.52080632  1
  O  O34  1  0.27022342  0.88342958  0.03923320  1
  O  O35  1  0.72977658  0.11657042  0.96076680  1
  O  O36  1  0.16447191  0.64231885  0.08822026  1
  O  O37  1  0.83552809  0.35768115  0.91177974  1
  O  O38  1  0.20970482  0.64925572  0.59411608  1
  O  O39  1  0.79029518  0.35074428  0.40588392  1
  O  O40  1  0.37320860  0.33931030  0.39555102  1
  O  O41  1  0.62679140  0.66068970  0.60444898  1
  O  O42  1  0.39191690  0.37608074  0.15034828  1
  O  O43  1  0.60808310  0.62391926  0.84965172  1
  O  O44  1  0.71978261  0.12268424  0.47244160  1
  O  O45  1  0.28021739  0.87731576  0.52755840  1
  O  O46  1  0.52676244  0.12956870  0.17937760  1
  O  O47  1  0.47323756  0.87043130  0.82062240  1
  O  O48  1  0.16597392  0.61225524  0.34254984  1
  O  O49  1  0.83402608  0.38774476  0.65745016  1
  O  O50  1  0.32291459  0.11068074  0.96374119  1
  O  O51  1  0.67708541  0.88931926  0.03625881  1
  O  O52  1  0.06370977  0.25544963  0.02681109  1
  O  O53  1  0.93629023  0.74455037  0.97318891  1
  F  F54  1  0.00903319  0.12020297  0.70828020  1
  F  F55  1  0.99096681  0.87979703  0.29171980  1
  F  F56  1  0.53673187  0.11614034  0.69165525  1
  F  F57  1  0.46326813  0.88385966  0.30834475  1
  F  F58  1  0.03827056  0.10827208  0.20694496  1
  F  F59  1  0.96172944  0.89172792  0.79305504  1
