# generated using pymatgen
data_KZr6CI14
_symmetry_space_group_name_H-M   'P 1'
_cell_length_a   11.00741048
_cell_length_b   11.00741048
_cell_length_c   13.05433375
_cell_angle_alpha   90.00000000
_cell_angle_beta   90.00000000
_cell_angle_gamma   94.45679410
_symmetry_Int_Tables_number   1
_chemical_formula_structural   KZr6CI14
_chemical_formula_sum   'K2 Zr12 C2 I28'
_cell_volume   1576.92062518
_cell_formula_units_Z   2
loop_
 _symmetry_equiv_pos_site_id
 _symmetry_equiv_pos_as_xyz
  1  'x, y, z'
loop_
 _atom_site_type_symbol
 _atom_site_label
 _atom_site_symmetry_multiplicity
 _atom_site_fract_x
 _atom_site_fract_y
 _atom_site_fract_z
 _atom_site_occupancy
  K  K0  1  0.50000000  0.50000000  0.00000000  1
  K  K1  1  -0.00000000  -0.00000000  0.50000000  1
  Zr  Zr2  1  0.37328758  0.37328758  0.40571981  1
  Zr  Zr3  1  0.62671242  0.62671242  0.59428019  1
  Zr  Zr4  1  0.12671242  0.12671242  0.90571981  1
  Zr  Zr5  1  0.87328758  0.87328758  0.09428019  1
  Zr  Zr6  1  0.16503011  0.95807322  0.10639633  1
  Zr  Zr7  1  0.83496989  0.04192678  0.89360367  1
  Zr  Zr8  1  0.33496989  0.54192678  0.60639633  1
  Zr  Zr9  1  0.45807322  0.66503011  0.39360367  1
  Zr  Zr10  1  0.66503011  0.45807322  0.39360367  1
  Zr  Zr11  1  0.54192678  0.33496989  0.60639633  1
  Zr  Zr12  1  0.04192678  0.83496989  0.89360367  1
  Zr  Zr13  1  0.95807322  0.16503011  0.10639633  1
  C  C14  1  -0.00000000  -0.00000000  0.00000000  1
  C  C15  1  0.50000000  0.50000000  0.50000000  1
  I  I16  1  0.35926547  0.11198904  0.00668041  1
  I  I17  1  0.64073453  0.88801096  0.99331959  1
  I  I18  1  0.14073453  0.38801096  0.50668041  1
  I  I19  1  0.61198904  0.85926547  0.49331959  1
  I  I20  1  0.85926547  0.61198904  0.49331959  1
  I  I21  1  0.38801096  0.14073453  0.50668041  1
  I  I22  1  0.88801096  0.64073453  0.99331959  1
  I  I23  1  0.11198904  0.35926547  0.00668041  1
  I  I24  1  0.24908809  0.75091191  0.00000000  1
  I  I25  1  0.75091191  0.24908809  0.00000000  1
  I  I26  1  0.25091191  0.74908809  0.50000000  1
  I  I27  1  0.74908809  0.25091191  0.50000000  1
  I  I28  1  0.39678696  0.89678696  0.25000000  1
  I  I29  1  0.60321304  0.10321304  0.75000000  1
  I  I30  1  0.10321304  0.60321304  0.75000000  1
  I  I31  1  0.89678696  0.39678696  0.25000000  1
  I  I32  1  0.15046816  0.15046816  0.26181528  1
  I  I33  1  0.84953184  0.84953184  0.73818472  1
  I  I34  1  0.34953184  0.34953184  0.76181528  1
  I  I35  1  0.65046816  0.65046816  0.23818472  1
  I  I36  1  0.53578550  0.29000573  0.25134855  1
  I  I37  1  0.46421450  0.70999427  0.74865145  1
  I  I38  1  0.96421450  0.20999427  0.75134855  1
  I  I39  1  0.79000573  0.03578550  0.24865145  1
  I  I40  1  0.03578550  0.79000573  0.24865145  1
  I  I41  1  0.20999427  0.96421450  0.75134855  1
  I  I42  1  0.70999427  0.46421450  0.74865145  1
  I  I43  1  0.29000573  0.53578550  0.25134855  1
