# generated using pymatgen
data_MgZn7O8
_symmetry_space_group_name_H-M   'P 1'
_cell_length_a   5.28702442
_cell_length_b   6.58731048
_cell_length_c   6.58697682
_cell_angle_alpha   119.99819730
_cell_angle_beta   90.00015440
_cell_angle_gamma   89.99973091
_symmetry_Int_Tables_number   1
_chemical_formula_structural   MgZn7O8
_chemical_formula_sum   'Mg1 Zn7 O8'
_cell_volume   198.67540434
_cell_formula_units_Z   1
loop_
 _symmetry_equiv_pos_site_id
 _symmetry_equiv_pos_as_xyz
  1  'x, y, z'
loop_
 _atom_site_type_symbol
 _atom_site_label
 _atom_site_symmetry_multiplicity
 _atom_site_fract_x
 _atom_site_fract_y
 _atom_site_fract_z
 _atom_site_occupancy
  Mg  Mg0  1  0.50291631  0.33326829  0.66663588  1
  Zn  Zn1  1  0.50098669  0.33514290  0.16757174  1
  Zn  Zn2  1  0.00012318  0.49960914  0.50029451  1
  Zn  Zn3  1  0.00012400  0.49960951  0.99931462  1
  Zn  Zn4  1  0.50098830  0.83232885  0.66475510  1
  Zn  Zn5  1  0.50098853  0.83232757  0.16757479  1
  Zn  Zn6  1  0.00012313  0.00059063  0.50029429  1
  Zn  Zn7  1  0.99916528  0.99993214  0.99996556  1
  O  O8  1  0.12519795  0.33326371  0.66663283  1
  O  O9  1  0.61848124  0.99993419  0.99996714  1
  O  O10  1  0.11974590  0.83330207  0.66670395  1
  O  O11  1  0.11974602  0.83329980  0.16659433  1
  O  O12  1  0.11974327  0.33318996  0.16659573  1
  O  O13  1  0.61989155  0.49893960  0.50095869  1
  O  O14  1  0.61988917  0.49894062  0.99798118  1
  O  O15  1  0.61988946  0.00192102  0.50095966  1
