# generated using pymatgen
data_LiSm(WO4)2
_symmetry_space_group_name_H-M   'P 1'
_cell_length_a   5.15905218
_cell_length_b   5.89886547
_cell_length_c   10.29765144
_cell_angle_alpha   90.00000000
_cell_angle_beta   94.89696164
_cell_angle_gamma   90.00000000
_symmetry_Int_Tables_number   1
_chemical_formula_structural   LiSm(WO4)2
_chemical_formula_sum   'Li2 Sm2 W4 O16'
_cell_volume   312.23993521
_cell_formula_units_Z   2
loop_
 _symmetry_equiv_pos_site_id
 _symmetry_equiv_pos_as_xyz
  1  'x, y, z'
loop_
 _atom_site_type_symbol
 _atom_site_label
 _atom_site_symmetry_multiplicity
 _atom_site_fract_x
 _atom_site_fract_y
 _atom_site_fract_z
 _atom_site_occupancy
  Li  Li0  1  0.25000000  0.69557492  0.25000000  1
  Li  Li1  1  0.75000000  0.30442508  0.75000000  1
  Sm  Sm2  1  0.75000000  0.30267354  0.25000000  1
  Sm  Sm3  1  0.25000000  0.69732646  0.75000000  1
  W  W4  1  0.75133550  0.82624732  0.01379853  1
  W  W5  1  0.24866450  0.17375268  0.98620147  1
  W  W6  1  0.74866450  0.82624732  0.48620147  1
  W  W7  1  0.25133550  0.17375268  0.51379853  1
  O  O8  1  0.45099058  0.89304421  0.59427244  1
  O  O9  1  0.54900942  0.10695579  0.40572756  1
  O  O10  1  0.04900942  0.89304421  0.90572756  1
  O  O11  1  0.95099058  0.10695579  0.09427244  1
  O  O12  1  0.11541205  0.37404227  0.38995146  1
  O  O13  1  0.88458795  0.62595773  0.61004854  1
  O  O14  1  0.38458795  0.37404227  0.11004854  1
  O  O15  1  0.61541205  0.62595773  0.88995146  1
  O  O16  1  0.03318593  0.91682334  0.39022682  1
  O  O17  1  0.96681407  0.08317666  0.60977318  1
  O  O18  1  0.46681407  0.91682334  0.10977318  1
  O  O19  1  0.53318593  0.08317666  0.89022682  1
  O  O20  1  0.90456046  0.63198742  0.13448317  1
  O  O21  1  0.09543954  0.36801258  0.86551683  1
  O  O22  1  0.59543954  0.63198742  0.36551683  1
  O  O23  1  0.40456046  0.36801258  0.63448317  1
