# generated using pymatgen
data_K2Y2(PO4)3
_symmetry_space_group_name_H-M   'P 1'
_cell_length_a   10.75518141
_cell_length_b   10.75518141
_cell_length_c   10.75518141
_cell_angle_alpha   90.00000000
_cell_angle_beta   90.00000000
_cell_angle_gamma   90.00000000
_symmetry_Int_Tables_number   1
_chemical_formula_structural   K2Y2(PO4)3
_chemical_formula_sum   'K8 Y8 P12 O48'
_cell_volume   1244.09407103
_cell_formula_units_Z   4
loop_
 _symmetry_equiv_pos_site_id
 _symmetry_equiv_pos_as_xyz
  1  'x, y, z'
loop_
 _atom_site_type_symbol
 _atom_site_label
 _atom_site_symmetry_multiplicity
 _atom_site_fract_x
 _atom_site_fract_y
 _atom_site_fract_z
 _atom_site_occupancy
  K  K0  1  0.81850667  0.81850667  0.81850667  1
  K  K1  1  0.68149333  0.18149333  0.31850667  1
  K  K2  1  0.18149333  0.31850667  0.68149333  1
  K  K3  1  0.31850667  0.68149333  0.18149333  1
  K  K4  1  0.04760000  0.04760000  0.04760000  1
  K  K5  1  0.45240000  0.95240000  0.54760000  1
  K  K6  1  0.95240000  0.54760000  0.45240000  1
  K  K7  1  0.54760000  0.45240000  0.95240000  1
  Y  Y8  1  0.33244577  0.33244577  0.33244577  1
  Y  Y9  1  0.16755423  0.66755423  0.83244577  1
  Y  Y10  1  0.66755423  0.83244577  0.16755423  1
  Y  Y11  1  0.83244577  0.16755423  0.66755423  1
  Y  Y12  1  0.60236615  0.60236615  0.60236615  1
  Y  Y13  1  0.89763385  0.39763385  0.10236615  1
  Y  Y14  1  0.39763385  0.10236615  0.89763385  1
  Y  Y15  1  0.10236615  0.89763385  0.39763385  1
  P  P16  1  0.01505874  0.21380830  0.37498159  1
  P  P17  1  0.48494126  0.78619170  0.87498159  1
  P  P18  1  0.98494126  0.71380830  0.12501841  1
  P  P19  1  0.37498159  0.01505874  0.21380830  1
  P  P20  1  0.51505874  0.28619170  0.62501841  1
  P  P21  1  0.87498159  0.48494126  0.78619170  1
  P  P22  1  0.12501841  0.98494126  0.71380830  1
  P  P23  1  0.62501841  0.51505874  0.28619170  1
  P  P24  1  0.21380830  0.37498159  0.01505874  1
  P  P25  1  0.71380830  0.12501841  0.98494126  1
  P  P26  1  0.28619170  0.62501841  0.51505874  1
  P  P27  1  0.78619170  0.87498159  0.48494126  1
  O  O28  1  0.27316553  0.50629508  0.43418658  1
  O  O29  1  0.22683447  0.49370492  0.93418658  1
  O  O30  1  0.72683447  0.00629508  0.06581342  1
  O  O31  1  0.43418658  0.27316553  0.50629508  1
  O  O32  1  0.77316553  0.99370492  0.56581342  1
  O  O33  1  0.93418658  0.22683447  0.49370492  1
  O  O34  1  0.06581342  0.72683447  0.00629508  1
  O  O35  1  0.56581342  0.77316553  0.99370492  1
  O  O36  1  0.50629508  0.43418658  0.27316553  1
  O  O37  1  0.00629508  0.06581342  0.72683447  1
  O  O38  1  0.99370492  0.56581342  0.77316553  1
  O  O39  1  0.49370492  0.93418658  0.22683447  1
  O  O40  1  0.01689035  0.07722371  0.32921057  1
  O  O41  1  0.48310965  0.92277629  0.82921057  1
  O  O42  1  0.98310965  0.57722371  0.17078943  1
  O  O43  1  0.32921057  0.01689035  0.07722371  1
  O  O44  1  0.51689035  0.42277629  0.67078943  1
  O  O45  1  0.82921057  0.48310965  0.92277629  1
  O  O46  1  0.17078943  0.98310965  0.57722371  1
  O  O47  1  0.67078943  0.51689035  0.42277629  1
  O  O48  1  0.07722371  0.32921057  0.01689035  1
  O  O49  1  0.57722371  0.17078943  0.98310965  1
  O  O50  1  0.42277629  0.67078943  0.51689035  1
  O  O51  1  0.92277629  0.82921057  0.48310965  1
  O  O52  1  0.04516686  0.79639591  0.22597942  1
  O  O53  1  0.45483314  0.20360409  0.72597942  1
  O  O54  1  0.95483314  0.29639591  0.27402058  1
  O  O55  1  0.22597942  0.04516686  0.79639591  1
  O  O56  1  0.54516686  0.70360409  0.77402058  1
  O  O57  1  0.72597942  0.45483314  0.20360409  1
  O  O58  1  0.27402058  0.95483314  0.29639591  1
  O  O59  1  0.77402058  0.54516686  0.70360409  1
  O  O60  1  0.79639591  0.22597942  0.04516686  1
  O  O61  1  0.29639591  0.27402058  0.95483314  1
  O  O62  1  0.70360409  0.77402058  0.54516686  1
  O  O63  1  0.20360409  0.72597942  0.45483314  1
  O  O64  1  0.14911237  0.25846238  0.40344200  1
  O  O65  1  0.35088763  0.74153762  0.90344200  1
  O  O66  1  0.85088763  0.75846238  0.09655800  1
  O  O67  1  0.40344200  0.14911237  0.25846238  1
  O  O68  1  0.64911237  0.24153762  0.59655800  1
  O  O69  1  0.90344200  0.35088763  0.74153762  1
  O  O70  1  0.09655800  0.85088763  0.75846238  1
  O  O71  1  0.59655800  0.64911237  0.24153762  1
  O  O72  1  0.25846238  0.40344200  0.14911237  1
  O  O73  1  0.75846238  0.09655800  0.85088763  1
  O  O74  1  0.24153762  0.59655800  0.64911237  1
  O  O75  1  0.74153762  0.90344200  0.35088763  1
