# generated using pymatgen
data_CoOF
_symmetry_space_group_name_H-M   'P 1'
_cell_length_a   4.71035930
_cell_length_b   13.95811571
_cell_length_c   2.89012017
_cell_angle_alpha   90.00000000
_cell_angle_beta   90.00000000
_cell_angle_gamma   94.30844139
_symmetry_Int_Tables_number   1
_chemical_formula_structural   CoOF
_chemical_formula_sum   'Co6 O6 F6'
_cell_volume   189.48189097
_cell_formula_units_Z   6
loop_
 _symmetry_equiv_pos_site_id
 _symmetry_equiv_pos_as_xyz
  1  'x, y, z'
loop_
 _atom_site_type_symbol
 _atom_site_label
 _atom_site_symmetry_multiplicity
 _atom_site_fract_x
 _atom_site_fract_y
 _atom_site_fract_z
 _atom_site_occupancy
  Co  Co0  1  0.91559579  0.00186334  0.00000000  1
  Co  Co1  1  0.08440421  0.33147066  0.00000000  1
  Co  Co2  1  0.00000000  0.66666700  0.00000000  1
  Co  Co3  1  0.50000000  0.16666700  0.50000000  1
  Co  Co4  1  0.53337516  0.49564990  0.50000000  1
  Co  Co5  1  0.46662484  0.83768310  0.50000000  1
  O  O6  1  0.23949098  0.27041407  0.50000000  1
  O  O7  1  0.28515005  0.77323262  0.00000000  1
  O  O8  1  0.36331426  0.42994869  0.00000000  1
  O  O9  1  0.71484995  0.56010038  0.00000000  1
  O  O10  1  0.63668574  0.90338531  0.00000000  1
  O  O11  1  0.76050902  0.06291893  0.50000000  1
  F  F12  1  0.11006139  0.93903326  0.50000000  1
  F  F13  1  0.21036727  0.60043293  0.50000000  1
  F  F14  1  0.25122987  0.09661698  0.00000000  1
  F  F15  1  0.74877013  0.23671602  0.00000000  1
  F  F16  1  0.88993861  0.39430074  0.50000000  1
  F  F17  1  0.78963273  0.73290007  0.50000000  1
