# generated using pymatgen
data_MnAlBiO5
_symmetry_space_group_name_H-M   'P 1'
_cell_length_a   5.77672379
_cell_length_b   7.48662127
_cell_length_c   8.53087350
_cell_angle_alpha   90.00000000
_cell_angle_beta   90.00000000
_cell_angle_gamma   90.00000000
_symmetry_Int_Tables_number   1
_chemical_formula_structural   MnAlBiO5
_chemical_formula_sum   'Mn4 Al4 Bi4 O20'
_cell_volume   368.94443872
_cell_formula_units_Z   4
loop_
 _symmetry_equiv_pos_site_id
 _symmetry_equiv_pos_as_xyz
  1  'x, y, z'
loop_
 _atom_site_type_symbol
 _atom_site_label
 _atom_site_symmetry_multiplicity
 _atom_site_fract_x
 _atom_site_fract_y
 _atom_site_fract_z
 _atom_site_occupancy
  Mn  Mn0  1  0.24261723  -0.00000000  0.50000000  1
  Mn  Mn1  1  0.75738277  -0.00000000  0.50000000  1
  Mn  Mn2  1  0.75738277  0.50000000  -0.00000000  1
  Mn  Mn3  1  0.24261723  0.50000000  0.00000000  1
  Al  Al4  1  0.00000000  0.11207352  0.14234738  1
  Al  Al5  1  0.00000000  0.88792648  0.85765262  1
  Al  Al6  1  -0.00000000  0.38792648  0.64234738  1
  Al  Al7  1  -0.00000000  0.61207352  0.35765262  1
  Bi  Bi8  1  0.50000000  0.35914405  0.33542338  1
  Bi  Bi9  1  0.50000000  0.64085595  0.66457662  1
  Bi  Bi10  1  0.50000000  0.14085595  0.83542338  1
  Bi  Bi11  1  0.50000000  0.85914405  0.16457662  1
  O  O12  1  0.00000000  0.34513116  0.07456105  1
  O  O13  1  0.00000000  0.65486884  0.92543895  1
  O  O14  1  0.00000000  0.15486884  0.57456105  1
  O  O15  1  0.00000000  0.84513116  0.42543895  1
  O  O16  1  0.20844797  -0.00000000  -0.00000000  1
  O  O17  1  0.79155203  0.00000000  -0.00000000  1
  O  O18  1  0.79155203  0.50000000  0.50000000  1
  O  O19  1  0.20844797  0.50000000  0.50000000  1
  O  O20  1  0.24096072  0.10888064  0.29317848  1
  O  O21  1  0.75903928  0.89111936  0.70682152  1
  O  O22  1  0.24096072  0.89111936  0.70682152  1
  O  O23  1  0.75903928  0.39111936  0.79317848  1
  O  O24  1  0.75903928  0.10888064  0.29317848  1
  O  O25  1  0.24096072  0.60888064  0.20682152  1
  O  O26  1  0.75903928  0.60888064  0.20682152  1
  O  O27  1  0.24096072  0.39111936  0.79317848  1
  O  O28  1  0.50000000  0.34451044  0.05454155  1
  O  O29  1  0.50000000  0.65548956  0.94545845  1
  O  O30  1  0.50000000  0.15548956  0.55454155  1
  O  O31  1  0.50000000  0.84451044  0.44545845  1
