# generated using pymatgen
data_La6Al4Fe9As
_symmetry_space_group_name_H-M   'P 1'
_cell_length_a   8.16245822
_cell_length_b   8.16245822
_cell_length_c   13.22960410
_cell_angle_alpha   107.96838438
_cell_angle_beta   107.96838438
_cell_angle_gamma   90.00000000
_symmetry_Int_Tables_number   1
_chemical_formula_structural   La6Al4Fe9As
_chemical_formula_sum   'La12 Al8 Fe18 As2'
_cell_volume   793.12478399
_cell_formula_units_Z   2
loop_
 _symmetry_equiv_pos_site_id
 _symmetry_equiv_pos_as_xyz
  1  'x, y, z'
loop_
 _atom_site_type_symbol
 _atom_site_label
 _atom_site_symmetry_multiplicity
 _atom_site_fract_x
 _atom_site_fract_y
 _atom_site_fract_z
 _atom_site_occupancy
  La  La0  1  0.10537455  0.10537455  0.21074910  1
  La  La1  1  0.89462545  0.89462545  0.78925090  1
  La  La2  1  0.39462545  0.39462545  0.78925090  1
  La  La3  1  0.60537455  0.60537455  0.21074910  1
  La  La4  1  0.35594935  0.85594935  0.37831069  1
  La  La5  1  0.64405065  0.14405065  0.62168931  1
  La  La6  1  0.02236133  0.52236133  0.37831069  1
  La  La7  1  0.52236133  0.35594935  0.37831069  1
  La  La8  1  0.14405065  0.97763867  0.62168931  1
  La  La9  1  0.97763867  0.47763867  0.62168931  1
  La  La10  1  0.47763867  0.64405065  0.62168931  1
  La  La11  1  0.85594935  0.02236133  0.37831069  1
  Al  Al12  1  0.70960040  0.20960040  0.18253216  1
  Al  Al13  1  0.29039960  0.79039960  0.81746784  1
  Al  Al14  1  0.47293176  0.97293176  0.18253216  1
  Al  Al15  1  0.97293176  0.70960040  0.18253216  1
  Al  Al16  1  0.79039960  0.52706824  0.81746784  1
  Al  Al17  1  0.52706824  0.02706824  0.81746784  1
  Al  Al18  1  0.02706824  0.29039960  0.81746784  1
  Al  Al19  1  0.20960040  0.47293176  0.18253216  1
  Fe  Fe20  1  0.06735780  0.21096559  -0.00000000  1
  Fe  Fe21  1  0.93264220  0.78903441  -0.00000000  1
  Fe  Fe22  1  0.78903441  0.06735780  -0.00000000  1
  Fe  Fe23  1  0.43264220  0.71096559  -0.00000000  1
  Fe  Fe24  1  0.21096559  0.93264220  -0.00000000  1
  Fe  Fe25  1  0.56735780  0.28903441  -0.00000000  1
  Fe  Fe26  1  0.71096559  0.56735780  -0.00000000  1
  Fe  Fe27  1  0.28903441  0.43264220  -0.00000000  1
  Fe  Fe28  1  -0.00000000  0.50000000  -0.00000000  1
  Fe  Fe29  1  0.50000000  -0.00000000  -0.00000000  1
  Fe  Fe30  1  0.23178370  0.73178370  0.11137449  1
  Fe  Fe31  1  0.76821630  0.26821630  0.88862551  1
  Fe  Fe32  1  0.87959079  0.37959079  0.11137449  1
  Fe  Fe33  1  0.37959079  0.23178370  0.11137449  1
  Fe  Fe34  1  0.26821630  0.12040921  0.88862551  1
  Fe  Fe35  1  0.12040921  0.62040921  0.88862551  1
  Fe  Fe36  1  0.62040921  0.76821630  0.88862551  1
  Fe  Fe37  1  0.73178370  0.87959079  0.11137449  1
  As  As38  1  0.25000000  0.25000000  0.50000000  1
  As  As39  1  0.75000000  0.75000000  0.50000000  1
