# generated using pymatgen
data_Li3Yb2(BO3)3
_symmetry_space_group_name_H-M   'P 1'
_cell_length_a   5.89298393
_cell_length_b   8.93295329
_cell_length_c   13.62633577
_cell_angle_alpha   90.00000000
_cell_angle_beta   90.00000000
_cell_angle_gamma   103.94771952
_symmetry_Int_Tables_number   1
_chemical_formula_structural   Li3Yb2(BO3)3
_chemical_formula_sum   'Li12 Yb8 B12 O36'
_cell_volume   696.16492175
_cell_formula_units_Z   4
loop_
 _symmetry_equiv_pos_site_id
 _symmetry_equiv_pos_as_xyz
  1  'x, y, z'
loop_
 _atom_site_type_symbol
 _atom_site_label
 _atom_site_symmetry_multiplicity
 _atom_site_fract_x
 _atom_site_fract_y
 _atom_site_fract_z
 _atom_site_occupancy
  Li  Li0  1  0.06807131  0.98508554  0.66415790  1
  Li  Li1  1  0.93192869  0.01491446  0.33584210  1
  Li  Li2  1  0.43192869  0.51491446  0.16415790  1
  Li  Li3  1  0.56807131  0.48508554  0.83584210  1
  Li  Li4  1  0.79197470  0.71742444  0.21945775  1
  Li  Li5  1  0.20802530  0.28257556  0.78054225  1
  Li  Li6  1  0.70802530  0.78257556  0.71945775  1
  Li  Li7  1  0.29197470  0.21742444  0.28054225  1
  Li  Li8  1  0.16398238  0.70571433  0.11338096  1
  Li  Li9  1  0.83601762  0.29428567  0.88661904  1
  Li  Li10  1  0.33601762  0.79428567  0.61338096  1
  Li  Li11  1  0.66398238  0.20571433  0.38661904  1
  Yb  Yb12  1  0.36528665  0.78941152  0.34122605  1
  Yb  Yb13  1  0.63471335  0.21058848  0.65877395  1
  Yb  Yb14  1  0.13471335  0.71058848  0.84122605  1
  Yb  Yb15  1  0.86528665  0.28941152  0.15877395  1
  Yb  Yb16  1  0.82998260  0.66313386  0.49416390  1
  Yb  Yb17  1  0.17001740  0.33686614  0.50583610  1
  Yb  Yb18  1  0.67001740  0.83686614  0.99416390  1
  Yb  Yb19  1  0.32998260  0.16313386  0.00583610  1
  B  B20  1  0.75044631  0.51127854  0.01480046  1
  B  B21  1  0.24955369  0.48872146  0.98519954  1
  B  B22  1  0.74955369  0.98872146  0.51480046  1
  B  B23  1  0.25044631  0.01127854  0.48519954  1
  B  B24  1  0.08135929  0.96941189  0.16353032  1
  B  B25  1  0.91864071  0.03058811  0.83646968  1
  B  B26  1  0.41864071  0.53058811  0.66353032  1
  B  B27  1  0.58135929  0.46941189  0.33646968  1
  B  B28  1  0.58387258  0.97260810  0.17884507  1
  B  B29  1  0.41612742  0.02739190  0.82115493  1
  B  B30  1  0.91612742  0.52739190  0.67884507  1
  B  B31  1  0.08387258  0.47260810  0.32115493  1
  O  O32  1  0.76885201  0.58668157  0.10374190  1
  O  O33  1  0.23114799  0.41331843  0.89625810  1
  O  O34  1  0.73114799  0.91331843  0.60374190  1
  O  O35  1  0.26885201  0.08668157  0.39625810  1
  O  O36  1  0.09418951  0.56055704  0.40422536  1
  O  O37  1  0.90581049  0.43944296  0.59577464  1
  O  O38  1  0.40581049  0.93944296  0.90422536  1
  O  O39  1  0.59418951  0.06055704  0.09577464  1
  O  O40  1  0.07377735  0.87910779  0.24640825  1
  O  O41  1  0.92622265  0.12089221  0.75359175  1
  O  O42  1  0.42622265  0.62089221  0.74640825  1
  O  O43  1  0.57377735  0.37910779  0.25359175  1
  O  O44  1  0.70788385  0.89524445  0.43348251  1
  O  O45  1  0.29211615  0.10475555  0.56651749  1
  O  O46  1  0.79211615  0.60475555  0.93348251  1
  O  O47  1  0.20788385  0.39524445  0.06651749  1
  O  O48  1  0.03794702  0.89371252  0.07493924  1
  O  O49  1  0.96205298  0.10628748  0.92506076  1
  O  O50  1  0.46205298  0.60628748  0.57493924  1
  O  O51  1  0.53794702  0.39371252  0.42506076  1
  O  O52  1  0.52708995  0.81373169  0.17340415  1
  O  O53  1  0.47291005  0.18626831  0.82659585  1
  O  O54  1  0.97291005  0.68626831  0.67340415  1
  O  O55  1  0.02708995  0.31373169  0.32659585  1
  O  O56  1  0.19071220  0.85381017  0.49046777  1
  O  O57  1  0.80928780  0.14618983  0.50953223  1
  O  O58  1  0.30928780  0.64618983  0.99046777  1
  O  O59  1  0.69071220  0.35381017  0.00953223  1
  O  O60  1  0.14198862  0.54858855  0.23275347  1
  O  O61  1  0.85801138  0.45141145  0.76724653  1
  O  O62  1  0.35801138  0.95141145  0.73275347  1
  O  O63  1  0.64198862  0.04858855  0.26724653  1
  O  O64  1  0.62661741  0.62630802  0.33476367  1
  O  O65  1  0.37338259  0.37369198  0.66523633  1
  O  O66  1  0.87338259  0.87369198  0.83476367  1
  O  O67  1  0.12661741  0.12630802  0.16523633  1
