# generated using pymatgen
data_NaCaZrFeSi2O8F
_symmetry_space_group_name_H-M   'P 1'
_cell_length_a   7.28162247
_cell_length_b   10.05266246
_cell_length_c   10.94875340
_cell_angle_alpha   90.00000000
_cell_angle_beta   108.03282383
_cell_angle_gamma   90.00000000
_symmetry_Int_Tables_number   1
_chemical_formula_structural   NaCaZrFeSi2O8F
_chemical_formula_sum   'Na4 Ca4 Zr4 Fe4 Si8 O32 F4'
_cell_volume   762.07785080
_cell_formula_units_Z   4
loop_
 _symmetry_equiv_pos_site_id
 _symmetry_equiv_pos_as_xyz
  1  'x, y, z'
loop_
 _atom_site_type_symbol
 _atom_site_label
 _atom_site_symmetry_multiplicity
 _atom_site_fract_x
 _atom_site_fract_y
 _atom_site_fract_z
 _atom_site_occupancy
  Na  Na0  1  0.33791173  0.11724991  0.42827779  1
  Na  Na1  1  0.66208827  0.88275009  0.57172221  1
  Na  Na2  1  0.66208827  0.61724991  0.07172221  1
  Na  Na3  1  0.33791173  0.38275009  0.92827779  1
  Ca  Ca4  1  0.52537244  0.39295628  0.30416097  1
  Ca  Ca5  1  0.47462756  0.60704372  0.69583903  1
  Ca  Ca6  1  0.47462756  0.89295628  0.19583903  1
  Ca  Ca7  1  0.52537244  0.10704372  0.80416097  1
  Zr  Zr8  1  0.02111538  0.40033777  0.28716692  1
  Zr  Zr9  1  0.97888462  0.59966223  0.71283308  1
  Zr  Zr10  1  0.97888462  0.90033777  0.21283308  1
  Zr  Zr11  1  0.02111538  0.09966223  0.78716692  1
  Fe  Fe12  1  0.13371458  0.62747197  0.05782306  1
  Fe  Fe13  1  0.86628542  0.37252803  0.94217694  1
  Fe  Fe14  1  0.86628542  0.12747197  0.44217694  1
  Fe  Fe15  1  0.13371458  0.87252803  0.55782306  1
  Si  Si16  1  0.67040085  0.17200386  0.11750741  1
  Si  Si17  1  0.32959915  0.82799614  0.88249259  1
  Si  Si18  1  0.32959915  0.67200386  0.38249259  1
  Si  Si19  1  0.67040085  0.32799614  0.61750741  1
  Si  Si20  1  0.21944714  0.16937399  0.12013562  1
  Si  Si21  1  0.78055286  0.83062601  0.87986438  1
  Si  Si22  1  0.78055286  0.66937399  0.37986438  1
  Si  Si23  1  0.21944714  0.33062601  0.62013562  1
  O  O24  1  0.09254606  0.27986792  0.47866208  1
  O  O25  1  0.90745394  0.72013208  0.52133792  1
  O  O26  1  0.90745394  0.77986792  0.02133792  1
  O  O27  1  0.09254606  0.22013208  0.97866208  1
  O  O28  1  0.20584361  0.75364297  0.25317083  1
  O  O29  1  0.79415639  0.24635703  0.74682917  1
  O  O30  1  0.79415639  0.25364297  0.24682917  1
  O  O31  1  0.20584361  0.74635703  0.75317083  1
  O  O32  1  0.26962220  0.51418688  0.37548300  1
  O  O33  1  0.73037780  0.48581312  0.62451700  1
  O  O34  1  0.73037780  0.01418688  0.12451700  1
  O  O35  1  0.26962220  0.98581312  0.87548300  1
  O  O36  1  0.21662467  0.26559998  0.24097939  1
  O  O37  1  0.78337533  0.73440002  0.75902061  1
  O  O38  1  0.78337533  0.76559998  0.25902061  1
  O  O39  1  0.21662467  0.23440002  0.74097939  1
  O  O40  1  0.17809680  0.01597611  0.15342376  1
  O  O41  1  0.82190320  0.98402389  0.84657624  1
  O  O42  1  0.82190320  0.51597611  0.34657624  1
  O  O43  1  0.17809680  0.48402389  0.65342376  1
  O  O44  1  0.45062978  0.17125870  0.13034110  1
  O  O45  1  0.54937022  0.82874130  0.86965890  1
  O  O46  1  0.54937022  0.67125870  0.36965890  1
  O  O47  1  0.45062978  0.32874130  0.63034110  1
  O  O48  1  0.33646216  0.75731948  0.01666539  1
  O  O49  1  0.66353784  0.24268052  0.98333461  1
  O  O50  1  0.66353784  0.25731948  0.48333461  1
  O  O51  1  0.33646216  0.74268052  0.51666539  1
  O  O52  1  0.04131812  0.51271132  0.88271027  1
  O  O53  1  0.95868188  0.48728868  0.11728973  1
  O  O54  1  0.95868188  0.01271132  0.61728973  1
  O  O55  1  0.04131812  0.98728868  0.38271027  1
  F  F56  1  0.41047211  0.49636326  0.11670856  1
  F  F57  1  0.58952789  0.50363674  0.88329144  1
  F  F58  1  0.58952789  0.99636326  0.38329144  1
  F  F59  1  0.41047211  0.00363674  0.61670856  1
