# generated using pymatgen
data_CsYbMnSe3
_symmetry_space_group_name_H-M   'P 1'
_cell_length_a   4.29278125
_cell_length_b   8.25284973
_cell_length_c   11.41116813
_cell_angle_alpha   90.00000000
_cell_angle_beta   90.00000000
_cell_angle_gamma   105.07473336
_symmetry_Int_Tables_number   1
_chemical_formula_structural   CsYbMnSe3
_chemical_formula_sum   'Cs2 Yb2 Mn2 Se6'
_cell_volume   390.35917995
_cell_formula_units_Z   2
loop_
 _symmetry_equiv_pos_site_id
 _symmetry_equiv_pos_as_xyz
  1  'x, y, z'
loop_
 _atom_site_type_symbol
 _atom_site_label
 _atom_site_symmetry_multiplicity
 _atom_site_fract_x
 _atom_site_fract_y
 _atom_site_fract_z
 _atom_site_occupancy
  Cs  Cs0  1  0.74207440  0.48414879  0.25000000  1
  Cs  Cs1  1  0.25792560  0.51585121  0.75000000  1
  Yb  Yb2  1  0.00000000  0.00000000  0.00000000  1
  Yb  Yb3  1  0.00000000  -0.00000000  0.50000000  1
  Mn  Mn4  1  0.46214493  0.92428987  0.25000000  1
  Mn  Mn5  1  0.53785507  0.07571013  0.75000000  1
  Se  Se6  1  0.38511637  0.77023273  0.07170131  1
  Se  Se7  1  0.61488363  0.22976727  0.92829869  1
  Se  Se8  1  0.61488363  0.22976727  0.57170131  1
  Se  Se9  1  0.38511637  0.77023273  0.42829869  1
  Se  Se10  1  0.04320529  0.08641058  0.25000000  1
  Se  Se11  1  0.95679471  0.91358942  0.75000000  1
