# generated using pymatgen
data_CsH2CN5
_symmetry_space_group_name_H-M   'P 1'
_cell_length_a   6.90210269
_cell_length_b   8.50640927
_cell_length_c   9.17157437
_cell_angle_alpha   90.00000000
_cell_angle_beta   90.00000000
_cell_angle_gamma   90.00000000
_symmetry_Int_Tables_number   1
_chemical_formula_structural   CsH2CN5
_chemical_formula_sum   'Cs4 H8 C4 N20'
_cell_volume   538.48248608
_cell_formula_units_Z   4
loop_
 _symmetry_equiv_pos_site_id
 _symmetry_equiv_pos_as_xyz
  1  'x, y, z'
loop_
 _atom_site_type_symbol
 _atom_site_label
 _atom_site_symmetry_multiplicity
 _atom_site_fract_x
 _atom_site_fract_y
 _atom_site_fract_z
 _atom_site_occupancy
  Cs  Cs0  1  0.75000000  0.98435335  0.29679329  1
  Cs  Cs1  1  0.25000000  0.01564665  0.70320671  1
  Cs  Cs2  1  0.25000000  0.51564665  0.79679329  1
  Cs  Cs3  1  0.75000000  0.48435335  0.20320671  1
  H  H4  1  0.87439661  0.70036464  0.57567264  1
  H  H5  1  0.12560339  0.29963536  0.42432736  1
  H  H6  1  0.12560339  0.79963536  0.07567264  1
  H  H7  1  0.37439661  0.29963536  0.42432736  1
  H  H8  1  0.87439661  0.20036464  0.92432736  1
  H  H9  1  0.62560339  0.70036464  0.57567264  1
  H  H10  1  0.62560339  0.20036464  0.92432736  1
  H  H11  1  0.37439661  0.79963536  0.07567264  1
  C  C12  1  0.75000000  0.77532020  0.76303607  1
  C  C13  1  0.25000000  0.22467980  0.23696393  1
  C  C14  1  0.25000000  0.72467980  0.26303607  1
  C  C15  1  0.75000000  0.27532020  0.73696393  1
  N  N16  1  0.75000000  0.75157820  0.61382820  1
  N  N17  1  0.25000000  0.24842180  0.38617180  1
  N  N18  1  0.25000000  0.74842180  0.11382820  1
  N  N19  1  0.75000000  0.25157820  0.88617180  1
  N  N20  1  0.84524696  0.81606067  0.98169645  1
  N  N21  1  0.15475304  0.18393933  0.01830355  1
  N  N22  1  0.15475304  0.68393933  0.48169645  1
  N  N23  1  0.34524696  0.18393933  0.01830355  1
  N  N24  1  0.84524696  0.31606067  0.51830355  1
  N  N25  1  0.65475304  0.81606067  0.98169645  1
  N  N26  1  0.65475304  0.31606067  0.51830355  1
  N  N27  1  0.34524696  0.68393933  0.48169645  1
  N  N28  1  0.91187438  0.79150088  0.84437623  1
  N  N29  1  0.08812562  0.20849912  0.15562377  1
  N  N30  1  0.08812562  0.70849912  0.34437623  1
  N  N31  1  0.41187438  0.20849912  0.15562377  1
  N  N32  1  0.91187438  0.29150088  0.65562377  1
  N  N33  1  0.58812562  0.79150088  0.84437623  1
  N  N34  1  0.58812562  0.29150088  0.65562377  1
  N  N35  1  0.41187438  0.70849912  0.34437623  1
