# generated using pymatgen
data_H8C3S(N3O2)2
_symmetry_space_group_name_H-M   'P 1'
_cell_length_a   8.65246703
_cell_length_b   10.47450504
_cell_length_c   11.54786552
_cell_angle_alpha   72.18795925
_cell_angle_beta   67.99825042
_cell_angle_gamma   65.60499085
_symmetry_Int_Tables_number   1
_chemical_formula_structural   H8C3S(N3O2)2
_chemical_formula_sum   'H32 C12 S4 N24 O16'
_cell_volume   869.45562161
_cell_formula_units_Z   4
loop_
 _symmetry_equiv_pos_site_id
 _symmetry_equiv_pos_as_xyz
  1  'x, y, z'
loop_
 _atom_site_type_symbol
 _atom_site_label
 _atom_site_symmetry_multiplicity
 _atom_site_fract_x
 _atom_site_fract_y
 _atom_site_fract_z
 _atom_site_occupancy
  H  H0  1  0.64359375  0.32951957  0.22777301  1
  H  H1  1  0.35640625  0.67048043  0.77222699  1
  H  H2  1  0.20088633  0.17048043  0.27222699  1
  H  H3  1  0.79911367  0.82951957  0.72777301  1
  H  H4  1  0.18615716  0.85946584  0.00596805  1
  H  H5  1  0.81384284  0.14053416  0.99403195  1
  H  H6  1  0.05159105  0.64053416  0.49403195  1
  H  H7  1  0.94840895  0.35946584  0.50596805  1
  H  H8  1  0.72745514  0.66439331  0.43616928  1
  H  H9  1  0.27254486  0.33560669  0.56383072  1
  H  H10  1  0.82801773  0.83560669  0.06383072  1
  H  H11  1  0.17198227  0.16439331  0.93616928  1
  H  H12  1  0.16625064  0.69193075  0.08702587  1
  H  H13  1  0.83374936  0.30806925  0.91297413  1
  H  H14  1  0.94520726  0.80806925  0.41297413  1
  H  H15  1  0.05479274  0.19193075  0.58702587  1
  H  H16  1  0.57436157  0.89304233  0.37260665  1
  H  H17  1  0.42563843  0.10695767  0.62739335  1
  H  H18  1  0.84001054  0.60695767  0.12739335  1
  H  H19  1  0.15998946  0.39304233  0.87260665  1
  H  H20  1  0.63497167  0.52776230  0.49151649  1
  H  H21  1  0.36502833  0.47223770  0.50848351  1
  H  H22  1  0.65425046  0.97223770  0.00848351  1
  H  H23  1  0.34574954  0.02776230  0.99151649  1
  H  H24  1  0.41651084  0.12292516  0.28687467  1
  H  H25  1  0.58348916  0.87707484  0.71312533  1
  H  H26  1  0.82631067  0.37707484  0.21312533  1
  H  H27  1  0.17368933  0.62292516  0.78687467  1
  H  H28  1  0.38999084  0.51284033  0.15959570  1
  H  H29  1  0.61000916  0.48715967  0.84040430  1
  H  H30  1  0.06242687  0.98715967  0.34040430  1
  H  H31  1  0.93757313  0.01284033  0.65959570  1
  C  C32  1  0.62589159  0.53963620  0.15162349  1
  C  C33  1  0.37410841  0.46036380  0.84837651  1
  C  C34  1  0.31715128  0.96036380  0.34837651  1
  C  C35  1  0.68284872  0.03963620  0.65162349  1
  C  C36  1  0.47124216  0.72484367  0.43352209  1
  C  C37  1  0.52875784  0.27515633  0.56647791  1
  C  C38  1  0.62960791  0.77515633  0.06647791  1
  C  C39  1  0.37039209  0.22484367  0.93352209  1
  C  C40  1  0.39083883  0.72439300  0.07817118  1
  C  C41  1  0.60916117  0.27560700  0.92182882  1
  C  C42  1  0.19340301  0.77560700  0.42182882  1
  C  C43  1  0.80659699  0.22439300  0.57817118  1
  S  S44  1  0.77951605  0.04002044  0.27106171  1
  S  S45  1  0.22048395  0.95997956  0.72893829  1
  S  S46  1  0.09059819  0.45997956  0.22893829  1
  S  S47  1  0.90940181  0.54002044  0.77106171  1
  N  N48  1  0.62008565  0.63437692  0.46050234  1
  N  N49  1  0.37991435  0.36562308  0.53949766  1
  N  N50  1  0.71496490  0.86562308  0.03949766  1
  N  N51  1  0.28503510  0.13437692  0.96050234  1
  N  N52  1  0.23641343  0.76108878  0.05826048  1
  N  N53  1  0.76358657  0.23891122  0.94173952  1
  N  N54  1  0.05576269  0.73891122  0.44173952  1
  N  N55  1  0.94423731  0.26108878  0.55826048  1
  N  N56  1  0.31042209  0.09265738  0.29786556  1
  N  N57  1  0.68957791  0.90734262  0.70213444  1
  N  N58  1  0.70094503  0.40734262  0.20213444  1
  N  N59  1  0.29905497  0.59265738  0.79786556  1
  N  N60  1  0.47093175  0.82129058  0.04682707  1
  N  N61  1  0.52906825  0.17870942  0.95317293  1
  N  N62  1  0.33904940  0.67870942  0.45317293  1
  N  N63  1  0.66095060  0.32129058  0.54682707  1
  N  N64  1  0.46342278  0.58544823  0.13442802  1
  N  N65  1  0.53657722  0.41455177  0.86557198  1
  N  N66  1  0.18329904  0.91455177  0.36557198  1
  N  N67  1  0.81670096  0.08544823  0.63442802  1
  N  N68  1  0.46197024  0.86388255  0.38381257  1
  N  N69  1  0.53802976  0.13611745  0.61618743  1
  N  N70  1  0.70966536  0.63611745  0.11618743  1
  N  N71  1  0.29033464  0.36388255  0.88381257  1
  O  O72  1  0.28819057  0.41770226  0.18232490  1
  O  O73  1  0.71180943  0.58229774  0.81767510  1
  O  O74  1  0.88821772  0.08229774  0.31767510  1
  O  O75  1  0.11178228  0.91770226  0.68232490  1
  O  O76  1  0.87235534  0.00793860  0.14165500  1
  O  O77  1  0.12764466  0.99206140  0.85834500  1
  O  O78  1  0.02194895  0.49206140  0.35834500  1
  O  O79  1  0.97805105  0.50793860  0.64165500  1
  O  O80  1  0.60526475  0.15710789  0.27687132  1
  O  O81  1  0.39473525  0.84289211  0.72312868  1
  O  O82  1  0.03924396  0.34289211  0.22312868  1
  O  O83  1  0.96075604  0.65710789  0.77687132  1
  O  O84  1  0.74650075  0.90790613  0.36205691  1
  O  O85  1  0.25349925  0.09209387  0.63794309  1
  O  O86  1  0.01646379  0.59209387  0.13794309  1
  O  O87  1  0.98353621  0.40790613  0.86205691  1
