# generated using pymatgen
data_Li10Mn3Co2Ni3O16
_symmetry_space_group_name_H-M   'P 1'
_cell_length_a   5.95212677
_cell_length_b   5.94317807
_cell_length_c   9.77606249
_cell_angle_alpha   91.03522735
_cell_angle_beta   89.19428530
_cell_angle_gamma   60.34623582
_symmetry_Int_Tables_number   1
_chemical_formula_structural   Li10Mn3Co2Ni3O16
_chemical_formula_sum   'Li10 Mn3 Co2 Ni3 O16'
_cell_volume   300.37727166
_cell_formula_units_Z   1
loop_
 _symmetry_equiv_pos_site_id
 _symmetry_equiv_pos_as_xyz
  1  'x, y, z'
loop_
 _atom_site_type_symbol
 _atom_site_label
 _atom_site_symmetry_multiplicity
 _atom_site_fract_x
 _atom_site_fract_y
 _atom_site_fract_z
 _atom_site_occupancy
  Li  Li0  1  0.20253111  0.16779177  0.07026386  1
  Li  Li1  1  0.58304798  0.19252070  0.05772417  1
  Li  Li2  1  0.31899559  0.35740800  0.28163041  1
  Li  Li3  1  0.81765982  0.78315945  0.54595896  1
  Li  Li4  1  0.79613361  0.39705667  0.55386828  1
  Li  Li5  1  0.63644823  0.69321269  0.77997689  1
  Li  Li6  1  0.18863658  0.63414880  0.06760102  1
  Li  Li7  1  0.38013691  0.77900323  0.54651458  1
  Li  Li8  1  0.96686973  0.03260451  0.98457395  1
  Li  Li9  1  0.98374035  0.02004457  0.47838647  1
  Mn  Mn10  1  0.82335535  0.35010499  0.28302449  1
  Mn  Mn11  1  0.64033438  0.18952224  0.78254871  1
  Mn  Mn12  1  0.14785613  0.18992528  0.78439389  1
  Co  Co13  1  0.65894026  0.68295215  0.03308097  1
  Co  Co14  1  0.31828437  0.34958109  0.52509606  1
  Ni  Ni15  1  0.14534216  0.68690693  0.78687683  1
  Ni  Ni16  1  0.82323968  0.84265125  0.28653003  1
  Ni  Ni17  1  0.32950725  0.84212907  0.28839937  1
  O  O18  1  0.99095878  0.02461035  0.17302781  1
  O  O19  1  0.97279876  0.03828218  0.67654333  1
  O  O20  1  0.66233872  0.19685501  0.40097446  1
  O  O21  1  0.81280099  0.35096522  0.89417245  1
  O  O22  1  0.98426524  0.50083349  0.16369118  1
  O  O23  1  0.47316553  0.03100514  0.66714929  1
  O  O24  1  0.52025832  0.49947592  0.16208237  1
  O  O25  1  0.31898885  0.34051739  0.89667230  1
  O  O26  1  0.66386780  0.66110829  0.40352872  1
  O  O27  1  0.48799797  0.49195700  0.67061388  1
  O  O28  1  0.12909771  0.20066698  0.40130402  1
  O  O29  1  0.79252020  0.88449471  0.90048142  1
  O  O30  1  0.00402029  0.49250100  0.67114838  1
  O  O31  1  0.50981068  0.98108605  0.16360497  1
  O  O32  1  0.15238751  0.68758013  0.41893227  1
  O  O33  1  0.29183817  0.88685574  0.90092420  1
