# generated using pymatgen
data_Ga(Ni3B2)4
_symmetry_space_group_name_H-M   'P 1'
_cell_length_a   8.99556208
_cell_length_b   8.99556208
_cell_length_c   14.57125180
_cell_angle_alpha   90.00000000
_cell_angle_beta   90.00000000
_cell_angle_gamma   107.91189860
_symmetry_Int_Tables_number   1
_chemical_formula_structural   Ga(Ni3B2)4
_chemical_formula_sum   'Ga6 Ni72 B48'
_cell_volume   1121.95699789
_cell_formula_units_Z   6
loop_
 _symmetry_equiv_pos_site_id
 _symmetry_equiv_pos_as_xyz
  1  'x, y, z'
loop_
 _atom_site_type_symbol
 _atom_site_label
 _atom_site_symmetry_multiplicity
 _atom_site_fract_x
 _atom_site_fract_y
 _atom_site_fract_z
 _atom_site_occupancy
  Ga  Ga0  1  0.73210667  0.26789333  0.76114326  1
  Ga  Ga1  1  0.26789333  0.73210667  0.23885674  1
  Ga  Ga2  1  0.76789333  0.23210667  0.26114326  1
  Ga  Ga3  1  0.23210667  0.76789333  0.73885674  1
  Ga  Ga4  1  0.00000000  0.00000000  0.00000000  1
  Ga  Ga5  1  0.50000000  0.50000000  0.50000000  1
  Ni  Ni6  1  0.69868174  0.96462968  0.99794941  1
  Ni  Ni7  1  0.30131826  0.03537032  0.00205059  1
  Ni  Ni8  1  0.80131826  0.53537032  0.49794941  1
  Ni  Ni9  1  0.53537032  0.80131826  0.50205059  1
  Ni  Ni10  1  0.19868174  0.46462968  0.50205059  1
  Ni  Ni11  1  0.46462968  0.19868174  0.49794941  1
  Ni  Ni12  1  0.96462968  0.69868174  0.00205059  1
  Ni  Ni13  1  0.03537032  0.30131826  0.99794941  1
  Ni  Ni14  1  0.39656264  0.86961545  0.89648292  1
  Ni  Ni15  1  0.60343736  0.13038455  0.10351708  1
  Ni  Ni16  1  0.10343736  0.63038455  0.39648292  1
  Ni  Ni17  1  0.63038455  0.10343736  0.60351708  1
  Ni  Ni18  1  0.89656264  0.36961545  0.60351708  1
  Ni  Ni19  1  0.36961545  0.89656264  0.39648292  1
  Ni  Ni20  1  0.86961545  0.39656264  0.10351708  1
  Ni  Ni21  1  0.13038455  0.60343736  0.89648292  1
  Ni  Ni22  1  0.82309022  0.84132461  0.86761578  1
  Ni  Ni23  1  0.17690978  0.15867539  0.13238422  1
  Ni  Ni24  1  0.67690978  0.65867539  0.36761578  1
  Ni  Ni25  1  0.65867539  0.67690978  0.63238422  1
  Ni  Ni26  1  0.32309022  0.34132461  0.63238422  1
  Ni  Ni27  1  0.34132461  0.32309022  0.36761578  1
  Ni  Ni28  1  0.84132461  0.82309022  0.13238422  1
  Ni  Ni29  1  0.15867539  0.17690978  0.86761578  1
  Ni  Ni30  1  0.44968435  0.28700991  0.77929239  1
  Ni  Ni31  1  0.55031565  0.71299009  0.22070761  1
  Ni  Ni32  1  0.05031565  0.21299009  0.27929239  1
  Ni  Ni33  1  0.21299009  0.05031565  0.72070761  1
  Ni  Ni34  1  0.94968435  0.78700991  0.72070761  1
  Ni  Ni35  1  0.78700991  0.94968435  0.27929239  1
  Ni  Ni36  1  0.28700991  0.44968435  0.22070761  1
  Ni  Ni37  1  0.71299009  0.55031565  0.77929239  1
  Ni  Ni38  1  0.57566478  0.42433522  0.92127134  1
  Ni  Ni39  1  0.42433522  0.57566478  0.07872866  1
  Ni  Ni40  1  0.92433522  0.07566478  0.42127134  1
  Ni  Ni41  1  0.07566478  0.92433522  0.57872866  1
  Ni  Ni42  1  0.61724597  0.38275403  0.63028588  1
  Ni  Ni43  1  0.38275403  0.61724597  0.36971412  1
  Ni  Ni44  1  0.88275403  0.11724597  0.13028588  1
  Ni  Ni45  1  0.11724597  0.88275403  0.86971412  1
  Ni  Ni46  1  0.58202784  0.14878898  0.91217906  1
  Ni  Ni47  1  0.41797216  0.85121102  0.08782094  1
  Ni  Ni48  1  0.91797216  0.35121102  0.41217906  1
  Ni  Ni49  1  0.35121102  0.91797216  0.58782094  1
  Ni  Ni50  1  0.08202784  0.64878898  0.58782094  1
  Ni  Ni51  1  0.64878898  0.08202784  0.41217906  1
  Ni  Ni52  1  0.14878898  0.58202784  0.08782094  1
  Ni  Ni53  1  0.85121102  0.41797216  0.91217906  1
  Ni  Ni54  1  0.86261531  0.13738469  0.87499773  1
  Ni  Ni55  1  0.13738469  0.86261531  0.12500227  1
  Ni  Ni56  1  0.63738469  0.36261531  0.37499773  1
  Ni  Ni57  1  0.36261531  0.63738469  0.62500227  1
  Ni  Ni58  1  0.48569114  0.01430886  0.75000000  1
  Ni  Ni59  1  0.51430886  0.98569114  0.25000000  1
  Ni  Ni60  1  0.01430886  0.48569114  0.25000000  1
  Ni  Ni61  1  0.98569114  0.51430886  0.75000000  1
  Ni  Ni62  1  0.75333746  0.97558658  0.73233542  1
  Ni  Ni63  1  0.24666254  0.02441342  0.26766458  1
  Ni  Ni64  1  0.74666254  0.52441342  0.23233542  1
  Ni  Ni65  1  0.52441342  0.74666254  0.76766458  1
  Ni  Ni66  1  0.25333746  0.47558658  0.76766458  1
  Ni  Ni67  1  0.47558658  0.25333746  0.23233542  1
  Ni  Ni68  1  0.97558658  0.75333746  0.26766458  1
  Ni  Ni69  1  0.02441342  0.24666254  0.73233542  1
  Ni  Ni70  1  0.56136005  0.69984113  0.93451642  1
  Ni  Ni71  1  0.43863995  0.30015887  0.06548358  1
  Ni  Ni72  1  0.93863995  0.80015887  0.43451642  1
  Ni  Ni73  1  0.80015887  0.93863995  0.56548358  1
  Ni  Ni74  1  0.06136005  0.19984113  0.56548358  1
  Ni  Ni75  1  0.19984113  0.06136005  0.43451642  1
  Ni  Ni76  1  0.69984113  0.56136005  0.06548358  1
  Ni  Ni77  1  0.30015887  0.43863995  0.93451642  1
  B  B78  1  0.97554958  0.02445042  0.67346287  1
  B  B79  1  0.02445042  0.97554958  0.32653713  1
  B  B80  1  0.52445042  0.47554958  0.17346287  1
  B  B81  1  0.47554958  0.52445042  0.82653713  1
  B  B82  1  0.34043191  0.06440972  0.84859822  1
  B  B83  1  0.65956809  0.93559028  0.15140178  1
  B  B84  1  0.15956809  0.43559028  0.34859822  1
  B  B85  1  0.43559028  0.15956809  0.65140178  1
  B  B86  1  0.84043191  0.56440972  0.65140178  1
  B  B87  1  0.56440972  0.84043191  0.34859822  1
  B  B88  1  0.06440972  0.34043191  0.15140178  1
  B  B89  1  0.93559028  0.65956809  0.84859822  1
  B  B90  1  0.63400468  0.94358171  0.85758742  1
  B  B91  1  0.36599532  0.05641829  0.14241258  1
  B  B92  1  0.86599532  0.55641829  0.35758742  1
  B  B93  1  0.55641829  0.86599532  0.64241258  1
  B  B94  1  0.13400468  0.44358171  0.64241258  1
  B  B95  1  0.44358171  0.13400468  0.35758742  1
  B  B96  1  0.94358171  0.63400468  0.14241258  1
  B  B97  1  0.05641829  0.36599532  0.85758742  1
  B  B98  1  0.82588617  0.17411383  0.51788376  1
  B  B99  1  0.17411383  0.82588617  0.48211624  1
  B  B100  1  0.67411383  0.32588617  0.01788376  1
  B  B101  1  0.32588617  0.67411383  0.98211624  1
  B  B102  1  0.77094898  0.77094898  0.00000000  1
  B  B103  1  0.22905102  0.22905102  0.00000000  1
  B  B104  1  0.72905102  0.72905102  0.50000000  1
  B  B105  1  0.27094898  0.27094898  0.50000000  1
  B  B106  1  0.38430796  0.23471161  0.92055635  1
  B  B107  1  0.61569204  0.76528839  0.07944365  1
  B  B108  1  0.11569204  0.26528839  0.42055635  1
  B  B109  1  0.26528839  0.11569204  0.57944365  1
  B  B110  1  0.88430796  0.73471161  0.57944365  1
  B  B111  1  0.73471161  0.88430796  0.42055635  1
  B  B112  1  0.23471161  0.38430796  0.07944365  1
  B  B113  1  0.76528839  0.61569204  0.92055635  1
  B  B114  1  0.98972918  0.01027082  0.79433033  1
  B  B115  1  0.01027082  0.98972918  0.20566967  1
  B  B116  1  0.51027082  0.48972918  0.29433033  1
  B  B117  1  0.48972918  0.51027082  0.70566967  1
  B  B118  1  0.70516187  0.29483813  0.50233376  1
  B  B119  1  0.29483813  0.70516187  0.49766624  1
  B  B120  1  0.79483813  0.20516187  0.00233376  1
  B  B121  1  0.20516187  0.79483813  0.99766624  1
  B  B122  1  0.85722581  0.14277419  0.63857792  1
  B  B123  1  0.14277419  0.85722581  0.36142208  1
  B  B124  1  0.64277419  0.35722581  0.13857792  1
  B  B125  1  0.35722581  0.64277419  0.86142208  1
