# generated using pymatgen
data_EuGaGe2O7
_symmetry_space_group_name_H-M   'P 1'
_cell_length_a   6.66902700
_cell_length_b   7.36741875
_cell_length_c   11.62771997
_cell_angle_alpha   96.59859147
_cell_angle_beta   90.00000000
_cell_angle_gamma   90.00000000
_symmetry_Int_Tables_number   1
_chemical_formula_structural   EuGaGe2O7
_chemical_formula_sum   'Eu4 Ga4 Ge8 O28'
_cell_volume   567.52615252
_cell_formula_units_Z   4
loop_
 _symmetry_equiv_pos_site_id
 _symmetry_equiv_pos_as_xyz
  1  'x, y, z'
loop_
 _atom_site_type_symbol
 _atom_site_label
 _atom_site_symmetry_multiplicity
 _atom_site_fract_x
 _atom_site_fract_y
 _atom_site_fract_z
 _atom_site_occupancy
  Eu  Eu0  1  0.64583652  0.73173696  0.47412239  1
  Eu  Eu1  1  0.35416348  0.26826304  0.52587761  1
  Eu  Eu2  1  0.14583652  0.76826304  0.02587761  1
  Eu  Eu3  1  0.85416348  0.23173696  0.97412239  1
  Ga  Ga4  1  0.59983627  0.01777966  0.73084785  1
  Ga  Ga5  1  0.40016373  0.98222034  0.26915215  1
  Ga  Ga6  1  0.09983627  0.48222034  0.76915215  1
  Ga  Ga7  1  0.90016373  0.51777966  0.23084785  1
  Ge  Ge8  1  0.34193174  0.24162291  0.95298711  1
  Ge  Ge9  1  0.65806826  0.75837709  0.04701289  1
  Ge  Ge10  1  0.84193174  0.25837709  0.54701289  1
  Ge  Ge11  1  0.15806826  0.74162291  0.45298711  1
  Ge  Ge12  1  0.08923310  0.91662071  0.71772507  1
  Ge  Ge13  1  0.91076690  0.08337929  0.28227493  1
  Ge  Ge14  1  0.58923310  0.58337929  0.78227493  1
  Ge  Ge15  1  0.41076690  0.41662071  0.21772507  1
  O  O16  1  0.62690815  0.76332993  0.69546874  1
  O  O17  1  0.37309185  0.23667007  0.30453126  1
  O  O18  1  0.12690815  0.73667007  0.80453126  1
  O  O19  1  0.87309185  0.26332993  0.19546874  1
  O  O20  1  0.17570316  0.06864253  0.97757576  1
  O  O21  1  0.82429684  0.93135747  0.02242424  1
  O  O22  1  0.67570316  0.43135747  0.52242424  1
  O  O23  1  0.32429684  0.56864253  0.47757576  1
  O  O24  1  0.39126643  0.44479001  0.72071122  1
  O  O25  1  0.60873357  0.55520999  0.27928878  1
  O  O26  1  0.89126643  0.05520999  0.77928878  1
  O  O27  1  0.10873357  0.94479001  0.22071122  1
  O  O28  1  0.00306677  0.82530644  0.57400034  1
  O  O29  1  0.99693323  0.17469356  0.42599966  1
  O  O30  1  0.50306677  0.67469356  0.92599966  1
  O  O31  1  0.49693323  0.32530644  0.07400034  1
  O  O32  1  0.55253562  0.16646223  0.86956535  1
  O  O33  1  0.44746438  0.83353777  0.13043465  1
  O  O34  1  0.05253562  0.33353777  0.63043465  1
  O  O35  1  0.94746438  0.66646223  0.36956535  1
  O  O36  1  0.16161216  0.40799836  0.91853653  1
  O  O37  1  0.83838784  0.59200164  0.08146347  1
  O  O38  1  0.66161216  0.09200164  0.58146347  1
  O  O39  1  0.33838784  0.90799836  0.41853653  1
  O  O40  1  0.31249701  0.02921204  0.68609567  1
  O  O41  1  0.68750299  0.97078796  0.31390433  1
  O  O42  1  0.81249701  0.47078796  0.81390433  1
  O  O43  1  0.18750299  0.52921204  0.18609567  1
