# generated using pymatgen
data_K3Nb6SBr17
_symmetry_space_group_name_H-M   'P 1'
_cell_length_a   9.55820174
_cell_length_b   13.05562909
_cell_length_c   13.05562909
_cell_angle_alpha   94.34480100
_cell_angle_beta   90.70816841
_cell_angle_gamma   90.70816841
_symmetry_Int_Tables_number   1
_chemical_formula_structural   K3Nb6SBr17
_chemical_formula_sum   'K6 Nb12 S2 Br34'
_cell_volume   1624.23975362
_cell_formula_units_Z   2
loop_
 _symmetry_equiv_pos_site_id
 _symmetry_equiv_pos_as_xyz
  1  'x, y, z'
loop_
 _atom_site_type_symbol
 _atom_site_label
 _atom_site_symmetry_multiplicity
 _atom_site_fract_x
 _atom_site_fract_y
 _atom_site_fract_z
 _atom_site_occupancy
  K  K0  1  0.65689491  0.27762201  0.17640092  1
  K  K1  1  0.34310509  0.72237799  0.82359908  1
  K  K2  1  0.84310509  0.82359908  0.72237799  1
  K  K3  1  0.15689491  0.17640092  0.27762201  1
  K  K4  1  0.75000000  0.46068877  0.53931123  1
  K  K5  1  0.25000000  0.53931123  0.46068877  1
  Nb  Nb6  1  0.98124020  0.80352954  0.16418275  1
  Nb  Nb7  1  0.01875980  0.19647046  0.83581725  1
  Nb  Nb8  1  0.51875980  0.83581725  0.19647046  1
  Nb  Nb9  1  0.48124020  0.16418275  0.80352954  1
  Nb  Nb10  1  0.85711889  0.61574859  0.24163096  1
  Nb  Nb11  1  0.14288111  0.38425141  0.75836904  1
  Nb  Nb12  1  0.64288111  0.75836904  0.38425141  1
  Nb  Nb13  1  0.35711889  0.24163096  0.61574859  1
  Nb  Nb14  1  0.73828145  0.69779333  0.05214141  1
  Nb  Nb15  1  0.26171855  0.30220667  0.94785859  1
  Nb  Nb16  1  0.76171855  0.94785859  0.30220667  1
  Nb  Nb17  1  0.23828145  0.05214141  0.69779333  1
  S  S18  1  0.75000000  0.77724612  0.22275388  1
  S  S19  1  0.25000000  0.22275388  0.77724612  1
  Br  Br20  1  0.61038674  0.87342176  0.00845517  1
  Br  Br21  1  0.38961326  0.12657824  0.99154483  1
  Br  Br22  1  0.88961326  0.99154483  0.12657824  1
  Br  Br23  1  0.11038674  0.00845517  0.87342176  1
  Br  Br24  1  0.87934287  0.36096757  0.79761109  1
  Br  Br25  1  0.12065713  0.63903243  0.20238891  1
  Br  Br26  1  0.62065713  0.20238891  0.63903243  1
  Br  Br27  1  0.37934287  0.79761109  0.36096757  1
  Br  Br28  1  0.47344952  0.64910872  0.09915943  1
  Br  Br29  1  0.52655048  0.35089128  0.90084057  1
  Br  Br30  1  0.02655048  0.90084057  0.35089128  1
  Br  Br31  1  0.97344952  0.09915943  0.64910872  1
  Br  Br32  1  0.60418166  0.55884925  0.31304459  1
  Br  Br33  1  0.39581834  0.44115075  0.68695541  1
  Br  Br34  1  0.89581834  0.68695541  0.44115075  1
  Br  Br35  1  0.10418166  0.31304459  0.55884925  1
  Br  Br36  1  0.93941974  0.43248929  0.31418530  1
  Br  Br37  1  0.06058026  0.56751071  0.68581470  1
  Br  Br38  1  0.56058026  0.68581470  0.56751071  1
  Br  Br39  1  0.43941974  0.31418530  0.43248929  1
  Br  Br40  1  0.75000000  0.11793447  0.88206553  1
  Br  Br41  1  0.25000000  0.88206553  0.11793447  1
  Br  Br42  1  0.81662844  0.50781623  0.06567848  1
  Br  Br43  1  0.18337156  0.49218377  0.93432152  1
  Br  Br44  1  0.68337156  0.93432152  0.49218377  1
  Br  Br45  1  0.31662844  0.06567848  0.50781623  1
  Br  Br46  1  0.66543345  0.63775286  0.85328552  1
  Br  Br47  1  0.33456655  0.36224714  0.14671448  1
  Br  Br48  1  0.83456655  0.14671448  0.36224714  1
  Br  Br49  1  0.16543345  0.85328552  0.63775286  1
  Br  Br50  1  0.97784703  0.74451622  0.96723973  1
  Br  Br51  1  0.02215297  0.25548378  0.03276027  1
  Br  Br52  1  0.52215297  0.03276027  0.25548378  1
  Br  Br53  1  0.47784703  0.96723973  0.74451622  1
