# generated using pymatgen
data_RbInH8(SO6)2
_symmetry_space_group_name_H-M   'P 1'
_cell_length_a   9.30916298
_cell_length_b   10.85401683
_cell_length_c   10.97812015
_cell_angle_alpha   90.00000000
_cell_angle_beta   90.00000000
_cell_angle_gamma   101.98039811
_symmetry_Int_Tables_number   1
_chemical_formula_structural   RbInH8(SO6)2
_chemical_formula_sum   'Rb4 In4 H32 S8 O48'
_cell_volume   1085.08823143
_cell_formula_units_Z   4
loop_
 _symmetry_equiv_pos_site_id
 _symmetry_equiv_pos_as_xyz
  1  'x, y, z'
loop_
 _atom_site_type_symbol
 _atom_site_label
 _atom_site_symmetry_multiplicity
 _atom_site_fract_x
 _atom_site_fract_y
 _atom_site_fract_z
 _atom_site_occupancy
  Rb  Rb0  1  0.72788841  0.82691297  0.43785198  1
  Rb  Rb1  1  0.27211159  0.17308703  0.93785198  1
  Rb  Rb2  1  0.77531720  0.18039863  0.96095432  1
  Rb  Rb3  1  0.22468280  0.81960137  0.46095432  1
  In  In4  1  0.65695122  0.79248861  0.83133051  1
  In  In5  1  0.34304878  0.20751139  0.33133051  1
  In  In6  1  0.84354388  0.20923840  0.56611056  1
  In  In7  1  0.15645612  0.79076160  0.06611056  1
  H  H8  1  0.18827321  0.88975110  0.82564741  1
  H  H9  1  0.81172679  0.11024890  0.32564741  1
  H  H10  1  0.21493584  0.57769634  0.60767496  1
  H  H11  1  0.78506416  0.42230366  0.10767496  1
  H  H12  1  0.56251068  0.59161641  0.67063004  1
  H  H13  1  0.43748932  0.40838359  0.17063004  1
  H  H14  1  0.93479440  0.40804730  0.73268019  1
  H  H15  1  0.06520560  0.59195270  0.23268019  1
  H  H16  1  0.71347532  0.58403100  0.29406821  1
  H  H17  1  0.28652468  0.41596900  0.79406821  1
  H  H18  1  0.93362397  0.59035243  0.51152780  1
  H  H19  1  0.06637603  0.40964757  0.01152780  1
  H  H20  1  0.68693481  0.89516530  0.07016639  1
  H  H21  1  0.31306519  0.10483470  0.57016639  1
  H  H22  1  0.17905576  0.63373178  0.73179277  1
  H  H23  1  0.82094424  0.36626822  0.23179277  1
  H  H24  1  0.54893354  0.40081732  0.89564009  1
  H  H25  1  0.45106646  0.59918268  0.39564009  1
  H  H26  1  0.56420210  0.32623297  0.77912594  1
  H  H27  1  0.43579790  0.67376703  0.27912594  1
  H  H28  1  0.93715569  0.66977470  0.22369882  1
  H  H29  1  0.06284431  0.33022530  0.72369882  1
  H  H30  1  0.68338507  0.65115672  0.17436937  1
  H  H31  1  0.31661493  0.34884328  0.67436937  1
  H  H32  1  0.93877957  0.67829954  0.62143945  1
  H  H33  1  0.06122043  0.32170046  0.12143945  1
  H  H34  1  0.85381513  0.90430367  0.02158160  1
  H  H35  1  0.14618487  0.09569633  0.52158160  1
  H  H36  1  0.35450406  0.89767295  0.87523417  1
  H  H37  1  0.64549594  0.10232705  0.37523417  1
  H  H38  1  0.43126470  0.66550054  0.68261335  1
  H  H39  1  0.56873530  0.33449946  0.18261335  1
  S  S40  1  0.96704156  0.97445430  0.71402290  1
  S  S41  1  0.03295844  0.02554570  0.21402290  1
  S  S42  1  0.89283364  0.60674362  0.89643199  1
  S  S43  1  0.10716636  0.39325638  0.39643199  1
  S  S44  1  0.39437131  0.60752582  0.00238048  1
  S  S45  1  0.60562869  0.39247418  0.50238048  1
  S  S46  1  0.46696994  0.97466494  0.18222343  1
  S  S47  1  0.53303006  0.02533506  0.68222343  1
  O  O48  1  0.25483998  0.64349317  0.66829293  1
  O  O49  1  0.74516002  0.35650683  0.16829293  1
  O  O50  1  0.47199707  0.73377341  0.95257406  1
  O  O51  1  0.52800293  0.26622659  0.45257406  1
  O  O52  1  0.56812348  0.31993043  0.86799465  1
  O  O53  1  0.43187652  0.68006957  0.36799465  1
  O  O54  1  0.75826856  0.65205688  0.23738524  1
  O  O55  1  0.24173144  0.34794312  0.73738524  1
  O  O56  1  0.67589732  0.12322327  0.69183911  1
  O  O57  1  0.32410268  0.87677673  0.19183911  1
  O  O58  1  0.96722263  0.05920030  0.60204669  1
  O  O59  1  0.03277737  0.94079970  0.10204669  1
  O  O60  1  0.97323389  0.04702309  0.82610013  1
  O  O61  1  0.02676611  0.95297691  0.32610013  1
  O  O62  1  0.82411098  0.87670972  0.70440138  1
  O  O63  1  0.17588902  0.12329028  0.20440138  1
  O  O64  1  0.53571625  0.41811381  0.61815376  1
  O  O65  1  0.46428375  0.58188619  0.11815376  1
  O  O66  1  0.52697884  0.95255740  0.57022438  1
  O  O67  1  0.47302116  0.04744260  0.07022438  1
  O  O68  1  0.59134331  0.91132778  0.19689256  1
  O  O69  1  0.40865669  0.08867222  0.69689256  1
  O  O70  1  0.73915261  0.62379926  0.86828672  1
  O  O71  1  0.26084739  0.37620074  0.36828672  1
  O  O72  1  0.53298821  0.94105380  0.79436088  1
  O  O73  1  0.46701179  0.05894620  0.29436088  1
  O  O74  1  0.25083053  0.89065586  0.90035506  1
  O  O75  1  0.74916947  0.10934414  0.40035506  1
  O  O76  1  0.96504249  0.57702480  0.78315125  1
  O  O77  1  0.03495751  0.42297520  0.28315125  1
  O  O78  1  0.76177411  0.37802128  0.52599775  1
  O  O79  1  0.23822589  0.62197872  0.02599775  1
  O  O80  1  0.09102892  0.91069230  0.69887132  1
  O  O81  1  0.90897108  0.08930770  0.19887132  1
  O  O82  1  0.97206952  0.73301093  0.94512264  1
  O  O83  1  0.02793048  0.26698907  0.44512264  1
  O  O84  1  0.88645005  0.50743167  0.98803759  1
  O  O85  1  0.11354995  0.49256833  0.48803759  1
  O  O86  1  0.54254683  0.67730116  0.68019352  1
  O  O87  1  0.45745317  0.32269884  0.18019352  1
  O  O88  1  0.95237334  0.32147995  0.72153305  1
  O  O89  1  0.04762666  0.67852005  0.22153305  1
  O  O90  1  0.75019631  0.89604559  0.99563460  1
  O  O91  1  0.24980369  0.10395441  0.49563460  1
  O  O92  1  0.92688723  0.67641674  0.53280446  1
  O  O93  1  0.07311277  0.32358326  0.03280446  1
  O  O94  1  0.39230401  0.50670824  0.91314954  1
  O  O95  1  0.60769599  0.49329176  0.41314954  1
