# generated using pymatgen
data_Ba2Sr5B4S13
_symmetry_space_group_name_H-M   'P 1'
_cell_length_a   9.90723006
_cell_length_b   9.92347763
_cell_length_c   12.82849439
_cell_angle_alpha   67.24603386
_cell_angle_beta   89.93537769
_cell_angle_gamma   89.83291987
_symmetry_Int_Tables_number   1
_chemical_formula_structural   Ba2Sr5B4S13
_chemical_formula_sum   'Ba4 Sr10 B8 S26'
_cell_volume   1163.06223212
_cell_formula_units_Z   2
loop_
 _symmetry_equiv_pos_site_id
 _symmetry_equiv_pos_as_xyz
  1  'x, y, z'
loop_
 _atom_site_type_symbol
 _atom_site_label
 _atom_site_symmetry_multiplicity
 _atom_site_fract_x
 _atom_site_fract_y
 _atom_site_fract_z
 _atom_site_occupancy
  Ba  Ba0  1  0.75000000  0.16958869  0.66082263  1
  Ba  Ba1  1  0.25000000  0.83041131  0.33917737  1
  Ba  Ba2  1  0.75000000  0.49121759  0.01756482  1
  Ba  Ba3  1  0.25000000  0.50878241  0.98243518  1
  Sr  Sr4  1  0.75000000  0.99765743  0.00468515  1
  Sr  Sr5  1  0.25000000  0.00234257  0.99531485  1
  Sr  Sr6  1  0.97562299  0.56577492  0.65671812  1
  Sr  Sr7  1  0.02437701  0.43422508  0.34328188  1
  Sr  Sr8  1  0.52437701  0.77750696  0.65671812  1
  Sr  Sr9  1  0.47562299  0.22249304  0.34328188  1
  Sr  Sr10  1  0.64416696  0.60085260  0.34671239  1
  Sr  Sr11  1  0.35583304  0.39914740  0.65328761  1
  Sr  Sr12  1  0.85583304  0.05243501  0.34671239  1
  Sr  Sr13  1  0.14416696  0.94756499  0.65328761  1
  B  B14  1  0.92907633  0.78370089  0.23536629  1
  B  B15  1  0.07092367  0.21629911  0.76463371  1
  B  B16  1  0.57092367  0.98093282  0.23536629  1
  B  B17  1  0.42907633  0.01906718  0.76463371  1
  B  B18  1  0.65077021  0.43566417  0.77017871  1
  B  B19  1  0.34922979  0.56433583  0.22982129  1
  B  B20  1  0.84922979  0.79415712  0.77017871  1
  B  B21  1  0.15077021  0.20584288  0.22982129  1
  S  S22  1  0.93335021  0.70149964  0.39184843  1
  S  S23  1  0.06664979  0.29850036  0.60815157  1
  S  S24  1  0.56664979  0.90665193  0.39184843  1
  S  S25  1  0.43335021  0.09334807  0.60815157  1
  S  S26  1  0.50566624  0.86953835  0.16326970  1
  S  S27  1  0.49433376  0.13046165  0.83673030  1
  S  S28  1  0.99433376  0.96719196  0.16326970  1
  S  S29  1  0.00566624  0.03280804  0.83673030  1
  S  S30  1  0.79885028  0.33334991  0.84116529  1
  S  S31  1  0.20114972  0.66665009  0.15883471  1
  S  S32  1  0.70114972  0.82548479  0.84116529  1
  S  S33  1  0.29885028  0.17451521  0.15883471  1
  S  S34  1  0.84432783  0.68639910  0.15991667  1
  S  S35  1  0.15567217  0.31360090  0.84008333  1
  S  S36  1  0.65567217  0.15368423  0.15991667  1
  S  S37  1  0.34432783  0.84631577  0.84008333  1
  S  S38  1  0.51367889  0.48324840  0.84389658  1
  S  S39  1  0.48632111  0.51675160  0.15610342  1
  S  S40  1  0.98632111  0.67285501  0.84389658  1
  S  S41  1  0.01367889  0.32714499  0.15610342  1
  S  S42  1  0.64862241  0.51136198  0.61339201  1
  S  S43  1  0.35137759  0.48863802  0.38660799  1
  S  S44  1  0.85137759  0.87524601  0.61339201  1
  S  S45  1  0.14862241  0.12475399  0.38660799  1
  S  S46  1  0.75000000  0.29964975  0.40070049  1
  S  S47  1  0.25000000  0.70035025  0.59929951  1
