# generated using pymatgen
data_Fe4O7F
_symmetry_space_group_name_H-M   'P 1'
_cell_length_a   4.60668561
_cell_length_b   4.60668561
_cell_length_c   6.02737743
_cell_angle_alpha   90.00000000
_cell_angle_beta   90.00000000
_cell_angle_gamma   91.68060430
_symmetry_Int_Tables_number   1
_chemical_formula_structural   Fe4O7F
_chemical_formula_sum   'Fe4 O7 F1'
_cell_volume   127.85528440
_cell_formula_units_Z   1
loop_
 _symmetry_equiv_pos_site_id
 _symmetry_equiv_pos_as_xyz
  1  'x, y, z'
loop_
 _atom_site_type_symbol
 _atom_site_label
 _atom_site_symmetry_multiplicity
 _atom_site_fract_x
 _atom_site_fract_y
 _atom_site_fract_z
 _atom_site_occupancy
  Fe  Fe0  1  0.00809940  0.99190060  0.00851519  1
  Fe  Fe1  1  0.00809940  0.99190060  0.49148481  1
  Fe  Fe2  1  0.50429747  0.49570253  0.25000000  1
  Fe  Fe3  1  0.48097171  0.51902829  0.75000000  1
  O  O4  1  0.20317918  0.79682082  0.25000000  1
  O  O5  1  0.18348632  0.81651368  0.75000000  1
  O  O6  1  0.30661116  0.30696794  0.99654767  1
  O  O7  1  0.30661116  0.30696794  0.50345233  1
  O  O8  1  0.69303206  0.69338884  0.99654767  1
  O  O9  1  0.69303206  0.69338884  0.50345233  1
  O  O10  1  0.81350968  0.18649032  0.25000000  1
  F  F11  1  0.79907040  0.20092960  0.75000000  1
