# generated using pymatgen
data_Ca2Gd3Si3O13
_symmetry_space_group_name_H-M   'P 1'
_cell_length_a   6.95682382
_cell_length_b   9.51670496
_cell_length_c   9.51670496
_cell_angle_alpha   120.00000153
_cell_angle_beta   90.00000000
_cell_angle_gamma   90.00000000
_symmetry_Int_Tables_number   1
_chemical_formula_structural   Ca2Gd3Si3O13
_chemical_formula_sum   'Ca4 Gd6 Si6 O26'
_cell_volume   545.65085606
_cell_formula_units_Z   2
loop_
 _symmetry_equiv_pos_site_id
 _symmetry_equiv_pos_as_xyz
  1  'x, y, z'
loop_
 _atom_site_type_symbol
 _atom_site_label
 _atom_site_symmetry_multiplicity
 _atom_site_fract_x
 _atom_site_fract_y
 _atom_site_fract_z
 _atom_site_occupancy
  Ca  Ca0  1  0.00375562  0.66666700  0.33333300  1
  Ca  Ca1  1  0.99624438  0.33333300  0.66666700  1
  Ca  Ca2  1  0.50375562  0.33333300  0.66666700  1
  Ca  Ca3  1  0.49624438  0.66666700  0.33333300  1
  Gd  Gd4  1  0.75000000  0.75192417  0.99319291  1
  Gd  Gd5  1  0.25000000  0.24807583  0.00680709  1
  Gd  Gd6  1  0.75000000  0.24126874  0.24807583  1
  Gd  Gd7  1  0.25000000  0.75873126  0.75192417  1
  Gd  Gd8  1  0.75000000  0.00680709  0.75873126  1
  Gd  Gd9  1  0.25000000  0.99319291  0.24126874  1
  Si  Si10  1  0.75000000  0.97417362  0.36934735  1
  Si  Si11  1  0.25000000  0.02582638  0.63065265  1
  Si  Si12  1  0.75000000  0.39517372  0.02582638  1
  Si  Si13  1  0.25000000  0.60482628  0.97417362  1
  Si  Si14  1  0.75000000  0.63065265  0.60482628  1
  Si  Si15  1  0.25000000  0.36934735  0.39517372  1
  O  O16  1  0.75000000  0.87997606  0.47355811  1
  O  O17  1  0.25000000  0.12002394  0.52644189  1
  O  O18  1  0.75000000  0.59358205  0.12002394  1
  O  O19  1  0.25000000  0.40641795  0.87997606  1
  O  O20  1  0.75000000  0.52644189  0.40641795  1
  O  O21  1  0.25000000  0.47355811  0.59358205  1
  O  O22  1  0.93494386  0.90979484  0.24366200  1
  O  O23  1  0.06505614  0.09020516  0.75633800  1
  O  O24  1  0.93494386  0.33386716  0.09020516  1
  O  O25  1  0.43494386  0.09020516  0.75633800  1
  O  O26  1  0.06505614  0.66613284  0.90979484  1
  O  O27  1  0.56505614  0.90979484  0.24366200  1
  O  O28  1  0.93494386  0.75633800  0.66613284  1
  O  O29  1  0.43494386  0.66613284  0.90979484  1
  O  O30  1  0.06505614  0.24366200  0.33386716  1
  O  O31  1  0.56505614  0.33386716  0.09020516  1
  O  O32  1  0.43494386  0.24366200  0.33386716  1
  O  O33  1  0.56505614  0.75633800  0.66613284  1
  O  O34  1  0.75000000  0.52069197  0.69139399  1
  O  O35  1  0.25000000  0.47930803  0.30860601  1
  O  O36  1  0.75000000  0.17070202  0.47930803  1
  O  O37  1  0.25000000  0.82929798  0.52069197  1
  O  O38  1  0.75000000  0.30860601  0.82929798  1
  O  O39  1  0.25000000  0.69139399  0.17070202  1
  O  O40  1  0.75000000  -0.00000000  0.00000000  1
  O  O41  1  0.25000000  -0.00000000  0.00000000  1
