# generated using pymatgen
data_Ba2CaMnFe2F14
_symmetry_space_group_name_H-M   'P 1'
_cell_length_a   5.48236489
_cell_length_b   7.50070853
_cell_length_c   15.27585057
_cell_angle_alpha   91.89275592
_cell_angle_beta   90.00000000
_cell_angle_gamma   111.43567716
_symmetry_Int_Tables_number   1
_chemical_formula_structural   Ba2CaMnFe2F14
_chemical_formula_sum   'Ba4 Ca2 Mn2 Fe4 F28'
_cell_volume   584.34817923
_cell_formula_units_Z   2
loop_
 _symmetry_equiv_pos_site_id
 _symmetry_equiv_pos_as_xyz
  1  'x, y, z'
loop_
 _atom_site_type_symbol
 _atom_site_label
 _atom_site_symmetry_multiplicity
 _atom_site_fract_x
 _atom_site_fract_y
 _atom_site_fract_z
 _atom_site_occupancy
  Ba  Ba0  1  0.64380337  0.38348666  0.61939413  1
  Ba  Ba1  1  0.35619663  0.61651334  0.38060587  1
  Ba  Ba2  1  0.26031671  0.61651334  0.88060587  1
  Ba  Ba3  1  0.73968329  0.38348666  0.11939413  1
  Ca  Ca4  1  0.93874211  -0.00000000  0.75000000  1
  Ca  Ca5  1  0.06125789  -0.00000000  0.25000000  1
  Mn  Mn6  1  -0.00000000  -0.00000000  -0.00000000  1
  Mn  Mn7  1  -0.00000000  -0.00000000  0.50000000  1
  Fe  Fe8  1  0.61069688  0.23690344  0.87709156  1
  Fe  Fe9  1  0.38930312  0.76309656  0.12290844  1
  Fe  Fe10  1  0.37379344  0.76309656  0.62290844  1
  Fe  Fe11  1  0.62620656  0.23690344  0.37709156  1
  F  F12  1  0.57459989  0.97885152  0.84119299  1
  F  F13  1  0.42540011  0.02114848  0.15880701  1
  F  F14  1  0.59574837  0.02114848  0.65880701  1
  F  F15  1  0.40425163  0.97885152  0.34119299  1
  F  F16  1  0.67143585  0.74890043  0.54912355  1
  F  F17  1  0.32856415  0.25109957  0.45087645  1
  F  F18  1  0.92253542  0.25109957  0.95087645  1
  F  F19  1  0.07746458  0.74890043  0.04912355  1
  F  F20  1  0.53811653  0.67422613  0.72037084  1
  F  F21  1  0.46188347  0.32577387  0.27962916  1
  F  F22  1  0.86389040  0.32577387  0.77962916  1
  F  F23  1  0.13610960  0.67422613  0.22037084  1
  F  F24  1  0.69342974  0.49873496  0.91833553  1
  F  F25  1  0.30657026  0.50126504  0.08166447  1
  F  F26  1  0.19469478  0.50126504  0.58166447  1
  F  F27  1  0.80530522  0.49873496  0.41833553  1
  F  F28  1  0.33119092  0.25088966  0.80319053  1
  F  F29  1  0.66880908  0.74911034  0.19680947  1
  F  F30  1  0.08030126  0.74911034  0.69680947  1
  F  F31  1  0.91969874  0.25088966  0.30319053  1
  F  F32  1  0.40782549  0.16354324  0.98463253  1
  F  F33  1  0.59217451  0.83645676  0.01536747  1
  F  F34  1  0.24428225  0.83645676  0.51536747  1
  F  F35  1  0.75571775  0.16354324  0.48463253  1
  F  F36  1  0.85832085  0.87797922  0.37556561  1
  F  F37  1  0.14167915  0.12202078  0.62443439  1
  F  F38  1  0.98034163  0.12202078  0.12443439  1
  F  F39  1  0.01965837  0.87797922  0.87556561  1
