# generated using pymatgen
data_Ba2MnCdFe2F14
_symmetry_space_group_name_H-M   'P 1'
_cell_length_a   5.45143404
_cell_length_b   7.53005610
_cell_length_c   15.14183365
_cell_angle_alpha   91.01739863
_cell_angle_beta   90.00000000
_cell_angle_gamma   111.22174482
_symmetry_Int_Tables_number   1
_chemical_formula_structural   Ba2MnCdFe2F14
_chemical_formula_sum   'Ba4 Mn2 Cd2 Fe4 F28'
_cell_volume   579.31056732
_cell_formula_units_Z   2
loop_
 _symmetry_equiv_pos_site_id
 _symmetry_equiv_pos_as_xyz
  1  'x, y, z'
loop_
 _atom_site_type_symbol
 _atom_site_label
 _atom_site_symmetry_multiplicity
 _atom_site_fract_x
 _atom_site_fract_y
 _atom_site_fract_z
 _atom_site_occupancy
  Ba  Ba0  1  0.64812703  0.38099572  0.62178436  1
  Ba  Ba1  1  0.35187297  0.61900428  0.37821564  1
  Ba  Ba2  1  0.26713131  0.61900428  0.87821564  1
  Ba  Ba3  1  0.73286869  0.38099572  0.12178436  1
  Mn  Mn4  1  -0.00000000  0.00000000  -0.00000000  1
  Mn  Mn5  1  -0.00000000  0.00000000  0.50000000  1
  Cd  Cd6  1  0.95059290  0.00000000  0.75000000  1
  Cd  Cd7  1  0.04940710  1.00000000  0.25000000  1
  Fe  Fe8  1  0.38092732  0.75998769  0.62436650  1
  Fe  Fe9  1  0.61907268  0.24001231  0.37563350  1
  Fe  Fe10  1  0.62093963  0.24001231  0.87563350  1
  Fe  Fe11  1  0.37906037  0.75998769  0.12436650  1
  F  F12  1  0.34494320  0.25060909  0.79793143  1
  F  F13  1  0.65505680  0.74939091  0.20206857  1
  F  F14  1  0.09433411  0.74939091  0.70206857  1
  F  F15  1  0.90566589  0.25060909  0.29793143  1
  F  F16  1  0.54572804  0.67000573  0.72169329  1
  F  F17  1  0.45427196  0.32999427  0.27830671  1
  F  F18  1  0.87572231  0.32999427  0.77830671  1
  F  F19  1  0.12427769  0.67000573  0.22169329  1
  F  F20  1  0.59761023  0.98413719  0.84281709  1
  F  F21  1  0.40238977  0.01586281  0.15718291  1
  F  F22  1  0.61347305  0.01586281  0.65718291  1
  F  F23  1  0.38652695  0.98413719  0.34281709  1
  F  F24  1  0.69313940  0.50135182  0.91175639  1
  F  F25  1  0.30686060  0.49864818  0.08824361  1
  F  F26  1  0.19178758  0.49864818  0.58824361  1
  F  F27  1  0.80821242  0.50135182  0.41175639  1
  F  F28  1  0.67072584  0.74206215  0.54748800  1
  F  F29  1  0.32927416  0.25793785  0.45251200  1
  F  F30  1  0.92866369  0.25793785  0.95251200  1
  F  F31  1  0.07133631  0.74206215  0.04748800  1
  F  F32  1  0.84977187  0.88641154  0.37555221  1
  F  F33  1  0.15022813  0.11358846  0.62444779  1
  F  F34  1  0.96336033  0.11358846  0.12444779  1
  F  F35  1  0.03663967  0.88641154  0.87555221  1
  F  F36  1  0.40926065  0.16664420  0.98274371  1
  F  F37  1  0.59073935  0.83335580  0.01725629  1
  F  F38  1  0.24261646  0.83335580  0.51725629  1
  F  F39  1  0.75738354  0.16664420  0.48274371  1
