# generated using pymatgen
data_Ca2InP3H4O13
_symmetry_space_group_name_H-M   'P 1'
_cell_length_a   7.60782365
_cell_length_b   8.89735141
_cell_length_c   9.41897796
_cell_angle_alpha   80.28042230
_cell_angle_beta   66.74122867
_cell_angle_gamma   64.68889684
_symmetry_Int_Tables_number   1
_chemical_formula_structural   Ca2InP3H4O13
_chemical_formula_sum   'Ca4 In2 P6 H8 O26'
_cell_volume   529.51896223
_cell_formula_units_Z   2
loop_
 _symmetry_equiv_pos_site_id
 _symmetry_equiv_pos_as_xyz
  1  'x, y, z'
loop_
 _atom_site_type_symbol
 _atom_site_label
 _atom_site_symmetry_multiplicity
 _atom_site_fract_x
 _atom_site_fract_y
 _atom_site_fract_z
 _atom_site_occupancy
  Ca  Ca0  1  0.27705729  0.98527760  0.43771696  1
  Ca  Ca1  1  0.72294271  0.01472240  0.56228304  1
  Ca  Ca2  1  0.73766512  0.98527760  0.06228304  1
  Ca  Ca3  1  0.26233488  0.01472240  0.93771696  1
  In  In4  1  0.50000000  0.50000000  0.50000000  1
  In  In5  1  0.00000000  0.50000000  -0.00000000  1
  P  P6  1  0.52413523  0.29499049  0.85038173  1
  P  P7  1  0.47586477  0.70500951  0.14961827  1
  P  P8  1  0.18087427  0.29499049  0.64961827  1
  P  P9  1  0.81912573  0.70500951  0.35038173  1
  P  P10  1  0.09921918  0.80156163  0.75000000  1
  P  P11  1  0.90078082  0.19843837  0.25000000  1
  H  H12  1  0.70123564  0.37232838  0.94559354  1
  H  H13  1  0.29876436  0.62767162  0.05440646  1
  H  H14  1  0.92643597  0.37232838  0.55440646  1
  H  H15  1  0.07356403  0.62767162  0.44559354  1
  H  H16  1  0.54978563  0.73929534  0.71398957  1
  H  H17  1  0.45021437  0.26070466  0.28601043  1
  H  H18  1  0.71091903  0.73929534  0.78601043  1
  H  H19  1  0.28908097  0.26070466  0.21398957  1
  O  O20  1  0.59389018  0.32009817  0.67355169  1
  O  O21  1  0.40610982  0.67990183  0.32644831  1
  O  O22  1  0.08601164  0.32009817  0.82644831  1
  O  O23  1  0.91398836  0.67990183  0.17355169  1
  O  O24  1  0.33826622  0.69753938  0.66530055  1
  O  O25  1  0.66173378  0.30246062  0.33469945  1
  O  O26  1  0.96419440  0.69753938  0.83469945  1
  O  O27  1  0.03580560  0.30246062  0.16530055  1
  O  O28  1  0.32906551  0.44291143  0.94337333  1
  O  O29  1  0.67093449  0.55708857  0.05662667  1
  O  O30  1  0.22802305  0.44291143  0.55662667  1
  O  O31  1  0.77197695  0.55708857  0.44337333  1
  O  O32  1  0.07777057  0.90924083  0.87179197  1
  O  O33  1  0.92222943  0.09075917  0.12820803  1
  O  O34  1  0.01298860  0.90924083  0.62820803  1
  O  O35  1  0.98701140  0.09075917  0.37179197  1
  O  O36  1  0.70339349  0.27266157  0.91099382  1
  O  O37  1  0.29660651  0.72733843  0.08900618  1
  O  O38  1  0.02394494  0.27266157  0.58900618  1
  O  O39  1  0.97605506  0.72733843  0.41099382  1
  O  O40  1  0.59522406  0.80955189  0.75000000  1
  O  O41  1  0.40477594  0.19044811  0.25000000  1
  O  O42  1  0.51603889  0.12281328  0.88551634  1
  O  O43  1  0.48396111  0.87718672  0.11448366  1
  O  O44  1  0.36114783  0.12281328  0.61448366  1
  O  O45  1  0.63885217  0.87718672  0.38551634  1
