# generated using pymatgen
data_Ca2FeP3H4O13
_symmetry_space_group_name_H-M   'P 1'
_cell_length_a   7.58141194
_cell_length_b   8.74833331
_cell_length_c   9.25866773
_cell_angle_alpha   80.01049074
_cell_angle_beta   66.40084332
_cell_angle_gamma   64.32244344
_symmetry_Int_Tables_number   1
_chemical_formula_structural   Ca2FeP3H4O13
_chemical_formula_sum   'Ca4 Fe2 P6 H8 O26'
_cell_volume   507.15168270
_cell_formula_units_Z   2
loop_
 _symmetry_equiv_pos_site_id
 _symmetry_equiv_pos_as_xyz
  1  'x, y, z'
loop_
 _atom_site_type_symbol
 _atom_site_label
 _atom_site_symmetry_multiplicity
 _atom_site_fract_x
 _atom_site_fract_y
 _atom_site_fract_z
 _atom_site_occupancy
  Ca  Ca0  1  0.27907941  0.98203597  0.43765822  1
  Ca  Ca1  1  0.72092059  0.01796403  0.56234178  1
  Ca  Ca2  1  0.73888462  0.98203597  0.06234178  1
  Ca  Ca3  1  0.26111538  0.01796403  0.93765822  1
  Fe  Fe4  1  0.50000000  0.50000000  0.50000000  1
  Fe  Fe5  1  0.00000000  0.50000000  -0.00000000  1
  P  P6  1  0.51528112  0.30323392  0.84884717  1
  P  P7  1  0.48471888  0.69676608  0.15115283  1
  P  P8  1  0.18148497  0.30323392  0.65115283  1
  P  P9  1  0.81851503  0.69676608  0.34884717  1
  P  P10  1  0.10296303  0.79407395  0.75000000  1
  P  P11  1  0.89703697  0.20592605  0.25000000  1
  H  H12  1  0.68866274  0.39201307  0.94392271  1
  H  H13  1  0.31133726  0.60798693  0.05607729  1
  H  H14  1  0.91932419  0.39201307  0.55607729  1
  H  H15  1  0.08067581  0.60798693  0.44392271  1
  H  H16  1  0.55382196  0.73339862  0.71211136  1
  H  H17  1  0.44617804  0.26660138  0.28788864  1
  H  H18  1  0.71277942  0.73339862  0.78788864  1
  H  H19  1  0.28722058  0.26660138  0.21211136  1
  O  O20  1  0.31086219  0.44752965  0.94679399  1
  O  O21  1  0.68913781  0.55247035  0.05320601  1
  O  O22  1  0.24160816  0.44752965  0.55320601  1
  O  O23  1  0.75839184  0.55247035  0.44679399  1
  O  O24  1  0.34232968  0.68828130  0.65878179  1
  O  O25  1  0.65767032  0.31171870  0.34121821  1
  O  O26  1  0.96938902  0.68828130  0.84121821  1
  O  O27  1  0.03061098  0.31171870  0.15878179  1
  O  O28  1  0.69188831  0.28965952  0.90839027  1
  O  O29  1  0.30811169  0.71034048  0.09160973  1
  O  O30  1  0.01845217  0.28965952  0.59160973  1
  O  O31  1  0.98154783  0.71034048  0.40839027  1
  O  O32  1  0.59744964  0.80510073  0.75000000  1
  O  O33  1  0.40255036  0.19489927  0.25000000  1
  O  O34  1  0.08414678  0.90529789  0.87111224  1
  O  O35  1  0.91585322  0.09470211  0.12888776  1
  O  O36  1  0.01055532  0.90529789  0.62888776  1
  O  O37  1  0.98944468  0.09470211  0.37111224  1
  O  O38  1  0.58104341  0.33130636  0.66871488  1
  O  O39  1  0.41895659  0.66869364  0.33128512  1
  O  O40  1  0.08765023  0.33130636  0.83128512  1
  O  O41  1  0.91234977  0.66869364  0.16871488  1
  O  O42  1  0.52146659  0.12285030  0.88148946  1
  O  O43  1  0.47853341  0.87714970  0.11851054  1
  O  O44  1  0.35568311  0.12285030  0.61851054  1
  O  O45  1  0.64431689  0.87714970  0.38148946  1
