# generated using pymatgen
data_Ag6Ge(S2Br)2
_symmetry_space_group_name_H-M   'P 1'
_cell_length_a   6.60796114
_cell_length_b   7.83209654
_cell_length_c   23.40944661
_cell_angle_alpha   90.00000000
_cell_angle_beta   90.00000000
_cell_angle_gamma   90.00000000
_symmetry_Int_Tables_number   1
_chemical_formula_structural   Ag6Ge(S2Br)2
_chemical_formula_sum   'Ag24 Ge4 S16 Br8'
_cell_volume   1211.53693784
_cell_formula_units_Z   4
loop_
 _symmetry_equiv_pos_site_id
 _symmetry_equiv_pos_as_xyz
  1  'x, y, z'
loop_
 _atom_site_type_symbol
 _atom_site_label
 _atom_site_symmetry_multiplicity
 _atom_site_fract_x
 _atom_site_fract_y
 _atom_site_fract_z
 _atom_site_occupancy
  Ag  Ag0  1  0.46908708  0.25000000  0.64397503  1
  Ag  Ag1  1  0.53091292  0.75000000  0.35602497  1
  Ag  Ag2  1  0.03091292  0.75000000  0.14397503  1
  Ag  Ag3  1  0.96908708  0.25000000  0.85602497  1
  Ag  Ag4  1  0.09553415  0.04354611  0.28077737  1
  Ag  Ag5  1  0.90446585  0.95645389  0.71922263  1
  Ag  Ag6  1  0.40446585  0.95645389  0.78077737  1
  Ag  Ag7  1  0.90446585  0.54354611  0.71922263  1
  Ag  Ag8  1  0.59553415  0.04354611  0.21922263  1
  Ag  Ag9  1  0.09553415  0.45645389  0.28077737  1
  Ag  Ag10  1  0.59553415  0.45645389  0.21922263  1
  Ag  Ag11  1  0.40446585  0.54354611  0.78077737  1
  Ag  Ag12  1  0.00193184  0.06467131  0.42789465  1
  Ag  Ag13  1  0.99806816  0.93532869  0.57210535  1
  Ag  Ag14  1  0.49806816  0.93532869  0.92789465  1
  Ag  Ag15  1  0.99806816  0.56467131  0.57210535  1
  Ag  Ag16  1  0.50193184  0.06467131  0.07210535  1
  Ag  Ag17  1  0.00193184  0.43532869  0.42789465  1
  Ag  Ag18  1  0.50193184  0.43532869  0.07210535  1
  Ag  Ag19  1  0.49806816  0.56467131  0.92789465  1
  Ag  Ag20  1  0.00000000  -0.00000000  0.00000000  1
  Ag  Ag21  1  0.50000000  -0.00000000  0.50000000  1
  Ag  Ag22  1  0.00000000  0.50000000  0.00000000  1
  Ag  Ag23  1  0.50000000  0.50000000  0.50000000  1
  Ge  Ge24  1  0.00368521  0.25000000  0.13089594  1
  Ge  Ge25  1  0.99631479  0.75000000  0.86910406  1
  Ge  Ge26  1  0.49631479  0.75000000  0.63089594  1
  Ge  Ge27  1  0.50368521  0.25000000  0.36910406  1
  S  S28  1  0.18775329  0.25000000  0.04755214  1
  S  S29  1  0.81224671  0.75000000  0.95244786  1
  S  S30  1  0.31224671  0.75000000  0.54755214  1
  S  S31  1  0.68775329  0.25000000  0.45244786  1
  S  S32  1  0.31344286  0.01185325  0.37237481  1
  S  S33  1  0.68655714  0.98814675  0.62762519  1
  S  S34  1  0.18655714  0.98814675  0.87237481  1
  S  S35  1  0.68655714  0.51185325  0.62762519  1
  S  S36  1  0.81344286  0.01185325  0.12762519  1
  S  S37  1  0.31344286  0.48814675  0.37237481  1
  S  S38  1  0.81344286  0.48814675  0.12762519  1
  S  S39  1  0.18655714  0.51185325  0.87237481  1
  S  S40  1  0.21552379  0.25000000  0.20511033  1
  S  S41  1  0.78447621  0.75000000  0.79488967  1
  S  S42  1  0.28447621  0.75000000  0.70511033  1
  S  S43  1  0.71552379  0.25000000  0.29488967  1
  Br  Br44  1  0.16955913  0.25000000  0.54093706  1
  Br  Br45  1  0.83044087  0.75000000  0.45906294  1
  Br  Br46  1  0.33044087  0.75000000  0.04093706  1
  Br  Br47  1  0.66955913  0.25000000  0.95906294  1
  Br  Br48  1  0.13361453  0.25000000  0.70863871  1
  Br  Br49  1  0.86638547  0.75000000  0.29136129  1
  Br  Br50  1  0.36638547  0.75000000  0.20863871  1
  Br  Br51  1  0.63361453  0.25000000  0.79136129  1
