# generated using pymatgen
data_YErAl6
_symmetry_space_group_name_H-M   'P 1'
_cell_length_a   6.24428137
_cell_length_b   6.24428137
_cell_length_c   14.41637452
_cell_angle_alpha   102.50759624
_cell_angle_beta   102.50759624
_cell_angle_gamma   60.00000522
_symmetry_Int_Tables_number   1
_chemical_formula_structural   YErAl6
_chemical_formula_sum   'Y3 Er3 Al18'
_cell_volume   471.33413207
_cell_formula_units_Z   3
loop_
 _symmetry_equiv_pos_site_id
 _symmetry_equiv_pos_as_xyz
  1  'x, y, z'
loop_
 _atom_site_type_symbol
 _atom_site_label
 _atom_site_symmetry_multiplicity
 _atom_site_fract_x
 _atom_site_fract_y
 _atom_site_fract_z
 _atom_site_occupancy
  Y  Y0  1  0.89120836  0.89120836  0.67362507  1
  Y  Y1  1  0.10865819  0.10865819  0.32597457  1
  Y  Y2  1  0.60891667  0.60891667  0.82675001  1
  Er  Er3  1  0.00010587  0.00010587  0.00031761  1
  Er  Er4  1  0.50001519  0.50001519  0.50004557  1
  Er  Er5  1  0.39123282  0.39123282  0.17369847  1
  Al  Al6  1  0.07091639  0.63140327  0.33372292  1
  Al  Al7  1  0.56971685  0.13249966  0.83471618  1
  Al  Al8  1  0.63140327  0.63140327  0.33372292  1
  Al  Al9  1  0.13249966  0.13249966  0.83471618  1
  Al  Al10  1  0.63140327  0.07091639  0.33372292  1
  Al  Al11  1  0.13249966  0.56971685  0.83471618  1
  Al  Al12  1  0.42997004  0.86776425  0.16549854  1
  Al  Al13  1  0.93029475  0.36759500  0.66548476  1
  Al  Al14  1  0.86776425  0.86776425  0.16549854  1
  Al  Al15  1  0.36759500  0.36759500  0.66548476  1
  Al  Al16  1  0.86776425  0.42997004  0.16549854  1
  Al  Al17  1  0.36759500  0.93029475  0.66548476  1
  Al  Al18  1  0.49925435  0.49925435  0.00066865  1
  Al  Al19  1  0.99979167  0.99979167  0.49977185  1
  Al  Al20  1  0.49925435  0.00215996  0.00066865  1
  Al  Al21  1  0.99979167  0.50018850  0.49977185  1
  Al  Al22  1  0.00215996  0.49925435  0.00066865  1
  Al  Al23  1  0.50018850  0.99979167  0.49977185  1
