# generated using pymatgen
data_Yb(LuSe2)2
_symmetry_space_group_name_H-M   'P 1'
_cell_length_a   4.05771058
_cell_length_b   7.16314555
_cell_length_c   6.90512039
_cell_angle_alpha   72.06536570
_cell_angle_beta   90.00000992
_cell_angle_gamma   90.00000451
_symmetry_Int_Tables_number   1
_chemical_formula_structural   Yb(LuSe2)2
_chemical_formula_sum   'Yb1 Lu2 Se4'
_cell_volume   190.95150976
_cell_formula_units_Z   1
loop_
 _symmetry_equiv_pos_site_id
 _symmetry_equiv_pos_as_xyz
  1  'x, y, z'
loop_
 _atom_site_type_symbol
 _atom_site_label
 _atom_site_symmetry_multiplicity
 _atom_site_fract_x
 _atom_site_fract_y
 _atom_site_fract_z
 _atom_site_occupancy
  Yb  Yb0  1  -0.00000000  0.50000000  0.50000000  1
  Lu  Lu1  1  -0.00000000  0.00000000  0.00000000  1
  Lu  Lu2  1  0.50000000  0.00000000  0.50000000  1
  Se  Se3  1  0.50000000  0.23891674  0.75820537  1
  Se  Se4  1  0.00000000  0.23014294  0.25752780  1
  Se  Se5  1  0.50000000  0.76108326  0.24179463  1
  Se  Se6  1  1.00000000  0.76985706  0.74247220  1
