# generated using pymatgen
data_Zn2InCuS4
_symmetry_space_group_name_H-M   'P 1'
_cell_length_a   5.50919432
_cell_length_b   6.75085353
_cell_length_c   5.50919432
_cell_angle_alpha   114.08156973
_cell_angle_beta   90.00000000
_cell_angle_gamma   65.91843027
_symmetry_Int_Tables_number   1
_chemical_formula_structural   Zn2InCuS4
_chemical_formula_sum   'Zn2 In1 Cu1 S4'
_cell_volume   167.34073286
_cell_formula_units_Z   1
loop_
 _symmetry_equiv_pos_site_id
 _symmetry_equiv_pos_as_xyz
  1  'x, y, z'
loop_
 _atom_site_type_symbol
 _atom_site_label
 _atom_site_symmetry_multiplicity
 _atom_site_fract_x
 _atom_site_fract_y
 _atom_site_fract_z
 _atom_site_occupancy
  Zn  Zn0  1  0.75000000  0.50000000  0.75000000  1
  Zn  Zn1  1  0.25000000  0.50000000  0.25000000  1
  In  In2  1  0.50000000  0.00000000  0.50000000  1
  Cu  Cu3  1  -0.00000000  0.00000000  0.00000000  1
  S  S4  1  0.89280330  0.74281167  0.10719670  1
  S  S5  1  0.63561496  0.25718833  0.89280330  1
  S  S6  1  0.36438504  0.74281167  0.63561496  1
  S  S7  1  0.10719670  0.25718833  0.36438504  1
