# generated using pymatgen
data_Zn2SiGeN4
_symmetry_space_group_name_H-M   'P 1'
_cell_length_a   5.15309288
_cell_length_b   5.40144759
_cell_length_c   6.40616010
_cell_angle_alpha   89.83242153
_cell_angle_beta   90.00000000
_cell_angle_gamma   90.00000000
_symmetry_Int_Tables_number   1
_chemical_formula_structural   Zn2SiGeN4
_chemical_formula_sum   'Zn4 Si2 Ge2 N8'
_cell_volume   178.30932955
_cell_formula_units_Z   2
loop_
 _symmetry_equiv_pos_site_id
 _symmetry_equiv_pos_as_xyz
  1  'x, y, z'
loop_
 _atom_site_type_symbol
 _atom_site_label
 _atom_site_symmetry_multiplicity
 _atom_site_fract_x
 _atom_site_fract_y
 _atom_site_fract_z
 _atom_site_occupancy
  Zn  Zn0  1  0.99554485  0.92138588  0.37322894  1
  Zn  Zn1  1  0.49554485  0.07861412  0.62677106  1
  Zn  Zn2  1  0.49464076  0.58843967  0.87858943  1
  Zn  Zn3  1  0.99464076  0.41156033  0.12141057  1
  Si  Si4  1  0.99537416  0.92758823  0.87924206  1
  Si  Si5  1  0.49537416  0.07241177  0.12075794  1
  Ge  Ge6  1  0.49291962  0.57437491  0.36985060  1
  Ge  Ge7  1  0.99291962  0.42562509  0.63014940  1
  N  N8  1  0.13084670  0.56423996  0.38806685  1
  N  N9  1  0.63084670  0.43576004  0.61193315  1
  N  N10  1  0.65269038  0.94242682  0.90352362  1
  N  N11  1  0.15269038  0.05757318  0.09647638  1
  N  N12  1  0.09579307  0.61629319  0.86068776  1
  N  N13  1  0.59579307  0.38370681  0.13931224  1
  N  N14  1  0.59419046  0.90798708  0.34638703  1
  N  N15  1  0.09419046  0.09201292  0.65361297  1
