# generated using pymatgen
data_ZrMoW
_symmetry_space_group_name_H-M   'P 1'
_cell_length_a   5.41360491
_cell_length_b   5.41360491
_cell_length_c   5.41360491
_cell_angle_alpha   90.01645912
_cell_angle_beta   59.76208371
_cell_angle_gamma   119.78161470
_symmetry_Int_Tables_number   1
_chemical_formula_structural   ZrMoW
_chemical_formula_sum   'Zr2 Mo2 W2'
_cell_volume   112.16876419
_cell_formula_units_Z   2
loop_
 _symmetry_equiv_pos_site_id
 _symmetry_equiv_pos_as_xyz
  1  'x, y, z'
loop_
 _atom_site_type_symbol
 _atom_site_label
 _atom_site_symmetry_multiplicity
 _atom_site_fract_x
 _atom_site_fract_y
 _atom_site_fract_z
 _atom_site_occupancy
  Zr  Zr0  1  0.50000000  0.75004403  0.74995597  1
  Zr  Zr1  1  -0.00000000  0.99995597  0.00004403  1
  Mo  Mo2  1  0.75000000  0.37500000  0.87500000  1
  Mo  Mo3  1  0.25000000  0.37500000  0.37500000  1
  W  W4  1  0.25000000  0.87500000  0.37500000  1
  W  W5  1  0.75000000  0.37500000  0.37500000  1
