# generated using pymatgen
data_ZnGaFeO4
_symmetry_space_group_name_H-M   'P 1'
_cell_length_a   6.01499851
_cell_length_b   6.00591167
_cell_length_c   6.01101652
_cell_angle_alpha   90.00000000
_cell_angle_beta   60.02189675
_cell_angle_gamma   119.95003918
_symmetry_Int_Tables_number   1
_chemical_formula_structural   ZnGaFeO4
_chemical_formula_sum   'Zn2 Ga2 Fe2 O8'
_cell_volume   153.71575386
_cell_formula_units_Z   2
loop_
 _symmetry_equiv_pos_site_id
 _symmetry_equiv_pos_as_xyz
  1  'x, y, z'
loop_
 _atom_site_type_symbol
 _atom_site_label
 _atom_site_symmetry_multiplicity
 _atom_site_fract_x
 _atom_site_fract_y
 _atom_site_fract_z
 _atom_site_occupancy
  Zn  Zn0  1  0.24837385  0.12418693  0.12581307  1
  Zn  Zn1  1  0.75162615  0.87581307  0.87418693  1
  Ga  Ga2  1  0.50000000  0.00000000  0.50000000  1
  Ga  Ga3  1  0.50000000  0.50000000  0.50000000  1
  Fe  Fe4  1  0.00000000  0.50000000  0.00000000  1
  Fe  Fe5  1  0.00000000  0.50000000  0.50000000  1
  O  O6  1  0.97523589  0.71749616  0.26238205  1
  O  O7  1  0.97523589  0.25773974  0.26238205  1
  O  O8  1  0.51946054  0.25973027  0.71579374  1
  O  O9  1  0.51946054  0.25973027  0.26474572  1
  O  O10  1  0.02476411  0.28250384  0.73761795  1
  O  O11  1  0.02476411  0.74226026  0.73761795  1
  O  O12  1  0.48053946  0.74026973  0.28420626  1
  O  O13  1  0.48053946  0.74026973  0.73525428  1
