# generated using pymatgen
data_Fe6O11F
_symmetry_space_group_name_H-M   'P 1'
_cell_length_a   10.44020575
_cell_length_b   6.50409518
_cell_length_c   2.98370144
_cell_angle_alpha   90.00000000
_cell_angle_beta   90.00000000
_cell_angle_gamma   71.84348630
_symmetry_Int_Tables_number   1
_chemical_formula_structural   Fe6O11F
_chemical_formula_sum   'Fe6 O11 F1'
_cell_volume   192.51757067
_cell_formula_units_Z   1
loop_
 _symmetry_equiv_pos_site_id
 _symmetry_equiv_pos_as_xyz
  1  'x, y, z'
loop_
 _atom_site_type_symbol
 _atom_site_label
 _atom_site_symmetry_multiplicity
 _atom_site_fract_x
 _atom_site_fract_y
 _atom_site_fract_z
 _atom_site_occupancy
  Fe  Fe0  1  0.01558543  0.99219720  0.00000000  1
  Fe  Fe1  1  0.99777561  0.50113422  0.50000000  1
  Fe  Fe2  1  0.32870704  0.33571250  0.00000000  1
  Fe  Fe3  1  0.65563753  0.17213775  0.50000000  1
  Fe  Fe4  1  0.33533590  0.83237192  0.50000000  1
  Fe  Fe5  1  0.66783120  0.66605119  0.00000000  1
  O  O6  1  0.99940772  0.30744247  0.00000000  1
  O  O7  1  0.33680743  0.02325046  0.00000000  1
  O  O8  1  0.99929858  0.69322966  0.00000000  1
  O  O9  1  0.20114281  0.39949127  0.50000000  1
  O  O10  1  0.45073144  0.27469630  0.50000000  1
  O  O11  1  0.13918937  0.93044812  0.50000000  1
  O  O12  1  0.33678480  0.64004482  0.00000000  1
  O  O13  1  0.66536257  0.35849115  0.00000000  1
  O  O14  1  0.54021196  0.72986371  0.50000000  1
  O  O15  1  0.79403426  0.60286582  0.50000000  1
  O  O16  1  0.66530976  0.97606923  0.00000000  1
  F  F17  1  0.87084761  0.06450323  0.50000000  1
