# generated using pymatgen
data_ZrSeS
_symmetry_space_group_name_H-M   'P 1'
_cell_length_a   3.74897347
_cell_length_b   3.74896670
_cell_length_c   6.28286646
_cell_angle_alpha   90.00000001
_cell_angle_beta   90.00540419
_cell_angle_gamma   119.99993913
_symmetry_Int_Tables_number   1
_chemical_formula_structural   ZrSeS
_chemical_formula_sum   'Zr1 Se1 S1'
_cell_volume   76.47380063
_cell_formula_units_Z   1
loop_
 _symmetry_equiv_pos_site_id
 _symmetry_equiv_pos_as_xyz
  1  'x, y, z'
loop_
 _atom_site_type_symbol
 _atom_site_label
 _atom_site_symmetry_multiplicity
 _atom_site_fract_x
 _atom_site_fract_y
 _atom_site_fract_z
 _atom_site_occupancy
  Zr  Zr0  1  -0.00000117  -0.00000059  0.01313690  1
  Se  Se1  1  0.66661944  0.33330972  0.75121806  1
  S  S2  1  0.33338173  0.66669087  0.23564505  1
