# generated using pymatgen
data_YThFe6
_symmetry_space_group_name_H-M   'P 1'
_cell_length_a   5.11833979
_cell_length_b   5.11834054
_cell_length_c   16.72244726
_cell_angle_alpha   81.19697571
_cell_angle_beta   90.00000070
_cell_angle_gamma   119.99999977
_symmetry_Int_Tables_number   1
_chemical_formula_structural   YThFe6
_chemical_formula_sum   'Y3 Th3 Fe18'
_cell_volume   373.42179255
_cell_formula_units_Z   3
loop_
 _symmetry_equiv_pos_site_id
 _symmetry_equiv_pos_as_xyz
  1  'x, y, z'
loop_
 _atom_site_type_symbol
 _atom_site_label
 _atom_site_symmetry_multiplicity
 _atom_site_fract_x
 _atom_site_fract_y
 _atom_site_fract_z
 _atom_site_occupancy
  Y  Y0  1  0.42979279  0.85958558  0.71062163  1
  Y  Y1  1  0.00017198  0.00034396  0.99948406  1
  Y  Y2  1  0.49902814  0.99805629  0.50291557  1
  Th  Th3  1  0.57025860  0.14051719  0.28922421  1
  Th  Th4  1  0.07051120  0.14102240  0.78846641  1
  Th  Th5  1  0.92954406  0.85908813  0.21136781  1
  Fe  Fe6  1  0.66633007  0.33266014  0.00100979  1
  Fe  Fe7  1  0.16654254  0.33308508  0.50037238  1
  Fe  Fe8  1  0.83344377  0.66688754  0.49966870  1
  Fe  Fe9  1  0.33347866  0.66695732  -0.00043599  1
  Fe  Fe10  1  0.24993917  0.49987835  0.25018248  1
  Fe  Fe11  1  0.75064081  0.50128163  0.74807756  1
  Fe  Fe12  1  0.04119357  0.57918551  0.37962093  1
  Fe  Fe13  1  0.54099887  0.58073759  0.87826354  1
  Fe  Fe14  1  0.53799194  0.57918551  0.37962093  1
  Fe  Fe15  1  0.03973873  0.58073759  0.87826354  1
  Fe  Fe16  1  0.04119357  0.08238713  0.37962093  1
  Fe  Fe17  1  0.54099887  0.08199773  0.87826354  1
  Fe  Fe18  1  0.45861611  0.42064204  0.12074185  1
  Fe  Fe19  1  0.95927166  0.41967286  0.62105548  1
  Fe  Fe20  1  0.96202594  0.42064204  0.12074185  1
  Fe  Fe21  1  0.46040119  0.41967286  0.62105548  1
  Fe  Fe22  1  0.45861611  0.91723222  0.12074185  1
  Fe  Fe23  1  0.95927166  0.91854332  0.62105548  1
