# generated using pymatgen
data_Fe5(O4F)2
_symmetry_space_group_name_H-M   'P 1'
_cell_length_a   4.59761130
_cell_length_b   7.64973772
_cell_length_c   9.69365783
_cell_angle_alpha   108.54114174
_cell_angle_beta   90.00000000
_cell_angle_gamma   90.00000000
_symmetry_Int_Tables_number   1
_chemical_formula_structural   Fe5(O4F)2
_chemical_formula_sum   'Fe10 O16 F4'
_cell_volume   323.23516236
_cell_formula_units_Z   2
loop_
 _symmetry_equiv_pos_site_id
 _symmetry_equiv_pos_as_xyz
  1  'x, y, z'
loop_
 _atom_site_type_symbol
 _atom_site_label
 _atom_site_symmetry_multiplicity
 _atom_site_fract_x
 _atom_site_fract_y
 _atom_site_fract_z
 _atom_site_occupancy
  Fe  Fe0  1  0.51853339  0.31066370  0.90804105  1
  Fe  Fe1  1  0.48146661  0.08933630  0.29195895  1
  Fe  Fe2  1  0.51984121  0.89008119  0.70310744  1
  Fe  Fe3  1  0.50000000  0.70000000  0.10000000  1
  Fe  Fe4  1  0.48015879  0.50991881  0.49689256  1
  Fe  Fe5  1  0.01853339  0.58933630  0.79195895  1
  Fe  Fe6  1  0.00000000  0.20000000  0.60000000  1
  Fe  Fe7  1  0.98146661  0.81066370  0.40804105  1
  Fe  Fe8  1  0.98015879  0.39008119  0.20310744  1
  Fe  Fe9  1  0.01984121  0.00991881  0.99689256  1
  O  O10  1  0.80047245  0.96510736  0.58426872  1
  O  O11  1  0.80030404  0.56477512  0.37838245  1
  O  O12  1  0.80773950  0.36315765  0.77757828  1
  O  O13  1  0.80075739  0.15228595  0.17507462  1
  O  O14  1  0.69969596  0.06477512  0.87838245  1
  O  O15  1  0.69924261  0.65228595  0.67507462  1
  O  O16  1  0.69952755  0.46510736  0.08426872  1
  O  O17  1  0.69226050  0.86315765  0.27757828  1
  O  O18  1  0.30075739  0.74771405  0.52492538  1
  O  O19  1  0.30030404  0.33522488  0.32161755  1
  O  O20  1  0.30047245  0.93489264  0.11573128  1
  O  O21  1  0.30773950  0.53684235  0.92242172  1
  O  O22  1  0.19952755  0.43489264  0.61573128  1
  O  O23  1  0.19226050  0.03684235  0.42242172  1
  O  O24  1  0.19969596  0.83522488  0.82161755  1
  O  O25  1  0.19924261  0.24771405  0.02492538  1
  F  F26  1  0.80806960  0.75889136  0.97512509  1
  F  F27  1  0.69193040  0.25889136  0.47512509  1
  F  F28  1  0.30806960  0.14110864  0.72487491  1
  F  F29  1  0.19193040  0.64110864  0.22487491  1
