# generated using pymatgen
data_UFeCo
_symmetry_space_group_name_H-M   'P 1'
_cell_length_a   4.89465085
_cell_length_b   4.89465085
_cell_length_c   4.89465085
_cell_angle_alpha   90.42191209
_cell_angle_beta   59.34630304
_cell_angle_gamma   119.83578353
_symmetry_Int_Tables_number   1
_chemical_formula_structural   UFeCo
_chemical_formula_sum   'U2 Fe2 Co2'
_cell_volume   82.60378398
_cell_formula_units_Z   2
loop_
 _symmetry_equiv_pos_site_id
 _symmetry_equiv_pos_as_xyz
  1  'x, y, z'
loop_
 _atom_site_type_symbol
 _atom_site_label
 _atom_site_symmetry_multiplicity
 _atom_site_fract_x
 _atom_site_fract_y
 _atom_site_fract_z
 _atom_site_occupancy
  U  U0  1  0.50000000  0.75147027  0.74852973  1
  U  U1  1  -0.00000000  0.99852973  0.00147027  1
  Fe  Fe2  1  0.25000000  0.87500000  0.37500000  1
  Fe  Fe3  1  0.75000000  0.37500000  0.37500000  1
  Co  Co4  1  0.75000000  0.37500000  0.87500000  1
  Co  Co5  1  0.25000000  0.37500000  0.37500000  1
