# generated using pymatgen
data_Y6Mg(GeS7)2
_symmetry_space_group_name_H-M   'P 1'
_cell_length_a   5.69399311
_cell_length_b   9.96560884
_cell_length_c   9.96555962
_cell_angle_alpha   119.99980513
_cell_angle_beta   89.99969282
_cell_angle_gamma   89.99980626
_symmetry_Int_Tables_number   1
_chemical_formula_structural   Y6Mg(GeS7)2
_chemical_formula_sum   'Y6 Mg1 Ge2 S14'
_cell_volume   489.72688873
_cell_formula_units_Z   1
loop_
 _symmetry_equiv_pos_site_id
 _symmetry_equiv_pos_as_xyz
  1  'x, y, z'
loop_
 _atom_site_type_symbol
 _atom_site_label
 _atom_site_symmetry_multiplicity
 _atom_site_fract_x
 _atom_site_fract_y
 _atom_site_fract_z
 _atom_site_occupancy
  Y  Y0  1  0.24830455  0.23068861  0.35656863  1
  Y  Y1  1  0.24830040  0.64344269  0.87412816  1
  Y  Y2  1  0.24830154  0.12588356  0.76931212  1
  Y  Y3  1  0.75073849  0.76951419  0.64420317  1
  Y  Y4  1  0.75073200  0.35578065  0.12530436  1
  Y  Y5  1  0.75073887  0.87468072  0.23047979  1
  Mg  Mg6  1  0.48241883  0.99999865  0.99999939  1
  Ge  Ge7  1  0.82924125  0.33334654  0.66667388  1
  Ge  Ge8  1  0.33311183  0.66665948  0.33332802  1
  S  S9  1  0.99335509  0.10036289  0.51594309  1
  S  S10  1  0.99336327  0.48406754  0.58441703  1
  S  S11  1  0.99336109  0.41558556  0.89964852  1
  S  S12  1  0.49639160  0.89956812  0.48403599  1
  S  S13  1  0.49640449  0.51595646  0.41552956  1
  S  S14  1  0.49640291  0.58446250  0.10042509  1
  S  S15  1  0.44517659  0.33335213  0.66668027  1
  S  S16  1  0.94835821  0.66665917  0.33332562  1
  S  S17  1  0.71924937  0.16004841  0.25173902  1
  S  S18  1  0.71925601  0.74826541  0.90831727  1
  S  S19  1  0.71925446  0.09167921  0.83994158  1
  S  S20  1  0.23851218  0.83775787  0.74893939  1
  S  S21  1  0.23851761  0.25105383  0.08881190  1
  S  S22  1  0.23850936  0.91118581  0.16224813  1
