# generated using pymatgen
data_TiTeS
_symmetry_space_group_name_H-M   'P 1'
_cell_length_a   3.61230452
_cell_length_b   3.61253325
_cell_length_c   6.51612966
_cell_angle_alpha   89.99999996
_cell_angle_beta   90.00160582
_cell_angle_gamma   120.00209079
_symmetry_Int_Tables_number   1
_chemical_formula_structural   TiTeS
_chemical_formula_sum   'Ti1 Te1 S1'
_cell_volume   73.63891946
_cell_formula_units_Z   1
loop_
 _symmetry_equiv_pos_site_id
 _symmetry_equiv_pos_as_xyz
  1  'x, y, z'
loop_
 _atom_site_type_symbol
 _atom_site_label
 _atom_site_symmetry_multiplicity
 _atom_site_fract_x
 _atom_site_fract_y
 _atom_site_fract_z
 _atom_site_occupancy
  Ti  Ti0  1  0.00008652  0.00004326  0.03508709  1
  Te  Te1  1  0.66654151  0.33327075  0.74410049  1
  S  S2  1  0.33337197  0.66668598  0.22081242  1
