# generated using pymatgen
data_Y2Mg3(GeO4)3
_symmetry_space_group_name_H-M   'P 1'
_cell_length_a   10.68329070
_cell_length_b   10.68329070
_cell_length_c   10.68329070
_cell_angle_alpha   69.45302626
_cell_angle_beta   71.06396320
_cell_angle_gamma   108.93603680
_symmetry_Int_Tables_number   1
_chemical_formula_structural   Y2Mg3(GeO4)3
_chemical_formula_sum   'Y8 Mg12 Ge12 O48'
_cell_volume   938.37874724
_cell_formula_units_Z   4
loop_
 _symmetry_equiv_pos_site_id
 _symmetry_equiv_pos_as_xyz
  1  'x, y, z'
loop_
 _atom_site_type_symbol
 _atom_site_label
 _atom_site_symmetry_multiplicity
 _atom_site_fract_x
 _atom_site_fract_y
 _atom_site_fract_z
 _atom_site_occupancy
  Y  Y0  1  0.12146114  0.87146114  0.75000000  1
  Y  Y1  1  0.37853886  0.62853886  0.25000000  1
  Y  Y2  1  0.12146114  0.25000000  0.62853886  1
  Y  Y3  1  0.37853886  0.75000000  0.87146114  1
  Y  Y4  1  0.87853886  0.12853886  0.25000000  1
  Y  Y5  1  0.62146114  0.37146114  0.75000000  1
  Y  Y6  1  0.87853886  0.75000000  0.37146114  1
  Y  Y7  1  0.62146114  0.25000000  0.12853886  1
  Mg  Mg8  1  0.50000000  -0.00000000  0.00000000  1
  Mg  Mg9  1  0.50000000  0.50000000  0.50000000  1
  Mg  Mg10  1  -0.00000000  0.50000000  0.00000000  1
  Mg  Mg11  1  -0.00000000  -0.00000000  0.50000000  1
  Mg  Mg12  1  0.50000000  0.50000000  0.00000000  1
  Mg  Mg13  1  0.50000000  -0.00000000  0.50000000  1
  Mg  Mg14  1  -0.00000000  0.50000000  0.50000000  1
  Mg  Mg15  1  -0.00000000  -0.00000000  0.00000000  1
  Mg  Mg16  1  0.75000000  0.87500000  0.87500000  1
  Mg  Mg17  1  0.25000000  0.62500000  0.62500000  1
  Mg  Mg18  1  0.25000000  0.12500000  0.12500000  1
  Mg  Mg19  1  0.75000000  0.37500000  0.37500000  1
  Ge  Ge20  1  0.75000000  0.62500000  0.12500000  1
  Ge  Ge21  1  0.25000000  0.87500000  0.37500000  1
  Ge  Ge22  1  0.37451030  0.12451030  0.75000000  1
  Ge  Ge23  1  0.12548970  0.37548970  0.25000000  1
  Ge  Ge24  1  0.87451030  0.25000000  0.87548970  1
  Ge  Ge25  1  0.62548970  0.75000000  0.62451030  1
  Ge  Ge26  1  0.25000000  0.37500000  0.87500000  1
  Ge  Ge27  1  0.75000000  0.12500000  0.62500000  1
  Ge  Ge28  1  0.62548970  0.87548970  0.25000000  1
  Ge  Ge29  1  0.87451030  0.62451030  0.75000000  1
  Ge  Ge30  1  0.12548970  0.75000000  0.12451030  1
  Ge  Ge31  1  0.37451030  0.25000000  0.37548970  1
  O  O32  1  0.58802457  0.87899609  0.10008072  1
  O  O33  1  0.47907681  0.68810529  0.39991928  1
  O  O34  1  0.02092319  0.62100391  0.79097152  1
  O  O35  1  0.91197543  0.81189471  0.70902848  1
  O  O36  1  0.12522066  0.71302266  0.97390174  1
  O  O37  1  0.31307561  0.78697734  0.08780200  1
  O  O38  1  0.37477934  0.40087760  0.41219800  1
  O  O39  1  0.18692439  0.09912240  0.52609826  1
  O  O40  1  0.28408417  0.41554183  0.68597052  1
  O  O41  1  0.21591583  0.52994531  0.86854234  1
  O  O42  1  0.60151235  0.97005469  0.81402948  1
  O  O43  1  0.89848765  0.08445817  0.63145766  1
  O  O44  1  0.41197543  0.12100391  0.89991928  1
  O  O45  1  0.52092319  0.31189471  0.60008072  1
  O  O46  1  0.97907681  0.37899609  0.20902848  1
  O  O47  1  0.08802457  0.18810529  0.29097152  1
  O  O48  1  0.87477934  0.28697734  0.02609826  1
  O  O49  1  0.68692439  0.21302266  0.91219800  1
  O  O50  1  0.62522066  0.59912240  0.58780200  1
  O  O51  1  0.81307561  0.90087760  0.47390174  1
  O  O52  1  0.71591583  0.58445817  0.31402948  1
  O  O53  1  0.78408417  0.47005469  0.13145766  1
  O  O54  1  0.39848765  0.02994531  0.18597052  1
  O  O55  1  0.10151235  0.91554183  0.36854234  1
  O  O56  1  0.41197543  0.29097152  0.18810529  1
  O  O57  1  0.52092319  0.20902848  0.37899609  1
  O  O58  1  0.97907681  0.60008072  0.31189471  1
  O  O59  1  0.08802457  0.89991928  0.12100391  1
  O  O60  1  0.87477934  0.58780200  0.59912240  1
  O  O61  1  0.68692439  0.47390174  0.90087760  1
  O  O62  1  0.62522066  0.02609826  0.28697734  1
  O  O63  1  0.81307561  0.91219800  0.21302266  1
  O  O64  1  0.71591583  0.13145766  0.47005469  1
  O  O65  1  0.78408417  0.31402948  0.58445817  1
  O  O66  1  0.39848765  0.36854234  0.91554183  1
  O  O67  1  0.10151235  0.18597052  0.02994531  1
  O  O68  1  0.58802457  0.70902848  0.81189471  1
  O  O69  1  0.47907681  0.79097152  0.62100391  1
  O  O70  1  0.02092319  0.39991928  0.68810529  1
  O  O71  1  0.91197543  0.10008072  0.87899609  1
  O  O72  1  0.12522066  0.41219800  0.40087760  1
  O  O73  1  0.31307561  0.52609826  0.09912240  1
  O  O74  1  0.37477934  0.97390174  0.71302266  1
  O  O75  1  0.18692439  0.08780200  0.78697734  1
  O  O76  1  0.28408417  0.86854234  0.52994531  1
  O  O77  1  0.21591583  0.68597052  0.41554183  1
  O  O78  1  0.60151235  0.63145766  0.08445817  1
  O  O79  1  0.89848765  0.81402948  0.97005469  1
