# generated using pymatgen
data_VZn6P3O16
_symmetry_space_group_name_H-M   'P 1'
_cell_length_a   5.40817330
_cell_length_b   8.43761648
_cell_length_c   8.53919226
_cell_angle_alpha   106.09473309
_cell_angle_beta   71.80117702
_cell_angle_gamma   90.30208308
_symmetry_Int_Tables_number   1
_chemical_formula_structural   VZn6P3O16
_chemical_formula_sum   'V1 Zn6 P3 O16'
_cell_volume   354.24679504
_cell_formula_units_Z   1
loop_
 _symmetry_equiv_pos_site_id
 _symmetry_equiv_pos_as_xyz
  1  'x, y, z'
loop_
 _atom_site_type_symbol
 _atom_site_label
 _atom_site_symmetry_multiplicity
 _atom_site_fract_x
 _atom_site_fract_y
 _atom_site_fract_z
 _atom_site_occupancy
  V  V0  1  0.58664332  0.02859625  0.24139333  1
  Zn  Zn1  1  0.95883601  0.25623022  0.99432038  1
  Zn  Zn2  1  0.06444527  0.74484515  0.99601038  1
  Zn  Zn3  1  0.01754858  0.22671494  0.37654546  1
  Zn  Zn4  1  0.39288679  0.28885251  0.63614700  1
  Zn  Zn5  1  0.97358718  0.78503907  0.62926652  1
  Zn  Zn6  1  0.60473291  0.70983798  0.37343848  1
  P  P7  1  0.83676431  0.46808816  0.75672007  1
  P  P8  1  0.40824154  0.96473030  0.75575178  1
  P  P9  1  0.16513089  0.53457497  0.24399658  1
  O  O10  1  0.40626822  0.52925669  0.30000082  1
  O  O11  1  0.70545553  0.96678066  0.70211548  1
  O  O12  1  0.59232263  0.47225765  0.70368026  1
  O  O13  1  0.25362441  0.02841886  0.30127320  1
  O  O14  1  0.06606320  0.35266327  0.59832489  1
  O  O15  1  0.65826183  0.16305256  0.42116078  1
  O  O16  1  0.93739712  0.64816553  0.40492013  1
  O  O17  1  0.33879421  0.84969165  0.59451492  1
  O  O18  1  0.80259677  0.40956945  0.91476100  1
  O  O19  1  0.72207371  0.09994559  0.06872414  1
  O  O20  1  0.20314827  0.59029726  0.08405943  1
  O  O21  1  0.28270411  0.90683167  0.91420218  1
  O  O22  1  0.73863525  0.82800635  0.19796938  1
  O  O23  1  0.93101831  0.64798857  0.79248801  1
  O  O24  1  0.28157310  0.14552518  0.79291775  1
  O  O25  1  0.07124654  0.35403951  0.20529766  1
