# generated using pymatgen
data_VCo3AsO8
_symmetry_space_group_name_H-M   'P 1'
_cell_length_a   6.11064284
_cell_length_b   6.56354241
_cell_length_c   8.30678822
_cell_angle_alpha   89.91235623
_cell_angle_beta   90.00000000
_cell_angle_gamma   62.25748394
_symmetry_Int_Tables_number   1
_chemical_formula_structural   VCo3AsO8
_chemical_formula_sum   'V2 Co6 As2 O16'
_cell_volume   294.86602201
_cell_formula_units_Z   2
loop_
 _symmetry_equiv_pos_site_id
 _symmetry_equiv_pos_as_xyz
  1  'x, y, z'
loop_
 _atom_site_type_symbol
 _atom_site_label
 _atom_site_symmetry_multiplicity
 _atom_site_fract_x
 _atom_site_fract_y
 _atom_site_fract_z
 _atom_site_occupancy
  V  V0  1  0.62132374  0.75735252  0.11856212  1
  V  V1  1  0.37867626  0.24264748  0.88143788  1
  Co  Co2  1  0.50000000  0.00000000  0.50000000  1
  Co  Co3  1  -0.00000000  0.00000000  0.00000000  1
  Co  Co4  1  0.38544053  0.72884310  0.74791722  1
  Co  Co5  1  0.11428363  0.27115690  0.25208278  1
  Co  Co6  1  0.61455947  0.27115690  0.25208278  1
  Co  Co7  1  0.88571637  0.72884310  0.74791722  1
  As  As8  1  0.87653762  0.24692476  0.61540044  1
  As  As9  1  0.12346238  0.75307524  0.38459956  1
  O  O10  1  0.75353317  0.49293366  0.73190429  1
  O  O11  1  0.24646683  0.50706634  0.26809571  1
  O  O12  1  0.74924171  0.50151659  0.22894273  1
  O  O13  1  0.25075829  0.49848341  0.77105727  1
  O  O14  1  0.50207552  0.99584897  0.74580370  1
  O  O15  1  0.49792448  0.00415103  0.25419630  1
  O  O16  1  0.00388153  0.99223695  0.25107346  1
  O  O17  1  0.99611847  0.00776305  0.74892654  1
  O  O18  1  0.35498150  0.75881650  0.49977284  1
  O  O19  1  0.11379800  0.24118350  0.50022716  1
  O  O20  1  0.61533340  0.23382054  0.00245371  1
  O  O21  1  0.84915394  0.76617946  0.99754629  1
  O  O22  1  0.64501850  0.24118350  0.50022716  1
  O  O23  1  0.88620200  0.75881650  0.49977284  1
  O  O24  1  0.38466660  0.76617946  0.99754629  1
  O  O25  1  0.15084606  0.23382054  0.00245371  1
