# generated using pymatgen
data_TiNb6Tl2O18
_symmetry_space_group_name_H-M   'P 1'
_cell_length_a   7.68614082
_cell_length_b   7.69205985
_cell_length_c   8.30039038
_cell_angle_alpha   89.86479615
_cell_angle_beta   90.00000000
_cell_angle_gamma   119.97454709
_symmetry_Int_Tables_number   1
_chemical_formula_structural   TiNb6Tl2O18
_chemical_formula_sum   'Ti1 Nb6 Tl2 O18'
_cell_volume   425.09878290
_cell_formula_units_Z   1
loop_
 _symmetry_equiv_pos_site_id
 _symmetry_equiv_pos_as_xyz
  1  'x, y, z'
loop_
 _atom_site_type_symbol
 _atom_site_label
 _atom_site_symmetry_multiplicity
 _atom_site_fract_x
 _atom_site_fract_y
 _atom_site_fract_z
 _atom_site_occupancy
  Ti  Ti0  1  0.00199147  1.00000000  0.50000000  1
  Nb  Nb1  1  0.66608373  0.82997958  0.15280260  1
  Nb  Nb2  1  0.16942607  0.83104005  0.15219037  1
  Nb  Nb3  1  0.17075717  0.33498043  0.15168483  1
  Nb  Nb4  1  0.33838602  0.16895995  0.84780963  1
  Nb  Nb5  1  0.83610416  0.17002042  0.84719740  1
  Nb  Nb6  1  0.83577674  0.66501957  0.84831517  1
  Tl  Tl7  1  0.37511219  0.68714843  0.70310335  1
  Tl  Tl8  1  0.68796376  0.31285157  0.29689665  1
  O  O9  1  0.10278195  0.55050358  0.16179822  1
  O  O10  1  0.44811376  0.55190091  0.16109784  1
  O  O11  1  0.44899778  0.89625055  0.16194638  1
  O  O12  1  0.89621285  0.44809909  0.83890216  1
  O  O13  1  0.55227837  0.44949642  0.83820178  1
  O  O14  1  0.55274724  0.10374945  0.83805362  1
  O  O15  1  0.75880776  0.88055440  0.36421885  1
  O  O16  1  0.11985351  0.87979083  0.36281769  1
  O  O17  1  0.11856680  0.23986390  0.36290326  1
  O  O18  1  0.24006268  0.12020917  0.63718231  1
  O  O19  1  0.87825336  0.11944560  0.63578115  1
  O  O20  1  0.87870290  0.76013610  0.63709674  1
  O  O21  1  0.28526263  0.14232310  0.10191534  1
  O  O22  1  0.85671068  0.14220622  0.10305568  1
  O  O23  1  0.85762340  0.71564433  0.10265346  1
  O  O24  1  0.71450446  0.85779378  0.89694432  1
  O  O25  1  0.14293953  0.85767690  0.89808466  1
  O  O26  1  0.14197907  0.28435567  0.89734654  1
