# generated using pymatgen
data_W7N6
_symmetry_space_group_name_H-M   'P 1'
_cell_length_a   2.88656090
_cell_length_b   2.88656090
_cell_length_c   42.99285914
_cell_angle_alpha   89.99849867
_cell_angle_beta   90.00150133
_cell_angle_gamma   119.99940048
_symmetry_Int_Tables_number   1
_chemical_formula_structural   W7N6
_chemical_formula_sum   'W14 N12'
_cell_volume   310.23517180
_cell_formula_units_Z   2
loop_
 _symmetry_equiv_pos_site_id
 _symmetry_equiv_pos_as_xyz
  1  'x, y, z'
loop_
 _atom_site_type_symbol
 _atom_site_label
 _atom_site_symmetry_multiplicity
 _atom_site_fract_x
 _atom_site_fract_y
 _atom_site_fract_z
 _atom_site_occupancy
  W  W0  1  0.66664681  0.33335319  0.24071250  1
  W  W1  1  0.66666228  0.33333772  0.57158065  1
  W  W2  1  0.66667596  0.33332404  0.90352574  1
  W  W3  1  0.33336589  0.66663411  0.09095962  1
  W  W4  1  0.33331143  0.66668857  0.42700027  1
  W  W5  1  0.33333572  0.66666428  0.75786130  1
  W  W6  1  0.33330903  0.66669097  0.49422360  1
  W  W7  1  0.33332883  0.66667117  0.82572014  1
  W  W8  1  0.33331112  0.66668888  0.02329213  1
  W  W9  1  0.33331927  0.66668073  0.36086570  1
  W  W10  1  0.33331416  0.66668584  0.69061782  1
  W  W11  1  0.66664581  0.33335419  0.30809766  1
  W  W12  1  0.66668138  0.33331862  0.63825793  1
  W  W13  1  0.66668683  0.33331317  0.96984160  1
  N  N14  1  0.66678192  0.33321808  0.11722634  1
  N  N15  1  0.66665264  0.33334736  0.45979029  1
  N  N16  1  0.66667047  0.33332953  0.79118598  1
  N  N17  1  0.33331625  0.66668375  0.21449717  1
  N  N18  1  0.33331495  0.66668505  0.54230442  1
  N  N19  1  0.33334697  0.66665303  0.87428336  1
  N  N20  1  0.33329512  0.66670488  0.27592636  1
  N  N21  1  0.33333249  0.66666751  0.60413669  1
  N  N22  1  0.33333275  0.66666725  0.93669370  1
  N  N23  1  0.66663650  0.33336350  0.05549763  1
  N  N24  1  0.66665354  0.33334646  0.39412113  1
  N  N25  1  0.66667189  0.33332811  0.72511326  1
