# generated using pymatgen
data_V(CrS2)2
_symmetry_space_group_name_H-M   'P 1'
_cell_length_a   3.37528298
_cell_length_b   5.87996931
_cell_length_c   6.41901941
_cell_angle_alpha   114.78006999
_cell_angle_beta   74.75704025
_cell_angle_gamma   90.00000000
_symmetry_Int_Tables_number   1
_chemical_formula_structural   V(CrS2)2
_chemical_formula_sum   'V1 Cr2 S4'
_cell_volume   110.70963449
_cell_formula_units_Z   1
loop_
 _symmetry_equiv_pos_site_id
 _symmetry_equiv_pos_as_xyz
  1  'x, y, z'
loop_
 _atom_site_type_symbol
 _atom_site_label
 _atom_site_symmetry_multiplicity
 _atom_site_fract_x
 _atom_site_fract_y
 _atom_site_fract_z
 _atom_site_occupancy
  V  V0  1  0.25860347  0.69127335  0.48279305  1
  Cr  Cr1  1  0.73839217  0.31297478  0.52321566  1
  Cr  Cr2  1  0.00555526  0.99692180  0.98888949  1
  S  S3  1  0.36228551  0.98545816  0.27542898  1
  S  S4  1  0.63696785  0.02293667  0.72606430  1
  S  S5  1  0.10997784  0.54608422  0.78004433  1
  S  S6  1  0.88821790  0.44435101  0.22356420  1
