# generated using pymatgen
data_V2AgP3O11
_symmetry_space_group_name_H-M   'P 1'
_cell_length_a   7.31880628
_cell_length_b   7.31880628
_cell_length_c   8.90182962
_cell_angle_alpha   70.69536884
_cell_angle_beta   70.69536884
_cell_angle_gamma   72.86602581
_symmetry_Int_Tables_number   1
_chemical_formula_structural   V2AgP3O11
_chemical_formula_sum   'V4 Ag2 P6 O22'
_cell_volume   415.41947939
_cell_formula_units_Z   2
loop_
 _symmetry_equiv_pos_site_id
 _symmetry_equiv_pos_as_xyz
  1  'x, y, z'
loop_
 _atom_site_type_symbol
 _atom_site_label
 _atom_site_symmetry_multiplicity
 _atom_site_fract_x
 _atom_site_fract_y
 _atom_site_fract_z
 _atom_site_occupancy
  V  V0  1  0.11539778  0.63675829  0.03982120  1
  V  V1  1  0.36324171  0.88460222  0.46017880  1
  V  V2  1  0.88581522  0.36363828  0.95881271  1
  V  V3  1  0.63636172  0.11418478  0.54118729  1
  Ag  Ag4  1  0.01499798  0.48354765  0.49183755  1
  Ag  Ag5  1  0.51645235  0.98500202  0.00816245  1
  P  P6  1  0.67475427  0.54745541  0.28524541  1
  P  P7  1  0.45254459  0.32524573  0.21475459  1
  P  P8  1  0.32600142  0.45177467  0.71479459  1
  P  P9  1  0.54822533  0.67399858  0.78520541  1
  P  P10  1  0.04161350  0.95838650  0.25000000  1
  P  P11  1  0.95827664  0.04172336  0.75000000  1
  O  O12  1  0.48648222  0.51351778  0.25000000  1
  O  O13  1  0.51387636  0.48612364  0.75000000  1
  O  O14  1  0.38508803  0.72453499  0.93389412  1
  O  O15  1  0.27546501  0.61491197  0.56610588  1
  O  O16  1  0.61500483  0.27506204  0.06600798  1
  O  O17  1  0.72493796  0.38499517  0.43399202  1
  O  O18  1  0.24390143  0.38515357  0.19166464  1
  O  O19  1  0.61484643  0.75609857  0.30833536  1
  O  O20  1  0.75544512  0.61504417  0.80990537  1
  O  O21  1  0.38495583  0.24455488  0.69009463  1
  O  O22  1  0.04820101  0.75332984  0.22728119  1
  O  O23  1  0.24667016  0.95179899  0.27271881  1
  O  O24  1  0.95265986  0.24667767  0.77179779  1
  O  O25  1  0.75332233  0.04734014  0.72820221  1
  O  O26  1  0.98296733  0.87520019  0.90527108  1
  O  O27  1  0.12479981  0.01703267  0.59472892  1
  O  O28  1  0.01568134  0.12504979  0.09520969  1
  O  O29  1  0.87495021  0.98431866  0.40479031  1
  O  O30  1  0.84333410  0.53182649  0.12476757  1
  O  O31  1  0.46817351  0.15666590  0.37523243  1
  O  O32  1  0.15703084  0.46849624  0.87503042  1
  O  O33  1  0.53150376  0.84296916  0.62496958  1
