# generated using pymatgen
data_Fe4O7F
_symmetry_space_group_name_H-M   'P 1'
_cell_length_a   6.65326968
_cell_length_b   6.42923601
_cell_length_c   7.59038717
_cell_angle_alpha   64.94350894
_cell_angle_beta   63.73282697
_cell_angle_gamma   89.99999994
_symmetry_Int_Tables_number   1
_chemical_formula_structural   Fe4O7F
_chemical_formula_sum   'Fe8 O14 F2'
_cell_volume   256.63876137
_cell_formula_units_Z   2
loop_
 _symmetry_equiv_pos_site_id
 _symmetry_equiv_pos_as_xyz
  1  'x, y, z'
loop_
 _atom_site_type_symbol
 _atom_site_label
 _atom_site_symmetry_multiplicity
 _atom_site_fract_x
 _atom_site_fract_y
 _atom_site_fract_z
 _atom_site_occupancy
  Fe  Fe0  1  -0.00091909  0.00616990  0.98766020  1
  Fe  Fe1  1  0.50091909  0.49383010  0.01233980  1
  Fe  Fe2  1  0.25000000  0.25000000  0.50000000  1
  Fe  Fe3  1  0.87616337  0.37429027  0.25142045  1
  Fe  Fe4  1  0.39976251  0.87522755  0.24954491  1
  Fe  Fe5  1  0.62383663  0.12570973  0.74857955  1
  Fe  Fe6  1  0.10023749  0.62477245  0.75045509  1
  Fe  Fe7  1  0.75000000  0.75000000  0.50000000  1
  O  O8  1  0.99704598  0.30804814  0.99887859  1
  O  O9  1  0.50295402  0.19195186  0.00112141  1
  O  O10  1  0.99704598  0.69307327  0.99887859  1
  O  O11  1  0.18299406  0.37224734  0.25550532  1
  O  O12  1  0.56225852  0.36773092  0.26453817  1
  O  O13  1  0.31700594  0.12775266  0.74449468  1
  O  O14  1  0.75000000  0.05273327  0.50000000  1
  O  O15  1  0.25000000  0.56234064  0.50000000  1
  O  O16  1  0.50295402  0.80692673  0.00112141  1
  O  O17  1  0.75000000  0.44726673  0.50000000  1
  O  O18  1  0.25000000  0.93765936  0.50000000  1
  O  O19  1  0.93774148  0.13226908  0.73546183  1
  O  O20  1  0.69552954  0.87508558  0.24982784  1
  O  O21  1  0.80447046  0.62491442  0.75017216  1
  F  F22  1  0.08210471  0.87816654  0.24366592  1
  F  F23  1  0.41789529  0.62183346  0.75633408  1
