# generated using pymatgen
data_TiNbAlC
_symmetry_space_group_name_H-M   'P 1'
_cell_length_a   3.10321566
_cell_length_b   3.10321566
_cell_length_c   13.83347186
_cell_angle_alpha   90.00011133
_cell_angle_beta   89.99988867
_cell_angle_gamma   119.99834818
_symmetry_Int_Tables_number   1
_chemical_formula_structural   TiNbAlC
_chemical_formula_sum   'Ti2 Nb2 Al2 C2'
_cell_volume   115.37002004
_cell_formula_units_Z   2
loop_
 _symmetry_equiv_pos_site_id
 _symmetry_equiv_pos_as_xyz
  1  'x, y, z'
loop_
 _atom_site_type_symbol
 _atom_site_label
 _atom_site_symmetry_multiplicity
 _atom_site_fract_x
 _atom_site_fract_y
 _atom_site_fract_z
 _atom_site_occupancy
  Ti  Ti0  1  0.33333445  0.66666555  0.08239459  1
  Ti  Ti1  1  0.66666555  0.33333445  0.91760541  1
  Nb  Nb2  1  0.66666603  0.33333397  0.59003073  1
  Nb  Nb3  1  0.33333397  0.66666603  0.40996927  1
  Al  Al4  1  0.66667338  0.33332662  0.24561737  1
  Al  Al5  1  0.33332662  0.66667338  0.75438263  1
  C  C6  1  -0.00000000  0.00000000  0.50000000  1
  C  C7  1  -0.00000000  0.00000000  -0.00000000  1
