# generated using pymatgen
data_Tm2Mn12GaGe11
_symmetry_space_group_name_H-M   'P 1'
_cell_length_a   5.17341897
_cell_length_b   5.17610486
_cell_length_c   16.25223795
_cell_angle_alpha   89.99337406
_cell_angle_beta   90.01325876
_cell_angle_gamma   119.98283096
_symmetry_Int_Tables_number   1
_chemical_formula_structural   Tm2Mn12GaGe11
_chemical_formula_sum   'Tm2 Mn12 Ga1 Ge11'
_cell_volume   376.96377601
_cell_formula_units_Z   1
loop_
 _symmetry_equiv_pos_site_id
 _symmetry_equiv_pos_as_xyz
  1  'x, y, z'
loop_
 _atom_site_type_symbol
 _atom_site_label
 _atom_site_symmetry_multiplicity
 _atom_site_fract_x
 _atom_site_fract_y
 _atom_site_fract_z
 _atom_site_occupancy
  Tm  Tm0  1  0.99996756  0.00000000  0.00071088  1
  Tm  Tm1  1  0.00000897  0.00000000  0.49993755  1
  Mn  Mn2  1  0.99998198  0.49999259  0.12415012  1
  Mn  Mn3  1  0.00000309  0.49998855  0.62514539  1
  Mn  Mn4  1  0.49998153  -0.00000000  0.12415246  1
  Mn  Mn5  1  0.50000921  0.00000000  0.62517910  1
  Mn  Mn6  1  0.49998939  0.50000741  0.12415012  1
  Mn  Mn7  1  0.50001454  0.50001145  0.62514539  1
  Mn  Mn8  1  0.99997471  0.49998716  0.37551010  1
  Mn  Mn9  1  0.00000381  0.49998971  0.87481765  1
  Mn  Mn10  1  0.49998363  0.00000000  0.37551932  1
  Mn  Mn11  1  0.49999840  0.00000000  0.87476968  1
  Mn  Mn12  1  0.49998755  0.50001284  0.37551010  1
  Mn  Mn13  1  0.50001410  0.50001029  0.87481765  1
  Ga  Ga14  1  0.99999637  0.00000000  0.17263836  1
  Ge  Ge15  1  0.33327608  0.66664734  0.50007058  1
  Ge  Ge16  1  0.33330286  0.66663980  0.00044056  1
  Ge  Ge17  1  0.66666306  0.33336020  0.00044056  1
  Ge  Ge18  1  0.66662873  0.33335266  0.50007058  1
  Ge  Ge19  1  0.33326787  0.66661232  0.24883587  1
  Ge  Ge20  1  0.33328837  0.66661540  0.75002924  1
  Ge  Ge21  1  0.66665556  0.33338768  0.24883587  1
  Ge  Ge22  1  0.66667297  0.33338460  0.75002924  1
  Ge  Ge23  1  0.99995868  0.00000000  0.67177370  1
  Ge  Ge24  1  0.99997701  0.00000000  0.32882321  1
  Ge  Ge25  1  -0.00000599  0.00000000  0.82849673  1
