# generated using pymatgen
data_Ti2Te3
_symmetry_space_group_name_H-M   'P 1'
_cell_length_a   7.51505048
_cell_length_b   7.89739492
_cell_length_c   9.23829384
_cell_angle_alpha   89.06435010
_cell_angle_beta   75.25693646
_cell_angle_gamma   106.25440490
_symmetry_Int_Tables_number   1
_chemical_formula_structural   Ti2Te3
_chemical_formula_sum   'Ti8 Te12'
_cell_volume   506.77180999
_cell_formula_units_Z   4
loop_
 _symmetry_equiv_pos_site_id
 _symmetry_equiv_pos_as_xyz
  1  'x, y, z'
loop_
 _atom_site_type_symbol
 _atom_site_label
 _atom_site_symmetry_multiplicity
 _atom_site_fract_x
 _atom_site_fract_y
 _atom_site_fract_z
 _atom_site_occupancy
  Ti  Ti0  1  0.32868118  0.59951305  0.18209721  1
  Ti  Ti1  1  0.98564396  0.27200861  0.51490250  1
  Ti  Ti2  1  0.66942741  0.94395817  0.83789998  1
  Ti  Ti3  1  0.33795866  0.06713668  0.15123506  1
  Ti  Ti4  1  0.99721172  0.72281082  0.49542441  1
  Ti  Ti5  1  0.68107674  0.39466789  0.81850445  1
  Ti  Ti6  1  0.99984418  0.99748104  0.00327662  1
  Ti  Ti7  1  0.66688725  0.66912697  0.33006262  1
  Te  Te8  1  0.40009885  0.85851644  0.37296749  1
  Te  Te9  1  0.07465771  0.51932596  0.70303988  1
  Te  Te10  1  0.73606794  0.19071024  0.04112323  1
  Te  Te11  1  0.26675844  0.80808420  0.96029165  1
  Te  Te12  1  0.93037919  0.47590765  0.29242118  1
  Te  Te13  1  0.59199804  0.14731503  0.63025753  1
  Te  Te14  1  0.28399237  0.32532370  0.96932956  1
  Te  Te15  1  0.94482091  0.99557035  0.31455113  1
  Te  Te16  1  0.60666401  0.65174067  0.64445103  1
  Te  Te17  1  0.38268826  0.34136979  0.36389443  1
  Te  Te18  1  0.05999205  0.01499033  0.68882947  1
  Te  Te19  1  0.72181813  0.67110939  0.01877359  1
