# generated using pymatgen
data_Ti8Cr3(B4Ru9)2
_symmetry_space_group_name_H-M   'P 1'
_cell_length_a   2.97487633
_cell_length_b   17.62588207
_cell_length_c   17.62638204
_cell_angle_alpha   89.83212408
_cell_angle_beta   90.00000000
_cell_angle_gamma   90.00000000
_symmetry_Int_Tables_number   1
_chemical_formula_structural   Ti8Cr3(B4Ru9)2
_chemical_formula_sum   'Ti16 Cr6 B16 Ru36'
_cell_volume   924.23219110
_cell_formula_units_Z   2
loop_
 _symmetry_equiv_pos_site_id
 _symmetry_equiv_pos_as_xyz
  1  'x, y, z'
loop_
 _atom_site_type_symbol
 _atom_site_label
 _atom_site_symmetry_multiplicity
 _atom_site_fract_x
 _atom_site_fract_y
 _atom_site_fract_z
 _atom_site_occupancy
  Ti  Ti0  1  -0.00000000  0.80183062  0.30181549  1
  Ti  Ti1  1  0.00000000  0.19816938  0.69818451  1
  Ti  Ti2  1  0.00000000  0.69763669  0.80236244  1
  Ti  Ti3  1  0.00000000  0.30236331  0.19763756  1
  Ti  Ti4  1  0.00000000  0.68635733  0.53460237  1
  Ti  Ti5  1  -0.00000000  0.31364267  0.46539763  1
  Ti  Ti6  1  0.00000000  0.81256040  0.03538769  1
  Ti  Ti7  1  0.00000000  0.18743960  0.96461231  1
  Ti  Ti8  1  0.00000000  0.53539200  0.31254615  1
  Ti  Ti9  1  -0.00000000  0.46460800  0.68745385  1
  Ti  Ti10  1  0.00000000  0.03459732  0.18633355  1
  Ti  Ti11  1  -0.00000000  0.96540268  0.81366645  1
  Ti  Ti12  1  0.00000000  0.67127468  0.17127276  1
  Ti  Ti13  1  0.00000000  0.32872532  0.82872724  1
  Ti  Ti14  1  -0.00000000  0.50000000  0.50000000  1
  Ti  Ti15  1  0.00000000  -0.00000000  -0.00000000  1
  Cr  Cr16  1  -0.00000000  0.95363038  0.54637611  1
  Cr  Cr17  1  0.00000000  0.04636962  0.45362389  1
  Cr  Cr18  1  -0.00000000  0.54616925  0.04617073  1
  Cr  Cr19  1  0.00000000  0.45383075  0.95382927  1
  Cr  Cr20  1  -0.00000000  0.82807893  0.67193515  1
  Cr  Cr21  1  -0.00000000  0.17192107  0.32806485  1
  B  B22  1  0.00000000  0.83520054  0.46292988  1
  B  B23  1  0.00000000  0.16479946  0.53707012  1
  B  B24  1  0.00000000  0.66516712  0.96270174  1
  B  B25  1  0.00000000  0.33483288  0.03729826  1
  B  B26  1  0.00000000  0.46270366  0.16515900  1
  B  B27  1  -0.00000000  0.53729634  0.83484100  1
  B  B28  1  0.00000000  0.96292699  0.33519383  1
  B  B29  1  -0.00000000  0.03707301  0.66480617  1
  B  B30  1  0.00000000  0.66998139  0.37836329  1
  B  B31  1  0.00000000  0.33001861  0.62163671  1
  B  B32  1  0.00000000  0.83019186  0.87857319  1
  B  B33  1  0.00000000  0.16980814  0.12142681  1
  B  B34  1  0.00000000  0.37855627  0.33017082  1
  B  B35  1  0.00000000  0.62144373  0.66982918  1
  B  B36  1  0.00000000  0.87836949  0.16995952  1
  B  B37  1  0.00000000  0.12163051  0.83004048  1
  Ru  Ru38  1  0.50000000  0.83217145  0.55320154  1
  Ru  Ru39  1  0.50000000  0.16782855  0.44679846  1
  Ru  Ru40  1  0.50000000  0.66885051  0.05066684  1
  Ru  Ru41  1  0.50000000  0.33114949  0.94933316  1
  Ru  Ru42  1  0.50000000  0.55066871  0.16884059  1
  Ru  Ru43  1  0.50000000  0.44933129  0.83115941  1
  Ru  Ru44  1  0.50000000  0.05316963  0.33216597  1
  Ru  Ru45  1  0.50000000  0.94683037  0.66783403  1
  Ru  Ru46  1  0.50000000  0.59803353  0.43053806  1
  Ru  Ru47  1  0.50000000  0.40196647  0.56946194  1
  Ru  Ru48  1  0.50000000  0.90158465  0.92953258  1
  Ru  Ru49  1  0.50000000  0.09841535  0.07046742  1
  Ru  Ru50  1  0.50000000  0.42953563  0.40160044  1
  Ru  Ru51  1  0.50000000  0.57046437  0.59839956  1
  Ru  Ru52  1  0.50000000  0.93054337  0.09801237  1
  Ru  Ru53  1  0.50000000  0.06945663  0.90198763  1
  Ru  Ru54  1  0.50000000  0.75493879  0.41979207  1
  Ru  Ru55  1  0.50000000  0.24506121  0.58020793  1
  Ru  Ru56  1  0.50000000  0.74599077  0.91707830  1
  Ru  Ru57  1  0.50000000  0.25400923  0.08292170  1
  Ru  Ru58  1  0.50000000  0.41707803  0.24596707  1
  Ru  Ru59  1  0.50000000  0.58292197  0.75403293  1
  Ru  Ru60  1  0.50000000  0.91979955  0.25492631  1
  Ru  Ru61  1  0.50000000  0.08020045  0.74507369  1
  Ru  Ru62  1  0.50000000  0.66729453  0.28898207  1
  Ru  Ru63  1  0.50000000  0.33270547  0.71101793  1
  Ru  Ru64  1  0.50000000  0.83332280  0.78575063  1
  Ru  Ru65  1  0.50000000  0.16667720  0.21424937  1
  Ru  Ru66  1  0.50000000  0.28568495  0.33334016  1
  Ru  Ru67  1  0.50000000  0.71431505  0.66665984  1
  Ru  Ru68  1  0.50000000  0.78901143  0.16729885  1
  Ru  Ru69  1  0.50000000  0.21098857  0.83270115  1
  Ru  Ru70  1  0.50000000  0.91810110  0.41808895  1
  Ru  Ru71  1  0.50000000  0.08189890  0.58191105  1
  Ru  Ru72  1  0.50000000  0.58307362  0.91692550  1
  Ru  Ru73  1  0.50000000  0.41692638  0.08307450  1
