# generated using pymatgen
data_Y5Pt4
_symmetry_space_group_name_H-M   'P 1'
_cell_length_a   7.53693129
_cell_length_b   7.60729378
_cell_length_c   14.74598221
_cell_angle_alpha   90.00000000
_cell_angle_beta   90.00000000
_cell_angle_gamma   90.00000000
_symmetry_Int_Tables_number   1
_chemical_formula_structural   Y5Pt4
_chemical_formula_sum   'Y20 Pt16'
_cell_volume   845.47048261
_cell_formula_units_Z   4
loop_
 _symmetry_equiv_pos_site_id
 _symmetry_equiv_pos_as_xyz
  1  'x, y, z'
loop_
 _atom_site_type_symbol
 _atom_site_label
 _atom_site_symmetry_multiplicity
 _atom_site_fract_x
 _atom_site_fract_y
 _atom_site_fract_z
 _atom_site_occupancy
  Y  Y0  1  0.68138705  0.98822070  0.75000000  1
  Y  Y1  1  0.18138705  0.51177930  0.75000000  1
  Y  Y2  1  0.81861295  0.48822070  0.25000000  1
  Y  Y3  1  0.31861295  0.01177930  0.25000000  1
  Y  Y4  1  0.65629956  0.83326904  0.37765752  1
  Y  Y5  1  0.15629956  0.66673096  0.12234248  1
  Y  Y6  1  0.84370044  0.33326904  0.62234248  1
  Y  Y7  1  0.34370044  0.16673096  0.87765752  1
  Y  Y8  1  0.34370044  0.16673096  0.62234248  1
  Y  Y9  1  0.84370044  0.33326904  0.87765752  1
  Y  Y10  1  0.15629956  0.66673096  0.37765752  1
  Y  Y11  1  0.65629956  0.83326904  0.12234248  1
  Y  Y12  1  0.99783377  0.81925900  0.59307482  1
  Y  Y13  1  0.49783377  0.68074100  0.90692518  1
  Y  Y14  1  0.50216623  0.31925900  0.40692518  1
  Y  Y15  1  0.00216623  0.18074100  0.09307482  1
  Y  Y16  1  0.00216623  0.18074100  0.40692518  1
  Y  Y17  1  0.50216623  0.31925900  0.09307482  1
  Y  Y18  1  0.49783377  0.68074100  0.59307482  1
  Y  Y19  1  0.99783377  0.81925900  0.90692518  1
  Pt  Pt20  1  0.81506054  0.64116490  0.75000000  1
  Pt  Pt21  1  0.31506054  0.85883510  0.75000000  1
  Pt  Pt22  1  0.68493946  0.14116490  0.25000000  1
  Pt  Pt23  1  0.18493946  0.35883510  0.25000000  1
  Pt  Pt24  1  0.54726846  0.38767609  0.75000000  1
  Pt  Pt25  1  0.04726846  0.11232391  0.75000000  1
  Pt  Pt26  1  0.95273154  0.88767609  0.25000000  1
  Pt  Pt27  1  0.45273154  0.61232391  0.25000000  1
  Pt  Pt28  1  0.81703543  0.53210672  0.45811450  1
  Pt  Pt29  1  0.31703543  0.96789328  0.04188550  1
  Pt  Pt30  1  0.68296457  0.03210672  0.54188550  1
  Pt  Pt31  1  0.18296457  0.46789328  0.95811450  1
  Pt  Pt32  1  0.18296457  0.46789328  0.54188550  1
  Pt  Pt33  1  0.68296457  0.03210672  0.95811450  1
  Pt  Pt34  1  0.31703543  0.96789328  0.45811450  1
  Pt  Pt35  1  0.81703543  0.53210672  0.04188550  1
