# generated using pymatgen
data_TiAlVC
_symmetry_space_group_name_H-M   'P 1'
_cell_length_a   2.99531712
_cell_length_b   2.99540893
_cell_length_c   13.41370486
_cell_angle_alpha   89.99890325
_cell_angle_beta   89.99707745
_cell_angle_gamma   59.99851380
_symmetry_Int_Tables_number   1
_chemical_formula_structural   TiAlVC
_chemical_formula_sum   'Ti2 Al2 V2 C2'
_cell_volume   104.22497572
_cell_formula_units_Z   2
loop_
 _symmetry_equiv_pos_site_id
 _symmetry_equiv_pos_as_xyz
  1  'x, y, z'
loop_
 _atom_site_type_symbol
 _atom_site_label
 _atom_site_symmetry_multiplicity
 _atom_site_fract_x
 _atom_site_fract_y
 _atom_site_fract_z
 _atom_site_occupancy
  Ti  Ti0  1  0.33330057  0.33334798  0.58769199  1
  Ti  Ti1  1  0.66669943  0.66665202  0.41230801  1
  Al  Al2  1  0.33333542  0.33333211  0.24135274  1
  Al  Al3  1  0.66666458  0.66666789  0.75864726  1
  V  V4  1  0.66664498  0.66667722  0.08087273  1
  V  V5  1  0.33335502  0.33332278  0.91912727  1
  C  C6  1  -0.00000000  -0.00000000  0.50000000  1
  C  C7  1  -0.00000000  -0.00000000  -0.00000000  1
