# generated using pymatgen
data_YbCd6
_symmetry_space_group_name_H-M   'P 1'
_cell_length_a   13.76089892
_cell_length_b   13.76089892
_cell_length_c   13.76089892
_cell_angle_alpha   71.16207528
_cell_angle_beta   70.40577556
_cell_angle_gamma   109.98360086
_symmetry_Int_Tables_number   1
_chemical_formula_structural   YbCd6
_chemical_formula_sum   'Yb12 Cd72'
_cell_volume   2005.73571022
_cell_formula_units_Z   12
loop_
 _symmetry_equiv_pos_site_id
 _symmetry_equiv_pos_as_xyz
  1  'x, y, z'
loop_
 _atom_site_type_symbol
 _atom_site_label
 _atom_site_symmetry_multiplicity
 _atom_site_fract_x
 _atom_site_fract_y
 _atom_site_fract_z
 _atom_site_occupancy
  Yb  Yb0  1  0.70554821  0.51732573  0.18822248  1
  Yb  Yb1  1  0.29445179  0.48267427  0.81177752  1
  Yb  Yb2  1  0.70554821  0.89377069  0.81177752  1
  Yb  Yb3  1  0.29445179  0.10622931  0.18822248  1
  Yb  Yb4  1  0.80944980  0.30358077  0.88696944  1
  Yb  Yb5  1  0.19055020  0.69641923  0.11303056  1
  Yb  Yb6  1  0.19055020  0.30358077  0.50586903  1
  Yb  Yb7  1  0.80944980  0.69641923  0.49413097  1
  Yb  Yb8  1  0.48920519  0.18920506  0.69999987  1
  Yb  Yb9  1  0.51079481  0.81079494  0.30000013  1
  Yb  Yb10  1  0.11079507  0.81079494  0.69999987  1
  Yb  Yb11  1  0.88920493  0.18920506  0.30000013  1
  Cd  Cd12  1  0.81399788  0.31399788  0.50000000  1
  Cd  Cd13  1  0.18600212  0.68600212  0.50000000  1
  Cd  Cd14  1  0.50000000  0.19047175  0.30952825  1
  Cd  Cd15  1  0.50000000  0.80952825  0.69047175  1
  Cd  Cd16  1  0.68498245  0.50000000  0.81501755  1
  Cd  Cd17  1  0.31501755  0.50000000  0.18498245  1
  Cd  Cd18  1  0.90322530  0.64067248  0.26255283  1
  Cd  Cd19  1  0.09677470  0.35932752  0.73744717  1
  Cd  Cd20  1  0.90322530  0.16577813  0.73744717  1
  Cd  Cd21  1  0.09677470  0.83422187  0.26255283  1
  Cd  Cd22  1  0.76756633  0.09312340  0.13931027  1
  Cd  Cd23  1  0.23243367  0.90687660  0.86068973  1
  Cd  Cd24  1  0.23243367  0.09312340  0.67444293  1
  Cd  Cd25  1  0.76756633  0.90687660  0.32555707  1
  Cd  Cd26  1  0.33869885  0.24086376  0.90216492  1
  Cd  Cd27  1  0.66130115  0.75913624  0.09783508  1
  Cd  Cd28  1  0.85697132  0.75913624  0.90216492  1
  Cd  Cd29  1  0.14302868  0.24086376  0.09783508  1
  Cd  Cd30  1  0.91929232  0.45208679  0.22242032  1
  Cd  Cd31  1  0.32549290  0.54791321  0.53279447  1
  Cd  Cd32  1  0.67450710  0.14171264  0.77757968  1
  Cd  Cd33  1  0.08070768  0.85828736  0.46720553  1
  Cd  Cd34  1  0.54105824  0.08330323  0.14207839  1
  Cd  Cd35  1  0.22538162  0.68313664  0.85792161  1
  Cd  Cd36  1  0.45894176  0.31686336  0.45775501  1
  Cd  Cd37  1  0.77461838  0.91669677  0.54224499  1
  Cd  Cd38  1  0.54239258  0.45990276  0.68394177  1
  Cd  Cd39  1  0.45760742  0.77366565  0.08248982  1
  Cd  Cd40  1  0.85615547  0.54009724  0.91751018  1
  Cd  Cd41  1  0.14384453  0.22633435  0.31605823  1
  Cd  Cd42  1  0.08070768  0.54791321  0.77757968  1
  Cd  Cd43  1  0.67450710  0.45208679  0.46720553  1
  Cd  Cd44  1  0.32549290  0.85828736  0.22242032  1
  Cd  Cd45  1  0.91929232  0.14171264  0.53279447  1
  Cd  Cd46  1  0.45894176  0.91669677  0.85792161  1
  Cd  Cd47  1  0.77461838  0.31686336  0.14207839  1
  Cd  Cd48  1  0.54105824  0.68313664  0.54224499  1
  Cd  Cd49  1  0.22538162  0.08330323  0.45775501  1
  Cd  Cd50  1  0.45760742  0.54009724  0.31605823  1
  Cd  Cd51  1  0.54239258  0.22633435  0.91751018  1
  Cd  Cd52  1  0.14384453  0.45990276  0.08248982  1
  Cd  Cd53  1  0.85615547  0.77366565  0.68394177  1
  Cd  Cd54  1  0.65526086  0.25000281  0.40525806  1
  Cd  Cd55  1  0.34473914  0.74999719  0.59474194  1
  Cd  Cd56  1  0.65526086  0.06051892  0.59474194  1
  Cd  Cd57  1  0.34473914  0.93948108  0.40525806  1
  Cd  Cd58  1  0.59591397  0.34505375  0.05903228  1
  Cd  Cd59  1  0.40408603  0.65494625  0.94096772  1
  Cd  Cd60  1  0.40408603  0.34505375  0.25086022  1
  Cd  Cd61  1  0.59591397  0.65494625  0.74913978  1
  Cd  Cd62  1  0.74520571  0.40300700  0.65780129  1
  Cd  Cd63  1  0.25479429  0.59699300  0.34219871  1
  Cd  Cd64  1  0.93919171  0.59699300  0.65780129  1
  Cd  Cd65  1  0.06080829  0.40300700  0.34219871  1
  Cd  Cd66  1  0.00113121  0.67345978  0.00262900  1
  Cd  Cd67  1  0.32391122  0.32654022  0.67232857  1
  Cd  Cd68  1  0.67608878  0.00376021  0.99737100  1
  Cd  Cd69  1  0.99886879  0.99623979  0.32767143  1
  Cd  Cd70  1  0.99886879  0.32654022  0.99737100  1
  Cd  Cd71  1  0.67608878  0.67345978  0.32767143  1
  Cd  Cd72  1  0.32391122  0.99623979  0.00262900  1
  Cd  Cd73  1  0.00113121  0.00376021  0.67232857  1
  Cd  Cd74  1  0.00000000  0.58812391  0.41187609  1
  Cd  Cd75  1  0.00000000  0.41187609  0.58812391  1
  Cd  Cd76  1  0.59782912  0.00000000  0.40217088  1
  Cd  Cd77  1  0.40217088  0.00000000  0.59782912  1
  Cd  Cd78  1  0.40295563  0.40295563  -0.00000000  1
  Cd  Cd79  1  0.59704437  0.59704437  -0.00000000  1
  Cd  Cd80  1  0.90849912  0.82106013  0.08743899  1
  Cd  Cd81  1  0.09150088  0.17893987  0.91256101  1
  Cd  Cd82  1  0.90849912  0.99593811  0.91256101  1
  Cd  Cd83  1  0.09150088  0.00406189  0.08743899  1
