# generated using pymatgen
data_TbFe11Mo
_symmetry_space_group_name_H-M   'P 1'
_cell_length_a   4.69956260
_cell_length_b   6.46463000
_cell_length_c   6.46463000
_cell_angle_alpha   97.86070011
_cell_angle_beta   111.31424073
_cell_angle_gamma   68.68575927
_symmetry_Int_Tables_number   1
_chemical_formula_structural   TbFe11Mo
_chemical_formula_sum   'Tb1 Fe11 Mo1'
_cell_volume   170.45053773
_cell_formula_units_Z   1
loop_
 _symmetry_equiv_pos_site_id
 _symmetry_equiv_pos_as_xyz
  1  'x, y, z'
loop_
 _atom_site_type_symbol
 _atom_site_label
 _atom_site_symmetry_multiplicity
 _atom_site_fract_x
 _atom_site_fract_y
 _atom_site_fract_z
 _atom_site_occupancy
  Tb  Tb0  1  0.00658246  0.99341754  0.00658246  1
  Fe  Fe1  1  0.72948628  0.77051372  0.22948628  1
  Fe  Fe2  1  0.27258186  0.22741814  0.77258186  1
  Fe  Fe3  1  0.49839933  0.77885983  0.77565850  1
  Fe  Fe4  1  0.49839933  0.22434150  0.22114017  1
  Fe  Fe5  1  0.50058928  0.99800157  0.49989387  1
  Fe  Fe6  1  0.00130302  0.99800157  0.49989387  1
  Fe  Fe7  1  0.50058928  0.50010613  0.00199843  1
  Fe  Fe8  1  0.00130302  0.50010613  0.00199843  1
  Fe  Fe9  1  0.35866615  0.64133385  0.35866615  1
  Fe  Fe10  1  0.99930668  0.35926351  0.35787687  1
  Fe  Fe11  1  0.99930668  0.64212313  0.64073649  1
  Mo  Mo12  1  0.63348663  0.36651337  0.63348663  1
