# generated using pymatgen
data_Fe4O7F
_symmetry_space_group_name_H-M   'P 1'
_cell_length_a   5.53032121
_cell_length_b   9.28766112
_cell_length_c   5.54552321
_cell_angle_alpha   90.00000000
_cell_angle_beta   65.49226125
_cell_angle_gamma   90.00000000
_symmetry_Int_Tables_number   1
_chemical_formula_structural   Fe4O7F
_chemical_formula_sum   'Fe8 O14 F2'
_cell_volume   259.17637791
_cell_formula_units_Z   2
loop_
 _symmetry_equiv_pos_site_id
 _symmetry_equiv_pos_as_xyz
  1  'x, y, z'
loop_
 _atom_site_type_symbol
 _atom_site_label
 _atom_site_symmetry_multiplicity
 _atom_site_fract_x
 _atom_site_fract_y
 _atom_site_fract_z
 _atom_site_occupancy
  Fe  Fe0  1  0.99755925  0.00198700  0.00032569  1
  Fe  Fe1  1  0.01157800  0.49344271  0.99899078  1
  Fe  Fe2  1  0.50008019  0.25350512  0.01774674  1
  Fe  Fe3  1  0.01157800  0.25655729  0.49899078  1
  Fe  Fe4  1  0.48779060  0.75638193  0.98569017  1
  Fe  Fe5  1  0.99755925  0.74801300  0.50032569  1
  Fe  Fe6  1  0.50008019  0.49649488  0.51774674  1
  Fe  Fe7  1  0.48779060  0.99361807  0.48569017  1
  O  O8  1  0.16046167  0.15589772  0.15627871  1
  O  O9  1  0.15424945  0.65344475  0.15257386  1
  O  O10  1  0.34308735  0.84289604  0.33132459  1
  O  O11  1  0.35637439  0.35368261  0.35561873  1
  O  O12  1  0.16046167  0.59410228  0.65627871  1
  O  O13  1  0.65145123  0.09791107  0.15587098  1
  O  O14  1  0.15424945  0.09655525  0.65257386  1
  O  O15  1  0.84596041  0.40599500  0.35189845  1
  O  O16  1  0.35637439  0.39631739  0.85561873  1
  O  O17  1  0.83763803  0.90535572  0.34253796  1
  O  O18  1  0.34308735  0.90710396  0.83132459  1
  O  O19  1  0.65145123  0.65208893  0.65587098  1
  O  O20  1  0.84596041  0.34400500  0.85189845  1
  O  O21  1  0.83763803  0.84464428  0.84253796  1
  F  F22  1  0.65376942  0.60034176  0.15114334  1
  F  F23  1  0.65376942  0.14965824  0.65114334  1
