# generated using pymatgen
data_Sr3Ca(PbO4)2
_symmetry_space_group_name_H-M   'P 1'
_cell_length_a   3.52520175
_cell_length_b   6.15232983
_cell_length_c   10.19959768
_cell_angle_alpha   89.74524582
_cell_angle_beta   90.00000000
_cell_angle_gamma   90.00000000
_symmetry_Int_Tables_number   1
_chemical_formula_structural   Sr3Ca(PbO4)2
_chemical_formula_sum   'Sr3 Ca1 Pb2 O8'
_cell_volume   221.20876760
_cell_formula_units_Z   1
loop_
 _symmetry_equiv_pos_site_id
 _symmetry_equiv_pos_as_xyz
  1  'x, y, z'
loop_
 _atom_site_type_symbol
 _atom_site_label
 _atom_site_symmetry_multiplicity
 _atom_site_fract_x
 _atom_site_fract_y
 _atom_site_fract_z
 _atom_site_occupancy
  Sr  Sr0  1  0.50000000  0.42838112  0.82344540  1
  Sr  Sr1  1  0.50000000  0.07518109  0.31369344  1
  Sr  Sr2  1  0.50000000  0.92736110  0.67967559  1
  Ca  Ca3  1  0.50000000  0.57383488  0.18340229  1
  Pb  Pb4  1  -0.00000000  0.50196488  0.49646221  1
  Pb  Pb5  1  -0.00000000  0.99823065  0.00326437  1
  O  O6  1  0.50000000  0.72897310  0.44692790  1
  O  O7  1  0.50000000  0.27148105  0.54659292  1
  O  O8  1  0.50000000  0.23309087  0.05711091  1
  O  O9  1  0.50000000  0.77125258  0.95566226  1
  O  O10  1  -0.00000000  0.84689891  0.19414949  1
  O  O11  1  0.00000000  0.13336196  0.80828533  1
  O  O12  1  0.00000000  0.37638034  0.29813825  1
  O  O13  1  0.00000000  0.63360747  0.69318965  1
