# generated using pymatgen
data_SrCa3Ag4
_symmetry_space_group_name_H-M   'P 1'
_cell_length_a   4.13115481
_cell_length_b   4.82290343
_cell_length_c   11.49853482
_cell_angle_alpha   90.00000000
_cell_angle_beta   90.00000000
_cell_angle_gamma   90.00000000
_symmetry_Int_Tables_number   1
_chemical_formula_structural   SrCa3Ag4
_chemical_formula_sum   'Sr1 Ca3 Ag4'
_cell_volume   229.09865560
_cell_formula_units_Z   1
loop_
 _symmetry_equiv_pos_site_id
 _symmetry_equiv_pos_as_xyz
  1  'x, y, z'
loop_
 _atom_site_type_symbol
 _atom_site_label
 _atom_site_symmetry_multiplicity
 _atom_site_fract_x
 _atom_site_fract_y
 _atom_site_fract_z
 _atom_site_occupancy
  Sr  Sr0  1  0.50000000  0.75000000  0.35553920  1
  Ca  Ca1  1  0.00000000  0.75000000  0.86086221  1
  Ca  Ca2  1  0.00000000  0.25000000  0.13214591  1
  Ca  Ca3  1  0.50000000  0.25000000  0.64507851  1
  Ag  Ag4  1  0.50000000  0.75000000  0.06703113  1
  Ag  Ag5  1  0.00000000  0.75000000  0.58235758  1
  Ag  Ag6  1  0.00000000  0.25000000  0.43210106  1
  Ag  Ag7  1  0.50000000  0.25000000  0.92488439  1
