# generated using pymatgen
data_Sr4Li3InGe6
_symmetry_space_group_name_H-M   'P 1'
_cell_length_a   4.66335717
_cell_length_b   7.34322601
_cell_length_c   10.17088631
_cell_angle_alpha   90.50934132
_cell_angle_beta   76.74706311
_cell_angle_gamma   90.00000000
_symmetry_Int_Tables_number   1
_chemical_formula_structural   Sr4Li3InGe6
_chemical_formula_sum   'Sr4 Li3 In1 Ge6'
_cell_volume   339.00266093
_cell_formula_units_Z   1
loop_
 _symmetry_equiv_pos_site_id
 _symmetry_equiv_pos_as_xyz
  1  'x, y, z'
loop_
 _atom_site_type_symbol
 _atom_site_label
 _atom_site_symmetry_multiplicity
 _atom_site_fract_x
 _atom_site_fract_y
 _atom_site_fract_z
 _atom_site_occupancy
  Sr  Sr0  1  0.34569309  0.75187581  0.30861383  1
  Sr  Sr1  1  0.65655756  0.23270404  0.68688488  1
  Sr  Sr2  1  0.55453099  0.74972894  0.89093803  1
  Sr  Sr3  1  0.44466953  0.25226026  0.11066094  1
  Li  Li4  1  0.80922758  0.43967479  0.38154484  1
  Li  Li5  1  0.18939880  0.94741035  0.62120239  1
  Li  Li6  1  0.80895191  0.06297635  0.38209619  1
  In  In7  1  0.19270761  0.55198470  0.61458478  1
  Ge  Ge8  1  0.72210859  0.76418392  0.55578283  1
  Ge  Ge9  1  0.27873175  0.24407734  0.44253649  1
  Ge  Ge10  1  0.05729895  0.07293238  0.88540210  1
  Ge  Ge11  1  0.94233367  0.92913975  0.11533265  1
  Ge  Ge12  1  0.05511282  0.41834364  0.88977436  1
  Ge  Ge13  1  0.94267716  0.58270774  0.11464567  1
