# generated using pymatgen
data_Sr4Al6MoO16
_symmetry_space_group_name_H-M   'P 1'
_cell_length_a   8.28849674
_cell_length_b   8.28849674
_cell_length_c   8.28849674
_cell_angle_alpha   70.01655866
_cell_angle_beta   71.54843424
_cell_angle_gamma   109.98344134
_symmetry_Int_Tables_number   1
_chemical_formula_structural   Sr4Al6MoO16
_chemical_formula_sum   'Sr4 Al6 Mo1 O16'
_cell_volume   438.23037116
_cell_formula_units_Z   1
loop_
 _symmetry_equiv_pos_site_id
 _symmetry_equiv_pos_as_xyz
  1  'x, y, z'
loop_
 _atom_site_type_symbol
 _atom_site_label
 _atom_site_symmetry_multiplicity
 _atom_site_fract_x
 _atom_site_fract_y
 _atom_site_fract_z
 _atom_site_occupancy
  Sr  Sr0  1  0.50863017  0.50000000  0.50863017  1
  Sr  Sr1  1  0.50863017  0.01726035  0.99136983  1
  Sr  Sr2  1  0.99136983  0.50000000  0.99136983  1
  Sr  Sr3  1  0.99136983  0.98273965  0.50863017  1
  Al  Al4  1  0.75524206  0.25165239  0.49641032  1
  Al  Al5  1  0.25000000  0.50000000  0.25000000  1
  Al  Al6  1  0.49641032  0.74834761  0.75524206  1
  Al  Al7  1  0.75000000  0.50000000  0.75000000  1
  Al  Al8  1  0.25193729  0.74834761  0.49641032  1
  Al  Al9  1  0.49641032  0.25165239  0.25193729  1
  Mo  Mo10  1  0.00000000  0.00000000  -0.00000000  1
  O  O11  1  0.32770979  0.66331923  0.33560944  1
  O  O12  1  0.65227868  0.65429570  0.69342562  1
  O  O13  1  0.66059684  0.32119368  0.33940316  1
  O  O14  1  0.69342562  0.34570430  0.65227868  1
  O  O15  1  0.33560944  0.66331923  0.00107133  1
  O  O16  1  0.33940316  0.00000000  0.33940316  1
  O  O17  1  0.00107133  0.33668077  0.33560944  1
  O  O18  1  0.65227868  0.34570430  0.00201702  1
  O  O19  1  0.33940316  0.67880632  0.66059684  1
  O  O20  1  0.00201702  0.65429570  0.65227868  1
  O  O21  1  0.33560944  0.33668077  0.32770979  1
  O  O22  1  0.66059684  -0.00000000  0.66059684  1
  O  O23  1  0.26235897  0.15406544  0.89170646  1
  O  O24  1  0.89170646  0.15406544  0.95422810  1
  O  O25  1  0.95422810  0.84593456  0.89170646  1
  O  O26  1  0.89170646  0.84593456  0.26235897  1
