# generated using pymatgen
data_Sr4SeS3
_symmetry_space_group_name_H-M   'P 1'
_cell_length_a   4.33395783
_cell_length_b   7.51131481
_cell_length_c   7.50802672
_cell_angle_alpha   99.61479163
_cell_angle_beta   106.77545303
_cell_angle_gamma   90.00000000
_symmetry_Int_Tables_number   1
_chemical_formula_structural   Sr4SeS3
_chemical_formula_sum   'Sr4 Se1 S3'
_cell_volume   230.42450736
_cell_formula_units_Z   1
loop_
 _symmetry_equiv_pos_site_id
 _symmetry_equiv_pos_as_xyz
  1  'x, y, z'
loop_
 _atom_site_type_symbol
 _atom_site_label
 _atom_site_symmetry_multiplicity
 _atom_site_fract_x
 _atom_site_fract_y
 _atom_site_fract_z
 _atom_site_occupancy
  Sr  Sr0  1  0.25104764  0.75549093  0.50209527  1
  Sr  Sr1  1  0.99895236  0.99450907  0.99790473  1
  Sr  Sr2  1  0.75335640  0.24593182  0.50671280  1
  Sr  Sr3  1  0.49664360  0.50406818  0.99328720  1
  Se  Se4  1  0.12500000  0.37500000  0.25000000  1
  S  S5  1  0.87446668  0.62549097  0.74893336  1
  S  S6  1  0.62500000  0.87500000  0.25000000  1
  S  S7  1  0.37553332  0.12450903  0.75106664  1
