# generated using pymatgen
data_Ta2NbTeI7
_symmetry_space_group_name_H-M   'P 1'
_cell_length_a   7.69750985
_cell_length_b   7.69750985
_cell_length_c   14.60532598
_cell_angle_alpha   90.11053150
_cell_angle_beta   89.88946850
_cell_angle_gamma   119.97572084
_symmetry_Int_Tables_number   1
_chemical_formula_structural   Ta2NbTeI7
_chemical_formula_sum   'Ta4 Nb2 Te2 I14'
_cell_volume   749.63095857
_cell_formula_units_Z   2
loop_
 _symmetry_equiv_pos_site_id
 _symmetry_equiv_pos_as_xyz
  1  'x, y, z'
loop_
 _atom_site_type_symbol
 _atom_site_label
 _atom_site_symmetry_multiplicity
 _atom_site_fract_x
 _atom_site_fract_y
 _atom_site_fract_z
 _atom_site_occupancy
  Ta  Ta0  1  0.86939487  0.13060513  0.24945936  1
  Ta  Ta1  1  0.26116060  0.13059190  0.24936122  1
  Ta  Ta2  1  0.86940810  0.73883940  0.24936122  1
  Ta  Ta3  1  0.13200815  0.86799185  0.74914040  1
  Nb  Nb4  1  0.73653841  0.86856243  0.74991906  1
  Nb  Nb5  1  0.13143757  0.26346159  0.74991906  1
  Te  Te6  1  0.00020367  0.99979633  0.10515256  1
  Te  Te7  1  0.00074056  0.99925944  0.60644573  1
  I  I8  1  0.49911798  0.50088202  0.14515603  1
  I  I9  1  0.00209439  0.50065175  0.14510686  1
  I  I10  1  0.49934825  0.99790561  0.14510686  1
  I  I11  1  0.50051323  0.49948677  0.64319339  1
  I  I12  1  0.99760332  0.50070203  0.64429200  1
  I  I13  1  0.49929797  0.00239668  0.64429200  1
  I  I14  1  0.83284362  0.16715638  0.87773180  1
  I  I15  1  0.33468285  0.16486818  0.87676737  1
  I  I16  1  0.83513182  0.66531715  0.87676737  1
  I  I17  1  0.16687531  0.83312469  0.37681804  1
  I  I18  1  0.66578803  0.83325696  0.37707801  1
  I  I19  1  0.16674304  0.33421197  0.37707801  1
  I  I20  1  0.33258494  0.66741506  0.84986488  1
  I  I21  1  0.66648332  0.33351668  0.34898877  1
