# generated using pymatgen
data_SrPrAlO4
_symmetry_space_group_name_H-M   'P 1'
_cell_length_a   3.78073322
_cell_length_b   3.78073322
_cell_length_c   6.80187503
_cell_angle_alpha   73.86398910
_cell_angle_beta   73.86398910
_cell_angle_gamma   90.00000000
_symmetry_Int_Tables_number   1
_chemical_formula_structural   SrPrAlO4
_chemical_formula_sum   'Sr1 Pr1 Al1 O4'
_cell_volume   89.40119859
_cell_formula_units_Z   1
loop_
 _symmetry_equiv_pos_site_id
 _symmetry_equiv_pos_as_xyz
  1  'x, y, z'
loop_
 _atom_site_type_symbol
 _atom_site_label
 _atom_site_symmetry_multiplicity
 _atom_site_fract_x
 _atom_site_fract_y
 _atom_site_fract_z
 _atom_site_occupancy
  Sr  Sr0  1  0.35652747  0.35652747  0.28694506  1
  Pr  Pr1  1  0.64055776  0.64055776  0.71888449  1
  Al  Al2  1  0.99555111  0.99555111  0.00889778  1
  O  O3  1  0.16084014  0.16084014  0.67831971  1
  O  O4  1  0.83540103  0.83540103  0.32919793  1
  O  O5  1  0.50556124  0.00556124  0.98887751  1
  O  O6  1  0.00556124  0.50556124  0.98887751  1
