# generated using pymatgen
data_Sr12Zn2Co6O25
_symmetry_space_group_name_H-M   'P 1'
_cell_length_a   7.85382945
_cell_length_b   7.85382945
_cell_length_c   10.40878510
_cell_angle_alpha   100.90389608
_cell_angle_beta   100.90389608
_cell_angle_gamma   90.00160294
_symmetry_Int_Tables_number   1
_chemical_formula_structural   Sr12Zn2Co6O25
_chemical_formula_sum   'Sr12 Zn2 Co6 O25'
_cell_volume   618.64047534
_cell_formula_units_Z   1
loop_
 _symmetry_equiv_pos_site_id
 _symmetry_equiv_pos_as_xyz
  1  'x, y, z'
loop_
 _atom_site_type_symbol
 _atom_site_label
 _atom_site_symmetry_multiplicity
 _atom_site_fract_x
 _atom_site_fract_y
 _atom_site_fract_z
 _atom_site_occupancy
  Sr  Sr0  1  0.34315412  0.34315412  0.35783306  1
  Sr  Sr1  1  0.83485762  0.34291936  0.35487687  1
  Sr  Sr2  1  0.34291936  0.83485762  0.35487687  1
  Sr  Sr3  1  0.83511480  0.83511480  0.35708249  1
  Sr  Sr4  1  0.16514238  0.65708064  0.64512313  1
  Sr  Sr5  1  0.65684588  0.65684588  0.64216694  1
  Sr  Sr6  1  0.16488520  0.16488520  0.64291751  1
  Sr  Sr7  1  0.65708064  0.16514238  0.64512313  1
  Sr  Sr8  1  0.24317659  0.24317659  0.00064564  1
  Sr  Sr9  1  0.75700988  0.24299012  -0.00000000  1
  Sr  Sr10  1  0.24299012  0.75700988  -0.00000000  1
  Sr  Sr11  1  0.75682341  0.75682341  0.99935436  1
  Zn  Zn12  1  0.44953961  0.44953961  0.79734046  1
  Zn  Zn13  1  0.55046039  0.55046039  0.20265954  1
  Co  Co14  1  0.44718179  0.94785862  0.79026442  1
  Co  Co15  1  0.95187660  0.95187660  0.80709559  1
  Co  Co16  1  0.94785862  0.44718179  0.79026442  1
  Co  Co17  1  0.04812340  0.04812340  0.19290441  1
  Co  Co18  1  0.05214138  0.55281821  0.20973558  1
  Co  Co19  1  0.55281821  0.05214138  0.20973558  1
  O  O20  1  0.39663616  0.39663616  0.60089915  1
  O  O21  1  0.90370801  0.39866891  0.60512051  1
  O  O22  1  0.39866891  0.90370801  0.60512051  1
  O  O23  1  0.90813461  0.90813461  0.62427340  1
  O  O24  1  0.09629199  0.60133109  0.39487949  1
  O  O25  1  0.60336384  0.60336384  0.39910085  1
  O  O26  1  0.09186539  0.09186539  0.37572660  1
  O  O27  1  0.60133109  0.09629199  0.39487949  1
  O  O28  1  0.45769886  0.72070006  0.83324554  1
  O  O29  1  0.95523421  0.69093323  0.81766990  1
  O  O30  1  0.45780451  0.19621207  0.83355413  1
  O  O31  1  0.95531207  0.21799411  0.81833255  1
  O  O32  1  0.19621207  0.45780451  0.83355413  1
  O  O33  1  0.72070006  0.45769886  0.83324554  1
  O  O34  1  0.21799411  0.95531207  0.81833255  1
  O  O35  1  0.69093323  0.95523421  0.81766990  1
  O  O36  1  0.04476579  0.30906677  0.18233010  1
  O  O37  1  0.54230114  0.27929994  0.16675446  1
  O  O38  1  0.04468793  0.78200589  0.18166745  1
  O  O39  1  0.54219549  0.80378793  0.16644587  1
  O  O40  1  0.27929994  0.54230114  0.16675446  1
  O  O41  1  0.80378793  0.54219549  0.16644587  1
  O  O42  1  0.30906677  0.04476579  0.18233010  1
  O  O43  1  0.78200589  0.04468793  0.18166745  1
  O  O44  1  -0.00000000  -0.00000000  -0.00000000  1
