# generated using pymatgen
data_ScTi4(NiSn)5
_symmetry_space_group_name_H-M   'P 1'
_cell_length_a   4.23556522
_cell_length_b   4.23556522
_cell_length_c   17.46871946
_cell_angle_alpha   90.00000000
_cell_angle_beta   96.96325907
_cell_angle_gamma   120.00000000
_symmetry_Int_Tables_number   1
_chemical_formula_structural   ScTi4(NiSn)5
_chemical_formula_sum   'Sc1 Ti4 Ni5 Sn5'
_cell_volume   268.73044254
_cell_formula_units_Z   1
loop_
 _symmetry_equiv_pos_site_id
 _symmetry_equiv_pos_as_xyz
  1  'x, y, z'
loop_
 _atom_site_type_symbol
 _atom_site_label
 _atom_site_symmetry_multiplicity
 _atom_site_fract_x
 _atom_site_fract_y
 _atom_site_fract_z
 _atom_site_occupancy
  Sc  Sc0  1  0.90101706  0.95050853  0.85152558  1
  Ti  Ti1  1  0.70116958  0.35058479  0.05175437  1
  Ti  Ti2  1  0.50017890  0.75008945  0.25026836  1
  Ti  Ti3  1  0.29941244  0.14970622  0.44911865  1
  Ti  Ti4  1  0.09816894  0.54908447  0.64725341  1
  Ni  Ni5  1  0.00397665  0.00198832  0.00596497  1
  Ni  Ni6  1  0.80099819  0.40049909  0.20149728  1
  Ni  Ni7  1  0.59980559  0.79990279  0.39970838  1
  Ni  Ni8  1  0.39765596  0.19882798  0.59648394  1
  Ni  Ni9  1  0.19638625  0.59819313  0.79457938  1
  Sn  Sn10  1  0.30254526  0.65127263  0.95381789  1
  Sn  Sn11  1  0.49674682  0.24837341  0.74512023  1
  Sn  Sn12  1  0.69929782  0.84964891  0.54894674  1
  Sn  Sn13  1  0.10233208  0.05116604  0.15349811  1
  Sn  Sn14  1  0.90030846  0.45015423  0.35046270  1
