# generated using pymatgen
data_Sr3Ca2P3O12F
_symmetry_space_group_name_H-M   'P 1'
_cell_length_a   7.16272783
_cell_length_b   9.73040855
_cell_length_c   9.74131474
_cell_angle_alpha   120.06357428
_cell_angle_beta   89.91742698
_cell_angle_gamma   90.06445665
_symmetry_Int_Tables_number   1
_chemical_formula_structural   Sr3Ca2P3O12F
_chemical_formula_sum   'Sr6 Ca4 P6 O24 F2'
_cell_volume   587.59577038
_cell_formula_units_Z   2
loop_
 _symmetry_equiv_pos_site_id
 _symmetry_equiv_pos_as_xyz
  1  'x, y, z'
loop_
 _atom_site_type_symbol
 _atom_site_label
 _atom_site_symmetry_multiplicity
 _atom_site_fract_x
 _atom_site_fract_y
 _atom_site_fract_z
 _atom_site_occupancy
  Sr  Sr0  1  0.24260263  0.23576111  0.99283879  1
  Sr  Sr1  1  0.74244661  0.98832881  0.74472386  1
  Sr  Sr2  1  0.74377836  0.25410555  0.24367083  1
  Sr  Sr3  1  0.74356503  0.76326763  0.01270027  1
  Sr  Sr4  1  0.99564606  0.33463365  0.66648908  1
  Sr  Sr5  1  0.49375795  0.66486480  0.33254824  1
  Ca  Ca6  1  0.49271212  0.33429340  0.66765257  1
  Ca  Ca7  1  0.99345835  0.66512543  0.33221855  1
  Ca  Ca8  1  0.24320025  0.99238217  0.24669381  1
  Ca  Ca9  1  0.24273538  0.75141633  0.74982968  1
  P  P10  1  0.74583922  0.02885083  0.39829389  1
  P  P11  1  0.74612900  0.60244554  0.63105513  1
  P  P12  1  0.74441873  0.37103919  0.96735246  1
  P  P13  1  0.24422602  0.96890986  0.59855983  1
  P  P14  1  0.24554983  0.40238952  0.37364957  1
  P  P15  1  0.24464300  0.63206056  0.03294007  1
  O  O16  1  0.57422964  0.06694284  0.32561146  1
  O  O17  1  0.57408512  0.67515560  0.74171685  1
  O  O18  1  0.57262515  0.26066691  0.92528729  1
  O  O19  1  0.07244388  0.91918698  0.66077782  1
  O  O20  1  0.07172945  0.34406395  0.26456447  1
  O  O21  1  0.07245932  0.74394223  0.08465323  1
  O  O22  1  0.75555866  0.84837302  0.33972897  1
  O  O23  1  0.75609680  0.66126709  0.50942784  1
  O  O24  1  0.75527420  0.48829228  0.14916707  1
  O  O25  1  0.25441990  0.15133109  0.67023770  1
  O  O26  1  0.25633661  0.32604573  0.48018414  1
  O  O27  1  0.25458491  0.52388916  0.84977160  1
  O  O28  1  0.92579668  0.08425412  0.34935498  1
  O  O29  1  0.92564035  0.65106941  0.73486674  1
  O  O30  1  0.92129031  0.26481162  0.90807124  1
  O  O31  1  0.41782799  0.90615836  0.64601695  1
  O  O32  1  0.42090432  0.35910511  0.26524943  1
  O  O33  1  0.41999372  0.74027587  0.09790008  1
  O  O34  1  0.72845831  0.12641266  0.58268175  1
  O  O35  1  0.72857189  0.41764638  0.54328179  1
  O  O36  1  0.72880656  0.46306131  0.87517584  1
  O  O37  1  0.23278268  0.88175526  0.41399802  1
  O  O38  1  0.23402444  0.58706478  0.47360653  1
  O  O39  1  0.23064606  0.53350724  0.11867484  1
  F  F40  1  0.24878788  0.98168198  0.99959432  1
  F  F41  1  0.75591661  0.00416464  0.99918240  1
