# generated using pymatgen
data_Sr5Ca5P6(ClO12)2
_symmetry_space_group_name_H-M   'P 1'
_cell_length_a   7.03290088
_cell_length_b   9.88216879
_cell_length_c   9.88638947
_cell_angle_alpha   59.90188992
_cell_angle_beta   90.00000000
_cell_angle_gamma   90.00000000
_symmetry_Int_Tables_number   1
_chemical_formula_structural   Sr5Ca5P6(ClO12)2
_chemical_formula_sum   'Sr5 Ca5 P6 Cl2 O24'
_cell_volume   594.46310888
_cell_formula_units_Z   1
loop_
 _symmetry_equiv_pos_site_id
 _symmetry_equiv_pos_as_xyz
  1  'x, y, z'
loop_
 _atom_site_type_symbol
 _atom_site_label
 _atom_site_symmetry_multiplicity
 _atom_site_fract_x
 _atom_site_fract_y
 _atom_site_fract_z
 _atom_site_occupancy
  Sr  Sr0  1  0.75000000  0.99960739  0.25262006  1
  Sr  Sr1  1  0.75000000  0.74831394  0.99837957  1
  Sr  Sr2  1  0.25000000  0.74630150  0.25234738  1
  Sr  Sr3  1  0.25000000  0.00210882  0.74654775  1
  Sr  Sr4  1  0.25000000  0.25151686  0.00163882  1
  Ca  Ca5  1  0.50147141  0.66600708  0.66711774  1
  Ca  Ca6  1  0.00138903  0.33344764  0.33317335  1
  Ca  Ca7  1  0.49861097  0.33344764  0.33317335  1
  Ca  Ca8  1  0.99852859  0.66600708  0.66711774  1
  Ca  Ca9  1  0.75000000  0.25665823  0.73322986  1
  P  P10  1  0.75000000  0.03584572  0.58714010  1
  P  P11  1  0.75000000  0.37891352  0.03445913  1
  P  P12  1  0.75000000  0.58577611  0.38125275  1
  P  P13  1  0.25000000  0.96536950  0.41383528  1
  P  P14  1  0.25000000  0.62063460  0.96552663  1
  P  P15  1  0.25000000  0.41119488  0.62193702  1
  Cl  Cl16  1  0.99670764  0.00289491  0.99725737  1
  Cl  Cl17  1  0.50329236  0.00289491  0.99725737  1
  O  O18  1  0.75000000  0.85703335  0.64536690  1
  O  O19  1  0.75000000  0.49954954  0.85562041  1
  O  O20  1  0.75000000  0.64653474  0.49945500  1
  O  O21  1  0.25000000  0.14415288  0.35567474  1
  O  O22  1  0.25000000  0.50010866  0.14437714  1
  O  O23  1  0.25000000  0.35496178  0.49975562  1
  O  O24  1  0.57354214  0.08636178  0.64526059  1
  O  O25  1  0.57184230  0.27225006  0.08466379  1
  O  O26  1  0.57220630  0.64142035  0.27409272  1
  O  O27  1  0.07235502  0.91623272  0.35583448  1
  O  O28  1  0.07225318  0.72778736  0.91634519  1
  O  O29  1  0.06933745  0.35271614  0.72699958  1
  O  O30  1  0.42764498  0.91623272  0.35583448  1
  O  O31  1  0.42774682  0.72778736  0.91634519  1
  O  O32  1  0.43066255  0.35271614  0.72699958  1
  O  O33  1  0.92645786  0.08636178  0.64526059  1
  O  O34  1  0.92815770  0.27225006  0.08466379  1
  O  O35  1  0.92779370  0.64142035  0.27409272  1
  O  O36  1  0.75000000  0.13477347  0.40486857  1
  O  O37  1  0.75000000  0.46168701  0.13421549  1
  O  O38  1  0.75000000  0.40281057  0.46792102  1
  O  O39  1  0.25000000  0.86570440  0.59610234  1
  O  O40  1  0.25000000  0.53821322  0.86583367  1
  O  O41  1  0.25000000  0.59399325  0.54040510  1
