# generated using pymatgen
data_Sr2SeS
_symmetry_space_group_name_H-M   'P 1'
_cell_length_a   4.37137566
_cell_length_b   4.37137566
_cell_length_c   7.57869082
_cell_angle_alpha   73.23785536
_cell_angle_beta   90.00000000
_cell_angle_gamma   120.00000000
_symmetry_Int_Tables_number   1
_chemical_formula_structural   Sr2SeS
_chemical_formula_sum   'Sr2 Se1 S1'
_cell_volume   118.25967278
_cell_formula_units_Z   1
loop_
 _symmetry_equiv_pos_site_id
 _symmetry_equiv_pos_as_xyz
  1  'x, y, z'
loop_
 _atom_site_type_symbol
 _atom_site_label
 _atom_site_symmetry_multiplicity
 _atom_site_fract_x
 _atom_site_fract_y
 _atom_site_fract_z
 _atom_site_occupancy
  Sr  Sr0  1  0.99712143  0.99424287  0.00863570  1
  Sr  Sr1  1  0.50287857  0.00575713  0.49136430  1
  Se  Se2  1  0.75000000  0.50000000  0.75000000  1
  S  S3  1  0.25000000  0.50000000  0.25000000  1
