# generated using pymatgen
data_Sr2NdTlCu2O7
_symmetry_space_group_name_H-M   'P 1'
_cell_length_a   3.85969546
_cell_length_b   3.87302749
_cell_length_c   12.31469916
_cell_angle_alpha   90.00000000
_cell_angle_beta   90.00000000
_cell_angle_gamma   90.00000000
_symmetry_Int_Tables_number   1
_chemical_formula_structural   Sr2NdTlCu2O7
_chemical_formula_sum   'Sr2 Nd1 Tl1 Cu2 O7'
_cell_volume   184.08882485
_cell_formula_units_Z   1
loop_
 _symmetry_equiv_pos_site_id
 _symmetry_equiv_pos_as_xyz
  1  'x, y, z'
loop_
 _atom_site_type_symbol
 _atom_site_label
 _atom_site_symmetry_multiplicity
 _atom_site_fract_x
 _atom_site_fract_y
 _atom_site_fract_z
 _atom_site_occupancy
  Sr  Sr0  1  0.50000000  0.50986483  0.79545197  1
  Sr  Sr1  1  0.50000000  0.50986483  0.20454803  1
  Nd  Nd2  1  0.50000000  0.50068138  0.50000000  1
  Tl  Tl3  1  0.00000000  0.07361390  0.00000000  1
  Cu  Cu4  1  -0.00000000  0.00175899  0.64399716  1
  Cu  Cu5  1  -0.00000000  0.00175899  0.35600284  1
  O  O6  1  0.50000000  0.00095735  0.62642977  1
  O  O7  1  0.00000000  0.50166794  0.62686888  1
  O  O8  1  0.50000000  0.00095735  0.37357023  1
  O  O9  1  0.00000000  0.50166794  0.37313112  1
  O  O10  1  0.00000000  0.00286096  0.82830678  1
  O  O11  1  0.00000000  0.00286096  0.17169322  1
  O  O12  1  0.50000000  0.46048457  0.00000000  1
