# generated using pymatgen
data_Sb4Cl13F7
_symmetry_space_group_name_H-M   'P 1'
_cell_length_a   7.85418047
_cell_length_b   10.28070089
_cell_length_c   10.30648325
_cell_angle_alpha   98.45710769
_cell_angle_beta   67.39246284
_cell_angle_gamma   112.23041645
_symmetry_Int_Tables_number   1
_chemical_formula_structural   Sb4Cl13F7
_chemical_formula_sum   'Sb4 Cl13 F7'
_cell_volume   711.15825444
_cell_formula_units_Z   1
loop_
 _symmetry_equiv_pos_site_id
 _symmetry_equiv_pos_as_xyz
  1  'x, y, z'
loop_
 _atom_site_type_symbol
 _atom_site_label
 _atom_site_symmetry_multiplicity
 _atom_site_fract_x
 _atom_site_fract_y
 _atom_site_fract_z
 _atom_site_occupancy
  Sb  Sb0  1  0.22091043  0.17002359  0.73604142  1
  Sb  Sb1  1  0.78606725  0.82880563  0.26331721  1
  Sb  Sb2  1  0.95374846  0.73234371  0.82734307  1
  Sb  Sb3  1  0.04780425  0.26335089  0.17093779  1
  Cl  Cl4  1  0.36837178  0.41232366  0.70371115  1
  Cl  Cl5  1  0.66032591  0.58752242  0.29736211  1
  Cl  Cl6  1  0.48278805  0.14254278  0.76916826  1
  Cl  Cl7  1  0.10976643  0.86112523  0.23243380  1
  Cl  Cl8  1  0.79739422  0.50040604  0.90191446  1
  Cl  Cl9  1  0.18106123  0.49553923  0.09843763  1
  Cl  Cl10  1  0.08323622  0.69989150  0.58547364  1
  Cl  Cl11  1  0.95413111  0.29705995  0.41251401  1
  Cl  Cl12  1  0.28500690  0.09847568  0.50342878  1
  Cl  Cl13  1  0.68910309  0.90339213  0.49539803  1
  Cl  Cl14  1  0.67381100  0.76462795  0.83221455  1
  Cl  Cl15  1  0.24540094  0.77028736  0.86178733  1
  Cl  Cl16  1  0.33912973  0.23189706  0.13933793  1
  F  F17  1  0.06994019  0.96065825  0.80082743  1
  F  F18  1  0.90728514  0.04205907  0.19801636  1
  F  F19  1  0.10376361  0.19758067  0.95887802  1
  F  F20  1  0.86804790  0.80196859  0.04421701  1
  F  F21  1  0.96581674  0.16631149  0.76115949  1
  F  F22  1  0.56013491  0.83336430  0.23912072  1
  F  F23  1  0.79595449  0.23844282  0.16695981  1
