# generated using pymatgen
data_Ni9(SnS)2
_symmetry_space_group_name_H-M   'P 1'
_cell_length_a   3.71141347
_cell_length_b   3.71141347
_cell_length_c   12.85131999
_cell_angle_alpha   81.69757376
_cell_angle_beta   81.69757376
_cell_angle_gamma   90.00000000
_symmetry_Int_Tables_number   1
_chemical_formula_structural   Ni9(SnS)2
_chemical_formula_sum   'Ni9 Sn2 S2'
_cell_volume   173.29131311
_cell_formula_units_Z   1
loop_
 _symmetry_equiv_pos_site_id
 _symmetry_equiv_pos_as_xyz
  1  'x, y, z'
loop_
 _atom_site_type_symbol
 _atom_site_label
 _atom_site_symmetry_multiplicity
 _atom_site_fract_x
 _atom_site_fract_y
 _atom_site_fract_z
 _atom_site_occupancy
  Ni  Ni0  1  0.50003423  0.00003423  0.99993154  1
  Ni  Ni1  1  0.99996577  0.49996577  0.00006846  1
  Ni  Ni2  1  0.57230921  0.57230921  0.85538158  1
  Ni  Ni3  1  0.42769079  0.42769079  0.14461842  1
  Ni  Ni4  1  0.64918283  0.14918283  0.70163434  1
  Ni  Ni5  1  0.15047036  0.65047036  0.69905928  1
  Ni  Ni6  1  0.34952964  0.84952964  0.30094072  1
  Ni  Ni7  1  0.85081717  0.35081717  0.29836566  1
  Ni  Ni8  1  0.75000000  0.25000000  0.50000000  1
  Sn  Sn9  1  0.07484444  0.07484444  0.85031113  1
  Sn  Sn10  1  0.92515556  0.92515556  0.14968887  1
  S  S11  1  0.69941463  0.69941463  0.60117074  1
  S  S12  1  0.30058537  0.30058537  0.39882926  1
