# generated using pymatgen
data_RbLiMg(BH4)4
_symmetry_space_group_name_H-M   'P 1'
_cell_length_a   7.98285326
_cell_length_b   7.98285326
_cell_length_c   8.33962968
_cell_angle_alpha   90.00000000
_cell_angle_beta   90.00000000
_cell_angle_gamma   104.34670092
_symmetry_Int_Tables_number   1
_chemical_formula_structural   RbLiMg(BH4)4
_chemical_formula_sum   'Rb2 Li2 Mg2 B8 H32'
_cell_volume   514.87701267
_cell_formula_units_Z   2
loop_
 _symmetry_equiv_pos_site_id
 _symmetry_equiv_pos_as_xyz
  1  'x, y, z'
loop_
 _atom_site_type_symbol
 _atom_site_label
 _atom_site_symmetry_multiplicity
 _atom_site_fract_x
 _atom_site_fract_y
 _atom_site_fract_z
 _atom_site_occupancy
  Rb  Rb0  1  0.79687899  0.20312101  0.50000000  1
  Rb  Rb1  1  0.29687899  0.70312101  -0.00000000  1
  Li  Li2  1  0.15868282  0.84131718  0.50000000  1
  Li  Li3  1  0.65868282  0.34131718  -0.00000000  1
  Mg  Mg4  1  0.44013819  0.55986181  0.50000000  1
  Mg  Mg5  1  0.94013819  0.05986181  -0.00000000  1
  B  B6  1  0.64459478  0.03522738  0.89843796  1
  B  B7  1  0.96477262  0.35540522  0.10156204  1
  B  B8  1  0.14459478  0.53522738  0.60156204  1
  B  B9  1  0.46477262  0.85540522  0.39843796  1
  B  B10  1  0.58570081  0.47990440  0.73013154  1
  B  B11  1  0.52009560  0.41429919  0.26986846  1
  B  B12  1  0.08570081  0.97990440  0.76986846  1
  B  B13  1  0.02009560  0.91429919  0.23013154  1
  H  H14  1  0.70175264  0.40636965  0.74450448  1
  H  H15  1  0.59363035  0.29824736  0.25549552  1
  H  H16  1  0.20175264  0.90636965  0.75549552  1
  H  H17  1  0.09363035  0.79824736  0.24450448  1
  H  H18  1  0.53995857  0.52533137  0.85956971  1
  H  H19  1  0.47466863  0.46004143  0.14043029  1
  H  H20  1  0.03995857  0.02533137  0.64043029  1
  H  H21  1  0.97466863  0.96004143  0.35956971  1
  H  H22  1  0.64557026  0.61096928  0.65019994  1
  H  H23  1  0.38903072  0.35442974  0.34980006  1
  H  H24  1  0.14557026  0.11096928  0.84980006  1
  H  H25  1  0.88903072  0.85442974  0.15019994  1
  H  H26  1  0.69280331  0.93036207  0.98532583  1
  H  H27  1  0.06963793  0.30719669  0.01467417  1
  H  H28  1  0.19280331  0.43036207  0.51467417  1
  H  H29  1  0.56963793  0.80719669  0.48532583  1
  H  H30  1  0.54170326  0.09157115  0.97809846  1
  H  H31  1  0.90842885  0.45829674  0.02190154  1
  H  H32  1  0.04170326  0.59157115  0.52190154  1
  H  H33  1  0.40842885  0.95829674  0.47809846  1
  H  H34  1  0.58078319  0.96092558  0.77827206  1
  H  H35  1  0.03907442  0.41921681  0.22172794  1
  H  H36  1  0.08078319  0.46092558  0.72172794  1
  H  H37  1  0.53907442  0.91921681  0.27827206  1
  H  H38  1  0.76806938  0.15489600  0.85866812  1
  H  H39  1  0.84510400  0.23193062  0.14133188  1
  H  H40  1  0.26806938  0.65489600  0.64133188  1
  H  H41  1  0.34510400  0.73193062  0.35866812  1
  H  H42  1  0.46107672  0.37942603  0.66666309  1
  H  H43  1  0.62057397  0.53892328  0.33333691  1
  H  H44  1  0.96107672  0.87942603  0.83333691  1
  H  H45  1  0.12057397  0.03892328  0.16666309  1
