# generated using pymatgen
data_NiAg2Sn3S8
_symmetry_space_group_name_H-M   'P 1'
_cell_length_a   7.49821294
_cell_length_b   7.66016945
_cell_length_c   7.49821294
_cell_angle_alpha   59.17566185
_cell_angle_beta   61.33550898
_cell_angle_gamma   89.82304476
_symmetry_Int_Tables_number   1
_chemical_formula_structural   NiAg2Sn3S8
_chemical_formula_sum   'Ni1 Ag2 Sn3 S8'
_cell_volume   307.22083133
_cell_formula_units_Z   1
loop_
 _symmetry_equiv_pos_site_id
 _symmetry_equiv_pos_as_xyz
  1  'x, y, z'
loop_
 _atom_site_type_symbol
 _atom_site_label
 _atom_site_symmetry_multiplicity
 _atom_site_fract_x
 _atom_site_fract_y
 _atom_site_fract_z
 _atom_site_occupancy
  Ni  Ni0  1  -0.00000000  0.00000000  0.50000000  1
  Ag  Ag1  1  0.60552119  0.39249583  0.71302536  1
  Ag  Ag2  1  0.39447881  0.60750417  0.28697464  1
  Sn  Sn3  1  -0.00000000  0.50000000  -0.00000000  1
  Sn  Sn4  1  0.50000000  0.00000000  0.50000000  1
  Sn  Sn5  1  -0.00000000  0.00000000  -0.00000000  1
  S  S6  1  0.22883913  0.21402372  0.51481541  1
  S  S7  1  0.24652172  0.75137907  0.99514264  1
  S  S8  1  0.77193278  0.22601310  0.48558058  1
  S  S9  1  0.21159368  0.22601310  0.04591968  1
  S  S10  1  0.77116087  0.78597628  0.48518459  1
  S  S11  1  0.75347828  0.24862093  0.00485736  1
  S  S12  1  0.22806722  0.77398690  0.51441942  1
  S  S13  1  0.78840632  0.77398690  0.95408032  1
