# generated using pymatgen
data_PrNdAl6
_symmetry_space_group_name_H-M   'P 1'
_cell_length_a   4.52445079
_cell_length_b   6.59461280
_cell_length_c   6.59461280
_cell_angle_alpha   119.97814694
_cell_angle_beta   90.00000000
_cell_angle_gamma   90.00000000
_symmetry_Int_Tables_number   1
_chemical_formula_structural   PrNdAl6
_chemical_formula_sum   'Pr1 Nd1 Al6'
_cell_volume   170.43967416
_cell_formula_units_Z   1
loop_
 _symmetry_equiv_pos_site_id
 _symmetry_equiv_pos_as_xyz
  1  'x, y, z'
loop_
 _atom_site_type_symbol
 _atom_site_label
 _atom_site_symmetry_multiplicity
 _atom_site_fract_x
 _atom_site_fract_y
 _atom_site_fract_z
 _atom_site_occupancy
  Pr  Pr0  1  0.25000000  0.33335959  0.66664041  1
  Nd  Nd1  1  0.75000000  0.66663677  0.33336323  1
  Al  Al2  1  0.75000000  0.14116650  0.28226111  1
  Al  Al3  1  0.75000000  0.14116320  0.85883680  1
  Al  Al4  1  0.75000000  0.71773889  0.85883350  1
  Al  Al5  1  0.25000000  0.85816557  0.71639500  1
  Al  Al6  1  0.25000000  0.85816448  0.14183552  1
  Al  Al7  1  0.25000000  0.28360500  0.14183443  1
