# generated using pymatgen
data_RbAlSi3O8
_symmetry_space_group_name_H-M   'P 1'
_cell_length_a   7.22985681
_cell_length_b   8.01704932
_cell_length_c   8.01704932
_cell_angle_alpha   112.26579164
_cell_angle_beta   103.98639068
_cell_angle_gamma   103.98639068
_symmetry_Int_Tables_number   1
_chemical_formula_structural   RbAlSi3O8
_chemical_formula_sum   'Rb2 Al2 Si6 O16'
_cell_volume   387.48596060
_cell_formula_units_Z   2
loop_
 _symmetry_equiv_pos_site_id
 _symmetry_equiv_pos_as_xyz
  1  'x, y, z'
loop_
 _atom_site_type_symbol
 _atom_site_label
 _atom_site_symmetry_multiplicity
 _atom_site_fract_x
 _atom_site_fract_y
 _atom_site_fract_z
 _atom_site_occupancy
  Rb  Rb0  1  0.14380926  0.28966010  0.30300491  1
  Rb  Rb1  1  0.85619074  0.69699509  0.71033990  1
  Al  Al2  1  0.34789693  0.60449757  0.84195786  1
  Al  Al3  1  0.65210307  0.15804214  0.39550243  1
  Si  Si4  1  0.34912102  0.84800303  0.60717380  1
  Si  Si5  1  0.65087898  0.39282620  0.15199697  1
  Si  Si6  1  0.22707589  0.82166633  0.20225846  1
  Si  Si7  1  0.22205085  0.20091884  0.81390976  1
  Si  Si8  1  0.77794915  0.18609024  0.79908116  1
  Si  Si9  1  0.77292411  0.79774154  0.17833367  1
  O  O10  1  0.21748250  0.66294322  0.99917985  1
  O  O11  1  0.22088795  0.98797831  0.67582547  1
  O  O12  1  0.77911205  0.32417453  0.01202169  1
  O  O13  1  0.78251750  0.00082015  0.33705678  1
  O  O14  1  -0.00000000  0.83533680  0.16466320  1
  O  O15  1  -0.00000000  0.15618248  0.84381752  1
  O  O16  1  0.38632066  0.03898699  0.27919011  1
  O  O17  1  0.40105801  0.28695595  0.03019160  1
  O  O18  1  0.59894199  0.96980840  0.71304405  1
  O  O19  1  0.61367934  0.72080989  0.96101301  1
  O  O20  1  0.28275987  0.66949124  0.65545418  1
  O  O21  1  0.71724013  0.34454582  0.33050876  1
  O  O22  1  0.28419314  0.75255351  0.37169266  1
  O  O23  1  0.26383712  0.34822498  0.72356068  1
  O  O24  1  0.73616288  0.27643932  0.65177502  1
  O  O25  1  0.71580686  0.62830734  0.24744649  1
