# generated using pymatgen
data_Nd3GdAl4O12
_symmetry_space_group_name_H-M   'P 1'
_cell_length_a   5.32420396
_cell_length_b   5.36188062
_cell_length_c   7.54896806
_cell_angle_alpha   90.00000000
_cell_angle_beta   90.00000000
_cell_angle_gamma   90.08851156
_symmetry_Int_Tables_number   1
_chemical_formula_structural   Nd3GdAl4O12
_chemical_formula_sum   'Nd3 Gd1 Al4 O12'
_cell_volume   215.50576573
_cell_formula_units_Z   1
loop_
 _symmetry_equiv_pos_site_id
 _symmetry_equiv_pos_as_xyz
  1  'x, y, z'
loop_
 _atom_site_type_symbol
 _atom_site_label
 _atom_site_symmetry_multiplicity
 _atom_site_fract_x
 _atom_site_fract_y
 _atom_site_fract_z
 _atom_site_occupancy
  Nd  Nd0  1  0.48785380  0.49322836  0.75000000  1
  Nd  Nd1  1  0.98807058  0.00578185  0.75000000  1
  Nd  Nd2  1  0.51184419  0.50545367  0.25000000  1
  Gd  Gd3  1  0.01373156  0.99270397  0.25000000  1
  Al  Al4  1  -0.00009419  0.49948497  0.00093439  1
  Al  Al5  1  0.50005943  0.00048990  0.49885199  1
  Al  Al6  1  -0.00009419  0.49948497  0.49906561  1
  Al  Al7  1  0.50005943  0.00048990  0.00114801  1
  O  O8  1  0.23823435  0.23933959  0.96559476  1
  O  O9  1  0.73724503  0.26213907  0.53488317  1
  O  O10  1  0.76477246  0.76379226  0.46193471  1
  O  O11  1  0.26001207  0.74079126  0.03703043  1
  O  O12  1  0.76477246  0.76379226  0.03806529  1
  O  O13  1  0.26001207  0.74079126  0.46296957  1
  O  O14  1  0.23823435  0.23933959  0.53440524  1
  O  O15  1  0.73724503  0.26213907  0.96511683  1
  O  O16  1  0.00208811  0.56479026  0.75000000  1
  O  O17  1  0.50245538  0.93439191  0.75000000  1
  O  O18  1  0.99776516  0.42648392  0.25000000  1
  O  O19  1  0.49573291  0.06509196  0.25000000  1
