# generated using pymatgen
data_Nd2FeCo17Si8
_symmetry_space_group_name_H-M   'P 1'
_cell_length_a   7.75135688
_cell_length_b   7.75135688
_cell_length_c   7.93712719
_cell_angle_alpha   60.85565934
_cell_angle_beta   60.85565934
_cell_angle_gamma   90.15088273
_symmetry_Int_Tables_number   1
_chemical_formula_structural   Nd2FeCo17Si8
_chemical_formula_sum   'Nd2 Fe1 Co17 Si8'
_cell_volume   345.33719491
_cell_formula_units_Z   1
loop_
 _symmetry_equiv_pos_site_id
 _symmetry_equiv_pos_as_xyz
  1  'x, y, z'
loop_
 _atom_site_type_symbol
 _atom_site_label
 _atom_site_symmetry_multiplicity
 _atom_site_fract_x
 _atom_site_fract_y
 _atom_site_fract_z
 _atom_site_occupancy
  Nd  Nd0  1  0.25000000  0.25000000  0.50000000  1
  Nd  Nd1  1  0.75000000  0.75000000  0.50000000  1
  Fe  Fe2  1  0.50000000  0.00000000  -0.00000000  1
  Co  Co3  1  0.69110092  0.44837254  0.36052655  1
  Co  Co4  1  0.94837254  0.19110092  0.36052655  1
  Co  Co5  1  0.44905679  0.94905679  0.35967370  1
  Co  Co6  1  0.19126951  0.69126951  0.35967370  1
  Co  Co7  1  0.30889908  0.55162746  0.63947345  1
  Co  Co8  1  0.05162746  0.80889908  0.63947345  1
  Co  Co9  1  0.55094321  0.05094321  0.64032630  1
  Co  Co10  1  0.80873049  0.30873049  0.64032630  1
  Co  Co11  1  0.43052633  0.70147048  1.00000000  1
  Co  Co12  1  0.56947367  0.29852952  0.00000000  1
  Co  Co13  1  0.06973179  0.19988993  1.00000000  1
  Co  Co14  1  0.93026821  0.80011007  0.00000000  1
  Co  Co15  1  0.30011007  0.43026821  0.00000000  1
  Co  Co16  1  0.69988993  0.56973179  1.00000000  1
  Co  Co17  1  0.79852952  0.06947367  0.00000000  1
  Co  Co18  1  0.20147048  0.93052633  1.00000000  1
  Co  Co19  1  -0.00000000  0.50000000  -0.00000000  1
  Si  Si20  1  0.54736130  0.70834369  0.24429501  1
  Si  Si21  1  0.20834369  0.04736130  0.24429501  1
  Si  Si22  1  0.70880329  0.20880329  0.24333115  1
  Si  Si23  1  0.04786555  0.54786555  0.24333115  1
  Si  Si24  1  0.45263870  0.29165631  0.75570499  1
  Si  Si25  1  0.79165631  0.95263870  0.75570499  1
  Si  Si26  1  0.29119671  0.79119671  0.75666885  1
  Si  Si27  1  0.95213445  0.45213445  0.75666885  1
