# generated using pymatgen
data_Fe4O7F
_symmetry_space_group_name_H-M   'P 1'
_cell_length_a   6.02905827
_cell_length_b   6.63558380
_cell_length_c   7.08957585
_cell_angle_alpha   90.00000000
_cell_angle_beta   115.16369386
_cell_angle_gamma   90.00000000
_symmetry_Int_Tables_number   1
_chemical_formula_structural   Fe4O7F
_chemical_formula_sum   'Fe8 O14 F2'
_cell_volume   256.71062271
_cell_formula_units_Z   2
loop_
 _symmetry_equiv_pos_site_id
 _symmetry_equiv_pos_as_xyz
  1  'x, y, z'
loop_
 _atom_site_type_symbol
 _atom_site_label
 _atom_site_symmetry_multiplicity
 _atom_site_fract_x
 _atom_site_fract_y
 _atom_site_fract_z
 _atom_site_occupancy
  Fe  Fe0  1  0.50065731  0.02061865  0.00131461  1
  Fe  Fe1  1  0.99938889  0.99330142  0.99877777  1
  Fe  Fe2  1  0.75941578  0.49217215  0.99984070  1
  Fe  Fe3  1  0.24042492  0.49217215  0.99984070  1
  Fe  Fe4  1  0.49058422  0.99217215  0.50015930  1
  Fe  Fe5  1  0.00957508  0.99217215  0.50015930  1
  Fe  Fe6  1  0.74934269  0.52061865  0.49868539  1
  Fe  Fe7  1  0.25061111  0.49330142  0.50122223  1
  O  O8  1  0.34432781  0.99920787  0.19357963  1
  O  O9  1  0.84925183  0.99920787  0.19357963  1
  O  O10  1  0.50095720  0.31743216  0.00191440  1
  O  O11  1  0.99905738  0.29694231  0.99811376  1
  O  O12  1  0.25166662  0.18775940  0.50333323  1
  O  O13  1  0.99833338  0.68775940  0.99666677  1
  O  O14  1  0.65464390  0.99970407  0.80658201  1
  O  O15  1  0.15193811  0.99970407  0.80658201  1
  O  O16  1  0.40074817  0.49920787  0.30642037  1
  O  O17  1  0.90567219  0.49920787  0.30642037  1
  O  O18  1  0.09806189  0.49970407  0.69341799  1
  O  O19  1  0.59535610  0.49970407  0.69341799  1
  O  O20  1  0.74904280  0.81743216  0.49808560  1
  O  O21  1  0.25094262  0.79694231  0.50188624  1
  F  F22  1  0.50102891  0.70177888  0.00205782  1
  F  F23  1  0.74897109  0.20177888  0.49794218  1
