# generated using pymatgen
data_NaAlSi3O8
_symmetry_space_group_name_H-M   'P 1'
_cell_length_a   7.17615034
_cell_length_b   7.74235091
_cell_length_c   7.79389483
_cell_angle_alpha   115.65806517
_cell_angle_beta   103.79374923
_cell_angle_gamma   103.53213793
_symmetry_Int_Tables_number   1
_chemical_formula_structural   NaAlSi3O8
_chemical_formula_sum   'Na2 Al2 Si6 O16'
_cell_volume   349.81775677
_cell_formula_units_Z   2
loop_
 _symmetry_equiv_pos_site_id
 _symmetry_equiv_pos_as_xyz
  1  'x, y, z'
loop_
 _atom_site_type_symbol
 _atom_site_label
 _atom_site_symmetry_multiplicity
 _atom_site_fract_x
 _atom_site_fract_y
 _atom_site_fract_z
 _atom_site_occupancy
  Na  Na0  1  0.13449342  0.26606747  0.27257983  1
  Na  Na1  1  0.86550658  0.73393253  0.72742017  1
  Al  Al2  1  0.34071378  0.80382733  0.57344279  1
  Al  Al3  1  0.65928622  0.19617267  0.42655721  1
  Si  Si4  1  0.22026830  0.82888397  0.18057769  1
  Si  Si5  1  0.22549476  0.18814398  0.84086587  1
  Si  Si6  1  0.77973170  0.17111603  0.81942231  1
  Si  Si7  1  0.77450524  0.81185602  0.15913413  1
  Si  Si8  1  0.33525309  0.57306753  0.80420952  1
  Si  Si9  1  0.66474691  0.42693247  0.19579048  1
  O  O10  1  0.38646848  0.06685402  0.30683432  1
  O  O11  1  0.41097199  0.31985947  0.07285246  1
  O  O12  1  0.61353152  0.93314598  0.69316568  1
  O  O13  1  0.58902801  0.68014053  0.92714754  1
  O  O14  1  0.21722560  0.96068227  0.69821042  1
  O  O15  1  0.22720989  0.69570965  0.95219725  1
  O  O16  1  0.78277440  0.03931773  0.30178958  1
  O  O17  1  0.77279011  0.30429035  0.04780275  1
  O  O18  1  0.27574288  0.58016855  0.59416570  1
  O  O19  1  0.72425712  0.41983145  0.40583430  1
  O  O20  1  0.98801617  0.84124058  0.11235163  1
  O  O21  1  0.01198383  0.15875942  0.88764837  1
  O  O22  1  0.24242711  0.71250018  0.30855873  1
  O  O23  1  0.24981352  0.32740856  0.73260830  1
  O  O24  1  0.75757289  0.28749982  0.69144127  1
  O  O25  1  0.75018648  0.67259144  0.26739170  1
