# generated using pymatgen
data_Nb10Ge7
_symmetry_space_group_name_H-M   'P 1'
_cell_length_a   5.43335094
_cell_length_b   7.84180126
_cell_length_c   7.84062747
_cell_angle_alpha   120.00494929
_cell_angle_beta   90.00731748
_cell_angle_gamma   89.98536723
_symmetry_Int_Tables_number   1
_chemical_formula_structural   Nb10Ge7
_chemical_formula_sum   'Nb10 Ge7'
_cell_volume   289.29662354
_cell_formula_units_Z   1
loop_
 _symmetry_equiv_pos_site_id
 _symmetry_equiv_pos_as_xyz
  1  'x, y, z'
loop_
 _atom_site_type_symbol
 _atom_site_label
 _atom_site_symmetry_multiplicity
 _atom_site_fract_x
 _atom_site_fract_y
 _atom_site_fract_z
 _atom_site_occupancy
  Nb  Nb0  1  0.76989855  0.26402772  1.00000000  1
  Nb  Nb1  1  0.76991936  0.73577183  0.73595208  1
  Nb  Nb2  1  0.76991936  0.99981975  0.26404792  1
  Nb  Nb3  1  0.23004947  0.73590305  0.00000000  1
  Nb  Nb4  1  0.23008944  0.26400131  0.26418194  1
  Nb  Nb5  1  0.23008944  0.99981937  0.73581806  1
  Nb  Nb6  1  0.50001292  0.33328889  0.66661732  1
  Nb  Nb7  1  0.50001292  0.66667157  0.33338268  1
  Nb  Nb8  1  0.00001257  0.66692892  0.33334176  1
  Nb  Nb9  1  0.00001257  0.33358716  0.66665824  1
  Ge  Ge10  1  0.74459380  0.60925646  1.00000000  1
  Ge  Ge11  1  0.74464455  0.39112996  0.39126872  1
  Ge  Ge12  1  0.74464455  0.99986124  0.60873128  1
  Ge  Ge13  1  0.25546726  0.39122809  0.00000000  1
  Ge  Ge14  1  0.25533452  0.60899761  0.60909455  1
  Ge  Ge15  1  0.25533452  0.99990306  0.39090545  1
  Ge  Ge16  1  0.49996420  0.99980401  -0.00000000  1
