# generated using pymatgen
data_NaCaMg2F7
_symmetry_space_group_name_H-M   'P 1'
_cell_length_a   7.34366021
_cell_length_b   7.22613264
_cell_length_c   7.47364137
_cell_angle_alpha   90.00000000
_cell_angle_beta   59.41274825
_cell_angle_gamma   119.47199076
_symmetry_Int_Tables_number   1
_chemical_formula_structural   NaCaMg2F7
_chemical_formula_sum   'Na2 Ca2 Mg4 F14'
_cell_volume   280.15944301
_cell_formula_units_Z   2
loop_
 _symmetry_equiv_pos_site_id
 _symmetry_equiv_pos_as_xyz
  1  'x, y, z'
loop_
 _atom_site_type_symbol
 _atom_site_label
 _atom_site_symmetry_multiplicity
 _atom_site_fract_x
 _atom_site_fract_y
 _atom_site_fract_z
 _atom_site_occupancy
  Na  Na0  1  0.50000000  0.00000000  0.50000000  1
  Na  Na1  1  0.50000000  0.50000000  0.50000000  1
  Ca  Ca2  1  0.00000000  0.50000000  -0.00000000  1
  Ca  Ca3  1  0.00000000  0.50000000  0.50000000  1
  Mg  Mg4  1  0.50000000  0.50000000  -0.00000000  1
  Mg  Mg5  1  0.50000000  0.00000000  -0.00000000  1
  Mg  Mg6  1  0.00000000  0.00000000  0.50000000  1
  Mg  Mg7  1  0.00000000  0.00000000  -0.00000000  1
  F  F8  1  0.85633202  0.92816601  0.32183399  1
  F  F9  1  0.66320709  0.33160354  0.91839646  1
  F  F10  1  0.24447034  0.91293919  0.93011157  1
  F  F11  1  0.24447034  0.33153115  0.32541809  1
  F  F12  1  0.24447034  0.33153115  0.93011157  1
  F  F13  1  0.24447034  0.91293919  0.32541809  1
  F  F14  1  0.14366798  0.07183399  0.67816601  1
  F  F15  1  0.33679291  0.66839646  0.08160354  1
  F  F16  1  0.75552966  0.08706081  0.06988843  1
  F  F17  1  0.75552966  0.66846885  0.67458191  1
  F  F18  1  0.75552966  0.66846885  0.06988843  1
  F  F19  1  0.75552966  0.08706081  0.67458191  1
  F  F20  1  0.76278693  0.38139346  0.36860654  1
  F  F21  1  0.23721307  0.61860654  0.63139346  1
