# generated using pymatgen
data_Nd2In3Cu
_symmetry_space_group_name_H-M   'P 1'
_cell_length_a   4.80746774
_cell_length_b   4.80606111
_cell_length_c   7.72979736
_cell_angle_alpha   90.00000000
_cell_angle_beta   89.99364126
_cell_angle_gamma   60.00967838
_symmetry_Int_Tables_number   1
_chemical_formula_structural   Nd2In3Cu
_chemical_formula_sum   'Nd2 In3 Cu1'
_cell_volume   154.68448341
_cell_formula_units_Z   1
loop_
 _symmetry_equiv_pos_site_id
 _symmetry_equiv_pos_as_xyz
  1  'x, y, z'
loop_
 _atom_site_type_symbol
 _atom_site_label
 _atom_site_symmetry_multiplicity
 _atom_site_fract_x
 _atom_site_fract_y
 _atom_site_fract_z
 _atom_site_occupancy
  Nd  Nd0  1  0.00006195  -0.00003098  0.72515008  1
  Nd  Nd1  1  0.99978480  0.00010760  0.26335748  1
  In  In2  1  0.33320713  0.33339644  0.48326465  1
  In  In3  1  0.33317693  0.33341154  0.04971947  1
  In  In4  1  0.66661307  0.66669347  0.93786452  1
  Cu  Cu5  1  0.66715612  0.66642194  0.54064379  1
