# generated using pymatgen
data_Nb10(SnGe)3
_symmetry_space_group_name_H-M   'P 1'
_cell_length_a   5.24312944
_cell_length_b   7.94967825
_cell_length_c   7.88231088
_cell_angle_alpha   96.29673066
_cell_angle_beta   109.42594976
_cell_angle_gamma   70.74519226
_symmetry_Int_Tables_number   1
_chemical_formula_structural   Nb10(SnGe)3
_chemical_formula_sum   'Nb10 Sn3 Ge3'
_cell_volume   292.50871960
_cell_formula_units_Z   1
loop_
 _symmetry_equiv_pos_site_id
 _symmetry_equiv_pos_as_xyz
  1  'x, y, z'
loop_
 _atom_site_type_symbol
 _atom_site_label
 _atom_site_symmetry_multiplicity
 _atom_site_fract_x
 _atom_site_fract_y
 _atom_site_fract_z
 _atom_site_occupancy
  Nb  Nb0  1  0.43083211  0.85113113  0.71279536  1
  Nb  Nb1  1  0.56369710  0.15912201  0.28651620  1
  Nb  Nb2  1  0.92604606  0.29449673  0.14658885  1
  Nb  Nb3  1  0.07957355  0.70490697  0.86405407  1
  Nb  Nb4  1  0.72054279  0.70550327  0.14658885  1
  Nb  Nb5  1  0.28448052  0.29509303  0.86405407  1
  Nb  Nb6  1  0.78196325  0.14886887  0.71279536  1
  Nb  Nb7  1  0.22281911  0.84087799  0.28651620  1
  Nb  Nb8  1  0.24525006  0.50000000  0.48841753  1
  Nb  Nb9  1  0.74316747  0.50000000  0.48841753  1
  Sn  Sn10  1  0.66627644  0.50000000  0.83255287  1
  Sn  Sn11  1  0.83164697  0.83899601  0.50228995  1
  Sn  Sn12  1  0.17064298  0.16100399  0.50228995  1
  Ge  Ge13  1  0.25056636  0.00000000  0.00113273  1
  Ge  Ge14  1  0.75056636  0.00000000  0.00113273  1
  Ge  Ge15  1  0.33192887  0.50000000  0.16385775  1
