# generated using pymatgen
data_NaMg2Al6VSi6B3H3O31
_symmetry_space_group_name_H-M   'P 1'
_cell_length_a   7.22996011
_cell_length_b   9.61454376
_cell_length_c   9.61355490
_cell_angle_alpha   66.02059945
_cell_angle_beta   104.40615381
_cell_angle_gamma   75.42730684
_symmetry_Int_Tables_number   1
_chemical_formula_structural   NaMg2Al6VSi6B3H3O31
_chemical_formula_sum   'Na1 Mg2 Al6 V1 Si6 B3 H3 O31'
_cell_volume   542.38497782
_cell_formula_units_Z   1
loop_
 _symmetry_equiv_pos_site_id
 _symmetry_equiv_pos_as_xyz
  1  'x, y, z'
loop_
 _atom_site_type_symbol
 _atom_site_label
 _atom_site_symmetry_multiplicity
 _atom_site_fract_x
 _atom_site_fract_y
 _atom_site_fract_z
 _atom_site_occupancy
  Na  Na0  1  0.77525737  0.00000128  0.99546742  1
  Mg  Mg1  1  0.42482687  0.81735597  0.99859692  1
  Mg  Mg2  1  0.24218478  0.18261592  0.81596530  1
  Al  Al3  1  0.65343637  0.77205881  0.56011540  1
  Al  Al4  1  0.42741363  0.66787427  0.77541510  1
  Al  Al5  1  0.09590023  0.55623048  0.66859515  1
  Al  Al6  1  0.09526709  0.33215721  0.44328752  1
  Al  Al7  1  0.42549292  0.22794900  0.33215245  1
  Al  Al8  1  0.65212935  0.44378336  0.22480596  1
  V  V9  1  0.42201365  0.99998238  0.17846788  1
  Si  Si10  1  0.19034533  0.81051211  0.38238663  1
  Si  Si11  1  0.00384501  0.80635890  0.81080315  1
  Si  Si12  1  0.81080909  0.38234481  0.80645100  1
  Si  Si13  1  0.81016213  0.19365750  0.61713231  1
  Si  Si14  1  0.00087151  0.18949170  0.19290595  1
  Si  Si15  1  0.19315973  0.61765727  0.18880160  1
  B  B16  1  0.77337214  0.66785822  0.33309429  1
  B  B17  1  0.44131337  0.00000662  0.66869966  1
  B  B18  1  0.44125944  0.33212689  0.00094381  1
  H  H19  1  0.75162364  0.99999445  0.38365851  1
  H  H20  1  0.75309387  0.61551172  0.99977979  1
  H  H21  1  0.36860685  0.38446298  0.61530428  1
  O  O22  1  0.20683562  0.71252409  0.57127875  1
  O  O23  1  0.91988664  0.71556912  0.71329117  1
  O  O24  1  0.63509702  0.57097231  0.71503321  1
  O  O25  1  0.63540099  0.28445130  0.42883909  1
  O  O26  1  0.91938102  0.28749879  0.28379664  1
  O  O27  1  0.20605503  0.42903405  0.28598324  1
  O  O28  1  0.83448703  0.66516383  0.48407678  1
  O  O29  1  0.50039609  0.85112927  0.66501166  1
  O  O30  1  0.35346075  0.48200314  0.85160573  1
  O  O31  1  0.35150809  0.14888700  0.51614398  1
  O  O32  1  0.49970949  0.33480756  0.14924411  1
  O  O33  1  0.83546464  0.51800504  0.33359827  1
  O  O34  1  0.65005419  0.81363644  0.18794479  1
  O  O35  1  0.46271146  0.99998914  0.81272199  1
  O  O36  1  0.46369972  0.18635586  0.00156926  1
  O  O37  1  0.00339982  0.00000620  0.28172107  1
  O  O38  1  0.00472470  0.71953137  0.00007355  1
  O  O39  1  0.72423758  0.28048206  0.71958840  1
  O  O40  1  0.11632325  0.71960947  0.28012814  1
  O  O41  1  0.83757377  0.00000494  0.71996150  1
  O  O42  1  0.83594137  0.28040127  0.99973868  1
  O  O43  1  0.22477597  0.99999204  0.00961574  1
  O  O44  1  0.41341120  0.81847546  0.38650908  1
  O  O45  1  0.23292239  0.79402404  0.81844706  1
  O  O46  1  0.02796637  0.38701303  0.79492275  1
  O  O47  1  0.02691124  0.20598440  0.61245016  1
  O  O48  1  0.23190533  0.18149975  0.20499229  1
  O  O49  1  0.41498866  0.61297782  0.18194612  1
  O  O50  1  0.62099106  0.99999292  0.39535613  1
  O  O51  1  0.62392990  0.60153052  0.00002111  1
  O  O52  1  0.22545525  0.39845592  0.60155947  1
