# generated using pymatgen
data_NaScSnO4
_symmetry_space_group_name_H-M   'P 1'
_cell_length_a   3.17528406
_cell_length_b   9.63013640
_cell_length_c   11.32677632
_cell_angle_alpha   90.00000000
_cell_angle_beta   90.00000000
_cell_angle_gamma   90.00000000
_symmetry_Int_Tables_number   1
_chemical_formula_structural   NaScSnO4
_chemical_formula_sum   'Na4 Sc4 Sn4 O16'
_cell_volume   346.35490778
_cell_formula_units_Z   4
loop_
 _symmetry_equiv_pos_site_id
 _symmetry_equiv_pos_as_xyz
  1  'x, y, z'
loop_
 _atom_site_type_symbol
 _atom_site_label
 _atom_site_symmetry_multiplicity
 _atom_site_fract_x
 _atom_site_fract_y
 _atom_site_fract_z
 _atom_site_occupancy
  Na  Na0  1  0.75000000  0.25433282  0.85323139  1
  Na  Na1  1  0.75000000  0.75433282  0.64676861  1
  Na  Na2  1  0.25000000  0.74240744  0.14933982  1
  Na  Na3  1  0.25000000  0.24240744  0.35066018  1
  Sc  Sc4  1  0.75000000  0.43068300  0.61399737  1
  Sc  Sc5  1  0.75000000  0.93068300  0.88600263  1
  Sc  Sc6  1  0.75000000  0.41986019  0.10656699  1
  Sc  Sc7  1  0.75000000  0.91986019  0.39343301  1
  Sn  Sn8  1  0.25000000  0.56193308  0.38667055  1
  Sn  Sn9  1  0.25000000  0.06193308  0.11332945  1
  Sn  Sn10  1  0.25000000  0.58315838  0.89603426  1
  Sn  Sn11  1  0.25000000  0.08315838  0.60396574  1
  O  O12  1  0.75000000  0.20253815  0.15274778  1
  O  O13  1  0.75000000  0.70253815  0.34725222  1
  O  O14  1  0.25000000  0.79088122  0.84351690  1
  O  O15  1  0.25000000  0.29088122  0.65648310  1
  O  O16  1  0.75000000  0.12191932  0.48395475  1
  O  O17  1  0.75000000  0.62191932  0.01604525  1
  O  O18  1  0.25000000  0.88925191  0.51715451  1
  O  O19  1  0.25000000  0.38925191  0.98284549  1
  O  O20  1  0.75000000  0.42153769  0.42265266  1
  O  O21  1  0.75000000  0.92153769  0.07734734  1
  O  O22  1  0.25000000  0.57235801  0.57109020  1
  O  O23  1  0.25000000  0.07235801  0.92890980  1
  O  O24  1  0.75000000  0.02436664  0.71558529  1
  O  O25  1  0.75000000  0.52436664  0.78441471  1
  O  O26  1  0.25000000  0.98477216  0.28465943  1
  O  O27  1  0.25000000  0.48477216  0.21534057  1
