# generated using pymatgen
data_NaSm2Se3
_symmetry_space_group_name_H-M   'P 1'
_cell_length_a   4.16946115
_cell_length_b   5.90857087
_cell_length_c   7.28727627
_cell_angle_alpha   113.91640357
_cell_angle_beta   73.37670021
_cell_angle_gamma   90.00000000
_symmetry_Int_Tables_number   1
_chemical_formula_structural   NaSm2Se3
_chemical_formula_sum   'Na1 Sm2 Se3'
_cell_volume   155.86831505
_cell_formula_units_Z   1
loop_
 _symmetry_equiv_pos_site_id
 _symmetry_equiv_pos_as_xyz
  1  'x, y, z'
loop_
 _atom_site_type_symbol
 _atom_site_label
 _atom_site_symmetry_multiplicity
 _atom_site_fract_x
 _atom_site_fract_y
 _atom_site_fract_z
 _atom_site_occupancy
  Na  Na0  1  0.00000000  -0.00000000  -0.00000000  1
  Sm  Sm1  1  0.33628220  0.66371780  0.32743460  1
  Sm  Sm2  1  0.66371780  0.33628220  0.67256540  1
  Se  Se3  1  0.00000000  0.50000000  -0.00000000  1
  Se  Se4  1  0.33149126  0.16850874  0.33701647  1
  Se  Se5  1  0.66850874  0.83149126  0.66298353  1
