# generated using pymatgen
data_Nd2InCuS5
_symmetry_space_group_name_H-M   'P 1'
_cell_length_a   3.90232657
_cell_length_b   11.55317294
_cell_length_c   16.74383816
_cell_angle_alpha   90.00000000
_cell_angle_beta   90.00000000
_cell_angle_gamma   90.00000000
_symmetry_Int_Tables_number   1
_chemical_formula_structural   Nd2InCuS5
_chemical_formula_sum   'Nd8 In4 Cu4 S20'
_cell_volume   754.88344805
_cell_formula_units_Z   4
loop_
 _symmetry_equiv_pos_site_id
 _symmetry_equiv_pos_as_xyz
  1  'x, y, z'
loop_
 _atom_site_type_symbol
 _atom_site_label
 _atom_site_symmetry_multiplicity
 _atom_site_fract_x
 _atom_site_fract_y
 _atom_site_fract_z
 _atom_site_occupancy
  Nd  Nd0  1  0.75000000  0.36351683  0.09441956  1
  Nd  Nd1  1  0.75000000  0.86351683  0.40558044  1
  Nd  Nd2  1  0.25000000  0.63648317  0.90558044  1
  Nd  Nd3  1  0.25000000  0.13648317  0.59441956  1
  Nd  Nd4  1  0.75000000  0.02268211  0.18003301  1
  Nd  Nd5  1  0.75000000  0.52268211  0.31996699  1
  Nd  Nd6  1  0.25000000  0.97731789  0.81996699  1
  Nd  Nd7  1  0.25000000  0.47731789  0.68003301  1
  In  In8  1  0.75000000  0.30645094  0.86079241  1
  In  In9  1  0.75000000  0.80645094  0.63920759  1
  In  In10  1  0.25000000  0.69354906  0.13920759  1
  In  In11  1  0.25000000  0.19354906  0.36079241  1
  Cu  Cu12  1  0.75000000  0.91682466  0.00424448  1
  Cu  Cu13  1  0.75000000  0.41682466  0.49575552  1
  Cu  Cu14  1  0.25000000  0.08317534  0.99575552  1
  Cu  Cu15  1  0.25000000  0.58317534  0.50424448  1
  S  S16  1  0.75000000  0.60936627  0.03659145  1
  S  S17  1  0.75000000  0.10936627  0.46340855  1
  S  S18  1  0.25000000  0.39063373  0.96340855  1
  S  S19  1  0.25000000  0.89063373  0.53659145  1
  S  S20  1  0.75000000  0.01481216  0.69413147  1
  S  S21  1  0.75000000  0.51481216  0.80586853  1
  S  S22  1  0.25000000  0.98518784  0.30586853  1
  S  S23  1  0.25000000  0.48518784  0.19413147  1
  S  S24  1  0.75000000  0.75949393  0.23008905  1
  S  S25  1  0.75000000  0.25949393  0.26991095  1
  S  S26  1  0.25000000  0.24050607  0.76991095  1
  S  S27  1  0.25000000  0.74050607  0.73008905  1
  S  S28  1  0.75000000  0.09822965  0.92138119  1
  S  S29  1  0.75000000  0.59822965  0.57861881  1
  S  S30  1  0.25000000  0.90177035  0.07861881  1
  S  S31  1  0.25000000  0.40177035  0.42138119  1
  S  S32  1  0.75000000  0.81813060  0.88709608  1
  S  S33  1  0.75000000  0.31813060  0.61290392  1
  S  S34  1  0.25000000  0.18186940  0.11290392  1
  S  S35  1  0.25000000  0.68186940  0.38709608  1
