# generated using pymatgen
data_Na4Ca2SnP4
_symmetry_space_group_name_H-M   'P 1'
_cell_length_a   7.13186268
_cell_length_b   9.45615709
_cell_length_c   9.45627787
_cell_angle_alpha   59.95372201
_cell_angle_beta   88.81751649
_cell_angle_gamma   91.18357376
_symmetry_Int_Tables_number   1
_chemical_formula_structural   Na4Ca2SnP4
_chemical_formula_sum   'Na8 Ca4 Sn2 P8'
_cell_volume   551.56246995
_cell_formula_units_Z   2
loop_
 _symmetry_equiv_pos_site_id
 _symmetry_equiv_pos_as_xyz
  1  'x, y, z'
loop_
 _atom_site_type_symbol
 _atom_site_label
 _atom_site_symmetry_multiplicity
 _atom_site_fract_x
 _atom_site_fract_y
 _atom_site_fract_z
 _atom_site_occupancy
  Na  Na0  1  0.38045657  0.53013448  0.93312813  1
  Na  Na1  1  0.88045555  0.06684859  0.46987311  1
  Na  Na2  1  0.18796360  0.13868549  0.71508216  1
  Na  Na3  1  0.22407466  0.70633857  0.13930604  1
  Na  Na4  1  0.20748836  0.14981726  0.13962129  1
  Na  Na5  1  0.72404536  0.86071227  0.29365240  1
  Na  Na6  1  0.68793192  0.28492162  0.86131456  1
  Na  Na7  1  0.70747572  0.86037788  0.85018121  1
  Ca  Ca8  1  0.38694987  0.94018869  0.53137639  1
  Ca  Ca9  1  0.37927575  0.52025001  0.53488103  1
  Ca  Ca10  1  0.88694763  0.46862533  0.05980075  1
  Ca  Ca11  1  0.87927927  0.46512185  0.47975272  1
  Sn  Sn12  1  0.49763557  0.33856832  0.32664397  1
  Sn  Sn13  1  0.99765738  0.67335440  0.66142911  1
  P  P14  1  0.14117755  0.80415965  0.37563031  1
  P  P15  1  0.08947074  0.37517439  0.80724408  1
  P  P16  1  0.11227556  0.80636831  0.81643031  1
  P  P17  1  0.58947038  0.19275875  0.62482070  1
  P  P18  1  0.64117992  0.62437284  0.19583886  1
  P  P19  1  0.61226500  0.18356526  0.19363663  1
  P  P20  1  0.14135620  0.34279767  0.33312426  1
  P  P21  1  0.64136743  0.66685835  0.65723197  1
