# generated using pymatgen
data_Mn3V17Si12
_symmetry_space_group_name_H-M   'P 1'
_cell_length_a   4.71791200
_cell_length_b   6.98216106
_cell_length_c   13.19254967
_cell_angle_alpha   90.00000000
_cell_angle_beta   90.00000000
_cell_angle_gamma   109.74622903
_symmetry_Int_Tables_number   1
_chemical_formula_structural   Mn3V17Si12
_chemical_formula_sum   'Mn3 V17 Si12'
_cell_volume   409.02471356
_cell_formula_units_Z   1
loop_
 _symmetry_equiv_pos_site_id
 _symmetry_equiv_pos_as_xyz
  1  'x, y, z'
loop_
 _atom_site_type_symbol
 _atom_site_label
 _atom_site_symmetry_multiplicity
 _atom_site_fract_x
 _atom_site_fract_y
 _atom_site_fract_z
 _atom_site_occupancy
  Mn  Mn0  1  0.00303666  0.50000000  0.75000000  1
  Mn  Mn1  1  0.99906522  0.50000000  0.25000000  1
  Mn  Mn2  1  0.49834137  0.50000000  0.75000000  1
  V  V3  1  0.92242179  0.85229024  0.34875662  1
  V  V4  1  0.42921107  0.85508813  0.84654371  1
  V  V5  1  0.57013155  0.14770976  0.15124338  1
  V  V6  1  0.07412295  0.14491187  0.65345629  1
  V  V7  1  0.15381470  0.30233666  0.07235678  1
  V  V8  1  0.65228338  0.30518720  0.57380435  1
  V  V9  1  0.35147804  0.69766334  0.42764322  1
  V  V10  1  0.84709619  0.69481280  0.92619565  1
  V  V11  1  0.35147804  0.69766334  0.07235678  1
  V  V12  1  0.84709619  0.69481280  0.57380435  1
  V  V13  1  0.15381470  0.30233666  0.42764322  1
  V  V14  1  0.65228338  0.30518720  0.92619565  1
  V  V15  1  0.57013155  0.14770976  0.34875662  1
  V  V16  1  0.07412295  0.14491187  0.84654371  1
  V  V17  1  0.92242179  0.85229024  0.15124338  1
  V  V18  1  0.42921107  0.85508813  0.65345629  1
  V  V19  1  0.49886269  0.50000000  0.25000000  1
  Si  Si20  1  0.24948135  0.99886346  0.99892416  1
  Si  Si21  1  0.75061789  0.00113654  0.50107584  1
  Si  Si22  1  0.75061789  0.00113654  0.99892416  1
  Si  Si23  1  0.24948135  0.99886346  0.50107584  1
  Si  Si24  1  0.75646884  0.50000000  0.08643751  1
  Si  Si25  1  0.25091622  0.50000000  0.58935413  1
  Si  Si26  1  0.75646884  0.50000000  0.41356249  1
  Si  Si27  1  0.25091622  0.50000000  0.91064587  1
  Si  Si28  1  0.40432144  0.82528070  0.25000000  1
  Si  Si29  1  0.90939078  0.81753760  0.75000000  1
  Si  Si30  1  0.07904074  0.17471930  0.25000000  1
  Si  Si31  1  0.59185318  0.18246240  0.75000000  1
