# generated using pymatgen
data_Na3YbC2(O3F)2
_symmetry_space_group_name_H-M   'P 1'
_cell_length_a   7.06913211
_cell_length_b   7.25539257
_cell_length_c   15.59170043
_cell_angle_alpha   76.54577768
_cell_angle_beta   85.03796600
_cell_angle_gamma   68.17611586
_symmetry_Int_Tables_number   1
_chemical_formula_structural   Na3YbC2(O3F)2
_chemical_formula_sum   'Na12 Yb4 C8 O24 F8'
_cell_volume   722.00132449
_cell_formula_units_Z   4
loop_
 _symmetry_equiv_pos_site_id
 _symmetry_equiv_pos_as_xyz
  1  'x, y, z'
loop_
 _atom_site_type_symbol
 _atom_site_label
 _atom_site_symmetry_multiplicity
 _atom_site_fract_x
 _atom_site_fract_y
 _atom_site_fract_z
 _atom_site_occupancy
  Na  Na0  1  0.25372336  0.12864737  0.24077141  1
  Na  Na1  1  0.75372336  0.36941879  0.75922859  1
  Na  Na2  1  0.24519821  0.64342405  0.24009084  1
  Na  Na3  1  0.74519821  0.88351489  0.75990916  1
  Na  Na4  1  0.75486889  0.87628480  0.25490069  1
  Na  Na5  1  0.25486889  0.13118550  0.74509931  1
  Na  Na6  1  0.50504111  0.15953435  0.43453752  1
  Na  Na7  1  0.00504111  0.59407187  0.56546248  1
  Na  Na8  1  0.74486143  0.38009520  0.26000433  1
  Na  Na9  1  0.24486143  0.64009953  0.73999567  1
  Na  Na10  1  0.99301482  0.10534374  0.05582666  1
  Na  Na11  1  0.49301482  0.16117040  0.94417334  1
  Yb  Yb12  1  0.49302458  0.65260349  0.44866322  1
  Yb  Yb13  1  0.99302458  0.10126671  0.55133678  1
  Yb  Yb14  1  0.99183069  0.59818676  0.05507267  1
  Yb  Yb15  1  0.49183069  0.65325943  0.94492733  1
  C  C16  1  0.00760538  0.94365046  0.88833507  1
  C  C17  1  0.50760538  0.83198553  0.11166493  1
  C  C18  1  0.01151023  0.95168613  0.38874035  1
  C  C19  1  0.51151023  0.34042648  0.61125965  1
  C  C20  1  0.00989588  0.43407535  0.38562835  1
  C  C21  1  0.50989588  0.81970370  0.61437165  1
  C  C22  1  0.00436520  0.45497179  0.88856435  1
  C  C23  1  0.50436520  0.34353614  0.11143565  1
  O  O24  1  0.84872055  0.55222623  0.41802307  1
  O  O25  1  0.34872055  0.97024930  0.58197693  1
  O  O26  1  0.03225000  0.45671045  0.30160441  1
  O  O27  1  0.53225000  0.75831486  0.69839560  1
  O  O28  1  0.04313203  0.42961710  0.80916461  1
  O  O29  1  0.54313203  0.23878171  0.19083539  1
  O  O30  1  0.83908634  0.59881052  0.90594989  1
  O  O31  1  0.33908634  0.50476041  0.09405011  1
  O  O32  1  0.85365838  0.08604314  0.91108761  1
  O  O33  1  0.35365838  0.99713075  0.08891239  1
  O  O34  1  0.13547365  0.83140729  0.45179639  1
  O  O35  1  0.63547365  0.28320369  0.54820361  1
  O  O36  1  0.85738226  0.10238341  0.40704191  1
  O  O37  1  0.35738226  0.50942532  0.59295809  1
  O  O38  1  0.13161937  0.80760155  0.94796921  1
  O  O39  1  0.63161937  0.75557076  0.05203079  1
  O  O40  1  0.03749447  0.93705613  0.80620700  1
  O  O41  1  0.53749447  0.74326313  0.19379300  1
  O  O42  1  0.12506313  0.34561345  0.95352527  1
  O  O43  1  0.62506313  0.29913872  0.04647473  1
  O  O44  1  0.14432025  0.29453095  0.43884839  1
  O  O45  1  0.64432025  0.73337934  0.56115161  1
  O  O46  1  0.04168673  0.92549630  0.30885307  1
  O  O47  1  0.54168673  0.23434937  0.69114693  1
  F  F48  1  0.47235560  0.47966031  0.35633464  1
  F  F49  1  0.97235560  0.83599494  0.64366536  1
  F  F50  1  0.49163997  0.93385452  0.35695108  1
  F  F51  1  0.99163997  0.29080561  0.64304892  1
  F  F52  1  0.96984274  0.80994820  0.13847362  1
  F  F53  1  0.46984274  0.94842182  0.86152638  1
  F  F54  1  0.97886475  0.32882173  0.14610478  1
  F  F55  1  0.47886475  0.47492651  0.85389522  1
