# generated using pymatgen
data_Mn3CrP4
_symmetry_space_group_name_H-M   'P 1'
_cell_length_a   3.12683358
_cell_length_b   5.25538633
_cell_length_c   5.90921157
_cell_angle_alpha   89.85996172
_cell_angle_beta   90.00000000
_cell_angle_gamma   90.00000000
_symmetry_Int_Tables_number   1
_chemical_formula_structural   Mn3CrP4
_chemical_formula_sum   'Mn3 Cr1 P4'
_cell_volume   97.10412003
_cell_formula_units_Z   1
loop_
 _symmetry_equiv_pos_site_id
 _symmetry_equiv_pos_as_xyz
  1  'x, y, z'
loop_
 _atom_site_type_symbol
 _atom_site_label
 _atom_site_symmetry_multiplicity
 _atom_site_fract_x
 _atom_site_fract_y
 _atom_site_fract_z
 _atom_site_occupancy
  Mn  Mn0  1  0.75000000  0.99530804  0.80448015  1
  Mn  Mn1  1  0.25000000  0.50488188  0.30310709  1
  Mn  Mn2  1  0.25000000  0.00495050  0.19707016  1
  Cr  Cr3  1  0.75000000  0.49416196  0.69562658  1
  P  P4  1  0.75000000  0.31169685  0.06858406  1
  P  P5  1  0.75000000  0.81163890  0.43083564  1
  P  P6  1  0.25000000  0.69031747  0.93381250  1
  P  P7  1  0.25000000  0.18704441  0.56648381  1
