# generated using pymatgen
data_Na4Br(ClO4)3
_symmetry_space_group_name_H-M   'P 1'
_cell_length_a   6.72602832
_cell_length_b   6.72602832
_cell_length_c   6.72602832
_cell_angle_alpha   89.40190526
_cell_angle_beta   90.59809474
_cell_angle_gamma   89.40190526
_symmetry_Int_Tables_number   1
_chemical_formula_structural   Na4Br(ClO4)3
_chemical_formula_sum   'Na4 Br1 Cl3 O12'
_cell_volume   304.23178493
_cell_formula_units_Z   1
loop_
 _symmetry_equiv_pos_site_id
 _symmetry_equiv_pos_as_xyz
  1  'x, y, z'
loop_
 _atom_site_type_symbol
 _atom_site_label
 _atom_site_symmetry_multiplicity
 _atom_site_fract_x
 _atom_site_fract_y
 _atom_site_fract_z
 _atom_site_occupancy
  Na  Na0  1  0.93153427  0.56846573  0.43153427  1
  Na  Na1  1  0.56943644  0.42823159  0.92721904  1
  Na  Na2  1  0.42721904  0.93056356  0.57176841  1
  Na  Na3  1  0.07176841  0.07278096  0.06943644  1
  Br  Br4  1  0.59016278  0.90983722  0.09016278  1
  Cl  Cl5  1  0.91844094  0.08123668  0.58025124  1
  Cl  Cl6  1  0.08025124  0.58155906  0.91876332  1
  Cl  Cl7  1  0.41876332  0.41974876  0.41844094  1
  O  O8  1  0.70932684  0.10727818  0.99237914  1
  O  O9  1  0.49237914  0.79067316  0.89272182  1
  O  O10  1  0.39272182  0.00762086  0.20932684  1
  O  O11  1  0.80633776  0.90687418  0.49477813  1
  O  O12  1  0.00061407  0.19574685  0.40572281  1
  O  O13  1  0.09325108  0.99581522  0.69572817  1
  O  O14  1  0.19572817  0.40674892  0.00418478  1
  O  O15  1  0.99477813  0.69366224  0.09312582  1
  O  O16  1  0.90572281  0.49938593  0.80425315  1
  O  O17  1  0.30425315  0.59427719  0.50061407  1
  O  O18  1  0.50418478  0.30427183  0.59325108  1
  O  O19  1  0.59312582  0.50522187  0.30633776  1
