# generated using pymatgen
data_Na4Fe6O13
_symmetry_space_group_name_H-M   'P 1'
_cell_length_a   5.27150434
_cell_length_b   11.14997842
_cell_length_c   10.84894086
_cell_angle_alpha   60.86393442
_cell_angle_beta   89.93327072
_cell_angle_gamma   76.27879839
_symmetry_Int_Tables_number   1
_chemical_formula_structural   Na4Fe6O13
_chemical_formula_sum   'Na8 Fe12 O26'
_cell_volume   536.15401459
_cell_formula_units_Z   2
loop_
 _symmetry_equiv_pos_site_id
 _symmetry_equiv_pos_as_xyz
  1  'x, y, z'
loop_
 _atom_site_type_symbol
 _atom_site_label
 _atom_site_symmetry_multiplicity
 _atom_site_fract_x
 _atom_site_fract_y
 _atom_site_fract_z
 _atom_site_occupancy
  Na  Na0  1  0.16844319  0.68739760  0.01408390  1
  Na  Na1  1  0.33378824  0.33378297  0.21063811  1
  Na  Na2  1  0.83323243  0.33405116  0.45625272  1
  Na  Na3  1  0.66775561  0.68818877  0.29604340  1
  Na  Na4  1  0.35505568  0.31257063  0.70202328  1
  Na  Na5  1  0.16377888  0.66664593  0.54378901  1
  Na  Na6  1  0.66686448  0.66622722  0.79047045  1
  Na  Na7  1  0.85996196  0.31167847  0.98523123  1
  Fe  Fe8  1  0.54290274  0.07845121  0.09070023  1
  Fe  Fe9  1  0.74306443  0.51683553  0.11751106  1
  Fe  Fe10  1  0.94705960  0.10575913  0.34609469  1
  Fe  Fe11  1  0.44693166  0.10538243  0.54926989  1
  Fe  Fe12  1  0.24265584  0.51754023  0.36584467  1
  Fe  Fe13  1  0.12103873  0.92202235  0.16875577  1
  Fe  Fe14  1  0.04192265  0.07811655  0.83220550  1
  Fe  Fe15  1  0.75954017  0.48313044  0.63441581  1
  Fe  Fe16  1  0.55256397  0.89442966  0.45152498  1
  Fe  Fe17  1  0.05259126  0.89455622  0.65486759  1
  Fe  Fe18  1  0.26060611  0.48251589  0.88345406  1
  Fe  Fe19  1  0.62026174  0.92177479  0.91054305  1
  O  O20  1  0.31468460  0.00160582  0.99992155  1
  O  O21  1  0.81600019  0.99862349  0.00157107  1
  O  O22  1  0.36206534  0.26609657  0.00787973  1
  O  O23  1  0.87470535  0.07508724  0.18842729  1
  O  O24  1  0.50645863  0.49979730  0.99797234  1
  O  O25  1  0.84275491  0.29623340  0.24400815  1
  O  O26  1  0.34414953  0.09500641  0.37668888  1
  O  O27  1  0.48282248  0.52670486  0.23487168  1
  O  O28  1  0.98368253  0.52589931  0.23924653  1
  O  O29  1  0.84475880  0.09512613  0.52942443  1
  O  O30  1  0.34403697  0.29574948  0.46115018  1
  O  O31  1  0.12983063  0.73408342  0.27307099  1
  O  O32  1  0.44965924  0.92530133  0.26319032  1
  O  O33  1  0.00502251  0.49997099  0.50221687  1
  O  O34  1  0.50535194  0.50001345  0.49807461  1
  O  O35  1  0.37392777  0.07431454  0.73755507  1
  O  O36  1  0.86211232  0.26599973  0.72913618  1
  O  O37  1  0.64013068  0.70400911  0.53972799  1
  O  O38  1  0.93886909  0.90529031  0.47177847  1
  O  O39  1  0.51044209  0.47357032  0.76198490  1
  O  O40  1  0.01096023  0.47400449  0.76476492  1
  O  O41  1  0.43980114  0.90484864  0.62424177  1
  O  O42  1  0.14001866  0.70413816  0.75714145  1
  O  O43  1  0.00586555  0.50014805  0.00251741  1
  O  O44  1  0.94876002  0.92521825  0.81236991  1
  O  O45  1  0.62863043  0.73391903  0.99468892  1
