# generated using pymatgen
data_NaMg3In(MoO4)5
_symmetry_space_group_name_H-M   'P 1'
_cell_length_a   7.11171884
_cell_length_b   7.17455851
_cell_length_c   18.26201791
_cell_angle_alpha   92.61561135
_cell_angle_beta   92.50796658
_cell_angle_gamma   79.17599654
_symmetry_Int_Tables_number   1
_chemical_formula_structural   NaMg3In(MoO4)5
_chemical_formula_sum   'Na2 Mg6 In2 Mo10 O40'
_cell_volume   913.67159405
_cell_formula_units_Z   2
loop_
 _symmetry_equiv_pos_site_id
 _symmetry_equiv_pos_as_xyz
  1  'x, y, z'
loop_
 _atom_site_type_symbol
 _atom_site_label
 _atom_site_symmetry_multiplicity
 _atom_site_fract_x
 _atom_site_fract_y
 _atom_site_fract_z
 _atom_site_occupancy
  Na  Na0  1  0.63448537  0.83792811  0.21638493  1
  Na  Na1  1  0.36637243  0.16251979  0.78326726  1
  Mg  Mg2  1  0.67650933  0.57365003  0.38597428  1
  Mg  Mg3  1  0.32788701  0.42373625  0.61662385  1
  Mg  Mg4  1  0.69155618  0.32450942  0.00597175  1
  Mg  Mg5  1  0.72115842  0.07837148  0.62860036  1
  Mg  Mg6  1  0.25024421  0.20129935  0.23167337  1
  Mg  Mg7  1  0.74939397  0.80085090  0.76487533  1
  In  In8  1  0.31314528  0.67066679  0.99230308  1
  In  In9  1  0.27983474  0.92262725  0.37479772  1
  Mo  Mo10  1  0.74645375  0.04671231  0.41531008  1
  Mo  Mo11  1  0.25195225  0.95583611  0.58739596  1
  Mo  Mo12  1  0.22631960  0.43889732  0.40684745  1
  Mo  Mo13  1  0.77273124  0.56059054  0.59362079  1
  Mo  Mo14  1  0.22955727  0.19161298  0.02609734  1
  Mo  Mo15  1  0.76678648  0.81260319  0.97374936  1
  Mo  Mo16  1  0.18029853  0.72086031  0.19216092  1
  Mo  Mo17  1  0.81738579  0.27858075  0.80832809  1
  Mo  Mo18  1  0.71795313  0.32575751  0.21416434  1
  Mo  Mo19  1  0.28196152  0.67503169  0.78397254  1
  O  O20  1  0.31666452  0.70112442  0.11100692  1
  O  O21  1  0.68697961  0.29903039  0.89109932  1
  O  O22  1  0.29075543  0.38736097  0.49868617  1
  O  O23  1  0.70811320  0.61196624  0.50027712  1
  O  O24  1  0.66837729  0.28761932  0.39174504  1
  O  O25  1  0.32975550  0.71292254  0.60924292  1
  O  O26  1  0.93669369  0.79662501  0.17095368  1
  O  O27  1  0.06279644  0.20243945  0.82922143  1
  O  O28  1  0.55366805  0.16690072  0.23041205  1
  O  O29  1  0.44479136  0.83396289  0.76943029  1
  O  O30  1  0.98004294  0.53493838  0.39700879  1
  O  O31  1  0.02112743  0.46558007  0.60277468  1
  O  O32  1  0.25290579  0.14871795  0.12129477  1
  O  O33  1  0.74511734  0.85187766  0.87869611  1
  O  O34  1  0.27644958  0.89755955  0.25544811  1
  O  O35  1  0.72410041  0.10352713  0.74418255  1
  O  O36  1  0.29943854  0.96840538  0.97628750  1
  O  O37  1  0.70059150  0.03483434  0.02203153  1
  O  O38  1  0.98724496  0.28627922  0.00543108  1
  O  O39  1  0.01044548  0.71302568  0.99667574  1
  O  O40  1  0.70003092  0.38262862  0.12015141  1
  O  O41  1  0.29916971  0.61245117  0.87838271  1
  O  O42  1  0.95793051  0.21398056  0.23599865  1
  O  O43  1  0.04330963  0.78663829  0.76367828  1
  O  O44  1  0.66377233  0.54471192  0.27056056  1
  O  O45  1  0.33581703  0.45585435  0.72935454  1
  O  O46  1  0.21097670  0.49453875  0.23198718  1
  O  O47  1  0.78697983  0.50711119  0.76867676  1
  O  O48  1  0.27042918  0.21691177  0.35016282  1
  O  O49  1  0.72932712  0.78498968  0.64771009  1
  O  O50  1  0.59310620  0.88193651  0.37517399  1
  O  O51  1  0.40810848  0.11616694  0.62458732  1
  O  O52  1  0.74789874  0.03656956  0.51142148  1
  O  O53  1  0.25083501  0.96781224  0.48914471  1
  O  O54  1  0.36405896  0.61885101  0.38267677  1
  O  O55  1  0.63952386  0.37726603  0.61662134  1
  O  O56  1  0.97558622  0.95805216  0.37786562  1
  O  O57  1  0.02028355  0.03936202  0.62050254  1
  O  O58  1  0.38148854  0.36280781  0.00425722  1
  O  O59  1  0.62332191  0.63402001  0.99706141  1
