# generated using pymatgen
data_Mn9Zn3O16
_symmetry_space_group_name_H-M   'P 1'
_cell_length_a   5.86293454
_cell_length_b   5.86293454
_cell_length_c   9.35138155
_cell_angle_alpha   90.00000000
_cell_angle_beta   90.00000000
_cell_angle_gamma   90.00000000
_symmetry_Int_Tables_number   1
_chemical_formula_structural   Mn9Zn3O16
_chemical_formula_sum   'Mn9 Zn3 O16'
_cell_volume   321.44440268
_cell_formula_units_Z   1
loop_
 _symmetry_equiv_pos_site_id
 _symmetry_equiv_pos_as_xyz
  1  'x, y, z'
loop_
 _atom_site_type_symbol
 _atom_site_label
 _atom_site_symmetry_multiplicity
 _atom_site_fract_x
 _atom_site_fract_y
 _atom_site_fract_z
 _atom_site_occupancy
  Mn  Mn0  1  0.25092054  0.75000000  0.25176976  1
  Mn  Mn1  1  0.74932307  0.25000000  0.74844870  1
  Mn  Mn2  1  0.00000000  0.99932307  0.50155130  1
  Mn  Mn3  1  0.50000000  0.50092054  0.99823024  1
  Mn  Mn4  1  0.50000000  0.99907946  0.99823024  1
  Mn  Mn5  1  0.00000000  0.50067693  0.50155130  1
  Mn  Mn6  1  0.74907946  0.75000000  0.25176976  1
  Mn  Mn7  1  0.25067693  0.25000000  0.74844870  1
  Mn  Mn8  1  0.00000000  0.25000000  0.12500000  1
  Zn  Zn9  1  0.50000000  0.75000000  0.62500000  1
  Zn  Zn10  1  0.50000000  0.25000000  0.37561971  1
  Zn  Zn11  1  0.00000000  0.75000000  0.87438029  1
  O  O12  1  0.27304733  0.75000000  0.00613420  1
  O  O13  1  0.77509663  0.25000000  0.50574289  1
  O  O14  1  0.00000000  0.97130141  0.25946766  1
  O  O15  1  0.50000000  0.47545059  0.75427592  1
  O  O16  1  0.00000000  0.52869859  0.25946766  1
  O  O17  1  0.50000000  0.02454941  0.75427592  1
  O  O18  1  0.72695267  0.75000000  0.00613420  1
  O  O19  1  0.22490337  0.25000000  0.50574289  1
  O  O20  1  0.22545059  0.75000000  0.49572408  1
  O  O21  1  0.72130141  0.25000000  0.99053234  1
  O  O22  1  0.50000000  0.52304733  0.24386580  1
  O  O23  1  0.00000000  0.02509663  0.74425711  1
  O  O24  1  0.50000000  0.97695267  0.24386580  1
  O  O25  1  0.00000000  0.47490337  0.74425711  1
  O  O26  1  0.77454941  0.75000000  0.49572408  1
  O  O27  1  0.27869859  0.25000000  0.99053234  1
