# generated using pymatgen
data_MnCd3Te4
_symmetry_space_group_name_H-M   'P 1'
_cell_length_a   4.64343966
_cell_length_b   6.50042671
_cell_length_c   9.29205090
_cell_angle_alpha   90.00000000
_cell_angle_beta   90.00000000
_cell_angle_gamma   90.00000000
_symmetry_Int_Tables_number   1
_chemical_formula_structural   MnCd3Te4
_chemical_formula_sum   'Mn1 Cd3 Te4'
_cell_volume   280.47441591
_cell_formula_units_Z   1
loop_
 _symmetry_equiv_pos_site_id
 _symmetry_equiv_pos_as_xyz
  1  'x, y, z'
loop_
 _atom_site_type_symbol
 _atom_site_label
 _atom_site_symmetry_multiplicity
 _atom_site_fract_x
 _atom_site_fract_y
 _atom_site_fract_z
 _atom_site_occupancy
  Mn  Mn0  1  0.50000000  0.49876811  0.75000000  1
  Cd  Cd1  1  0.00000000  0.99966775  0.99622855  1
  Cd  Cd2  1  0.50000000  0.50242200  0.25000000  1
  Cd  Cd3  1  -0.00000000  0.99966775  0.50377145  1
  Te  Te4  1  0.50000000  0.74129033  0.99077713  1
  Te  Te5  1  -0.00000000  0.24736608  0.25000000  1
  Te  Te6  1  0.50000000  0.74129033  0.50922287  1
  Te  Te7  1  -0.00000000  0.26952765  0.75000000  1
