# generated using pymatgen
data_Mg4FeO5
_symmetry_space_group_name_H-M   'P 1'
_cell_length_a   3.02973425
_cell_length_b   3.02973425
_cell_length_c   12.49978807
_cell_angle_alpha   96.96086391
_cell_angle_beta   83.03913609
_cell_angle_gamma   120.00000000
_symmetry_Int_Tables_number   1
_chemical_formula_structural   Mg4FeO5
_chemical_formula_sum   'Mg4 Fe1 O5'
_cell_volume   98.38927079
_cell_formula_units_Z   1
loop_
 _symmetry_equiv_pos_site_id
 _symmetry_equiv_pos_as_xyz
  1  'x, y, z'
loop_
 _atom_site_type_symbol
 _atom_site_label
 _atom_site_symmetry_multiplicity
 _atom_site_fract_x
 _atom_site_fract_y
 _atom_site_fract_z
 _atom_site_occupancy
  Mg  Mg0  1  0.59948323  0.40051677  0.20155031  1
  Mg  Mg1  1  0.19996636  0.80003364  0.40010093  1
  Mg  Mg2  1  0.80003364  0.19996636  0.59989907  1
  Mg  Mg3  1  0.40051677  0.59948323  0.79844969  1
  Fe  Fe4  1  0.00000000  0.00000000  -0.00000000  1
  O  O5  1  0.70154422  0.29845578  0.89536734  1
  O  O6  1  0.50000000  0.50000000  0.50000000  1
  O  O7  1  0.10009352  0.89990648  0.69971943  1
  O  O8  1  0.29845578  0.70154422  0.10463266  1
  O  O9  1  0.89990648  0.10009352  0.30028057  1
