# generated using pymatgen
data_Mn2Co2SiGe
_symmetry_space_group_name_H-M   'P 1'
_cell_length_a   3.71341467
_cell_length_b   5.77090322
_cell_length_c   6.95952393
_cell_angle_alpha   90.00000000
_cell_angle_beta   90.00000000
_cell_angle_gamma   90.00000000
_symmetry_Int_Tables_number   1
_chemical_formula_structural   Mn2Co2SiGe
_chemical_formula_sum   'Mn4 Co4 Si2 Ge2'
_cell_volume   149.14090440
_cell_formula_units_Z   2
loop_
 _symmetry_equiv_pos_site_id
 _symmetry_equiv_pos_as_xyz
  1  'x, y, z'
loop_
 _atom_site_type_symbol
 _atom_site_label
 _atom_site_symmetry_multiplicity
 _atom_site_fract_x
 _atom_site_fract_y
 _atom_site_fract_z
 _atom_site_occupancy
  Mn  Mn0  1  0.75000000  0.46753871  0.68255198  1
  Mn  Mn1  1  0.75000000  0.96753871  0.81744802  1
  Mn  Mn2  1  0.25000000  0.52276245  0.30914144  1
  Mn  Mn3  1  0.25000000  0.02276245  0.19085856  1
  Co  Co4  1  0.75000000  0.34814892  0.06784469  1
  Co  Co5  1  0.75000000  0.84814892  0.43215531  1
  Co  Co6  1  0.25000000  0.66525032  0.94744050  1
  Co  Co7  1  0.25000000  0.16525032  0.55255950  1
  Si  Si8  1  0.75000000  0.73379440  0.12359549  1
  Si  Si9  1  0.75000000  0.23379440  0.37640451  1
  Ge  Ge10  1  0.25000000  0.26250520  0.88002770  1
  Ge  Ge11  1  0.25000000  0.76250520  0.61997230  1
