# generated using pymatgen
data_Mg9Si4(HO9)2
_symmetry_space_group_name_H-M   'P 1'
_cell_length_a   4.81917533
_cell_length_b   10.36622624
_cell_length_c   13.89962822
_cell_angle_alpha   101.60375925
_cell_angle_beta   90.00000000
_cell_angle_gamma   90.00000000
_symmetry_Int_Tables_number   1
_chemical_formula_structural   Mg9Si4(HO9)2
_chemical_formula_sum   'Mg18 Si8 H4 O36'
_cell_volume   680.18734456
_cell_formula_units_Z   2
loop_
 _symmetry_equiv_pos_site_id
 _symmetry_equiv_pos_as_xyz
  1  'x, y, z'
loop_
 _atom_site_type_symbol
 _atom_site_label
 _atom_site_symmetry_multiplicity
 _atom_site_fract_x
 _atom_site_fract_y
 _atom_site_fract_z
 _atom_site_occupancy
  Mg  Mg0  1  0.48681318  0.64239742  0.17468001  1
  Mg  Mg1  1  0.51318682  0.35760258  0.82531999  1
  Mg  Mg2  1  0.98681318  0.85760258  0.82531999  1
  Mg  Mg3  1  0.01318682  0.14239742  0.17468001  1
  Mg  Mg4  1  0.99089692  0.75102730  0.38764294  1
  Mg  Mg5  1  0.00910308  0.24897270  0.61235706  1
  Mg  Mg6  1  0.49089692  0.74897270  0.61235706  1
  Mg  Mg7  1  0.50910308  0.25102730  0.38764294  1
  Mg  Mg8  1  0.99935139  0.44791576  0.27426481  1
  Mg  Mg9  1  0.00064861  0.55208424  0.72573519  1
  Mg  Mg10  1  0.49935139  0.05208424  0.72573519  1
  Mg  Mg11  1  0.50064861  0.94791576  0.27426481  1
  Mg  Mg12  1  0.00000000  0.50000000  0.50000000  1
  Mg  Mg13  1  0.50000000  0.00000000  0.50000000  1
  Mg  Mg14  1  0.98230794  0.37682443  0.04359669  1
  Mg  Mg15  1  0.01769206  0.62317557  0.95640331  1
  Mg  Mg16  1  0.48230794  0.12317557  0.95640331  1
  Mg  Mg17  1  0.51769206  0.87682443  0.04359669  1
  Si  Si18  1  0.43001752  0.67811576  0.83378437  1
  Si  Si19  1  0.56998248  0.32188424  0.16621563  1
  Si  Si20  1  0.93001752  0.82188424  0.16621563  1
  Si  Si21  1  0.06998248  0.17811576  0.83378437  1
  Si  Si22  1  0.42473294  0.56633979  0.39091781  1
  Si  Si23  1  0.57526706  0.43366021  0.60908219  1
  Si  Si24  1  0.92473294  0.93366021  0.60908219  1
  Si  Si25  1  0.07526706  0.06633979  0.39091781  1
  H  H26  1  0.37748681  0.47760709  0.02708821  1
  H  H27  1  0.62251319  0.52239291  0.97291179  1
  H  H28  1  0.87748681  0.02239291  0.97291179  1
  H  H29  1  0.12251319  0.97760709  0.02708821  1
  O  O30  1  0.22396754  0.91959743  0.38718074  1
  O  O31  1  0.77603246  0.08040257  0.61281926  1
  O  O32  1  0.72396754  0.58040257  0.61281926  1
  O  O33  1  0.27603246  0.41959743  0.38718074  1
  O  O34  1  0.76376882  0.56512324  0.38855295  1
  O  O35  1  0.23623118  0.43487676  0.61144705  1
  O  O36  1  0.26376882  0.93487676  0.61144705  1
  O  O37  1  0.73623118  0.06512324  0.38855295  1
  O  O38  1  0.24273646  0.54263591  0.05821316  1
  O  O39  1  0.75726354  0.45736409  0.94178684  1
  O  O40  1  0.74273646  0.95736409  0.94178684  1
  O  O41  1  0.25726354  0.04263591  0.05821316  1
  O  O42  1  0.27390763  0.61413111  0.29660220  1
  O  O43  1  0.72609237  0.38586889  0.70339780  1
  O  O44  1  0.77390763  0.88586889  0.70339780  1
  O  O45  1  0.22609237  0.11413111  0.29660220  1
  O  O46  1  0.27695526  0.65794357  0.48859615  1
  O  O47  1  0.72304474  0.34205643  0.51140385  1
  O  O48  1  0.77695526  0.84205643  0.51140385  1
  O  O49  1  0.22304474  0.15794357  0.48859615  1
  O  O50  1  0.78399251  0.72537416  0.06977237  1
  O  O51  1  0.21600749  0.27462584  0.93022763  1
  O  O52  1  0.28399251  0.77462584  0.93022763  1
  O  O53  1  0.71600749  0.22537416  0.06977237  1
  O  O54  1  0.71323248  0.46787484  0.16429969  1
  O  O55  1  0.28676752  0.53212516  0.83570031  1
  O  O56  1  0.21323248  0.03212516  0.83570031  1
  O  O57  1  0.78676752  0.96787484  0.16429969  1
  O  O58  1  0.26910910  0.82160608  0.16460978  1
  O  O59  1  0.73089090  0.17839392  0.83539022  1
  O  O60  1  0.76910910  0.67839392  0.83539022  1
  O  O61  1  0.23089090  0.32160608  0.16460978  1
  O  O62  1  0.77746872  0.77931208  0.26227179  1
  O  O63  1  0.22253128  0.22068792  0.73772821  1
  O  O64  1  0.27746872  0.72068792  0.73772821  1
  O  O65  1  0.72253128  0.27931208  0.26227179  1
