# generated using pymatgen
data_Mg8P8Ir23
_symmetry_space_group_name_H-M   'P 1'
_cell_length_a   3.99530966
_cell_length_b   8.61288735
_cell_length_c   17.05325370
_cell_angle_alpha   90.04494010
_cell_angle_beta   90.00000000
_cell_angle_gamma   90.00000000
_symmetry_Int_Tables_number   1
_chemical_formula_structural   Mg8P8Ir23
_chemical_formula_sum   'Mg8 P8 Ir23'
_cell_volume   586.82192504
_cell_formula_units_Z   1
loop_
 _symmetry_equiv_pos_site_id
 _symmetry_equiv_pos_as_xyz
  1  'x, y, z'
loop_
 _atom_site_type_symbol
 _atom_site_label
 _atom_site_symmetry_multiplicity
 _atom_site_fract_x
 _atom_site_fract_y
 _atom_site_fract_z
 _atom_site_occupancy
  Mg  Mg0  1  0.50000000  0.29087656  0.29427985  1
  Mg  Mg1  1  0.50000000  0.70912344  0.70572015  1
  Mg  Mg2  1  0.50000000  0.78974903  0.20945644  1
  Mg  Mg3  1  0.50000000  0.21025097  0.79054356  1
  Mg  Mg4  1  0.50000000  0.90675779  0.39300297  1
  Mg  Mg5  1  0.50000000  0.09324221  0.60699703  1
  Mg  Mg6  1  0.50000000  0.40696243  0.10929124  1
  Mg  Mg7  1  0.50000000  0.59303757  0.89070876  1
  P  P8  1  0.00000000  0.74153055  0.31495845  1
  P  P9  1  0.00000000  0.25846945  0.68504155  1
  P  P10  1  0.00000000  0.24333791  0.18727732  1
  P  P11  1  0.00000000  0.75666209  0.81272268  1
  P  P12  1  0.00000000  0.13308571  0.38022506  1
  P  P13  1  -0.00000000  0.86691429  0.61977494  1
  P  P14  1  0.00000000  0.63211851  0.12183061  1
  P  P15  1  0.00000000  0.36788149  0.87816939  1
  Ir  Ir16  1  0.50000000  0.59821747  0.34762430  1
  Ir  Ir17  1  0.50000000  0.40178253  0.65237570  1
  Ir  Ir18  1  0.50000000  0.09674019  0.15285069  1
  Ir  Ir19  1  0.50000000  0.90325981  0.84714931  1
  Ir  Ir20  1  0.00000000  0.69068943  0.45129027  1
  Ir  Ir21  1  -0.00000000  0.30931057  0.54870973  1
  Ir  Ir22  1  0.00000000  0.19626515  0.05076897  1
  Ir  Ir23  1  0.00000000  0.80373485  0.94923103  1
  Ir  Ir24  1  0.00000000  0.40532407  0.39641029  1
  Ir  Ir25  1  -0.00000000  0.59467593  0.60358971  1
  Ir  Ir26  1  0.00000000  0.89901688  0.10396800  1
  Ir  Ir27  1  -0.00000000  0.10098312  0.89603200  1
  Ir  Ir28  1  0.50000000  0.21294277  0.45336027  1
  Ir  Ir29  1  0.50000000  0.78705723  0.54663973  1
  Ir  Ir30  1  0.50000000  0.70428760  0.04755866  1
  Ir  Ir31  1  0.50000000  0.29571240  0.95244134  1
  Ir  Ir32  1  0.00000000  0.50053484  0.23844244  1
  Ir  Ir33  1  -0.00000000  0.49946516  0.76155756  1
  Ir  Ir34  1  0.00000000  0.00043143  0.26252461  1
  Ir  Ir35  1  -0.00000000  0.99956857  0.73747539  1
  Ir  Ir36  1  0.00000000  -0.00000000  0.50000000  1
  Ir  Ir37  1  0.00000000  0.50000000  -0.00000000  1
  Ir  Ir38  1  0.50000000  -0.00000000  -0.00000000  1
