# generated using pymatgen
data_Mn2CoO4
_symmetry_space_group_name_H-M   'P 1'
_cell_length_a   5.82749430
_cell_length_b   5.82749430
_cell_length_c   6.25803671
_cell_angle_alpha   62.25088567
_cell_angle_beta   62.25088567
_cell_angle_gamma   90.00000000
_symmetry_Int_Tables_number   1
_chemical_formula_structural   Mn2CoO4
_chemical_formula_sum   'Mn4 Co2 O8'
_cell_volume   159.94681710
_cell_formula_units_Z   2
loop_
 _symmetry_equiv_pos_site_id
 _symmetry_equiv_pos_as_xyz
  1  'x, y, z'
loop_
 _atom_site_type_symbol
 _atom_site_label
 _atom_site_symmetry_multiplicity
 _atom_site_fract_x
 _atom_site_fract_y
 _atom_site_fract_z
 _atom_site_occupancy
  Mn  Mn0  1  0.62500000  0.37500000  0.25000000  1
  Mn  Mn1  1  0.12500000  0.37500000  0.25000000  1
  Mn  Mn2  1  0.62500000  0.87500000  0.75000000  1
  Mn  Mn3  1  0.62500000  0.37500000  0.75000000  1
  Co  Co4  1  0.25000000  0.75000000  0.50000000  1
  Co  Co5  1  -0.00000000  -0.00000000  0.00000000  1
  O  O6  1  0.40290983  0.13183594  0.73632813  1
  O  O7  1  0.86076204  0.13183594  0.73632813  1
  O  O8  1  0.38923796  0.61816406  0.76367187  1
  O  O9  1  0.84709017  0.61816406  0.76367187  1
  O  O10  1  0.86816406  0.13923796  0.26367187  1
  O  O11  1  0.86816406  0.59709017  0.26367187  1
  O  O12  1  0.38183594  0.15290983  0.23632813  1
  O  O13  1  0.38183594  0.61076204  0.23632813  1
