# generated using pymatgen
data_MgCdTe2
_symmetry_space_group_name_H-M   'P 1'
_cell_length_a   4.65234011
_cell_length_b   4.65234012
_cell_length_c   8.03485913
_cell_angle_alpha   73.17139715
_cell_angle_beta   90.00000000
_cell_angle_gamma   120.00000005
_symmetry_Int_Tables_number   1
_chemical_formula_structural   MgCdTe2
_chemical_formula_sum   'Mg1 Cd1 Te2'
_cell_volume   141.94442131
_cell_formula_units_Z   1
loop_
 _symmetry_equiv_pos_site_id
 _symmetry_equiv_pos_as_xyz
  1  'x, y, z'
loop_
 _atom_site_type_symbol
 _atom_site_label
 _atom_site_symmetry_multiplicity
 _atom_site_fract_x
 _atom_site_fract_y
 _atom_site_fract_z
 _atom_site_occupancy
  Mg  Mg0  1  0.50051650  0.00103300  0.49845050  1
  Cd  Cd1  1  0.99967051  0.99934103  0.00098846  1
  Te  Te2  1  0.87325325  0.74650650  0.38024026  1
  Te  Te3  1  0.37655974  0.75311947  0.87032079  1
