# generated using pymatgen
data_Li4ZnIn2F12
_symmetry_space_group_name_H-M   'P 1'
_cell_length_a   4.87250386
_cell_length_b   5.08586618
_cell_length_c   18.05927294
_cell_angle_alpha   90.00000000
_cell_angle_beta   90.00000000
_cell_angle_gamma   90.00000000
_symmetry_Int_Tables_number   1
_chemical_formula_structural   Li4ZnIn2F12
_chemical_formula_sum   'Li8 Zn2 In4 F24'
_cell_volume   447.52508364
_cell_formula_units_Z   2
loop_
 _symmetry_equiv_pos_site_id
 _symmetry_equiv_pos_as_xyz
  1  'x, y, z'
loop_
 _atom_site_type_symbol
 _atom_site_label
 _atom_site_symmetry_multiplicity
 _atom_site_fract_x
 _atom_site_fract_y
 _atom_site_fract_z
 _atom_site_occupancy
  Li  Li0  1  0.00000000  0.25000000  0.29611669  1
  Li  Li1  1  0.50000000  0.75000000  0.20788125  1
  Li  Li2  1  0.00000000  0.75000000  0.70788125  1
  Li  Li3  1  0.50000000  0.25000000  0.79611669  1
  Li  Li4  1  0.00000000  0.25000000  0.77473599  1
  Li  Li5  1  0.50000000  0.25000000  0.27473599  1
  Li  Li6  1  0.00000000  0.25000000  0.45145866  1
  Li  Li7  1  0.50000000  0.25000000  0.95145866  1
  Zn  Zn8  1  0.50000000  0.75000000  0.04296820  1
  Zn  Zn9  1  -0.00000000  0.75000000  0.54296820  1
  In  In10  1  -0.00000000  0.25000000  0.12097998  1
  In  In11  1  0.50000000  0.75000000  0.38196908  1
  In  In12  1  0.00000000  0.75000000  0.88196908  1
  In  In13  1  0.50000000  0.25000000  0.62097998  1
  F  F14  1  0.70469510  0.94072458  0.29253251  1
  F  F15  1  0.76725094  0.40984232  0.20943661  1
  F  F16  1  0.23274906  0.09015768  0.20943661  1
  F  F17  1  0.29530490  0.55927542  0.29253251  1
  F  F18  1  0.26725094  0.09015768  0.70943661  1
  F  F19  1  0.20469510  0.55927542  0.79253251  1
  F  F20  1  0.79530490  0.94072458  0.79253251  1
  F  F21  1  0.73274906  0.40984232  0.70943661  1
  F  F22  1  0.76373901  0.92190657  0.46152097  1
  F  F23  1  0.74011972  0.41729969  0.03921792  1
  F  F24  1  0.25988028  0.08270031  0.03921792  1
  F  F25  1  0.23626099  0.57809343  0.46152097  1
  F  F26  1  0.24011972  0.08270031  0.53921792  1
  F  F27  1  0.26373901  0.57809343  0.96152097  1
  F  F28  1  0.73626099  0.92190657  0.96152097  1
  F  F29  1  0.75988028  0.41729969  0.53921792  1
  F  F30  1  0.76837214  0.91718453  0.62503576  1
  F  F31  1  0.74298760  0.41513602  0.87175130  1
  F  F32  1  0.25701240  0.08486398  0.87175130  1
  F  F33  1  0.23162786  0.58281547  0.62503576  1
  F  F34  1  0.24298760  0.08486398  0.37175130  1
  F  F35  1  0.26837214  0.58281547  0.12503576  1
  F  F36  1  0.73162786  0.91718453  0.12503576  1
  F  F37  1  0.75701240  0.41513602  0.37175130  1
