# generated using pymatgen
data_Mn4Co4Si3Ge
_symmetry_space_group_name_H-M   'P 1'
_cell_length_a   3.68314962
_cell_length_b   5.76509294
_cell_length_c   6.92043187
_cell_angle_alpha   90.31484203
_cell_angle_beta   90.00000000
_cell_angle_gamma   90.00000000
_symmetry_Int_Tables_number   1
_chemical_formula_structural   Mn4Co4Si3Ge
_chemical_formula_sum   'Mn4 Co4 Si3 Ge1'
_cell_volume   146.94415475
_cell_formula_units_Z   1
loop_
 _symmetry_equiv_pos_site_id
 _symmetry_equiv_pos_as_xyz
  1  'x, y, z'
loop_
 _atom_site_type_symbol
 _atom_site_label
 _atom_site_symmetry_multiplicity
 _atom_site_fract_x
 _atom_site_fract_y
 _atom_site_fract_z
 _atom_site_occupancy
  Mn  Mn0  1  0.75000000  0.46451671  0.68718347  1
  Mn  Mn1  1  0.75000000  0.97804449  0.81969242  1
  Mn  Mn2  1  0.25000000  0.52164954  0.30923567  1
  Mn  Mn3  1  0.25000000  0.02611199  0.18384597  1
  Co  Co4  1  0.75000000  0.34192360  0.06122330  1
  Co  Co5  1  0.75000000  0.84718255  0.43245123  1
  Co  Co6  1  0.25000000  0.65698575  0.94594365  1
  Co  Co7  1  0.25000000  0.16648828  0.56007256  1
  Si  Si8  1  0.75000000  0.73280186  0.12213717  1
  Si  Si9  1  0.75000000  0.23356463  0.37581170  1
  Si  Si10  1  0.25000000  0.26738078  0.88026122  1
  Ge  Ge11  1  0.25000000  0.76334982  0.62214165  1
