# generated using pymatgen
data_La4Fe(CoO4)3
_symmetry_space_group_name_H-M   'P 1'
_cell_length_a   5.46941682
_cell_length_b   7.88373808
_cell_length_c   5.54494103
_cell_angle_alpha   89.55274203
_cell_angle_beta   89.81028608
_cell_angle_gamma   91.43886925
_symmetry_Int_Tables_number   1
_chemical_formula_structural   La4Fe(CoO4)3
_chemical_formula_sum   'La4 Fe1 Co3 O12'
_cell_volume   239.01066214
_cell_formula_units_Z   1
loop_
 _symmetry_equiv_pos_site_id
 _symmetry_equiv_pos_as_xyz
  1  'x, y, z'
loop_
 _atom_site_type_symbol
 _atom_site_label
 _atom_site_symmetry_multiplicity
 _atom_site_fract_x
 _atom_site_fract_y
 _atom_site_fract_z
 _atom_site_occupancy
  La  La0  1  0.49511030  0.24575478  0.99913318  1
  La  La1  1  0.00389694  0.75587755  0.50234160  1
  La  La2  1  0.50488970  0.75424522  0.00086682  1
  La  La3  1  0.99610306  0.24412245  0.49765840  1
  Fe  Fe4  1  0.50000000  0.50000000  0.50000000  1
  Co  Co5  1  -0.00000000  0.50000000  0.00000000  1
  Co  Co6  1  0.50000000  0.00000000  0.50000000  1
  Co  Co7  1  -0.00000000  0.00000000  0.00000000  1
  O  O8  1  0.21319172  0.53273913  0.72511998  1
  O  O9  1  0.72367293  0.03141927  0.21075961  1
  O  O10  1  0.27653456  0.46871283  0.21104587  1
  O  O11  1  0.78904930  0.96625115  0.72758267  1
  O  O12  1  0.99786863  0.75707214  0.06776878  1
  O  O13  1  0.50020953  0.25251119  0.56145597  1
  O  O14  1  0.72346544  0.53128717  0.78895413  1
  O  O15  1  0.21095070  0.03374885  0.27241733  1
  O  O16  1  0.00213137  0.24292786  0.93223122  1
  O  O17  1  0.49979047  0.74748881  0.43854403  1
  O  O18  1  0.78680828  0.46726087  0.27488002  1
  O  O19  1  0.27632707  0.96858073  0.78924039  1
