# generated using pymatgen
data_Li4Zr8V3(P3O16)3
_symmetry_space_group_name_H-M   'P 1'
_cell_length_a   9.06365398
_cell_length_b   9.10058944
_cell_length_c   12.89215420
_cell_angle_alpha   89.59460408
_cell_angle_beta   91.51948431
_cell_angle_gamma   89.76267505
_symmetry_Int_Tables_number   1
_chemical_formula_structural   Li4Zr8V3(P3O16)3
_chemical_formula_sum   'Li4 Zr8 V3 P9 O48'
_cell_volume   1062.99359174
_cell_formula_units_Z   1
loop_
 _symmetry_equiv_pos_site_id
 _symmetry_equiv_pos_as_xyz
  1  'x, y, z'
loop_
 _atom_site_type_symbol
 _atom_site_label
 _atom_site_symmetry_multiplicity
 _atom_site_fract_x
 _atom_site_fract_y
 _atom_site_fract_z
 _atom_site_occupancy
  Li  Li0  1  0.21580366  0.72510446  0.17936091  1
  Li  Li1  1  0.71719340  0.77438603  0.67754570  1
  Li  Li2  1  0.78276921  0.27504012  0.81853901  1
  Li  Li3  1  0.30137699  0.22744242  0.32218325  1
  Zr  Zr4  1  0.75032084  0.51522889  0.11856704  1
  Zr  Zr5  1  0.25408643  0.97989845  0.61252294  1
  Zr  Zr6  1  0.24234058  0.48023953  0.88836206  1
  Zr  Zr7  1  0.74440835  0.02869188  0.38527534  1
  Zr  Zr8  1  0.73082307  0.95240097  0.88454302  1
  Zr  Zr9  1  0.23906929  0.54565543  0.38515621  1
  Zr  Zr10  1  0.26626945  0.04466195  0.11602214  1
  Zr  Zr11  1  0.76531160  0.45499898  0.60750057  1
  V  V12  1  0.89993251  0.88251714  0.14862896  1
  V  V13  1  0.40302402  0.61707692  0.64877753  1
  V  V14  1  0.09580610  0.11564139  0.85263698  1
  P  P15  1  0.59822969  0.38442083  0.35545144  1
  P  P16  1  0.87981051  0.59457845  0.85650632  1
  P  P17  1  0.38807665  0.90034602  0.35612342  1
  P  P18  1  0.11551967  0.40035156  0.14616602  1
  P  P19  1  0.61366339  0.09944843  0.64208801  1
  P  P20  1  0.46524597  0.75077636  0.01298096  1
  P  P21  1  0.96785883  0.75045095  0.50791953  1
  P  P22  1  0.53244079  0.24581047  0.98853027  1
  P  P23  1  0.03641286  0.25465499  0.48579065  1
  O  O24  1  0.54258525  0.86379927  0.94325045  1
  O  O25  1  0.04942560  0.64019921  0.43826112  1
  O  O26  1  0.45599473  0.13226215  0.05865507  1
  O  O27  1  0.95789717  0.36840758  0.55396100  1
  O  O28  1  0.82194524  0.54521562  0.96196345  1
  O  O29  1  0.32831415  0.94572920  0.46136372  1
  O  O30  1  0.16913733  0.44795664  0.03969741  1
  O  O31  1  0.67376552  0.04845063  0.53838727  1
  O  O32  1  0.57782350  0.66630495  0.08193765  1
  O  O33  1  0.07871984  0.83192436  0.57884524  1
  O  O34  1  0.41813197  0.33029868  0.92149905  1
  O  O35  1  0.92374603  0.17223817  0.41723632  1
  O  O36  1  0.67657392  0.46873112  0.26922429  1
  O  O37  1  0.19038348  0.01272872  0.76422409  1
  O  O38  1  0.31088783  0.51282108  0.73740217  1
  O  O39  1  0.80607912  0.99255931  0.23359277  1
  O  O40  1  0.84474952  0.92355477  0.02126145  1
  O  O41  1  0.34350925  0.57518556  0.52323663  1
  O  O42  1  0.15315159  0.07276085  0.97964218  1
  O  O43  1  0.65815887  0.43234444  0.46455570  1
  O  O44  1  0.80721179  0.74597697  0.82401691  1
  O  O45  1  0.31790052  0.75047118  0.32255933  1
  O  O46  1  0.19011271  0.25081096  0.17853177  1
  O  O47  1  0.68640253  0.25029117  0.67170758  1
  O  O48  1  0.94612972  0.38879374  0.14636187  1
  O  O49  1  0.44447297  0.11408654  0.63804661  1
  O  O50  1  0.04930809  0.60952929  0.86060571  1
  O  O51  1  0.55754485  0.89064739  0.35931250  1
  O  O52  1  0.90554232  0.08801532  0.83632483  1
  O  O53  1  0.42833715  0.41314721  0.34621863  1
  O  O54  1  0.09084953  0.90839656  0.16429604  1
  O  O55  1  0.59414604  0.58868963  0.65916049  1
  O  O56  1  0.62207630  0.34844807  0.06002284  1
  O  O57  1  0.12277273  0.15002294  0.55903581  1
  O  O58  1  0.37602263  0.64781491  0.94175386  1
  O  O59  1  0.87893913  0.85659922  0.43706108  1
  O  O60  1  0.66031167  0.98025262  0.72480088  1
  O  O61  1  0.16835536  0.51999456  0.22559071  1
  O  O62  1  0.33919947  0.02143128  0.27551680  1
  O  O63  1  0.83494232  0.47844631  0.77186859  1
  O  O64  1  0.64303850  0.16667253  0.91647087  1
  O  O65  1  0.15053024  0.33332430  0.41579058  1
  O  O66  1  0.35420237  0.83132194  0.08398975  1
  O  O67  1  0.85590479  0.66724663  0.57742116  1
  O  O68  1  0.87001953  0.69899675  0.17150780  1
  O  O69  1  0.37923345  0.80100420  0.66957875  1
  O  O70  1  0.12064177  0.29968026  0.83254716  1
  O  O71  1  0.61907774  0.21659257  0.34452574  1
