# generated using pymatgen
data_In4P6Pb2O23
_symmetry_space_group_name_H-M   'P 1'
_cell_length_a   6.67492511
_cell_length_b   8.38347540
_cell_length_c   9.13795532
_cell_angle_alpha   100.19069647
_cell_angle_beta   103.72342210
_cell_angle_gamma   103.97882333
_symmetry_Int_Tables_number   1
_chemical_formula_structural   In4P6Pb2O23
_chemical_formula_sum   'In4 P6 Pb2 O23'
_cell_volume   466.92466872
_cell_formula_units_Z   1
loop_
 _symmetry_equiv_pos_site_id
 _symmetry_equiv_pos_as_xyz
  1  'x, y, z'
loop_
 _atom_site_type_symbol
 _atom_site_label
 _atom_site_symmetry_multiplicity
 _atom_site_fract_x
 _atom_site_fract_y
 _atom_site_fract_z
 _atom_site_occupancy
  In  In0  1  0.97301752  0.78822874  0.05056050  1
  In  In1  1  0.02624799  0.21212961  0.94833980  1
  In  In2  1  0.77325175  0.17879420  0.42657623  1
  In  In3  1  0.22691157  0.82018963  0.57357518  1
  P  P4  1  0.98895713  0.50994567  0.74004430  1
  P  P5  1  0.01193559  0.49016176  0.25997842  1
  P  P6  1  0.52315949  0.85901633  0.09161462  1
  P  P7  1  0.48904324  0.14525227  0.91220074  1
  P  P8  1  0.78361980  0.89590694  0.65714023  1
  P  P9  1  0.21643834  0.10387625  0.34280025  1
  Pb  Pb10  1  0.46465405  0.50710799  0.72682702  1
  Pb  Pb11  1  0.53648739  0.49261822  0.27382309  1
  O  O12  1  0.09823418  0.38600074  0.80987709  1
  O  O13  1  0.90414774  0.61463507  0.19050959  1
  O  O14  1  0.81379326  0.41927746  0.58385293  1
  O  O15  1  0.18702337  0.58030305  0.41615187  1
  O  O16  1  0.29058494  0.76750704  0.07596490  1
  O  O17  1  0.71095504  0.25095380  0.91396507  1
  O  O18  1  0.92058403  0.94980595  0.83636985  1
  O  O19  1  0.07891845  0.05044725  0.16407669  1
  O  O20  1  0.62078233  0.73678472  0.00257681  1
  O  O21  1  0.38047807  0.25735581  0.00148865  1
  O  O22  1  0.55600847  0.77585847  0.64292717  1
  O  O23  1  0.44454294  0.22373466  0.35701986  1
  O  O24  1  0.86861335  0.59316868  0.84333965  1
  O  O25  1  0.13235834  0.40717790  0.15622123  1
  O  O26  1  0.18432136  0.64761666  0.72723075  1
  O  O27  1  0.81622168  0.35224802  0.27255286  1
  O  O28  1  0.75776674  0.05953951  0.61219371  1
  O  O29  1  0.24284394  0.94071772  0.38863277  1
  O  O30  1  0.66548248  0.93562477  0.25924910  1
  O  O31  1  0.33794208  0.05312217  0.75054914  1
  O  O32  1  0.89091024  0.79785564  0.55644740  1
  O  O33  1  0.10984854  0.20240867  0.44389942  1
  O  O34  1  0.53391456  0.01062863  0.00842308  1
