# generated using pymatgen
data_La3PrMn4O12
_symmetry_space_group_name_H-M   'P 1'
_cell_length_a   5.62956293
_cell_length_b   5.61225295
_cell_length_c   7.94971814
_cell_angle_alpha   90.00000000
_cell_angle_beta   90.00000000
_cell_angle_gamma   89.97372900
_symmetry_Int_Tables_number   1
_chemical_formula_structural   La3PrMn4O12
_chemical_formula_sum   'La3 Pr1 Mn4 O12'
_cell_volume   251.16759089
_cell_formula_units_Z   1
loop_
 _symmetry_equiv_pos_site_id
 _symmetry_equiv_pos_as_xyz
  1  'x, y, z'
loop_
 _atom_site_type_symbol
 _atom_site_label
 _atom_site_symmetry_multiplicity
 _atom_site_fract_x
 _atom_site_fract_y
 _atom_site_fract_z
 _atom_site_occupancy
  La  La0  1  0.96698561  0.00859998  0.75000000  1
  La  La1  1  0.53159666  0.50807314  0.25000000  1
  La  La2  1  0.03227638  0.99058738  0.25000000  1
  Pr  Pr3  1  0.46147955  0.48862720  0.75000000  1
  Mn  Mn4  1  0.50051486  0.99975955  0.99917566  1
  Mn  Mn5  1  0.99929734  0.50027054  0.50042961  1
  Mn  Mn6  1  0.50051486  0.99975955  0.50082434  1
  Mn  Mn7  1  0.99929734  0.50027054  0.99957039  1
  O  O8  1  0.01670693  0.58338262  0.75000000  1
  O  O9  1  0.51370132  0.91244592  0.75000000  1
  O  O10  1  0.98680944  0.41582082  0.25000000  1
  O  O11  1  0.48683407  0.08300761  0.25000000  1
  O  O12  1  0.21821908  0.22500780  0.95301457  1
  O  O13  1  0.71526167  0.27916269  0.54692244  1
  O  O14  1  0.78480558  0.77833480  0.45474178  1
  O  O15  1  0.28370650  0.72219228  0.04430403  1
  O  O16  1  0.78480558  0.77833480  0.04525822  1
  O  O17  1  0.28370650  0.72219228  0.45569597  1
  O  O18  1  0.21821908  0.22500780  0.54698543  1
  O  O19  1  0.71526167  0.27916269  0.95307756  1
