# generated using pymatgen
data_LaPr3Mn4O12
_symmetry_space_group_name_H-M   'P 1'
_cell_length_a   5.54034317
_cell_length_b   5.64868705
_cell_length_c   7.93024626
_cell_angle_alpha   90.00000000
_cell_angle_beta   90.00000000
_cell_angle_gamma   90.06975851
_symmetry_Int_Tables_number   1
_chemical_formula_structural   LaPr3Mn4O12
_chemical_formula_sum   'La1 Pr3 Mn4 O12'
_cell_volume   248.18214383
_cell_formula_units_Z   1
loop_
 _symmetry_equiv_pos_site_id
 _symmetry_equiv_pos_as_xyz
  1  'x, y, z'
loop_
 _atom_site_type_symbol
 _atom_site_label
 _atom_site_symmetry_multiplicity
 _atom_site_fract_x
 _atom_site_fract_y
 _atom_site_fract_z
 _atom_site_occupancy
  La  La0  1  0.51038435  0.53981308  0.25000000  1
  Pr  Pr1  1  0.98739316  0.04412760  0.25000000  1
  Pr  Pr2  1  0.48725227  0.45460022  0.75000000  1
  Pr  Pr3  1  0.01192766  0.95525975  0.75000000  1
  Mn  Mn4  1  -0.00015686  0.50036275  0.99939840  1
  Mn  Mn5  1  0.50026363  0.99952124  0.50038265  1
  Mn  Mn6  1  -0.00015686  0.50036275  0.50060160  1
  Mn  Mn7  1  0.50026363  0.99952124  0.99961735  1
  O  O8  1  0.78511061  0.79255139  0.04543306  1
  O  O9  1  0.71773599  0.28926301  0.45459946  1
  O  O10  1  0.21797922  0.21024760  0.54680909  1
  O  O11  1  0.28328636  0.70991039  0.95233924  1
  O  O12  1  0.21797922  0.21024760  0.95319091  1
  O  O13  1  0.28328636  0.70991039  0.54766076  1
  O  O14  1  0.78511061  0.79255139  0.45456694  1
  O  O15  1  0.71773599  0.28926301  0.04540054  1
  O  O16  1  0.41308687  0.97900388  0.25000000  1
  O  O17  1  0.08247956  0.47688814  0.25000000  1
  O  O18  1  0.58630226  0.02315258  0.75000000  1
  O  O19  1  0.91273596  0.52344201  0.75000000  1
