# generated using pymatgen
data_Li3MgZn5(BH4)15
_symmetry_space_group_name_H-M   'P 1'
_cell_length_a   8.49600356
_cell_length_b   15.72368282
_cell_length_c   15.63123448
_cell_angle_alpha   60.19427721
_cell_angle_beta   90.00000000
_cell_angle_gamma   90.00000000
_symmetry_Int_Tables_number   1
_chemical_formula_structural   Li3MgZn5(BH4)15
_chemical_formula_sum   'Li6 Mg2 Zn10 B30 H120'
_cell_volume   1811.92304691
_cell_formula_units_Z   2
loop_
 _symmetry_equiv_pos_site_id
 _symmetry_equiv_pos_as_xyz
  1  'x, y, z'
loop_
 _atom_site_type_symbol
 _atom_site_label
 _atom_site_symmetry_multiplicity
 _atom_site_fract_x
 _atom_site_fract_y
 _atom_site_fract_z
 _atom_site_occupancy
  Li  Li0  1  0.50341504  0.00000001  0.99715563  1
  Li  Li1  1  0.99658496  0.00000001  0.99715563  1
  Li  Li2  1  0.75000000  0.00000007  0.60452342  1
  Li  Li3  1  0.25000000  0.39501353  0.60384906  1
  Li  Li4  1  0.25000000  0.60498644  0.99886266  1
  Li  Li5  1  0.25000000  0.99999991  0.39899319  1
  Mg  Mg6  1  0.75000000  0.60217683  0.39765660  1
  Mg  Mg7  1  0.75000000  0.39781365  0.99983614  1
  Zn  Zn8  1  0.75000000  0.33093576  0.33588930  1
  Zn  Zn9  1  0.75000000  0.66906394  0.66682589  1
  Zn  Zn10  1  0.25000000  0.66783120  0.66607768  1
  Zn  Zn11  1  0.25000000  0.33216909  0.33390793  1
  Zn  Zn12  1  0.75000000  0.27541654  0.72234268  1
  Zn  Zn13  1  0.75000000  0.72458371  0.99775832  1
  Zn  Zn14  1  0.75000000  0.99999989  0.27820095  1
  Zn  Zn15  1  0.25000000  0.72553242  0.27470559  1
  Zn  Zn16  1  0.25000000  0.27446751  0.00023801  1
  Zn  Zn17  1  0.25000000  0.00000021  0.72210653  1
  B  B18  1  0.75000000  0.13672142  0.86382876  1
  B  B19  1  0.75000000  0.86327873  0.00055018  1
  B  B20  1  0.75000000  0.00000004  0.13615017  1
  B  B21  1  0.25000000  0.86335237  0.13682632  1
  B  B22  1  0.25000000  0.13664785  0.00017867  1
  B  B23  1  0.25000000  0.00000001  0.86380187  1
  B  B24  1  0.75000000  0.53015418  0.81720833  1
  B  B25  1  0.75000000  0.81386993  0.65293542  1
  B  B26  1  0.75000000  0.65145504  0.53091487  1
  B  B27  1  0.75000000  0.18612965  0.46680569  1
  B  B28  1  0.75000000  0.34854490  0.18237007  1
  B  B29  1  0.75000000  0.46984602  0.34736233  1
  B  B30  1  0.25000000  0.46727009  0.18557074  1
  B  B31  1  0.25000000  0.18573518  0.34654262  1
  B  B32  1  0.25000000  0.34766027  0.46740150  1
  B  B33  1  0.25000000  0.81426497  0.53227751  1
  B  B34  1  0.25000000  0.65233982  0.81506182  1
  B  B35  1  0.25000000  0.53273009  0.65284040  1
  B  B36  1  0.51579368  0.33752390  0.66284496  1
  B  B37  1  0.51579377  0.66247613  0.00036920  1
  B  B38  1  0.51464335  0.00000003  0.33703203  1
  B  B39  1  0.48758976  0.66239894  0.33755373  1
  B  B40  1  0.48758969  0.33760079  0.99995311  1
  B  B41  1  0.48545877  0.00000001  0.66288940  1
  B  B42  1  0.01241024  0.66239894  0.33755373  1
  B  B43  1  0.01241031  0.33760079  0.99995311  1
  B  B44  1  0.01454123  0.00000001  0.66288940  1
  B  B45  1  0.98420632  0.33752390  0.66284496  1
  B  B46  1  0.98420623  0.66247613  0.00036920  1
  B  B47  1  0.98535665  0.00000003  0.33703203  1
  H  H48  1  0.75000000  0.54261197  0.88914910  1
  H  H49  1  0.75000000  0.88368199  0.57003112  1
  H  H50  1  0.75000000  0.56786222  0.54275602  1
  H  H51  1  0.75000000  0.11631705  0.45371411  1
  H  H52  1  0.75000000  0.43213809  0.11061889  1
  H  H53  1  0.75000000  0.45738718  0.43176163  1
  H  H54  1  0.25000000  0.45587941  0.11400067  1
  H  H55  1  0.25000000  0.11533728  0.42922988  1
  H  H56  1  0.25000000  0.43049981  0.45523203  1
  H  H57  1  0.25000000  0.88466265  0.54456684  1
  H  H58  1  0.25000000  0.56950030  0.88573178  1
  H  H59  1  0.25000000  0.54412069  0.56987964  1
  H  H60  1  0.75000000  0.13980293  0.78248983  1
  H  H61  1  0.75000000  0.78230858  0.07811000  1
  H  H62  1  0.75000000  0.07718788  0.14030118  1
  H  H63  1  0.75000000  0.21769154  0.86041841  1
  H  H64  1  0.75000000  0.92281222  0.21748899  1
  H  H65  1  0.75000000  0.86019721  0.92229273  1
  H  H66  1  0.25000000  0.85979683  0.21897057  1
  H  H67  1  0.25000000  0.21802076  0.92165190  1
  H  H68  1  0.25000000  0.92260255  0.86030407  1
  H  H69  1  0.25000000  0.78197938  0.13967261  1
  H  H70  1  0.25000000  0.07739758  0.78290649  1
  H  H71  1  0.25000000  0.14020329  0.07876735  1
  H  H72  1  0.87122736  0.09731040  0.90331075  1
  H  H73  1  0.87122743  0.90268972  0.00062110  1
  H  H74  1  0.87137896  0.00000007  0.09631438  1
  H  H75  1  0.12818636  0.90218425  0.09802223  1
  H  H76  1  0.12818636  0.09781590  0.00020644  1
  H  H77  1  0.12909316  0.00000004  0.90402852  1
  H  H78  1  0.37181364  0.90218425  0.09802223  1
  H  H79  1  0.37181364  0.09781590  0.00020644  1
  H  H80  1  0.37090684  0.00000004  0.90402852  1
  H  H81  1  0.62877264  0.09731040  0.90331075  1
  H  H82  1  0.62877257  0.90268972  0.00062110  1
  H  H83  1  0.62862104  0.00000007  0.09631438  1
  H  H84  1  0.75000000  0.44563979  0.83436599  1
  H  H85  1  0.75000000  0.82834557  0.72175624  1
  H  H86  1  0.75000000  0.71910477  0.44619842  1
  H  H87  1  0.75000000  0.17165448  0.55010210  1
  H  H88  1  0.75000000  0.28089532  0.16530310  1
  H  H89  1  0.75000000  0.55436025  0.28000590  1
  H  H90  1  0.25000000  0.55072730  0.16990891  1
  H  H91  1  0.25000000  0.17052998  0.27794540  1
  H  H92  1  0.25000000  0.28019301  0.55101337  1
  H  H93  1  0.25000000  0.82947021  0.44847469  1
  H  H94  1  0.25000000  0.71980712  0.83120638  1
  H  H95  1  0.25000000  0.44927279  0.72063621  1
  H  H96  1  0.58641532  0.28041057  0.64165963  1
  H  H97  1  0.58739692  0.64190459  0.07821973  1
  H  H98  1  0.58663533  0.07761400  0.28023138  1
  H  H99  1  0.58739712  0.35809559  0.72012345  1
  H  H100  1  0.58663527  0.92238615  0.35784531  1
  H  H101  1  0.58641539  0.71958949  0.92207024  1
  H  H102  1  0.41906102  0.71808703  0.36017381  1
  H  H103  1  0.41886506  0.35984768  0.92162190  1
  H  H104  1  0.41394712  0.92234054  0.71959784  1
  H  H105  1  0.41886524  0.64015153  0.28146976  1
  H  H106  1  0.41394702  0.07765957  0.64193838  1
  H  H107  1  0.41906120  0.28191327  0.07826147  1
  H  H108  1  0.08093898  0.71808703  0.36017381  1
  H  H109  1  0.08113494  0.35984768  0.92162190  1
  H  H110  1  0.08605288  0.92234054  0.71959784  1
  H  H111  1  0.08113476  0.64015153  0.28146976  1
  H  H112  1  0.08605298  0.07765957  0.64193838  1
  H  H113  1  0.08093880  0.28191327  0.07826147  1
  H  H114  1  0.91358468  0.28041057  0.64165963  1
  H  H115  1  0.91260308  0.64190459  0.07821973  1
  H  H116  1  0.91336467  0.07761400  0.28023138  1
  H  H117  1  0.91260288  0.35809559  0.72012345  1
  H  H118  1  0.91336473  0.92238615  0.35784531  1
  H  H119  1  0.91358461  0.71958949  0.92207024  1
  H  H120  1  0.39778032  0.29368289  0.70650874  1
  H  H121  1  0.39778028  0.70631721  0.00019163  1
  H  H122  1  0.39734337  0.00000007  0.29223514  1
  H  H123  1  0.60576179  0.70730903  0.29255247  1
  H  H124  1  0.60576180  0.29269115  0.99986142  1
  H  H125  1  0.60290169  0.00000009  0.70754973  1
  H  H126  1  0.89423821  0.70730903  0.29255247  1
  H  H127  1  0.89423820  0.29269115  0.99986142  1
  H  H128  1  0.89709831  0.00000009  0.70754973  1
  H  H129  1  0.10221968  0.29368289  0.70650874  1
  H  H130  1  0.10221972  0.70631721  0.00019163  1
  H  H131  1  0.10265663  0.00000007  0.29223514  1
  H  H132  1  0.49704917  0.41373267  0.58621960  1
  H  H133  1  0.49704918  0.58626754  0.99995224  1
  H  H134  1  0.49602711  0.00000007  0.41353427  1
  H  H135  1  0.50800212  0.58549278  0.41469711  1
  H  H136  1  0.50800205  0.41450750  0.00018887  1
  H  H137  1  0.50470461  0.00000004  0.58621956  1
  H  H138  1  0.99199788  0.58549278  0.41469711  1
  H  H139  1  0.99199795  0.41450750  0.00018887  1
  H  H140  1  0.99529539  0.00000004  0.58621956  1
  H  H141  1  0.00295083  0.41373267  0.58621960  1
  H  H142  1  0.00295082  0.58626754  0.99995224  1
  H  H143  1  0.00397289  0.00000007  0.41353427  1
  H  H144  1  0.62597531  0.56767317  0.77193496  1
  H  H145  1  0.62468633  0.76694988  0.66153354  1
  H  H146  1  0.62586101  0.65892786  0.56867442  1
  H  H147  1  0.62468654  0.23305011  0.42848349  1
  H  H148  1  0.62586099  0.34107220  0.22760232  1
  H  H149  1  0.62597541  0.43232699  0.33960816  1
  H  H150  1  0.37373187  0.42868350  0.23265702  1
  H  H151  1  0.37414842  0.23255554  0.33849433  1
  H  H152  1  0.37400776  0.33895747  0.42887883  1
  H  H153  1  0.37414838  0.76744459  0.57104974  1
  H  H154  1  0.37400784  0.66104270  0.76783620  1
  H  H155  1  0.37373189  0.57131661  0.66134046  1
  H  H156  1  0.12626813  0.42868350  0.23265702  1
  H  H157  1  0.12585158  0.23255554  0.33849433  1
  H  H158  1  0.12599224  0.33895747  0.42887883  1
  H  H159  1  0.12585162  0.76744459  0.57104974  1
  H  H160  1  0.12599216  0.66104270  0.76783620  1
  H  H161  1  0.12626811  0.57131661  0.66134046  1
  H  H162  1  0.87402469  0.56767317  0.77193496  1
  H  H163  1  0.87531367  0.76694988  0.66153354  1
  H  H164  1  0.87413899  0.65892786  0.56867442  1
  H  H165  1  0.87531346  0.23305011  0.42848349  1
  H  H166  1  0.87413901  0.34107220  0.22760232  1
  H  H167  1  0.87402459  0.43232699  0.33960816  1
