# generated using pymatgen
data_KIO3
_symmetry_space_group_name_H-M   'P 1'
_cell_length_a   4.52215688
_cell_length_b   4.52215732
_cell_length_c   4.52215697
_cell_angle_alpha   88.48518022
_cell_angle_beta   88.48518037
_cell_angle_gamma   88.48517523
_symmetry_Int_Tables_number   1
_chemical_formula_structural   KIO3
_chemical_formula_sum   'K1 I1 O3'
_cell_volume   92.38239880
_cell_formula_units_Z   1
loop_
 _symmetry_equiv_pos_site_id
 _symmetry_equiv_pos_as_xyz
  1  'x, y, z'
loop_
 _atom_site_type_symbol
 _atom_site_label
 _atom_site_symmetry_multiplicity
 _atom_site_fract_x
 _atom_site_fract_y
 _atom_site_fract_z
 _atom_site_occupancy
  K  K0  1  0.50578858  0.50578858  0.50578858  1
  I  I1  1  0.00474244  0.00474244  0.00474244  1
  O  O2  1  0.59998363  0.05733703  0.03537833  1
  O  O3  1  0.03537833  0.59998363  0.05733703  1
  O  O4  1  0.05733703  0.03537833  0.59998363  1
