# generated using pymatgen
data_Li2Fe2(MoO4)3
_symmetry_space_group_name_H-M   'P 1'
_cell_length_a   5.23245039
_cell_length_b   10.73514816
_cell_length_c   18.02421186
_cell_angle_alpha   89.96723131
_cell_angle_beta   90.00000000
_cell_angle_gamma   90.00000000
_symmetry_Int_Tables_number   1
_chemical_formula_structural   Li2Fe2(MoO4)3
_chemical_formula_sum   'Li8 Fe8 Mo12 O48'
_cell_volume   1012.44018486
_cell_formula_units_Z   4
loop_
 _symmetry_equiv_pos_site_id
 _symmetry_equiv_pos_as_xyz
  1  'x, y, z'
loop_
 _atom_site_type_symbol
 _atom_site_label
 _atom_site_symmetry_multiplicity
 _atom_site_fract_x
 _atom_site_fract_y
 _atom_site_fract_z
 _atom_site_occupancy
  Li  Li0  1  0.74491150  0.75009355  0.20062310  1
  Li  Li1  1  0.24689777  0.74719675  0.30083511  1
  Li  Li2  1  0.25310223  0.24719675  0.80083511  1
  Li  Li3  1  0.75508850  0.25009355  0.70062310  1
  Li  Li4  1  0.25261696  0.57628851  0.47131865  1
  Li  Li5  1  0.24738304  0.07628851  0.97131865  1
  Li  Li6  1  0.60569528  0.25085286  0.24916097  1
  Li  Li7  1  0.89430472  0.75085286  0.74916097  1
  Fe  Fe8  1  0.75139696  0.92954432  0.02647131  1
  Fe  Fe9  1  0.75151648  0.07462475  0.52791766  1
  Fe  Fe10  1  0.25117678  0.42222418  0.97243290  1
  Fe  Fe11  1  0.74860304  0.42954432  0.52647131  1
  Fe  Fe12  1  0.24882322  0.92222418  0.47243290  1
  Fe  Fe13  1  0.74848352  0.57462475  0.02791766  1
  Fe  Fe14  1  0.10223683  0.25115363  0.25038506  1
  Fe  Fe15  1  0.39776317  0.75115363  0.75038506  1
  Mo  Mo16  1  0.77742054  0.52734976  0.34355185  1
  Mo  Mo17  1  0.27779484  0.97218388  0.15612972  1
  Mo  Mo18  1  0.21876935  0.02820333  0.65676080  1
  Mo  Mo19  1  0.71971322  0.47272304  0.84321192  1
  Mo  Mo20  1  0.22220516  0.47218388  0.65612972  1
  Mo  Mo21  1  0.72257946  0.02734976  0.84355185  1
  Mo  Mo22  1  0.78028678  0.97272304  0.34321192  1
  Mo  Mo23  1  0.28123065  0.52820333  0.15676080  1
  Mo  Mo24  1  0.28126586  0.25131080  0.44194116  1
  Mo  Mo25  1  0.78114038  0.24891418  0.05833940  1
  Mo  Mo26  1  0.71885962  0.74891418  0.55833940  1
  Mo  Mo27  1  0.21873414  0.75131080  0.94194116  1
  O  O28  1  0.85958118  0.38433776  0.29485229  1
  O  O29  1  0.34834699  0.11567728  0.20505665  1
  O  O30  1  0.14823898  0.88555169  0.70458210  1
  O  O31  1  0.64320640  0.61413438  0.79532741  1
  O  O32  1  0.15165301  0.61567728  0.70505665  1
  O  O33  1  0.64041882  0.88433776  0.79485229  1
  O  O34  1  0.85679360  0.11413438  0.29532741  1
  O  O35  1  0.35176102  0.38555169  0.20458210  1
  O  O36  1  0.58258895  0.62416973  0.28610530  1
  O  O37  1  0.08448698  0.87590895  0.21328331  1
  O  O38  1  0.41594836  0.12400537  0.71206891  1
  O  O39  1  0.91562367  0.37706192  0.78712012  1
  O  O40  1  0.41551302  0.37590895  0.71328331  1
  O  O41  1  0.91741105  0.12416973  0.78610530  1
  O  O42  1  0.58437633  0.87706192  0.28712012  1
  O  O43  1  0.08405164  0.62400537  0.21206891  1
  O  O44  1  0.56300682  0.24954866  0.50320893  1
  O  O45  1  0.05749649  0.25193973  0.99778973  1
  O  O46  1  0.44250351  0.75193973  0.49778973  1
  O  O47  1  0.93699318  0.74954866  0.00320893  1
  O  O48  1  0.58834791  0.48771667  0.42552481  1
  O  O49  1  0.08188729  0.00775036  0.07647803  1
  O  O50  1  0.41302302  0.99151243  0.57452152  1
  O  O51  1  0.91392187  0.51006417  0.92546368  1
  O  O52  1  0.41811271  0.50775036  0.57647803  1
  O  O53  1  0.91165209  0.98771667  0.92552481  1
  O  O54  1  0.58607813  0.01006417  0.42546368  1
  O  O55  1  0.08697698  0.49151243  0.07452152  1
  O  O56  1  0.35490940  0.24975530  0.34527374  1
  O  O57  1  0.86211994  0.25007059  0.15474046  1
  O  O58  1  0.63788006  0.75007059  0.65474046  1
  O  O59  1  0.14509060  0.74975530  0.84527374  1
  O  O60  1  0.08486028  0.11539221  0.46214120  1
  O  O61  1  0.58355831  0.38550767  0.03808295  1
  O  O62  1  0.91198425  0.61528112  0.53856860  1
  O  O63  1  0.41707952  0.88183608  0.96240395  1
  O  O64  1  0.91644169  0.88550767  0.53808295  1
  O  O65  1  0.41513972  0.61539221  0.96214120  1
  O  O66  1  0.08292048  0.38183608  0.46240395  1
  O  O67  1  0.58801575  0.11528112  0.03856860  1
  O  O68  1  0.05219771  0.61265838  0.37281413  1
  O  O69  1  0.56126344  0.88671987  0.12554460  1
  O  O70  1  0.93716219  0.11347127  0.62574333  1
  O  O71  1  0.43873119  0.38726485  0.87422466  1
  O  O72  1  0.93873656  0.38671987  0.62554460  1
  O  O73  1  0.44780229  0.11265838  0.87281413  1
  O  O74  1  0.06126881  0.88726485  0.37422466  1
  O  O75  1  0.56283781  0.61347127  0.12574333  1
