# generated using pymatgen
data_Li2Cr2FeO6
_symmetry_space_group_name_H-M   'P 1'
_cell_length_a   6.64587453
_cell_length_b   6.64389842
_cell_length_c   8.41305578
_cell_angle_alpha   70.94347640
_cell_angle_beta   109.10069379
_cell_angle_gamma   96.47083233
_symmetry_Int_Tables_number   1
_chemical_formula_structural   Li2Cr2FeO6
_chemical_formula_sum   'Li6 Cr6 Fe3 O18'
_cell_volume   331.77859672
_cell_formula_units_Z   3
loop_
 _symmetry_equiv_pos_site_id
 _symmetry_equiv_pos_as_xyz
  1  'x, y, z'
loop_
 _atom_site_type_symbol
 _atom_site_label
 _atom_site_symmetry_multiplicity
 _atom_site_fract_x
 _atom_site_fract_y
 _atom_site_fract_z
 _atom_site_occupancy
  Li  Li0  1  0.33241471  0.32748515  0.50264000  1
  Li  Li1  1  0.33425229  0.00584785  0.83069300  1
  Li  Li2  1  0.66868096  0.66656329  0.50112602  1
  Li  Li3  1  0.99798604  0.66676971  0.83220798  1
  Li  Li4  1  0.66316898  0.99857387  0.16514461  1
  Li  Li5  1  0.00349802  0.33476013  0.16818839  1
  Cr  Cr6  1  0.66561368  0.66098398  0.99810588  1
  Cr  Cr7  1  0.66735334  0.33374643  0.33215881  1
  Cr  Cr8  1  0.66919926  0.00056497  0.66559794  1
  Cr  Cr9  1  0.99931366  0.99958757  0.00117419  1
  Cr  Cr10  1  0.00105332  0.67234902  0.33522712  1
  Cr  Cr11  1  0.99746774  0.33276803  0.66773606  1
  Fe  Fe12  1  0.33333300  0.66666700  0.66666700  1
  Fe  Fe13  1  0.33427941  0.33407361  0.99889560  1
  Fe  Fe14  1  0.33238659  0.99925939  0.33443840  1
  O  O15  1  0.01925005  0.99144915  0.24259142  1
  O  O16  1  0.00982051  0.64615362  0.58277587  1
  O  O17  1  0.02686931  0.32130706  0.91817966  1
  O  O18  1  0.35468260  0.99699679  0.57542339  1
  O  O19  1  0.34368063  0.64077283  0.91377382  1
  O  O20  1  0.67887991  0.97592848  0.91427835  1
  O  O21  1  0.32298637  0.69256017  0.41955918  1
  O  O22  1  0.31198340  0.33633621  0.75791061  1
  O  O23  1  0.65684649  0.68717938  0.75055713  1
  O  O24  1  0.34450687  0.30551875  0.24768965  1
  O  O25  1  0.68799245  0.65231975  0.24619354  1
  O  O26  1  0.68025598  0.31948794  0.57256181  1
  O  O27  1  0.32216013  0.02781425  0.08564335  1
  O  O28  1  0.64741595  0.34188485  0.09074158  1
  O  O29  1  0.63979769  0.01202594  0.41515434  1
  O  O30  1  0.97867455  0.68101425  0.08713946  1
  O  O31  1  0.98778609  0.35740552  0.41905565  1
  O  O32  1  0.98641002  0.01384506  0.76077119  1
