# generated using pymatgen
data_La4Se7S
_symmetry_space_group_name_H-M   'P 1'
_cell_length_a   4.25402719
_cell_length_b   8.51896944
_cell_length_c   8.60314692
_cell_angle_alpha   90.21685543
_cell_angle_beta   90.01374633
_cell_angle_gamma   89.89368913
_symmetry_Int_Tables_number   1
_chemical_formula_structural   La4Se7S
_chemical_formula_sum   'La4 Se7 S1'
_cell_volume   311.77464356
_cell_formula_units_Z   1
loop_
 _symmetry_equiv_pos_site_id
 _symmetry_equiv_pos_as_xyz
  1  'x, y, z'
loop_
 _atom_site_type_symbol
 _atom_site_label
 _atom_site_symmetry_multiplicity
 _atom_site_fract_x
 _atom_site_fract_y
 _atom_site_fract_z
 _atom_site_occupancy
  La  La0  1  0.72461972  0.37297936  0.71790944  1
  La  La1  1  0.21944072  0.13324190  0.27902759  1
  La  La2  1  0.28121982  0.62119745  0.27874235  1
  La  La3  1  0.77682182  0.87315147  0.72385042  1
  Se  Se4  1  0.68044239  0.11813451  0.00222640  1
  Se  Se5  1  0.18104237  0.38177697  0.99727989  1
  Se  Se6  1  0.31899587  0.88247161  0.99887454  1
  Se  Se7  1  0.81849398  0.61767906  0.00253254  1
  Se  Se8  1  0.24247739  0.12550224  0.63444384  1
  Se  Se9  1  0.25752202  0.62491493  0.63439898  1
  Se  Se10  1  0.75811621  0.87477100  0.36500031  1
  S  S11  1  0.74080768  0.37417951  0.36571368  1
