# generated using pymatgen
data_H2PtPbI6O19
_symmetry_space_group_name_H-M   'P 1'
_cell_length_a   7.69985135
_cell_length_b   7.67995156
_cell_length_c   7.66195038
_cell_angle_alpha   97.57137547
_cell_angle_beta   97.31884985
_cell_angle_gamma   96.93113121
_symmetry_Int_Tables_number   1
_chemical_formula_structural   H2PtPbI6O19
_chemical_formula_sum   'H2 Pt1 Pb1 I6 O19'
_cell_volume   441.10069449
_cell_formula_units_Z   1
loop_
 _symmetry_equiv_pos_site_id
 _symmetry_equiv_pos_as_xyz
  1  'x, y, z'
loop_
 _atom_site_type_symbol
 _atom_site_label
 _atom_site_symmetry_multiplicity
 _atom_site_fract_x
 _atom_site_fract_y
 _atom_site_fract_z
 _atom_site_occupancy
  H  H0  1  0.37324829  0.50377575  0.36975894  1
  H  H1  1  0.50351638  0.36295131  0.37665513  1
  Pt  Pt2  1  0.72425836  0.72473485  0.72479900  1
  Pb  Pb3  1  0.16981253  0.17128031  0.17488740  1
  I  I4  1  0.57977929  0.37959829  0.94436699  1
  I  I5  1  0.37978193  0.94851497  0.58124978  1
  I  I6  1  0.94490801  0.58104314  0.37705517  1
  I  I7  1  0.90493347  0.12950584  0.59773662  1
  I  I8  1  0.13092206  0.59680212  0.90458832  1
  I  I9  1  0.59746680  0.90561848  0.13115461  1
  O  O10  1  0.53355399  0.54984324  0.78863283  1
  O  O11  1  0.54354896  0.78282337  0.53268335  1
  O  O12  1  0.78460110  0.53228591  0.54459661  1
  O  O13  1  0.37961481  0.37935786  0.37941328  1
  O  O14  1  0.94360442  0.25554685  0.82151032  1
  O  O15  1  0.25602881  0.81887282  0.94229236  1
  O  O16  1  0.81972122  0.94166622  0.25680290  1
  O  O17  1  0.91604154  0.89503654  0.65528755  1
  O  O18  1  0.89749059  0.65684727  0.91797560  1
  O  O19  1  0.65607613  0.91930238  0.89703469  1
  O  O20  1  0.63246373  0.53839069  0.15079083  1
  O  O21  1  0.54446883  0.14717815  0.63236366  1
  O  O22  1  0.14771411  0.63451351  0.53746094  1
  O  O23  1  0.12895680  0.13863352  0.54202923  1
  O  O24  1  0.14408990  0.54515850  0.13191701  1
  O  O25  1  0.54403862  0.13189830  0.14603652  1
  O  O26  1  0.34246329  0.31931791  0.93255612  1
  O  O27  1  0.31992161  0.93515535  0.34176673  1
  O  O28  1  0.93527439  0.34214655  0.31709752  1
