# generated using pymatgen
data_Fe4O7F
_symmetry_space_group_name_H-M   'P 1'
_cell_length_a   5.51283890
_cell_length_b   9.71886098
_cell_length_c   5.52171459
_cell_angle_alpha   80.19815783
_cell_angle_beta   65.75681735
_cell_angle_gamma   99.46813489
_symmetry_Int_Tables_number   1
_chemical_formula_structural   Fe4O7F
_chemical_formula_sum   'Fe8 O14 F2'
_cell_volume   256.61217402
_cell_formula_units_Z   2
loop_
 _symmetry_equiv_pos_site_id
 _symmetry_equiv_pos_as_xyz
  1  'x, y, z'
loop_
 _atom_site_type_symbol
 _atom_site_label
 _atom_site_symmetry_multiplicity
 _atom_site_fract_x
 _atom_site_fract_y
 _atom_site_fract_z
 _atom_site_occupancy
  Fe  Fe0  1  0.62510439  0.25383107  0.85600951  1
  Fe  Fe1  1  0.89413803  0.75732268  0.63221937  1
  Fe  Fe2  1  0.23442388  0.49228269  0.75583172  1
  Fe  Fe3  1  0.74595930  0.49597000  0.23435362  1
  Fe  Fe4  1  0.51223589  0.99285245  0.51498658  1
  Fe  Fe5  1  0.36946753  0.74575706  0.12986603  1
  Fe  Fe6  1  0.11730602  0.25738851  0.37364386  1
  Fe  Fe7  1  -0.00025704  0.00446029  0.00062724  1
  O  O8  1  0.84227941  0.39614087  0.94642465  1
  O  O9  1  0.91774181  0.15556671  0.76620374  1
  O  O10  1  0.58545034  0.84223256  0.74210998  1
  O  O11  1  0.32520071  0.34425911  0.97678079  1
  O  O12  1  0.82071948  0.35398175  0.46762782  1
  O  O13  1  0.89573846  0.09647182  0.29899241  1
  O  O14  1  0.39542560  0.09814165  0.79779638  1
  O  O15  1  0.11790022  0.90788370  0.70989516  1
  O  O16  1  0.35692032  0.40546813  0.44732810  1
  O  O17  1  0.61020202  0.90583072  0.20830531  1
  O  O18  1  0.67145710  0.65186282  0.02035459  1
  O  O19  1  0.17421951  0.65364000  0.52090379  1
  O  O20  1  0.07944947  0.84549733  0.23889471  1
  O  O21  1  0.13504910  0.59368362  0.04585687  1
  F  F22  1  0.64553902  0.59939925  0.54811106  1
  F  F23  1  0.42180042  0.14957323  0.27373172  1
