# generated using pymatgen
data_La5Ga4SnSb10
_symmetry_space_group_name_H-M   'P 1'
_cell_length_a   4.46845988
_cell_length_b   22.26119343
_cell_length_c   11.78089120
_cell_angle_alpha   100.90930687
_cell_angle_beta   90.14128613
_cell_angle_gamma   90.04624923
_symmetry_Int_Tables_number   1
_chemical_formula_structural   La5Ga4SnSb10
_chemical_formula_sum   'La10 Ga8 Sn2 Sb20'
_cell_volume   1150.70076858
_cell_formula_units_Z   2
loop_
 _symmetry_equiv_pos_site_id
 _symmetry_equiv_pos_as_xyz
  1  'x, y, z'
loop_
 _atom_site_type_symbol
 _atom_site_label
 _atom_site_symmetry_multiplicity
 _atom_site_fract_x
 _atom_site_fract_y
 _atom_site_fract_z
 _atom_site_occupancy
  La  La0  1  0.74920764  0.97278418  0.72437134  1
  La  La1  1  0.74803587  0.17153988  0.72357458  1
  La  La2  1  0.74762392  0.37116890  0.71873940  1
  La  La3  1  0.75139680  0.57351874  0.71830033  1
  La  La4  1  0.75194843  0.77432238  0.72325041  1
  La  La5  1  0.25039913  0.02780102  0.27573707  1
  La  La6  1  0.25160837  0.22670134  0.27595244  1
  La  La7  1  0.25238791  0.42759647  0.28069974  1
  La  La8  1  0.24867540  0.63015427  0.28204181  1
  La  La9  1  0.24779231  0.82972809  0.27713178  1
  Ga  Ga10  1  0.49987755  0.96946071  0.00017060  1
  Ga  Ga11  1  0.50025768  0.16782541  0.99994929  1
  Ga  Ga12  1  0.49998288  0.35652661  0.00004646  1
  Ga  Ga13  1  0.50004014  0.56089223  0.00004612  1
  Ga  Ga14  1  0.49996463  0.77276581  0.00013975  1
  Ga  Ga15  1  0.00031062  0.83291978  0.00010369  1
  Ga  Ga16  1  0.00069730  0.03123759  0.00006991  1
  Ga  Ga17  1  0.00020323  0.22840754  0.99988269  1
  Sn  Sn18  1  0.00011827  0.43060392  0.99995200  1
  Sn  Sn19  1  0.00023426  0.63399249  0.00007701  1
  Sb  Sb20  1  0.75541134  0.85037588  0.50003864  1
  Sb  Sb21  1  0.75653994  0.65097495  0.50128155  1
  Sb  Sb22  1  0.75433149  0.44994017  0.50049786  1
  Sb  Sb23  1  0.75264789  0.24933386  0.49946612  1
  Sb  Sb24  1  0.75368354  0.04991970  0.50005271  1
  Sb  Sb25  1  0.24424619  0.75122605  0.50068061  1
  Sb  Sb26  1  0.24464447  0.54998610  0.49888973  1
  Sb  Sb27  1  0.24657253  0.34901841  0.49839969  1
  Sb  Sb28  1  0.24693057  0.14987686  0.50008095  1
  Sb  Sb29  1  0.24533023  0.95052903  0.50046146  1
  Sb  Sb30  1  0.74400862  0.72081752  0.18794155  1
  Sb  Sb31  1  0.74412619  0.52082109  0.18903873  1
  Sb  Sb32  1  0.75252964  0.31844427  0.18263395  1
  Sb  Sb33  1  0.74950583  0.11836967  0.17851544  1
  Sb  Sb34  1  0.74848619  0.91784987  0.17825748  1
  Sb  Sb35  1  0.25110878  0.88209473  0.82169543  1
  Sb  Sb36  1  0.25561773  0.68311940  0.81202766  1
  Sb  Sb37  1  0.25582170  0.48286348  0.81097181  1
  Sb  Sb38  1  0.24747470  0.28190990  0.81734529  1
  Sb  Sb39  1  0.25022010  0.08258171  0.82148692  1
