# generated using pymatgen
data_K2YTi(PO4)3
_symmetry_space_group_name_H-M   'P 1'
_cell_length_a   10.30627744
_cell_length_b   10.30627744
_cell_length_c   10.30627744
_cell_angle_alpha   90.00000000
_cell_angle_beta   90.00000000
_cell_angle_gamma   90.00000000
_symmetry_Int_Tables_number   1
_chemical_formula_structural   K2YTi(PO4)3
_chemical_formula_sum   'K8 Y4 Ti4 P12 O48'
_cell_volume   1094.72613873
_cell_formula_units_Z   4
loop_
 _symmetry_equiv_pos_site_id
 _symmetry_equiv_pos_as_xyz
  1  'x, y, z'
loop_
 _atom_site_type_symbol
 _atom_site_label
 _atom_site_symmetry_multiplicity
 _atom_site_fract_x
 _atom_site_fract_y
 _atom_site_fract_z
 _atom_site_occupancy
  K  K0  1  0.56937953  0.43062047  0.93062047  1
  K  K1  1  0.43062047  0.93062047  0.56937953  1
  K  K2  1  0.06937953  0.06937953  0.06937953  1
  K  K3  1  0.93062047  0.56937953  0.43062047  1
  K  K4  1  0.79551954  0.20448046  0.70448046  1
  K  K5  1  0.20448046  0.70448046  0.79551954  1
  K  K6  1  0.29551954  0.29551954  0.29551954  1
  K  K7  1  0.70448046  0.79551954  0.20448046  1
  Y  Y8  1  0.91665702  0.41665702  0.08334298  1
  Y  Y9  1  0.58334298  0.58334298  0.58334298  1
  Y  Y10  1  0.08334298  0.91665702  0.41665702  1
  Y  Y11  1  0.41665702  0.08334298  0.91665702  1
  Ti  Ti12  1  0.85596362  0.85596362  0.85596362  1
  Ti  Ti13  1  0.35596362  0.64403638  0.14403638  1
  Ti  Ti14  1  0.64403638  0.14403638  0.35596362  1
  Ti  Ti15  1  0.14403638  0.35596362  0.64403638  1
  P  P16  1  0.74006706  0.11589535  0.04510455  1
  P  P17  1  0.54510455  0.75993294  0.88410465  1
  P  P18  1  0.38410465  0.95489545  0.24006706  1
  P  P19  1  0.75993294  0.88410465  0.54510455  1
  P  P20  1  0.95489545  0.24006706  0.38410465  1
  P  P21  1  0.11589535  0.04510455  0.74006706  1
  P  P22  1  0.24006706  0.38410465  0.95489545  1
  P  P23  1  0.04510455  0.74006706  0.11589535  1
  P  P24  1  0.88410465  0.54510455  0.75993294  1
  P  P25  1  0.25993294  0.61589535  0.45489545  1
  P  P26  1  0.45489545  0.25993294  0.61589535  1
  P  P27  1  0.61589535  0.45489545  0.25993294  1
  O  O28  1  0.83674215  0.22587005  0.01819631  1
  O  O29  1  0.51819631  0.66325785  0.77412995  1
  O  O30  1  0.27412995  0.98180369  0.33674215  1
  O  O31  1  0.66325785  0.77412995  0.51819631  1
  O  O32  1  0.98180369  0.33674215  0.27412995  1
  O  O33  1  0.22587005  0.01819631  0.83674215  1
  O  O34  1  0.33674215  0.27412995  0.98180369  1
  O  O35  1  0.01819631  0.83674215  0.22587005  1
  O  O36  1  0.77412995  0.51819631  0.66325785  1
  O  O37  1  0.16325785  0.72587005  0.48180369  1
  O  O38  1  0.48180369  0.16325785  0.72587005  1
  O  O39  1  0.72587005  0.48180369  0.16325785  1
  O  O40  1  0.79341003  0.99355970  0.97217438  1
  O  O41  1  0.47217438  0.70658997  0.00644030  1
  O  O42  1  0.50644030  0.02782562  0.29341003  1
  O  O43  1  0.70658997  0.00644030  0.47217438  1
  O  O44  1  0.02782562  0.29341003  0.50644030  1
  O  O45  1  0.99355970  0.97217438  0.79341003  1
  O  O46  1  0.29341003  0.50644030  0.02782562  1
  O  O47  1  0.97217438  0.79341003  0.99355970  1
  O  O48  1  0.00644030  0.47217438  0.70658997  1
  O  O49  1  0.20658997  0.49355970  0.52782562  1
  O  O50  1  0.52782562  0.20658997  0.49355970  1
  O  O51  1  0.49355970  0.52782562  0.20658997  1
  O  O52  1  0.73505642  0.08432290  0.19358280  1
  O  O53  1  0.69358280  0.76494358  0.91567710  1
  O  O54  1  0.41567710  0.80641720  0.23505642  1
  O  O55  1  0.76494358  0.91567710  0.69358280  1
  O  O56  1  0.80641720  0.23505642  0.41567710  1
  O  O57  1  0.08432290  0.19358280  0.73505642  1
  O  O58  1  0.23505642  0.41567710  0.80641720  1
  O  O59  1  0.19358280  0.73505642  0.08432290  1
  O  O60  1  0.91567710  0.69358280  0.76494358  1
  O  O61  1  0.26494358  0.58432290  0.30641720  1
  O  O62  1  0.30641720  0.26494358  0.58432290  1
  O  O63  1  0.58432290  0.30641720  0.26494358  1
  O  O64  1  0.60634331  0.15247623  0.99237818  1
  O  O65  1  0.49237818  0.89365669  0.84752377  1
  O  O66  1  0.34752377  0.00762182  0.10634331  1
  O  O67  1  0.89365669  0.84752377  0.49237818  1
  O  O68  1  0.00762182  0.10634331  0.34752377  1
  O  O69  1  0.15247623  0.99237818  0.60634331  1
  O  O70  1  0.10634331  0.34752377  0.00762182  1
  O  O71  1  0.99237818  0.60634331  0.15247623  1
  O  O72  1  0.84752377  0.49237818  0.89365669  1
  O  O73  1  0.39365669  0.65247623  0.50762182  1
  O  O74  1  0.50762182  0.39365669  0.65247623  1
  O  O75  1  0.65247623  0.50762182  0.39365669  1
