# generated using pymatgen
data_K3Ag9(SbS3)4
_symmetry_space_group_name_H-M   'P 1'
_cell_length_a   9.77205077
_cell_length_b   9.77205077
_cell_length_c   9.77205077
_cell_angle_alpha   68.66391208
_cell_angle_beta   68.66391208
_cell_angle_gamma   105.80260686
_symmetry_Int_Tables_number   1
_chemical_formula_structural   K3Ag9(SbS3)4
_chemical_formula_sum   'K3 Ag9 Sb4 S12'
_cell_volume   716.15807299
_cell_formula_units_Z   1
loop_
 _symmetry_equiv_pos_site_id
 _symmetry_equiv_pos_as_xyz
  1  'x, y, z'
loop_
 _atom_site_type_symbol
 _atom_site_label
 _atom_site_symmetry_multiplicity
 _atom_site_fract_x
 _atom_site_fract_y
 _atom_site_fract_z
 _atom_site_occupancy
  K  K0  1  -0.00000000  0.00000000  0.00000000  1
  K  K1  1  0.66654819  0.66654819  0.00000000  1
  K  K2  1  0.33345181  0.33345181  -0.00000000  1
  Ag  Ag3  1  0.84034856  0.98854963  0.49827907  1
  Ag  Ag4  1  0.48682871  0.33862763  0.50172093  1
  Ag  Ag5  1  0.33462112  0.83323818  0.17421531  1
  Ag  Ag6  1  0.00745349  0.50883643  0.82578469  1
  Ag  Ag7  1  0.16676182  0.99254651  0.49861706  1
  Ag  Ag8  1  0.49116357  0.66537888  0.50138294  1
  Ag  Ag9  1  0.66137237  0.15965144  0.85179893  1
  Ag  Ag10  1  0.01145037  0.51317129  0.14820107  1
  Ag  Ag11  1  0.75000000  0.25000000  0.50000000  1
  Sb  Sb12  1  0.13275437  0.39335397  0.49093329  1
  Sb  Sb13  1  0.88428726  0.62368766  0.50906671  1
  Sb  Sb14  1  0.60664603  0.11571274  0.26059960  1
  Sb  Sb15  1  0.37631234  0.86724563  0.73940040  1
  S  S16  1  0.89118487  0.10997222  0.68182599  1
  S  S17  1  0.79179821  0.57301085  0.31817401  1
  S  S18  1  0.59013837  0.88768842  0.20162268  1
  S  S19  1  0.08931110  0.79176104  0.79837732  1
  S  S20  1  0.11231158  0.91068890  0.29755005  1
  S  S21  1  0.20823896  0.40986163  0.70244995  1
  S  S22  1  0.42698915  0.10881513  0.78121264  1
  S  S23  1  0.89002778  0.20820179  0.21878736  1
  S  S24  1  0.31960832  0.66758456  0.02016888  1
  S  S25  1  0.68775343  0.33977720  0.97983112  1
  S  S26  1  0.33241544  0.31224657  0.34797624  1
  S  S27  1  0.66022280  0.68039168  0.65202376  1
