# generated using pymatgen
data_Ho3Er9(MnBi2)2
_symmetry_space_group_name_H-M   'P 1'
_cell_length_a   4.27386857
_cell_length_b   8.22867876
_cell_length_c   14.24126671
_cell_angle_alpha   90.00582337
_cell_angle_beta   90.00000000
_cell_angle_gamma   90.00000000
_symmetry_Int_Tables_number   1
_chemical_formula_structural   Ho3Er9(MnBi2)2
_chemical_formula_sum   'Ho3 Er9 Mn2 Bi4'
_cell_volume   500.84101688
_cell_formula_units_Z   1
loop_
 _symmetry_equiv_pos_site_id
 _symmetry_equiv_pos_as_xyz
  1  'x, y, z'
loop_
 _atom_site_type_symbol
 _atom_site_label
 _atom_site_symmetry_multiplicity
 _atom_site_fract_x
 _atom_site_fract_y
 _atom_site_fract_z
 _atom_site_occupancy
  Ho  Ho0  1  0.00000000  0.73324987  0.50005781  1
  Ho  Ho1  1  0.00000000  0.23309204  0.99999134  1
  Ho  Ho2  1  0.00000000  0.38336300  0.38377368  1
  Er  Er3  1  0.00000000  0.88349784  0.88385234  1
  Er  Er4  1  0.00000000  0.88349840  0.11614169  1
  Er  Er5  1  -0.00000000  0.38346052  0.61619153  1
  Er  Er6  1  0.50000000  0.10802684  0.50009625  1
  Er  Er7  1  0.50000000  0.60837249  0.99998836  1
  Er  Er8  1  0.50000000  0.19564016  0.19618255  1
  Er  Er9  1  0.50000000  0.69568594  0.69629190  1
  Er  Er10  1  0.50000000  0.69603621  0.30358949  1
  Er  Er11  1  0.50000000  0.19568026  0.80375167  1
  Mn  Mn12  1  0.50000000  0.99959192  0.00001534  1
  Mn  Mn13  1  0.50000000  0.49979988  0.50025405  1
  Bi  Bi14  1  0.00000000  0.99991068  0.33301954  1
  Bi  Bi15  1  0.00000000  0.50024279  0.83310019  1
  Bi  Bi16  1  0.00000000  0.50038756  0.16674683  1
  Bi  Bi17  1  0.00000000  0.00026360  0.66695543  1
