# generated using pymatgen
data_In2CuAgS4
_symmetry_space_group_name_H-M   'P 1'
_cell_length_a   5.74006114
_cell_length_b   5.74006114
_cell_length_c   7.00012078
_cell_angle_alpha   65.79533943
_cell_angle_beta   65.79533943
_cell_angle_gamma   90.00000000
_symmetry_Int_Tables_number   1
_chemical_formula_structural   In2CuAgS4
_chemical_formula_sum   'In2 Cu1 Ag1 S4'
_cell_volume   187.91380306
_cell_formula_units_Z   1
loop_
 _symmetry_equiv_pos_site_id
 _symmetry_equiv_pos_as_xyz
  1  'x, y, z'
loop_
 _atom_site_type_symbol
 _atom_site_label
 _atom_site_symmetry_multiplicity
 _atom_site_fract_x
 _atom_site_fract_y
 _atom_site_fract_z
 _atom_site_occupancy
  In  In0  1  0.25000000  0.75000000  0.50000000  1
  In  In1  1  0.50000000  0.50000000  0.00000000  1
  Cu  Cu2  1  -0.00000000  -0.00000000  0.00000000  1
  Ag  Ag3  1  0.75000000  0.25000000  0.50000000  1
  S  S4  1  0.34903558  0.87683415  0.76615340  1
  S  S5  1  0.88481102  0.35701245  0.76615340  1
  S  S6  1  0.12316585  0.11518898  0.23384660  1
  S  S7  1  0.64298755  0.65096442  0.23384660  1
