# generated using pymatgen
data_Hf(Nb2B3)4
_symmetry_space_group_name_H-M   'P 1'
_cell_length_a   3.16006207
_cell_length_b   3.35157786
_cell_length_c   21.37396796
_cell_angle_alpha   94.49679140
_cell_angle_beta   94.23935282
_cell_angle_gamma   90.00000000
_symmetry_Int_Tables_number   1
_chemical_formula_structural   Hf(Nb2B3)4
_chemical_formula_sum   'Hf1 Nb8 B12'
_cell_volume   225.05769998
_cell_formula_units_Z   1
loop_
 _symmetry_equiv_pos_site_id
 _symmetry_equiv_pos_as_xyz
  1  'x, y, z'
loop_
 _atom_site_type_symbol
 _atom_site_label
 _atom_site_symmetry_multiplicity
 _atom_site_fract_x
 _atom_site_fract_y
 _atom_site_fract_z
 _atom_site_occupancy
  Hf  Hf0  1  0.50000000  -0.00000000  -0.00000000  1
  Nb  Nb1  1  0.06213367  0.06213367  0.12426734  1
  Nb  Nb2  1  0.72822367  0.72822367  0.45644635  1
  Nb  Nb3  1  0.39475172  0.39475172  0.78950445  1
  Nb  Nb4  1  0.60524828  0.60524828  0.21049555  1
  Nb  Nb5  1  0.27177633  0.27177633  0.54355365  1
  Nb  Nb6  1  0.93786633  0.93786633  0.87573266  1
  Nb  Nb7  1  0.16673043  0.66673043  0.33345986  1
  Nb  Nb8  1  0.83326957  0.33326957  0.66654014  1
  B  B9  1  0.64528793  0.14528793  0.29057587  1
  B  B10  1  0.31177381  0.81177381  0.62354662  1
  B  B11  1  0.97831581  0.47831581  0.95663262  1
  B  B12  1  0.02168419  0.52168419  0.04336738  1
  B  B13  1  0.68822619  0.18822619  0.37645338  1
  B  B14  1  0.35471207  0.85471207  0.70942413  1
  B  B15  1  0.12273285  0.12273285  0.24546670  1
  B  B16  1  0.78924739  0.78924739  0.57849479  1
  B  B17  1  0.45546967  0.45546967  0.91093835  1
  B  B18  1  0.54453033  0.54453033  0.08906165  1
  B  B19  1  0.21075261  0.21075261  0.42150521  1
  B  B20  1  0.87726715  0.87726715  0.75453330  1
