# generated using pymatgen
data_K5Sm(MoO4)4
_symmetry_space_group_name_H-M   'P 1'
_cell_length_a   6.25405994
_cell_length_b   9.83756202
_cell_length_c   7.88891255
_cell_angle_alpha   73.76545901
_cell_angle_beta   89.99999885
_cell_angle_gamma   90.00000363
_symmetry_Int_Tables_number   1
_chemical_formula_structural   K5Sm(MoO4)4
_chemical_formula_sum   'K5 Sm1 Mo4 O16'
_cell_volume   466.00930395
_cell_formula_units_Z   1
loop_
 _symmetry_equiv_pos_site_id
 _symmetry_equiv_pos_as_xyz
  1  'x, y, z'
loop_
 _atom_site_type_symbol
 _atom_site_label
 _atom_site_symmetry_multiplicity
 _atom_site_fract_x
 _atom_site_fract_y
 _atom_site_fract_z
 _atom_site_occupancy
  K  K0  1  0.50000000  0.28280827  0.15973431  1
  K  K1  1  0.00000000  0.81632190  0.59241568  1
  K  K2  1  0.50000000  0.71719173  0.84026569  1
  K  K3  1  1.00000000  0.18367810  0.40758432  1
  K  K4  1  0.00000000  -0.00000000  0.00000000  1
  Sm  Sm5  1  0.50000000  0.50000000  0.50000000  1
  Mo  Mo6  1  0.00000000  0.60106204  0.20006029  1
  Mo  Mo7  1  0.50000000  0.09850361  0.71541962  1
  Mo  Mo8  1  1.00000000  0.39893796  0.79993971  1
  Mo  Mo9  1  0.50000000  0.90149639  0.28458038  1
  O  O10  1  0.24122241  0.50180808  0.71644490  1
  O  O11  1  0.72900445  0.00997078  0.28688314  1
  O  O12  1  0.00000000  0.33095797  0.03453993  1
  O  O13  1  0.50000000  0.74319513  0.47898241  1
  O  O14  1  0.75877759  0.50180808  0.71644490  1
  O  O15  1  0.27099555  0.00997078  0.28688314  1
  O  O16  1  0.75877759  0.49819192  0.28355510  1
  O  O17  1  0.27099555  0.99002922  0.71311686  1
  O  O18  1  1.00000000  0.66904203  0.96546007  1
  O  O19  1  0.50000000  0.25680487  0.52101759  1
  O  O20  1  0.24122241  0.49819192  0.28355510  1
  O  O21  1  0.72900445  0.99002922  0.71311686  1
  O  O22  1  0.50000000  0.15954108  0.90722015  1
  O  O23  1  0.00000000  0.74714475  0.28765671  1
  O  O24  1  0.50000000  0.84045892  0.09277985  1
  O  O25  1  1.00000000  0.25285525  0.71234329  1
