# generated using pymatgen
data_La9In5S21
_symmetry_space_group_name_H-M   'P 1'
_cell_length_a   12.09214408
_cell_length_b   12.09207003
_cell_length_c   12.09208641
_cell_angle_alpha   94.99340798
_cell_angle_beta   85.00794331
_cell_angle_gamma   85.00664377
_symmetry_Int_Tables_number   1
_chemical_formula_structural   La9In5S21
_chemical_formula_sum   'La18 In10 S42'
_cell_volume   1746.70921060
_cell_formula_units_Z   2
loop_
 _symmetry_equiv_pos_site_id
 _symmetry_equiv_pos_as_xyz
  1  'x, y, z'
loop_
 _atom_site_type_symbol
 _atom_site_label
 _atom_site_symmetry_multiplicity
 _atom_site_fract_x
 _atom_site_fract_y
 _atom_site_fract_z
 _atom_site_occupancy
  La  La0  1  0.43831189  0.41675921  0.78835054  1
  La  La1  1  0.11019401  0.74147616  0.12110827  1
  La  La2  1  0.77598042  0.07853552  0.45217174  1
  La  La3  1  0.54782609  0.22403396  0.07853878  1
  La  La4  1  0.21163904  0.56169219  0.41675318  1
  La  La5  1  0.87888293  0.88980341  0.74146560  1
  La  La6  1  0.25853025  0.12112682  0.88980626  1
  La  La7  1  0.92146241  0.45215440  0.22404401  1
  La  La8  1  0.58324595  0.78835917  0.56169858  1
  La  La9  1  0.22052998  0.92389004  0.55047445  1
  La  La10  1  0.88384729  0.26172530  0.88961037  1
  La  La11  1  0.55501613  0.59342141  0.21407962  1
  La  La12  1  0.11038653  0.11615054  0.26173897  1
  La  La13  1  0.78592242  0.44498564  0.59343335  1
  La  La14  1  0.44952868  0.77947214  0.92389722  1
  La  La15  1  0.40657133  0.21407578  0.44498734  1
  La  La16  1  0.07609637  0.55046943  0.77947240  1
  La  La17  1  0.73826648  0.88961107  0.11614943  1
  In  In18  1  0.88956434  0.77765529  0.44401063  1
  In  In19  1  0.55598098  0.11042921  0.77765122  1
  In  In20  1  0.22235373  0.44402990  0.11041925  1
  In  In21  1  0.38973950  0.94462866  0.27714202  1
  In  In22  1  0.05537278  0.27713721  0.61026558  1
  In  In23  1  0.72285172  0.61025508  0.94463292  1
  In  In24  1  0.00069526  0.99930357  0.99930294  1
  In  In25  1  0.68901265  0.31098916  0.31098929  1
  In  In26  1  0.18896729  0.81103317  0.81103053  1
  In  In27  1  0.50071500  0.49928525  0.49928766  1
  S  S28  1  0.95128516  0.94522755  0.19548928  1
  S  S29  1  0.61435003  0.29033052  0.52570994  1
  S  S30  1  0.27596240  0.62447679  0.87400730  1
  S  S31  1  0.12599508  0.72403618  0.62447868  1
  S  S32  1  0.80450850  0.04870982  0.94522748  1
  S  S33  1  0.47428731  0.38564779  0.29032588  1
  S  S34  1  0.70967348  0.52570969  0.38565039  1
  S  S35  1  0.37552590  0.87400148  0.72404093  1
  S  S36  1  0.05477424  0.19548960  0.04871965  1
  S  S37  1  0.42255684  0.68109284  0.43099213  1
  S  S38  1  0.08470168  0.01086988  0.77537019  1
  S  S39  1  0.74217616  0.35724268  0.10762454  1
  S  S40  1  0.22463784  0.91530101  0.01086838  1
  S  S41  1  0.89238498  0.25782035  0.35724066  1
  S  S42  1  0.56901089  0.57744770  0.68109558  1
  S  S43  1  0.64275500  0.10762232  0.25781461  1
  S  S44  1  0.31890404  0.43099362  0.57743942  1
  S  S45  1  0.98913085  0.77536616  0.91529605  1
  S  S46  1  0.80993039  0.69977070  0.61381712  1
  S  S47  1  0.48229166  0.03339755  0.95114910  1
  S  S48  1  0.14645832  0.36711164  0.28289212  1
  S  S49  1  0.71709251  0.85355383  0.36710269  1
  S  S50  1  0.38617847  0.19007626  0.69976963  1
  S  S51  1  0.04884855  0.51771220  0.03339343  1
  S  S52  1  0.96660527  0.95114590  0.51770573  1
  S  S53  1  0.63289104  0.28290302  0.85355271  1
  S  S54  1  0.30023694  0.61382998  0.19007528  1
  S  S55  1  0.34783993  0.13492476  0.21857528  1
  S  S56  1  0.02133049  0.47001592  0.55407653  1
  S  S57  1  0.68543685  0.80096154  0.88566204  1
  S  S58  1  0.44591967  0.97867015  0.47001972  1
  S  S59  1  0.11433496  0.31456094  0.80097094  1
  S  S60  1  0.78142233  0.65215735  0.13493361  1
  S  S61  1  0.19903047  0.88566299  0.31456019  1
  S  S62  1  0.86507207  0.21857518  0.65215737  1
  S  S63  1  0.52997571  0.55407532  0.97867170  1
  S  S64  1  0.68231789  0.98347086  0.64751927  1
  S  S65  1  0.35247752  0.31769680  0.98345598  1
  S  S66  1  0.01653982  0.64752715  0.31767678  1
  S  S67  1  0.51686244  0.81773431  0.14777392  1
  S  S68  1  0.18226181  0.14776153  0.48314290  1
  S  S69  1  0.85222706  0.48313544  0.81774872  1
