# generated using pymatgen
data_Gd7Y5Nb4O28
_symmetry_space_group_name_H-M   'P 1'
_cell_length_a   6.54260258
_cell_length_b   12.59656890
_cell_length_c   7.56597713
_cell_angle_alpha   90.07375165
_cell_angle_beta   90.04525908
_cell_angle_gamma   79.30883918
_symmetry_Int_Tables_number   1
_chemical_formula_structural   Gd7Y5Nb4O28
_chemical_formula_sum   'Gd7 Y5 Nb4 O28'
_cell_volume   612.72058723
_cell_formula_units_Z   1
loop_
 _symmetry_equiv_pos_site_id
 _symmetry_equiv_pos_as_xyz
  1  'x, y, z'
loop_
 _atom_site_type_symbol
 _atom_site_label
 _atom_site_symmetry_multiplicity
 _atom_site_fract_x
 _atom_site_fract_y
 _atom_site_fract_z
 _atom_site_occupancy
  Gd  Gd0  1  0.23165317  0.76784242  0.99214762  1
  Gd  Gd1  1  0.46522757  0.00088978  0.00746157  1
  Gd  Gd2  1  0.96429096  0.49964826  0.00755741  1
  Gd  Gd3  1  0.26807466  0.26700570  0.25096851  1
  Gd  Gd4  1  0.76696330  0.76732175  0.25151308  1
  Gd  Gd5  1  0.23253086  0.23369317  0.74921737  1
  Gd  Gd6  1  0.73246410  0.73329393  0.74860128  1
  Y  Y7  1  0.76869778  0.23160648  0.49234837  1
  Y  Y8  1  0.26895470  0.73163986  0.49235010  1
  Y  Y9  1  0.03761251  0.49945915  0.50786479  1
  Y  Y10  1  0.53703730  0.00013837  0.50792066  1
  Y  Y11  1  0.73236656  0.26768870  0.99283906  1
  Nb  Nb12  1  0.50292985  0.50103483  0.25123853  1
  Nb  Nb13  1  0.00210678  0.00199796  0.25124165  1
  Nb  Nb14  1  0.99853630  0.99880141  0.74914424  1
  Nb  Nb15  1  0.49981611  0.49752548  0.74866156  1
  O  O16  1  0.89677631  0.15429152  0.20603692  1
  O  O17  1  0.39933064  0.65398951  0.20865644  1
  O  O18  1  0.21807366  0.47226024  0.79085156  1
  O  O19  1  0.71759012  0.97270022  0.78996074  1
  O  O20  1  0.60346773  0.34562855  0.70573846  1
  O  O21  1  0.10234896  0.84710868  0.70286597  1
  O  O22  1  0.28061153  0.02645928  0.29680559  1
  O  O23  1  0.78123269  0.52522750  0.29734307  1
  O  O24  1  0.05365694  0.31511484  0.50011121  1
  O  O25  1  0.55338816  0.81545445  0.49994887  1
  O  O26  1  0.44689565  0.18685245  0.99880223  1
  O  O27  1  0.94360802  0.68528142  0.00002628  1
  O  O28  1  0.89470900  0.03652002  0.49998569  1
  O  O29  1  0.39574653  0.53388552  0.50010976  1
  O  O30  1  0.60011357  0.46561251  0.00007152  1
  O  O31  1  0.09898999  0.96723998  -0.00004664  1
  O  O32  1  0.04002348  0.31872976  0.00059990  1
  O  O33  1  0.54188329  0.81972261  0.99997247  1
  O  O34  1  0.46160097  0.18002114  0.49981463  1
  O  O35  1  0.96190794  0.67925862  0.50002442  1
  O  O36  1  0.21198819  0.45778284  0.22959137  1
  O  O37  1  0.71113468  0.95852627  0.22993122  1
  O  O38  1  0.91594310  0.16523347  0.77345409  1
  O  O39  1  0.41813829  0.66467601  0.77096240  1
  O  O40  1  0.28683939  0.04147777  0.72406880  1
  O  O41  1  0.78737009  0.54015568  0.72376146  1
  O  O42  1  0.58450146  0.33515119  0.27368124  1
  O  O43  1  0.08286709  0.83605072  0.27579454  1
