# generated using pymatgen
data_GaAgSeS
_symmetry_space_group_name_H-M   'P 1'
_cell_length_a   5.93540151
_cell_length_b   5.93540151
_cell_length_c   6.81149110
_cell_angle_alpha   64.65790958
_cell_angle_beta   64.65790958
_cell_angle_gamma   90.00658533
_symmetry_Int_Tables_number   1
_chemical_formula_structural   GaAgSeS
_chemical_formula_sum   'Ga2 Ag2 Se2 S2'
_cell_volume   191.00012975
_cell_formula_units_Z   2
loop_
 _symmetry_equiv_pos_site_id
 _symmetry_equiv_pos_as_xyz
  1  'x, y, z'
loop_
 _atom_site_type_symbol
 _atom_site_label
 _atom_site_symmetry_multiplicity
 _atom_site_fract_x
 _atom_site_fract_y
 _atom_site_fract_z
 _atom_site_occupancy
  Ga  Ga0  1  0.74746659  0.26301336  0.50028571  1
  Ga  Ga1  1  0.51301336  0.49746659  0.00028571  1
  Ag  Ag2  1  0.24830124  0.73389105  0.49962554  1
  Ag  Ag3  1  0.98389105  0.99830124  0.99962554  1
  Se  Se4  1  0.12516289  0.15751082  0.25049844  1
  Se  Se5  1  0.40751082  0.87516289  0.75049844  1
  S  S6  1  0.62614322  0.58851081  0.24959030  1
  S  S7  1  0.83851081  0.37614322  0.74959030  1
