# generated using pymatgen
data_GdErAl6
_symmetry_space_group_name_H-M   'P 1'
_cell_length_a   6.10173135
_cell_length_b   6.09907363
_cell_length_c   9.58649992
_cell_angle_alpha   90.00000000
_cell_angle_beta   90.00000000
_cell_angle_gamma   60.01440209
_symmetry_Int_Tables_number   1
_chemical_formula_structural   GdErAl6
_chemical_formula_sum   'Gd2 Er2 Al12'
_cell_volume   309.00867539
_cell_formula_units_Z   2
loop_
 _symmetry_equiv_pos_site_id
 _symmetry_equiv_pos_as_xyz
  1  'x, y, z'
loop_
 _atom_site_type_symbol
 _atom_site_label
 _atom_site_symmetry_multiplicity
 _atom_site_fract_x
 _atom_site_fract_y
 _atom_site_fract_z
 _atom_site_occupancy
  Gd  Gd0  1  0.00000000  -0.00000000  0.50000000  1
  Gd  Gd1  1  0.00000000  -0.00000000  0.00000000  1
  Er  Er2  1  0.33330247  0.33334877  0.75000000  1
  Er  Er3  1  0.66669753  0.66665123  0.25000000  1
  Al  Al4  1  0.36798687  0.81600657  0.75000000  1
  Al  Al5  1  0.81613559  0.81627941  0.75000000  1
  Al  Al6  1  0.81613559  0.36758500  0.75000000  1
  Al  Al7  1  0.63201313  0.18399343  0.25000000  1
  Al  Al8  1  0.18386441  0.18372059  0.25000000  1
  Al  Al9  1  0.18386441  0.63241500  0.25000000  1
  Al  Al10  1  0.50000000  -0.00000000  0.50000000  1
  Al  Al11  1  0.00000000  0.50000000  0.50000000  1
  Al  Al12  1  0.50000000  0.50000000  0.50000000  1
  Al  Al13  1  0.50000000  -0.00000000  0.00000000  1
  Al  Al14  1  0.00000000  0.50000000  0.00000000  1
  Al  Al15  1  0.50000000  0.50000000  0.00000000  1
