# generated using pymatgen
data_H13S2N3O8
_symmetry_space_group_name_H-M   'P 1'
_cell_length_a   5.80775305
_cell_length_b   8.51267979
_cell_length_c   10.37636628
_cell_angle_alpha   99.36234546
_cell_angle_beta   90.00000000
_cell_angle_gamma   70.05465145
_symmetry_Int_Tables_number   1
_chemical_formula_structural   H13S2N3O8
_chemical_formula_sum   'H26 S4 N6 O16'
_cell_volume   474.95600264
_cell_formula_units_Z   2
loop_
 _symmetry_equiv_pos_site_id
 _symmetry_equiv_pos_as_xyz
  1  'x, y, z'
loop_
 _atom_site_type_symbol
 _atom_site_label
 _atom_site_symmetry_multiplicity
 _atom_site_fract_x
 _atom_site_fract_y
 _atom_site_fract_z
 _atom_site_occupancy
  H  H0  1  0.50479639  0.64656247  0.26226433  1
  H  H1  1  0.14721604  0.36154220  0.23818969  1
  H  H2  1  0.49124175  0.36154220  0.73818969  1
  H  H3  1  0.84864114  0.64656247  0.76226433  1
  H  H4  1  0.54411571  0.67389692  0.42599992  1
  H  H5  1  0.21414621  0.32616591  0.07489814  1
  H  H6  1  0.45968788  0.32616591  0.57489814  1
  H  H7  1  0.78198737  0.67389692  0.92599992  1
  H  H8  1  0.78242982  0.06596774  0.20657469  1
  H  H9  1  0.84259433  0.90950765  0.29617502  1
  H  H10  1  0.24789802  0.90950765  0.79617502  1
  H  H11  1  0.15160244  0.06596774  0.70657469  1
  H  H12  1  0.56931192  0.07362012  0.31738574  1
  H  H13  1  0.64089914  0.91860748  0.18079703  1
  H  H14  1  0.44049338  0.91860748  0.68079703  1
  H  H15  1  0.35706797  0.07362012  0.81738574  1
  H  H16  1  0.58640649  0.48100458  0.34317046  1
  H  H17  1  0.07216892  0.52336670  0.15260495  1
  H  H18  1  0.40446438  0.52336670  0.65260495  1
  H  H19  1  0.93258893  0.48100458  0.84317046  1
  H  H20  1  0.29412930  0.63096720  0.36668730  1
  H  H21  1  0.92136423  0.37760588  0.13406028  1
  H  H22  1  0.70102989  0.37760588  0.63406028  1
  H  H23  1  0.07490350  0.63096720  0.86668730  1
  H  H24  1  0.02435385  0.00403145  0.49214112  1
  H  H25  1  0.97161470  0.00403145  0.99214112  1
  S  S26  1  0.31268074  0.77551760  0.04205228  1
  S  S27  1  0.08840348  0.23177163  0.45799259  1
  S  S28  1  0.67982489  0.23177163  0.95799259  1
  S  S29  1  0.91180166  0.77551760  0.54205228  1
  N  N30  1  0.48215284  0.60761177  0.34905539  1
  N  N31  1  0.08706168  0.39801598  0.15056853  1
  N  N32  1  0.51492234  0.39801598  0.65056853  1
  N  N33  1  0.91023539  0.60761177  0.84905539  1
  N  N34  1  0.70853265  0.99253294  0.25026401  1
  N  N35  1  0.29893441  0.99253294  0.75026401  1
  O  O36  1  0.17232652  0.70405262  0.11946803  1
  O  O37  1  0.87397198  0.29449070  0.38168081  1
  O  O38  1  0.83153732  0.29449070  0.88168081  1
  O  O39  1  0.12362086  0.70405262  0.61946803  1
  O  O40  1  0.56703018  0.74202888  0.08803298  1
  O  O41  1  0.30729849  0.26082843  0.40788921  1
  O  O42  1  0.43187308  0.26082843  0.90788921  1
  O  O43  1  0.69094094  0.74202888  0.58803298  1
  O  O44  1  0.18663206  0.96629954  0.05921322  1
  O  O45  1  0.16337706  0.03377225  0.44020894  1
  O  O46  1  0.80285070  0.03377225  0.94020894  1
  O  O47  1  0.84706840  0.96629954  0.55921322  1
  O  O48  1  0.32539588  0.70379615  0.89957715  1
  O  O49  1  0.03382812  0.29763521  0.59964818  1
  O  O50  1  0.66853667  0.29763521  0.09964818  1
  O  O51  1  0.97080797  0.70379615  0.39957715  1
