# generated using pymatgen
data_Ho20In40Rh19
_symmetry_space_group_name_H-M   'P 1'
_cell_length_a   9.39701880
_cell_length_b   13.55206932
_cell_length_c   13.55206932
_cell_angle_alpha   90.00000000
_cell_angle_beta   90.00000000
_cell_angle_gamma   90.00000000
_symmetry_Int_Tables_number   1
_chemical_formula_structural   Ho20In40Rh19
_chemical_formula_sum   'Ho20 In40 Rh19'
_cell_volume   1725.84315586
_cell_formula_units_Z   1
loop_
 _symmetry_equiv_pos_site_id
 _symmetry_equiv_pos_as_xyz
  1  'x, y, z'
loop_
 _atom_site_type_symbol
 _atom_site_label
 _atom_site_symmetry_multiplicity
 _atom_site_fract_x
 _atom_site_fract_y
 _atom_site_fract_z
 _atom_site_occupancy
  Ho  Ho0  1  0.84932088  0.75000000  0.75000000  1
  Ho  Ho1  1  0.15067912  0.25000000  0.25000000  1
  Ho  Ho2  1  0.35748495  0.75000000  0.75000000  1
  Ho  Ho3  1  0.64251505  0.25000000  0.25000000  1
  Ho  Ho4  1  0.26339297  0.95355865  0.95169020  1
  Ho  Ho5  1  0.26339297  0.54644135  0.95169020  1
  Ho  Ho6  1  0.26339297  0.95355865  0.54830980  1
  Ho  Ho7  1  0.26339297  0.54644135  0.54830980  1
  Ho  Ho8  1  0.73660703  0.04830980  0.04644135  1
  Ho  Ho9  1  0.73660703  0.45169020  0.04644135  1
  Ho  Ho10  1  0.73660703  0.04830980  0.45355865  1
  Ho  Ho11  1  0.73660703  0.45169020  0.45355865  1
  Ho  Ho12  1  0.76953430  0.02468657  0.75000000  1
  Ho  Ho13  1  0.76953430  0.47531343  0.75000000  1
  Ho  Ho14  1  0.76678192  0.75000000  0.02691648  1
  Ho  Ho15  1  0.76678192  0.75000000  0.47308352  1
  Ho  Ho16  1  0.23321808  0.97308352  0.25000000  1
  Ho  Ho17  1  0.23321808  0.52691648  0.25000000  1
  Ho  Ho18  1  0.23046570  0.25000000  0.97531343  1
  Ho  Ho19  1  0.23046570  0.25000000  0.52468657  1
  In  In20  1  0.00000000  0.40031557  0.59968443  1
  In  In21  1  0.00000000  0.09968443  0.59968443  1
  In  In22  1  0.00000000  0.40031557  0.90031557  1
  In  In23  1  0.00000000  0.09968443  0.90031557  1
  In  In24  1  0.00000000  0.59984968  0.40015032  1
  In  In25  1  0.00000000  0.90015032  0.40015032  1
  In  In26  1  0.00000000  0.59984968  0.09984968  1
  In  In27  1  0.00000000  0.90015032  0.09984968  1
  In  In28  1  0.09844161  0.58071398  0.75000000  1
  In  In29  1  0.09844161  0.91928602  0.75000000  1
  In  In30  1  0.09831064  0.75000000  0.58063846  1
  In  In31  1  0.09831064  0.75000000  0.91936154  1
  In  In32  1  0.90168936  0.41936154  0.25000000  1
  In  In33  1  0.90168936  0.08063846  0.25000000  1
  In  In34  1  0.90155839  0.25000000  0.41928602  1
  In  In35  1  0.90155839  0.25000000  0.08071398  1
  In  In36  1  0.23924133  0.36319664  0.75000000  1
  In  In37  1  0.23924133  0.13680336  0.75000000  1
  In  In38  1  0.24001043  0.75000000  0.36431361  1
  In  In39  1  0.24001043  0.75000000  0.13568639  1
  In  In40  1  0.75998957  0.63568639  0.25000000  1
  In  In41  1  0.75998957  0.86431361  0.25000000  1
  In  In42  1  0.76075867  0.25000000  0.63680336  1
  In  In43  1  0.76075867  0.25000000  0.86319664  1
  In  In44  1  0.50000000  0.89020132  0.10979868  1
  In  In45  1  0.50000000  0.60979868  0.10979868  1
  In  In46  1  0.50000000  0.89020132  0.39020132  1
  In  In47  1  0.50000000  0.60979868  0.39020132  1
  In  In48  1  0.50000000  0.11745470  0.88254530  1
  In  In49  1  0.50000000  0.38254530  0.88254530  1
  In  In50  1  0.50000000  0.11745470  0.61745470  1
  In  In51  1  0.50000000  0.38254530  0.61745470  1
  In  In52  1  0.59461553  0.88043151  0.88033935  1
  In  In53  1  0.59461553  0.61956849  0.88033935  1
  In  In54  1  0.59461553  0.88043151  0.61966065  1
  In  In55  1  0.59461553  0.61956849  0.61966065  1
  In  In56  1  0.40538447  0.11966065  0.11956849  1
  In  In57  1  0.40538447  0.38033935  0.11956849  1
  In  In58  1  0.40538447  0.11966065  0.38043151  1
  In  In59  1  0.40538447  0.38033935  0.38043151  1
  Rh  Rh60  1  0.40653472  0.52751683  0.75000000  1
  Rh  Rh61  1  0.40653472  0.97248317  0.75000000  1
  Rh  Rh62  1  0.40609123  0.75000000  0.52946606  1
  Rh  Rh63  1  0.40609123  0.75000000  0.97053394  1
  Rh  Rh64  1  0.59390877  0.47053394  0.25000000  1
  Rh  Rh65  1  0.59390877  0.02946606  0.25000000  1
  Rh  Rh66  1  0.59346528  0.25000000  0.47248317  1
  Rh  Rh67  1  0.59346528  0.25000000  0.02751683  1
  Rh  Rh68  1  0.10535550  0.09505663  0.09535470  1
  Rh  Rh69  1  0.10535550  0.40494337  0.09535470  1
  Rh  Rh70  1  0.10535550  0.09505663  0.40464530  1
  Rh  Rh71  1  0.10535550  0.40494337  0.40464530  1
  Rh  Rh72  1  0.89464450  0.90464530  0.90494337  1
  Rh  Rh73  1  0.89464450  0.59535470  0.90494337  1
  Rh  Rh74  1  0.89464450  0.90464530  0.59505663  1
  Rh  Rh75  1  0.89464450  0.59535470  0.59505663  1
  Rh  Rh76  1  0.00000000  0.25000000  0.75000000  1
  Rh  Rh77  1  0.00000000  0.75000000  0.25000000  1
  Rh  Rh78  1  0.50000000  0.75000000  0.25000000  1
