# generated using pymatgen
data_Cu3Bi2S4Cl
_symmetry_space_group_name_H-M   'P 1'
_cell_length_a   4.03637761
_cell_length_b   10.40375011
_cell_length_c   20.92167257
_cell_angle_alpha   90.00000000
_cell_angle_beta   90.00000000
_cell_angle_gamma   90.00000000
_symmetry_Int_Tables_number   1
_chemical_formula_structural   Cu3Bi2S4Cl
_chemical_formula_sum   'Cu12 Bi8 S16 Cl4'
_cell_volume   878.57350397
_cell_formula_units_Z   4
loop_
 _symmetry_equiv_pos_site_id
 _symmetry_equiv_pos_as_xyz
  1  'x, y, z'
loop_
 _atom_site_type_symbol
 _atom_site_label
 _atom_site_symmetry_multiplicity
 _atom_site_fract_x
 _atom_site_fract_y
 _atom_site_fract_z
 _atom_site_occupancy
  Cu  Cu0  1  0.27704162  0.77294016  0.03276341  1
  Cu  Cu1  1  0.77704162  0.22705984  0.46723659  1
  Cu  Cu2  1  0.72295838  0.72705984  0.53276341  1
  Cu  Cu3  1  0.22295838  0.27294016  0.96723659  1
  Cu  Cu4  1  0.33282289  0.37240756  0.12761029  1
  Cu  Cu5  1  0.83282289  0.62759244  0.37238971  1
  Cu  Cu6  1  0.66717711  0.12759244  0.62761029  1
  Cu  Cu7  1  0.16717711  0.87240756  0.87238971  1
  Cu  Cu8  1  0.92269277  0.48596418  0.03768839  1
  Cu  Cu9  1  0.42269277  0.51403582  0.46231161  1
  Cu  Cu10  1  0.07730723  0.01403582  0.53768839  1
  Cu  Cu11  1  0.57730723  0.98596418  0.96231161  1
  Bi  Bi12  1  0.76337262  0.05800995  0.13036628  1
  Bi  Bi13  1  0.26337262  0.94199005  0.36963372  1
  Bi  Bi14  1  0.23662738  0.44199005  0.63036628  1
  Bi  Bi15  1  0.73662738  0.55800995  0.86963372  1
  Bi  Bi16  1  0.84892447  0.64217318  0.19718392  1
  Bi  Bi17  1  0.34892447  0.35782682  0.30281608  1
  Bi  Bi18  1  0.15107553  0.85782682  0.69718392  1
  Bi  Bi19  1  0.65107553  0.14217318  0.80281608  1
  S  S20  1  0.25684923  0.58814341  0.10092530  1
  S  S21  1  0.75684923  0.41185659  0.39907470  1
  S  S22  1  0.74315077  0.91185659  0.60092530  1
  S  S23  1  0.24315077  0.08814341  0.89907470  1
  S  S24  1  0.77842817  0.88023879  0.04239822  1
  S  S25  1  0.27842817  0.11976121  0.45760178  1
  S  S26  1  0.22157183  0.61976121  0.54239822  1
  S  S27  1  0.72157183  0.38023879  0.95760178  1
  S  S28  1  0.26265957  0.18990539  0.07374366  1
  S  S29  1  0.76265957  0.81009461  0.42625634  1
  S  S30  1  0.73734043  0.31009461  0.57374366  1
  S  S31  1  0.23734043  0.68990539  0.92625634  1
  S  S32  1  0.76709331  0.38728288  0.20389539  1
  S  S33  1  0.26709331  0.61271712  0.29610461  1
  S  S34  1  0.23290669  0.11271712  0.70389539  1
  S  S35  1  0.73290669  0.88728288  0.79610461  1
  Cl  Cl36  1  0.26065310  0.88854002  0.19857750  1
  Cl  Cl37  1  0.76065310  0.11145998  0.30142250  1
  Cl  Cl38  1  0.73934690  0.61145998  0.69857750  1
  Cl  Cl39  1  0.23934690  0.38854002  0.80142250  1
