# generated using pymatgen
data_FeNi35S32
_symmetry_space_group_name_H-M   'P 1'
_cell_length_a   9.25827252
_cell_length_b   11.85003385
_cell_length_c   11.16383041
_cell_angle_alpha   61.89775838
_cell_angle_beta   90.00000000
_cell_angle_gamma   67.00546703
_symmetry_Int_Tables_number   1
_chemical_formula_structural   FeNi35S32
_chemical_formula_sum   'Fe1 Ni35 S32'
_cell_volume   968.68146647
_cell_formula_units_Z   1
loop_
 _symmetry_equiv_pos_site_id
 _symmetry_equiv_pos_as_xyz
  1  'x, y, z'
loop_
 _atom_site_type_symbol
 _atom_site_label
 _atom_site_symmetry_multiplicity
 _atom_site_fract_x
 _atom_site_fract_y
 _atom_site_fract_z
 _atom_site_occupancy
  Fe  Fe0  1  0.50000000  -0.00000000  -0.00000000  1
  Ni  Ni1  1  0.68710330  0.37399374  0.40012794  1
  Ni  Ni2  1  0.18731566  0.37408107  0.89982080  1
  Ni  Ni3  1  0.93890296  0.37399374  0.22587832  1
  Ni  Ni4  1  0.43860327  0.37408107  0.72609814  1
  Ni  Ni5  1  0.56139673  0.62591893  0.10017920  1
  Ni  Ni6  1  0.06109704  0.62600626  0.59987206  1
  Ni  Ni7  1  0.81268434  0.62591893  0.27390186  1
  Ni  Ni8  1  0.31289670  0.62600626  0.77412168  1
  Ni  Ni9  1  0.75012672  0.49984634  0.98649406  1
  Ni  Ni10  1  0.24987328  0.50015366  0.48634040  1
  Ni  Ni11  1  0.75002693  0.49984634  0.51365960  1
  Ni  Ni12  1  0.24997307  0.50015366  0.01350594  1
  Ni  Ni13  1  0.61430482  0.27152448  0.11416751  1
  Ni  Ni14  1  0.11417070  0.27152448  0.61430801  1
  Ni  Ni15  1  0.88582930  0.72847552  0.88583249  1
  Ni  Ni16  1  0.38569518  0.72847552  0.38569199  1
  Ni  Ni17  1  0.77687963  -0.00000000  -0.00000000  1
  Ni  Ni18  1  0.27814448  -0.00000000  0.50000000  1
  Ni  Ni19  1  0.72185552  -0.00000000  0.50000000  1
  Ni  Ni20  1  0.22312037  -0.00000000  -0.00000000  1
  Ni  Ni21  1  0.39207651  0.21584698  0.39207651  1
  Ni  Ni22  1  0.89202479  0.21595042  0.89202479  1
  Ni  Ni23  1  0.10797521  0.78404958  0.10797521  1
  Ni  Ni24  1  0.60792349  0.78415302  0.60792349  1
  Ni  Ni25  1  0.25004293  0.49991413  0.25004293  1
  Ni  Ni26  1  0.74995707  0.50008587  0.74995707  1
  Ni  Ni27  1  0.00000000  -0.00000000  0.50000000  1
  Ni  Ni28  1  0.56644487  0.12197923  0.62376365  1
  Ni  Ni29  1  0.06569559  0.12196783  0.12419273  1
  Ni  Ni30  1  0.31157590  0.12197923  0.25425712  1
  Ni  Ni31  1  0.81233657  0.12196783  0.75383944  1
  Ni  Ni32  1  0.18766343  0.87803217  0.87580727  1
  Ni  Ni33  1  0.68842410  0.87802077  0.37623635  1
  Ni  Ni34  1  0.93430441  0.87803217  0.24616056  1
  Ni  Ni35  1  0.43355513  0.87802077  0.74574288  1
  S  S36  1  0.45265900  0.36066964  0.43606316  1
  S  S37  1  0.95290279  0.36050505  0.93607306  1
  S  S38  1  0.18667136  0.36066964  0.20326719  1
  S  S39  1  0.68659216  0.36050505  0.70342189  1
  S  S40  1  0.31340784  0.63949495  0.06392694  1
  S  S41  1  0.81332864  0.63933036  0.56393684  1
  S  S42  1  0.04709721  0.63949495  0.29657811  1
  S  S43  1  0.54734100  0.63933036  0.79673281  1
  S  S44  1  0.68745145  0.38568615  0.18675628  1
  S  S45  1  0.18768169  0.38555705  0.68702970  1
  S  S46  1  0.92686240  0.38568615  0.42755757  1
  S  S47  1  0.42676126  0.38555705  0.92741325  1
  S  S48  1  0.57323874  0.61444295  0.31297030  1
  S  S49  1  0.07313760  0.61431385  0.81324372  1
  S  S50  1  0.81231831  0.61444295  0.07258675  1
  S  S51  1  0.31254855  0.61431385  0.57244243  1
  S  S52  1  0.05766615  0.11951881  0.78863923  1
  S  S53  1  0.55764246  0.11952771  0.28815879  1
  S  S54  1  0.82281503  0.11951881  0.09184196  1
  S  S55  1  0.32282983  0.11952771  0.59231350  1
  S  S56  1  0.67717017  0.88047229  0.71184121  1
  S  S57  1  0.17718497  0.88048119  0.21136077  1
  S  S58  1  0.44235754  0.88047229  0.40768650  1
  S  S59  1  0.94233385  0.88048119  0.90815804  1
  S  S60  1  0.79932910  0.13499209  0.54889915  1
  S  S61  1  0.30420818  0.13242273  0.04789575  1
  S  S62  1  0.06567881  0.13499209  0.31610876  1
  S  S63  1  0.56336909  0.13242273  0.81968152  1
  S  S64  1  0.43663091  0.86757727  0.95210425  1
  S  S65  1  0.93432119  0.86500791  0.45110085  1
  S  S66  1  0.69579182  0.86757727  0.18031848  1
  S  S67  1  0.20067090  0.86500791  0.68389124  1
