# generated using pymatgen
data_Er3(Al2Fe)2
_symmetry_space_group_name_H-M   'P 1'
_cell_length_a   5.34188627
_cell_length_b   5.36022322
_cell_length_c   13.26505061
_cell_angle_alpha   90.58274114
_cell_angle_beta   88.99691430
_cell_angle_gamma   119.13476788
_symmetry_Int_Tables_number   1
_chemical_formula_structural   Er3(Al2Fe)2
_chemical_formula_sum   'Er6 Al8 Fe4'
_cell_volume   331.71914726
_cell_formula_units_Z   2
loop_
 _symmetry_equiv_pos_site_id
 _symmetry_equiv_pos_as_xyz
  1  'x, y, z'
loop_
 _atom_site_type_symbol
 _atom_site_label
 _atom_site_symmetry_multiplicity
 _atom_site_fract_x
 _atom_site_fract_y
 _atom_site_fract_z
 _atom_site_occupancy
  Er  Er0  1  0.33930632  0.67014388  0.91859968  1
  Er  Er1  1  0.00708354  0.99889251  0.24599835  1
  Er  Er2  1  0.66937095  0.33200519  0.58262174  1
  Er  Er3  1  0.33062905  0.66799481  0.66737826  1
  Er  Er4  1  0.99291646  0.00110749  0.00400165  1
  Er  Er5  1  0.66069368  0.32985612  0.33140032  1
  Al  Al6  1  0.16763006  0.33459269  0.45750982  1
  Al  Al7  1  0.83236994  0.66540731  0.79249018  1
  Al  Al8  1  0.34012599  0.67816152  0.28714413  1
  Al  Al9  1  0.00000000  0.00000000  0.62500000  1
  Al  Al10  1  0.65987401  0.32183848  0.96285587  1
  Al  Al11  1  0.00000000  0.50000000  0.12500000  1
  Al  Al12  1  0.66573621  0.83210144  0.45806548  1
  Al  Al13  1  0.33426379  0.16789856  0.79193452  1
  Fe  Fe14  1  0.50000000  0.50000000  0.12500000  1
  Fe  Fe15  1  0.16519239  0.83268522  0.45859119  1
  Fe  Fe16  1  0.83480761  0.16731478  0.79140881  1
  Fe  Fe17  1  0.50000000  0.00000000  0.12500000  1
