# generated using pymatgen
data_Co3Re25B12
_symmetry_space_group_name_H-M   'P 1'
_cell_length_a   4.94401241
_cell_length_b   7.43824231
_cell_length_c   12.91651878
_cell_angle_alpha   89.99958810
_cell_angle_beta   89.87973566
_cell_angle_gamma   90.00130150
_symmetry_Int_Tables_number   1
_chemical_formula_structural   Co3Re25B12
_chemical_formula_sum   'Co3 Re25 B12'
_cell_volume   475.00086124
_cell_formula_units_Z   1
loop_
 _symmetry_equiv_pos_site_id
 _symmetry_equiv_pos_as_xyz
  1  'x, y, z'
loop_
 _atom_site_type_symbol
 _atom_site_label
 _atom_site_symmetry_multiplicity
 _atom_site_fract_x
 _atom_site_fract_y
 _atom_site_fract_z
 _atom_site_occupancy
  Co  Co0  1  0.42957432  0.00002253  0.33463307  1
  Co  Co1  1  0.43269536  0.50003518  0.83381405  1
  Co  Co2  1  0.92750969  0.49999779  0.16640029  1
  Re  Re3  1  0.45867073  0.31818390  0.22706009  1
  Re  Re4  1  0.45739793  0.81394693  0.72814919  1
  Re  Re5  1  0.45863365  0.68183385  0.22705756  1
  Re  Re6  1  0.45742857  0.18603389  0.72816523  1
  Re  Re7  1  0.45571506  0.49997135  0.04508672  1
  Re  Re8  1  0.45053046  0.00001162  0.54257941  1
  Re  Re9  1  0.95801763  0.18357965  0.27112423  1
  Re  Re10  1  0.95248365  0.67905395  0.77536113  1
  Re  Re11  1  0.95805272  0.81640194  0.27113261  1
  Re  Re12  1  0.95258426  0.32092789  0.77536198  1
  Re  Re13  1  0.95200316  0.99996403  0.45000268  1
  Re  Re14  1  0.95624568  0.50000630  0.95702191  1
  Re  Re15  1  0.91219406  0.00001043  0.66601398  1
  Re  Re16  1  0.24873333  0.68525502  0.43687371  1
  Re  Re17  1  0.24810782  0.18540424  0.93864801  1
  Re  Re18  1  0.24871931  0.31475400  0.43687230  1
  Re  Re19  1  0.24805530  0.81460346  0.93863155  1
  Re  Re20  1  0.25174697  0.99998018  0.12405800  1
  Re  Re21  1  0.24786722  0.50001332  0.62465842  1
  Re  Re22  1  0.74851926  0.81374006  0.06337458  1
  Re  Re23  1  0.74919033  0.31618501  0.56042592  1
  Re  Re24  1  0.74855697  0.18625344  0.06339562  1
  Re  Re25  1  0.74918731  0.68378822  0.56043465  1
  Re  Re26  1  0.74973484  0.49999888  0.37432464  1
  Re  Re27  1  0.74862003  0.00002159  0.87926820  1
  B  B28  1  0.14810391  0.70829373  0.09758066  1
  B  B29  1  0.15815945  0.21476204  0.59497874  1
  B  B30  1  0.14808508  0.29171071  0.09759567  1
  B  B31  1  0.15813401  0.78527520  0.59496760  1
  B  B32  1  0.14607785  0.50001567  0.30418887  1
  B  B33  1  0.15616235  -0.00000039  0.80931818  1
  B  B34  1  0.64649237  0.79078648  0.40151606  1
  B  B35  1  0.64716382  0.29238697  0.90450626  1
  B  B36  1  0.64651232  0.20921228  0.40150942  1
  B  B37  1  0.64715880  0.70763200  0.90450902  1
  B  B38  1  0.64675349  0.99997774  0.19478630  1
  B  B39  1  0.64642094  0.49996893  0.69461347  1
