# generated using pymatgen
data_Cu2P2O7
_symmetry_space_group_name_H-M   'P 1'
_cell_length_a   4.63145042
_cell_length_b   5.38953168
_cell_length_c   5.38953168
_cell_angle_alpha   98.94505187
_cell_angle_beta   102.93923863
_cell_angle_gamma   102.93923863
_symmetry_Int_Tables_number   1
_chemical_formula_structural   Cu2P2O7
_chemical_formula_sum   'Cu2 P2 O7'
_cell_volume   124.75460273
_cell_formula_units_Z   1
loop_
 _symmetry_equiv_pos_site_id
 _symmetry_equiv_pos_as_xyz
  1  'x, y, z'
loop_
 _atom_site_type_symbol
 _atom_site_label
 _atom_site_symmetry_multiplicity
 _atom_site_fract_x
 _atom_site_fract_y
 _atom_site_fract_z
 _atom_site_occupancy
  Cu  Cu0  1  -0.00000000  0.68933986  0.31066014  1
  Cu  Cu1  1  -0.00000000  0.31169866  0.68830134  1
  P  P2  1  0.59095154  0.79773789  0.80578024  1
  P  P3  1  0.40904846  0.19421976  0.20226211  1
  O  O4  1  0.27919825  0.62175902  0.62169095  1
  O  O5  1  0.72080175  0.37830905  0.37824098  1
  O  O6  1  0.22403430  0.05193267  0.36409500  1
  O  O7  1  0.23416010  0.34962652  0.04322117  1
  O  O8  1  0.76583990  0.95677883  0.65037348  1
  O  O9  1  0.77596570  0.63590500  0.94806733  1
  O  O10  1  0.50000000  0.97979274  0.02020726  1
