# generated using pymatgen
data_Dy(CuSe)3
_symmetry_space_group_name_H-M   'P 1'
_cell_length_a   6.99561726
_cell_length_b   6.99520377
_cell_length_c   7.70513847
_cell_angle_alpha   63.00654966
_cell_angle_beta   90.01708728
_cell_angle_gamma   60.00476499
_symmetry_Int_Tables_number   1
_chemical_formula_structural   Dy(CuSe)3
_chemical_formula_sum   'Dy2 Cu6 Se6'
_cell_volume   278.08338826
_cell_formula_units_Z   2
loop_
 _symmetry_equiv_pos_site_id
 _symmetry_equiv_pos_as_xyz
  1  'x, y, z'
loop_
 _atom_site_type_symbol
 _atom_site_label
 _atom_site_symmetry_multiplicity
 _atom_site_fract_x
 _atom_site_fract_y
 _atom_site_fract_z
 _atom_site_occupancy
  Dy  Dy0  1  0.00050193  0.99900954  0.00142695  1
  Dy  Dy1  1  0.33283107  0.33432346  0.99857305  1
  Cu  Cu2  1  0.43335352  0.42216881  0.37156399  1
  Cu  Cu3  1  0.79435806  0.77324759  0.37203666  1
  Cu  Cu4  1  0.14550859  0.06048273  0.37210559  1
  Cu  Cu5  1  0.18782541  0.27285127  0.62789441  1
  Cu  Cu6  1  0.53897494  0.56008541  0.62796334  1
  Cu  Cu7  1  0.89997948  0.91116419  0.62843601  1
  Se  Se8  1  0.26476634  0.83174283  0.75519529  1
  Se  Se9  1  0.90303778  0.50968003  0.75546481  1
  Se  Se10  1  0.58676340  0.14784111  0.75539286  1
  Se  Se11  1  0.74657060  0.18549289  0.24460714  1
  Se  Se12  1  0.43029522  0.82365297  0.24453519  1
  Se  Se13  1  0.06856666  0.50159017  0.24480471  1
