# generated using pymatgen
data_Cr2Se3
_symmetry_space_group_name_H-M   'P 1'
_cell_length_a   6.91226948
_cell_length_b   7.32532367
_cell_length_c   8.65019226
_cell_angle_alpha   89.46514572
_cell_angle_beta   75.89269694
_cell_angle_gamma   104.92845912
_symmetry_Int_Tables_number   1
_chemical_formula_structural   Cr2Se3
_chemical_formula_sum   'Cr8 Se12'
_cell_volume   409.23459004
_cell_formula_units_Z   4
loop_
 _symmetry_equiv_pos_site_id
 _symmetry_equiv_pos_as_xyz
  1  'x, y, z'
loop_
 _atom_site_type_symbol
 _atom_site_label
 _atom_site_symmetry_multiplicity
 _atom_site_fract_x
 _atom_site_fract_y
 _atom_site_fract_z
 _atom_site_occupancy
  Cr  Cr0  1  0.34114848  0.59289517  0.18345896  1
  Cr  Cr1  1  0.01917373  0.26788151  0.50531150  1
  Cr  Cr2  1  0.65769799  0.92688349  0.84041038  1
  Cr  Cr3  1  0.32551752  0.07377083  0.14987504  1
  Cr  Cr4  1  0.00896901  0.73978351  0.49292262  1
  Cr  Cr5  1  0.64749327  0.39878549  0.82802150  1
  Cr  Cr6  1  0.00516420  0.50661940  0.99075722  1
  Cr  Cr7  1  0.66150280  0.16004760  0.34257578  1
  Se  Se8  1  0.05955774  0.76110955  0.19232913  1
  Se  Se9  1  0.72692078  0.42896987  0.52838858  1
  Se  Se10  1  0.38510685  0.09304994  0.85692282  1
  Se  Se11  1  0.60710926  0.90555745  0.14100387  1
  Se  Se12  1  0.28156015  0.57361706  0.47641018  1
  Se  Se13  1  0.93974522  0.23769613  0.80494542  1
  Se  Se14  1  0.27250297  0.06479194  0.46043785  1
  Se  Se15  1  0.92632239  0.72588973  0.79880635  1
  Se  Se16  1  0.60945163  0.39807566  0.13918426  1
  Se  Se17  1  0.39416403  0.60187506  0.87289515  1
  Se  Se18  1  0.05721537  0.26859134  0.19414874  1
  Se  Se19  1  0.74034361  0.94077627  0.53452765  1
