# generated using pymatgen
data_Er2(AlNi)5
_symmetry_space_group_name_H-M   'P 1'
_cell_length_a   4.01634144
_cell_length_b   8.76690529
_cell_length_c   15.26223676
_cell_angle_alpha   90.06759985
_cell_angle_beta   90.00000000
_cell_angle_gamma   90.00000000
_symmetry_Int_Tables_number   1
_chemical_formula_structural   Er2(AlNi)5
_chemical_formula_sum   'Er6 Al15 Ni15'
_cell_volume   537.39648958
_cell_formula_units_Z   3
loop_
 _symmetry_equiv_pos_site_id
 _symmetry_equiv_pos_as_xyz
  1  'x, y, z'
loop_
 _atom_site_type_symbol
 _atom_site_label
 _atom_site_symmetry_multiplicity
 _atom_site_fract_x
 _atom_site_fract_y
 _atom_site_fract_z
 _atom_site_occupancy
  Er  Er0  1  0.00000000  -0.00035495  0.33645791  1
  Er  Er1  1  0.00000000  0.49648003  0.83507912  1
  Er  Er2  1  0.00000000  0.49520603  0.16957000  1
  Er  Er3  1  0.00000000  0.99751271  0.66423438  1
  Er  Er4  1  0.50000000  0.00602296  0.00085150  1
  Er  Er5  1  0.50000000  0.50244913  0.49685388  1
  Al  Al6  1  0.50000000  0.49250185  0.00059416  1
  Al  Al7  1  0.50000000  0.99143269  0.50123771  1
  Al  Al8  1  0.50000000  0.25200686  0.25540613  1
  Al  Al9  1  0.50000000  0.74694057  0.75140051  1
  Al  Al10  1  0.50000000  0.75152547  0.24851303  1
  Al  Al11  1  0.50000000  0.24735957  0.74829313  1
  Al  Al12  1  0.00000000  0.85173595  0.85139598  1
  Al  Al13  1  0.00000000  0.85182270  0.14933105  1
  Al  Al14  1  0.00000000  0.35031999  0.64887890  1
  Al  Al15  1  0.00000000  0.70092245  0.00107126  1
  Al  Al16  1  0.00000000  0.21718962  0.49406290  1
  Al  Al17  1  0.00000000  0.15139903  0.14160695  1
  Al  Al18  1  0.00000000  0.65001044  0.64010585  1
  Al  Al19  1  0.00000000  0.64046089  0.35983615  1
  Al  Al20  1  0.00000000  0.15064691  0.85879842  1
  Ni  Ni21  1  0.50000000  0.00458113  0.18360483  1
  Ni  Ni22  1  0.50000000  0.50019281  0.67989539  1
  Ni  Ni23  1  0.50000000  0.77444447  0.40544893  1
  Ni  Ni24  1  0.50000000  0.27348817  0.90711950  1
  Ni  Ni25  1  0.50000000  0.21922216  0.41035468  1
  Ni  Ni26  1  0.50000000  0.72464587  0.91045718  1
  Ni  Ni27  1  0.50000000  0.50419695  0.31610980  1
  Ni  Ni28  1  0.50000000  0.00075578  0.81793089  1
  Ni  Ni29  1  0.50000000  0.27621612  0.09584278  1
  Ni  Ni30  1  0.50000000  0.77203347  0.59256679  1
  Ni  Ni31  1  0.50000000  0.72526284  0.09060279  1
  Ni  Ni32  1  0.50000000  0.22552784  0.58822641  1
  Ni  Ni33  1  0.00000000  0.80224610  0.49892901  1
  Ni  Ni34  1  0.00000000  0.30348712  0.00069302  1
  Ni  Ni35  1  0.00000000  0.34990826  0.34863907  1
