# generated using pymatgen
data_CePdPt4
_symmetry_space_group_name_H-M   'P 1'
_cell_length_a   4.44985805
_cell_length_b   5.37539761
_cell_length_c   5.37467393
_cell_angle_alpha   120.02276060
_cell_angle_beta   90.00000000
_cell_angle_gamma   90.00000000
_symmetry_Int_Tables_number   1
_chemical_formula_structural   CePdPt4
_chemical_formula_sum   'Ce1 Pd1 Pt4'
_cell_volume   111.31145327
_cell_formula_units_Z   1
loop_
 _symmetry_equiv_pos_site_id
 _symmetry_equiv_pos_as_xyz
  1  'x, y, z'
loop_
 _atom_site_type_symbol
 _atom_site_label
 _atom_site_symmetry_multiplicity
 _atom_site_fract_x
 _atom_site_fract_y
 _atom_site_fract_z
 _atom_site_occupancy
  Ce  Ce0  1  -0.00000000  0.99998806  0.00000196  1
  Pd  Pd1  1  0.00000000  0.33330321  0.66667433  1
  Pt  Pt2  1  0.00000000  0.66662927  0.33332964  1
  Pt  Pt3  1  0.50000000  0.49939124  0.99877043  1
  Pt  Pt4  1  0.50000000  0.49936938  0.50062286  1
  Pt  Pt5  1  0.50000000  0.00121884  0.50060078  1
