# generated using pymatgen
data_Cd2InAgTe4
_symmetry_space_group_name_H-M   'P 1'
_cell_length_a   6.61426582
_cell_length_b   6.61426582
_cell_length_c   8.05439473
_cell_angle_alpha   65.75747720
_cell_angle_beta   65.75747720
_cell_angle_gamma   90.00000000
_symmetry_Int_Tables_number   1
_chemical_formula_structural   Cd2InAgTe4
_chemical_formula_sum   'Cd2 In1 Ag1 Te4'
_cell_volume   286.87488529
_cell_formula_units_Z   1
loop_
 _symmetry_equiv_pos_site_id
 _symmetry_equiv_pos_as_xyz
  1  'x, y, z'
loop_
 _atom_site_type_symbol
 _atom_site_label
 _atom_site_symmetry_multiplicity
 _atom_site_fract_x
 _atom_site_fract_y
 _atom_site_fract_z
 _atom_site_occupancy
  Cd  Cd0  1  0.25000000  0.75000000  0.50000000  1
  Cd  Cd1  1  0.75000000  0.25000000  0.50000000  1
  In  In2  1  0.50000000  0.50000000  0.00000000  1
  Ag  Ag3  1  0.00000000  0.00000000  0.00000000  1
  Te  Te4  1  0.37096001  0.87441301  0.75462698  1
  Te  Te5  1  0.62903999  0.62903999  0.24537302  1
  Te  Te6  1  0.87441301  0.37096001  0.75462698  1
  Te  Te7  1  0.12558699  0.12558699  0.24537302  1
