# generated using pymatgen
data_Ce2MgCo9
_symmetry_space_group_name_H-M   'P 1'
_cell_length_a   4.93709825
_cell_length_b   4.93709825
_cell_length_c   8.54237068
_cell_angle_alpha   73.20327465
_cell_angle_beta   73.20327465
_cell_angle_gamma   59.99999101
_symmetry_Int_Tables_number   1
_chemical_formula_structural   Ce2MgCo9
_chemical_formula_sum   'Ce2 Mg1 Co9'
_cell_volume   169.98847051
_cell_formula_units_Z   1
loop_
 _symmetry_equiv_pos_site_id
 _symmetry_equiv_pos_as_xyz
  1  'x, y, z'
loop_
 _atom_site_type_symbol
 _atom_site_label
 _atom_site_symmetry_multiplicity
 _atom_site_fract_x
 _atom_site_fract_y
 _atom_site_fract_z
 _atom_site_occupancy
  Ce  Ce0  1  0.99770698  0.99770698  0.00687905  1
  Ce  Ce1  1  0.14083031  0.14083031  0.57750908  1
  Mg  Mg2  1  0.86006869  0.86006869  0.41979392  1
  Co  Co3  1  0.33453183  0.33453183  0.99640450  1
  Co  Co4  1  0.66625184  0.66625184  0.00124449  1
  Co  Co5  1  0.07882080  0.58546133  0.75025653  1
  Co  Co6  1  0.58546133  0.58546133  0.75025653  1
  Co  Co7  1  0.58546133  0.07882080  0.75025653  1
  Co  Co8  1  0.91857906  0.41548689  0.25044715  1
  Co  Co9  1  0.41548689  0.41548689  0.25044715  1
  Co  Co10  1  0.41548689  0.91857906  0.25044715  1
  Co  Co11  1  0.50131403  0.50131403  0.49605790  1
