# generated using pymatgen
data_CeCuNi
_symmetry_space_group_name_H-M   'P 1'
_cell_length_a   4.12877366
_cell_length_b   5.04453449
_cell_length_c   5.91483304
_cell_angle_alpha   91.29528972
_cell_angle_beta   110.42730672
_cell_angle_gamma   65.84337268
_symmetry_Int_Tables_number   1
_chemical_formula_structural   CeCuNi
_chemical_formula_sum   'Ce2 Cu2 Ni2'
_cell_volume   104.28974043
_cell_formula_units_Z   2
loop_
 _symmetry_equiv_pos_site_id
 _symmetry_equiv_pos_as_xyz
  1  'x, y, z'
loop_
 _atom_site_type_symbol
 _atom_site_label
 _atom_site_symmetry_multiplicity
 _atom_site_fract_x
 _atom_site_fract_y
 _atom_site_fract_z
 _atom_site_occupancy
  Ce  Ce0  1  0.75521684  0.68833204  0.19876572  1
  Ce  Ce1  1  0.24478316  0.31166796  0.80123428  1
  Cu  Cu2  1  0.59271066  0.23605949  0.42148080  1
  Cu  Cu3  1  0.40728934  0.76394051  0.57851920  1
  Ni  Ni4  1  0.02917037  0.12709587  0.18543661  1
  Ni  Ni5  1  0.97082963  0.87290413  0.81456339  1
