# generated using pymatgen
data_CeY(GePt)4
_symmetry_space_group_name_H-M   'P 1'
_cell_length_a   4.33786852
_cell_length_b   4.34412835
_cell_length_c   10.14790504
_cell_angle_alpha   89.57971685
_cell_angle_beta   89.58770730
_cell_angle_gamma   89.32254236
_symmetry_Int_Tables_number   1
_chemical_formula_structural   CeY(GePt)4
_chemical_formula_sum   'Ce1 Y1 Ge4 Pt4'
_cell_volume   191.20639286
_cell_formula_units_Z   1
loop_
 _symmetry_equiv_pos_site_id
 _symmetry_equiv_pos_as_xyz
  1  'x, y, z'
loop_
 _atom_site_type_symbol
 _atom_site_label
 _atom_site_symmetry_multiplicity
 _atom_site_fract_x
 _atom_site_fract_y
 _atom_site_fract_z
 _atom_site_occupancy
  Ce  Ce0  1  0.74887867  0.75345781  0.25313660  1
  Y  Y1  1  0.25035666  0.25250435  0.75371652  1
  Ge  Ge2  1  0.25303503  0.73674809  0.50003891  1
  Ge  Ge3  1  0.74888362  0.23962949  0.50163114  1
  Ge  Ge4  1  0.75616699  0.76637288  0.86474528  1
  Ge  Ge5  1  0.24248107  0.26894389  0.13149725  1
  Pt  Pt6  1  0.74999813  0.73763734  0.62563146  1
  Pt  Pt7  1  0.25193086  0.23887508  0.37313832  1
  Pt  Pt8  1  0.25408696  0.77251921  0.99845949  1
  Pt  Pt9  1  0.74418200  0.26531186  0.99800503  1
