# generated using pymatgen
data_Li2FeO3
_symmetry_space_group_name_H-M   'P 1'
_cell_length_a   2.89542391
_cell_length_b   5.86586100
_cell_length_c   6.38868765
_cell_angle_alpha   103.88861241
_cell_angle_beta   103.08603898
_cell_angle_gamma   89.99838347
_symmetry_Int_Tables_number   1
_chemical_formula_structural   Li2FeO3
_chemical_formula_sum   'Li4 Fe2 O6'
_cell_volume   102.42934312
_cell_formula_units_Z   2
loop_
 _symmetry_equiv_pos_site_id
 _symmetry_equiv_pos_as_xyz
  1  'x, y, z'
loop_
 _atom_site_type_symbol
 _atom_site_label
 _atom_site_symmetry_multiplicity
 _atom_site_fract_x
 _atom_site_fract_y
 _atom_site_fract_z
 _atom_site_occupancy
  Li  Li0  1  0.67391499  0.82625488  0.34700002  1
  Li  Li1  1  0.99283306  0.50684479  0.98651272  1
  Li  Li2  1  0.33329184  0.16677369  0.66660157  1
  Li  Li3  1  0.33340132  0.66648356  0.66678510  1
  Fe  Fe4  1  0.67226557  0.33964895  0.34493785  1
  Fe  Fe5  1  0.99449210  0.99367707  0.98857819  1
  O  O6  1  0.50795408  0.23038362  0.01563244  1
  O  O7  1  0.81888171  0.40698263  0.63833752  1
  O  O8  1  0.84764965  0.92610383  0.69471217  1
  O  O9  1  0.50383138  0.78155746  0.00728300  1
  O  O10  1  0.15856071  0.10323044  0.31741894  1
  O  O11  1  0.16288758  0.55201209  0.32615949  1
