# generated using pymatgen
data_Cs2Na2SnGeF12
_symmetry_space_group_name_H-M   'P 1'
_cell_length_a   6.67998389
_cell_length_b   8.61901072
_cell_length_c   11.32064833
_cell_angle_alpha   90.00000000
_cell_angle_beta   90.00000000
_cell_angle_gamma   90.00000000
_symmetry_Int_Tables_number   1
_chemical_formula_structural   Cs2Na2SnGeF12
_chemical_formula_sum   'Cs4 Na4 Sn2 Ge2 F24'
_cell_volume   651.78466072
_cell_formula_units_Z   2
loop_
 _symmetry_equiv_pos_site_id
 _symmetry_equiv_pos_as_xyz
  1  'x, y, z'
loop_
 _atom_site_type_symbol
 _atom_site_label
 _atom_site_symmetry_multiplicity
 _atom_site_fract_x
 _atom_site_fract_y
 _atom_site_fract_z
 _atom_site_occupancy
  Cs  Cs0  1  0.82193417  0.49550407  0.75028496  1
  Cs  Cs1  1  0.17806583  0.00449593  0.25028496  1
  Cs  Cs2  1  0.17806583  0.49550407  0.25028496  1
  Cs  Cs3  1  0.82193417  0.00449593  0.75028496  1
  Na  Na4  1  0.29706205  0.25000000  0.92814918  1
  Na  Na5  1  0.70369487  0.75000000  0.07197316  1
  Na  Na6  1  0.29630513  0.75000000  0.57197316  1
  Na  Na7  1  0.70293795  0.25000000  0.42814918  1
  Sn  Sn8  1  0.27023520  0.75000000  0.92106607  1
  Sn  Sn9  1  0.72976480  0.75000000  0.42106607  1
  Ge  Ge10  1  0.73166243  0.25000000  0.07835330  1
  Ge  Ge11  1  0.26833757  0.25000000  0.57835330  1
  F  F12  1  0.99486571  0.25000000  0.03007787  1
  F  F13  1  0.98522531  0.75000000  0.97251948  1
  F  F14  1  0.01477469  0.75000000  0.47251948  1
  F  F15  1  0.00513429  0.25000000  0.53007787  1
  F  F16  1  0.18361062  0.25000000  0.73358014  1
  F  F17  1  0.82869274  0.75000000  0.25387003  1
  F  F18  1  0.17130726  0.75000000  0.75387003  1
  F  F19  1  0.81638938  0.25000000  0.23358014  1
  F  F20  1  0.64800190  0.25000000  0.92155479  1
  F  F21  1  0.36238860  0.75000000  0.09126298  1
  F  F22  1  0.63761140  0.75000000  0.59126298  1
  F  F23  1  0.35199810  0.25000000  0.42155479  1
  F  F24  1  0.46477817  0.25000000  0.12237681  1
  F  F25  1  0.56171142  0.75000000  0.87567524  1
  F  F26  1  0.43828858  0.75000000  0.37567524  1
  F  F27  1  0.53522183  0.25000000  0.62237681  1
  F  F28  1  0.73340662  0.46177311  0.07790522  1
  F  F29  1  0.26519656  0.98119789  0.92163028  1
  F  F30  1  0.73480344  0.51880211  0.42163028  1
  F  F31  1  0.26659338  0.03822689  0.57790522  1
  F  F32  1  0.26519656  0.51880211  0.92163028  1
  F  F33  1  0.73340662  0.03822689  0.07790522  1
  F  F34  1  0.26659338  0.46177311  0.57790522  1
  F  F35  1  0.73480344  0.98119789  0.42163028  1
