# generated using pymatgen
data_In4Cu3AgTe8
_symmetry_space_group_name_H-M   'P 1'
_cell_length_a   6.36689524
_cell_length_b   7.75946142
_cell_length_c   11.87592493
_cell_angle_alpha   77.63501492
_cell_angle_beta   74.44954813
_cell_angle_gamma   65.77291554
_symmetry_Int_Tables_number   1
_chemical_formula_structural   In4Cu3AgTe8
_chemical_formula_sum   'In4 Cu3 Ag1 Te8'
_cell_volume   511.82166355
_cell_formula_units_Z   1
loop_
 _symmetry_equiv_pos_site_id
 _symmetry_equiv_pos_as_xyz
  1  'x, y, z'
loop_
 _atom_site_type_symbol
 _atom_site_label
 _atom_site_symmetry_multiplicity
 _atom_site_fract_x
 _atom_site_fract_y
 _atom_site_fract_z
 _atom_site_occupancy
  In  In0  1  0.25020648  0.37344621  0.12671600  1
  In  In1  1  0.24978043  0.87667842  0.62320993  1
  In  In2  1  0.49982286  0.24965793  0.74869261  1
  In  In3  1  0.50015693  0.75023628  0.25135015  1
  Cu  Cu4  1  0.75010956  0.12501690  0.37500704  1
  Cu  Cu5  1  0.99869284  0.00027376  0.00093987  1
  Cu  Cu6  1  0.00129582  0.49973309  0.49907715  1
  Ag  Ag7  1  0.74994811  0.62503930  0.87499863  1
  Te  Te8  1  0.35554474  0.70793002  0.05446059  1
  Te  Te9  1  0.37546233  0.20469236  0.54467109  1
  Te  Te10  1  0.87490881  0.41936667  0.32976820  1
  Te  Te11  1  0.88247463  0.93588201  0.82705117  1
  Te  Te12  1  0.10944276  0.29637596  0.94091253  1
  Te  Te13  1  0.08890596  0.81296931  0.43775550  1
  Te  Te14  1  0.65371860  0.55983861  0.67753537  1
  Te  Te15  1  0.65952913  0.06286317  0.18785418  1
