# generated using pymatgen
data_CaBHO3
_symmetry_space_group_name_H-M   'P 1'
_cell_length_a   3.58168053
_cell_length_b   5.45811859
_cell_length_c   6.87614360
_cell_angle_alpha   90.00000000
_cell_angle_beta   92.31317826
_cell_angle_gamma   90.00000000
_symmetry_Int_Tables_number   1
_chemical_formula_structural   CaBHO3
_chemical_formula_sum   'Ca2 B2 H2 O6'
_cell_volume   134.31382487
_cell_formula_units_Z   2
loop_
 _symmetry_equiv_pos_site_id
 _symmetry_equiv_pos_as_xyz
  1  'x, y, z'
loop_
 _atom_site_type_symbol
 _atom_site_label
 _atom_site_symmetry_multiplicity
 _atom_site_fract_x
 _atom_site_fract_y
 _atom_site_fract_z
 _atom_site_occupancy
  Ca  Ca0  1  0.74830109  0.73929736  0.64206536  1
  Ca  Ca1  1  0.25169891  0.23929736  0.35793464  1
  B  B2  1  0.22589892  0.24396298  0.77224654  1
  B  B3  1  0.77410108  0.74396298  0.22775346  1
  H  H4  1  0.04223849  0.42081178  0.99766553  1
  H  H5  1  0.95776151  0.92081178  0.00233447  1
  O  O6  1  0.12897172  0.25348064  0.97166950  1
  O  O7  1  0.87102828  0.75348064  0.02833050  1
  O  O8  1  0.26149785  0.02071051  0.68641112  1
  O  O9  1  0.73850215  0.52071051  0.31358888  1
  O  O10  1  0.74528283  0.95873672  0.33000304  1
  O  O11  1  0.25471717  0.45873672  0.66999696  1
