# generated using pymatgen
data_Ce2In2PdRh
_symmetry_space_group_name_H-M   'P 1'
_cell_length_a   4.09667046
_cell_length_b   7.68478805
_cell_length_c   13.13872030
_cell_angle_alpha   89.98915083
_cell_angle_beta   90.00000000
_cell_angle_gamma   90.00000000
_symmetry_Int_Tables_number   1
_chemical_formula_structural   Ce2In2PdRh
_chemical_formula_sum   'Ce6 In6 Pd3 Rh3'
_cell_volume   413.63376574
_cell_formula_units_Z   3
loop_
 _symmetry_equiv_pos_site_id
 _symmetry_equiv_pos_as_xyz
  1  'x, y, z'
loop_
 _atom_site_type_symbol
 _atom_site_label
 _atom_site_symmetry_multiplicity
 _atom_site_fract_x
 _atom_site_fract_y
 _atom_site_fract_z
 _atom_site_occupancy
  Ce  Ce0  1  0.50000000  0.59239164  0.99873362  1
  Ce  Ce1  1  0.50000000  0.09011849  0.50608479  1
  Ce  Ce2  1  0.50000000  0.20175258  0.20287343  1
  Ce  Ce3  1  0.50000000  0.71202198  0.70095836  1
  Ce  Ce4  1  0.50000000  0.70262440  0.29812889  1
  Ce  Ce5  1  0.50000000  0.19496692  0.79295698  1
  In  In6  1  0.00000000  0.25040100  0.99859672  1
  In  In7  1  -0.00000000  0.75208322  0.50080336  1
  In  In8  1  0.00000000  0.37214649  0.37614718  1
  In  In9  1  0.00000000  0.87419699  0.87478787  1
  In  In10  1  0.00000000  0.87372324  0.12463400  1
  In  In11  1  -0.00000000  0.37496785  0.62508994  1
  Pd  Pd12  1  -0.00000000  -0.00017919  0.33354116  1
  Pd  Pd13  1  -0.00000000  0.50018765  0.83374353  1
  Pd  Pd14  1  -0.00000000  0.50028284  0.16638911  1
  Rh  Rh15  1  -0.00000000  0.00010850  0.66657018  1
  Rh  Rh16  1  0.50000000  0.00342055  0.00018845  1
  Rh  Rh17  1  0.50000000  0.50458485  0.49977243  1
