# generated using pymatgen
data_BaSrLu4O8
_symmetry_space_group_name_H-M   'P 1'
_cell_length_a   3.36941207
_cell_length_b   10.19494178
_cell_length_c   11.88770098
_cell_angle_alpha   90.00000000
_cell_angle_beta   90.00000000
_cell_angle_gamma   90.00000000
_symmetry_Int_Tables_number   1
_chemical_formula_structural   BaSrLu4O8
_chemical_formula_sum   'Ba2 Sr2 Lu8 O16'
_cell_volume   408.35393951
_cell_formula_units_Z   2
loop_
 _symmetry_equiv_pos_site_id
 _symmetry_equiv_pos_as_xyz
  1  'x, y, z'
loop_
 _atom_site_type_symbol
 _atom_site_label
 _atom_site_symmetry_multiplicity
 _atom_site_fract_x
 _atom_site_fract_y
 _atom_site_fract_z
 _atom_site_occupancy
  Ba  Ba0  1  0.75000000  0.74642115  0.15016209  1
  Ba  Ba1  1  0.75000000  0.24642115  0.34983791  1
  Sr  Sr2  1  0.25000000  0.25415811  0.85118800  1
  Sr  Sr3  1  0.25000000  0.75415811  0.64881200  1
  Lu  Lu4  1  0.75000000  0.07428503  0.10829736  1
  Lu  Lu5  1  0.75000000  0.57428503  0.39170264  1
  Lu  Lu6  1  0.25000000  0.92910094  0.88572094  1
  Lu  Lu7  1  0.25000000  0.42910094  0.61427906  1
  Lu  Lu8  1  0.75000000  0.07675789  0.61113328  1
  Lu  Lu9  1  0.75000000  0.57675789  0.88886672  1
  Lu  Lu10  1  0.25000000  0.92050050  0.39465514  1
  Lu  Lu11  1  0.25000000  0.42050050  0.10534486  1
  O  O12  1  0.75000000  0.29051188  0.66448402  1
  O  O13  1  0.75000000  0.79051188  0.83551598  1
  O  O14  1  0.25000000  0.70952317  0.34301639  1
  O  O15  1  0.25000000  0.20952317  0.15698361  1
  O  O16  1  0.75000000  0.37956016  0.97773624  1
  O  O17  1  0.75000000  0.87956016  0.52226376  1
  O  O18  1  0.25000000  0.61254197  0.01478485  1
  O  O19  1  0.25000000  0.11254197  0.48521515  1
  O  O20  1  0.75000000  0.98045221  0.28443823  1
  O  O21  1  0.75000000  0.48045221  0.21556177  1
  O  O22  1  0.25000000  0.01699137  0.71721479  1
  O  O23  1  0.25000000  0.51699137  0.78278521  1
  O  O24  1  0.75000000  0.07613686  0.92246258  1
  O  O25  1  0.75000000  0.57613686  0.57753742  1
  O  O26  1  0.25000000  0.93305876  0.07132789  1
  O  O27  1  0.25000000  0.43305876  0.42867211  1
