# generated using pymatgen
data_CoOF
_symmetry_space_group_name_H-M   'P 1'
_cell_length_a   4.73957850
_cell_length_b   18.70189377
_cell_length_c   2.89137294
_cell_angle_alpha   90.00000000
_cell_angle_beta   90.00000000
_cell_angle_gamma   95.43584201
_symmetry_Int_Tables_number   1
_chemical_formula_structural   CoOF
_chemical_formula_sum   'Co8 O8 F8'
_cell_volume   255.13612059
_cell_formula_units_Z   8
loop_
 _symmetry_equiv_pos_site_id
 _symmetry_equiv_pos_as_xyz
  1  'x, y, z'
loop_
 _atom_site_type_symbol
 _atom_site_label
 _atom_site_symmetry_multiplicity
 _atom_site_fract_x
 _atom_site_fract_y
 _atom_site_fract_z
 _atom_site_occupancy
  Co  Co0  1  0.91109128  0.00194996  0.00000000  1
  Co  Co1  1  0.08890872  0.24805004  0.00000000  1
  Co  Co2  1  0.02155400  0.49879194  0.00000000  1
  Co  Co3  1  0.97844600  0.75120806  0.00000000  1
  Co  Co4  1  0.50000000  0.12500000  0.50000000  1
  Co  Co5  1  0.54725620  0.37041297  0.50000000  1
  Co  Co6  1  0.50000000  0.62500000  0.50000000  1
  Co  Co7  1  0.45274380  0.87958703  0.50000000  1
  O  O8  1  0.24072962  0.20298622  0.50000000  1
  O  O9  1  0.31837594  0.57689556  0.00000000  1
  O  O10  1  0.27206902  0.82981895  0.00000000  1
  O  O11  1  0.36987678  0.32266196  0.00000000  1
  O  O12  1  0.72793098  0.42018105  0.00000000  1
  O  O13  1  0.63012322  0.92733804  0.00000000  1
  O  O14  1  0.68162406  0.67310444  0.00000000  1
  O  O15  1  0.75927038  0.04701378  0.50000000  1
  F  F16  1  0.22145340  0.45061382  0.50000000  1
  F  F17  1  0.17610875  0.70243763  0.50000000  1
  F  F18  1  0.09966427  0.95453640  0.50000000  1
  F  F19  1  0.25165403  0.07333416  0.00000000  1
  F  F20  1  0.74834597  0.17666584  0.00000000  1
  F  F21  1  0.90033573  0.29546360  0.50000000  1
  F  F22  1  0.82389125  0.54756237  0.50000000  1
  F  F23  1  0.77854660  0.79938618  0.50000000  1
