# generated using pymatgen
data_Ca10V3P3(O12F)2
_symmetry_space_group_name_H-M   'P 1'
_cell_length_a   6.98894572
_cell_length_b   9.69160617
_cell_length_c   9.69160618
_cell_angle_alpha   119.99999941
_cell_angle_beta   90.00000000
_cell_angle_gamma   90.00000000
_symmetry_Int_Tables_number   1
_chemical_formula_structural   Ca10V3P3(O12F)2
_chemical_formula_sum   'Ca10 V3 P3 O24 F2'
_cell_volume   568.50438340
_cell_formula_units_Z   1
loop_
 _symmetry_equiv_pos_site_id
 _symmetry_equiv_pos_as_xyz
  1  'x, y, z'
loop_
 _atom_site_type_symbol
 _atom_site_label
 _atom_site_symmetry_multiplicity
 _atom_site_fract_x
 _atom_site_fract_y
 _atom_site_fract_z
 _atom_site_occupancy
  Ca  Ca0  1  0.50588865  0.66666700  0.33333300  1
  Ca  Ca1  1  0.99773399  0.33333300  0.66666700  1
  Ca  Ca2  1  0.50226601  0.33333300  0.66666700  1
  Ca  Ca3  1  0.99411135  0.66666700  0.33333300  1
  Ca  Ca4  1  0.75000000  0.75527618  0.76186339  1
  Ca  Ca5  1  0.75000000  0.23813661  0.99341279  1
  Ca  Ca6  1  0.75000000  0.00658721  0.24472382  1
  Ca  Ca7  1  0.25000000  0.24368711  0.24549908  1
  Ca  Ca8  1  0.25000000  0.75450092  0.99818803  1
  Ca  Ca9  1  0.25000000  0.00181197  0.75631289  1
  V  V10  1  0.25000000  0.97077398  0.36911695  1
  V  V11  1  0.25000000  0.63088305  0.60165703  1
  V  V12  1  0.25000000  0.39834297  0.02922602  1
  P  P13  1  0.75000000  0.02899563  0.62952995  1
  P  P14  1  0.75000000  0.37047005  0.39946568  1
  P  P15  1  0.75000000  0.60053432  0.97100437  1
  O  O16  1  0.75000000  0.12120372  0.53529642  1
  O  O17  1  0.75000000  0.46470358  0.58590729  1
  O  O18  1  0.75000000  0.41409271  0.87879628  1
  O  O19  1  0.25000000  0.86563482  0.47322729  1
  O  O20  1  0.25000000  0.52677271  0.39240753  1
  O  O21  1  0.25000000  0.60759247  0.13436518  1
  O  O22  1  0.75000000  0.84628269  0.51296071  1
  O  O23  1  0.75000000  0.48703929  0.33332198  1
  O  O24  1  0.75000000  0.66667802  0.15371731  1
  O  O25  1  0.25000000  0.17570250  0.48971432  1
  O  O26  1  0.25000000  0.51028568  0.68598818  1
  O  O27  1  0.25000000  0.31401182  0.82429750  1
  O  O28  1  0.57155042  0.08355050  0.74060733  1
  O  O29  1  0.57155042  0.25939267  0.34294317  1
  O  O30  1  0.57155042  0.65705683  0.91644950  1
  O  O31  1  0.05492718  0.91024365  0.24381704  1
  O  O32  1  0.05492718  0.75618296  0.66642662  1
  O  O33  1  0.05492718  0.33357338  0.08975635  1
  O  O34  1  0.44507282  0.91024365  0.24381704  1
  O  O35  1  0.44507282  0.75618296  0.66642662  1
  O  O36  1  0.44507282  0.33357338  0.08975635  1
  O  O37  1  0.92844958  0.08355050  0.74060733  1
  O  O38  1  0.92844958  0.25939267  0.34294317  1
  O  O39  1  0.92844958  0.65705683  0.91644950  1
  F  F40  1  0.75000000  0.00000000  -0.00000000  1
  F  F41  1  0.25000000  0.00000000  -0.00000000  1
