# generated using pymatgen
data_Ca6Mg2ZnP6(H2O5)6
_symmetry_space_group_name_H-M   'P 1'
_cell_length_a   5.53087802
_cell_length_b   15.30105154
_cell_length_c   6.90215482
_cell_angle_alpha   86.36237963
_cell_angle_beta   97.15510697
_cell_angle_gamma   93.43900647
_symmetry_Int_Tables_number   1
_chemical_formula_structural   Ca6Mg2ZnP6(H2O5)6
_chemical_formula_sum   'Ca6 Mg2 Zn1 P6 H12 O30'
_cell_volume   577.60021436
_cell_formula_units_Z   1
loop_
 _symmetry_equiv_pos_site_id
 _symmetry_equiv_pos_as_xyz
  1  'x, y, z'
loop_
 _atom_site_type_symbol
 _atom_site_label
 _atom_site_symmetry_multiplicity
 _atom_site_fract_x
 _atom_site_fract_y
 _atom_site_fract_z
 _atom_site_occupancy
  Ca  Ca0  1  0.11615563  0.23402680  0.00640190  1
  Ca  Ca1  1  0.78303845  0.56765998  0.67339596  1
  Ca  Ca2  1  0.45044571  0.90061572  0.33845915  1
  Ca  Ca3  1  0.54955429  0.09938428  0.66154085  1
  Ca  Ca4  1  0.21696155  0.43234002  0.32660404  1
  Ca  Ca5  1  0.88384437  0.76597320  0.99359810  1
  Mg  Mg6  1  0.66668868  0.33338876  0.66660848  1
  Mg  Mg7  1  0.33331132  0.66661124  0.33339152  1
  Zn  Zn8  1  -0.00000000  -0.00000000  -0.00000000  1
  P  P9  1  0.11411530  0.22113177  0.53593797  1
  P  P10  1  0.78102346  0.55450937  0.20260001  1
  P  P11  1  0.44655173  0.88711989  0.86889467  1
  P  P12  1  0.55344827  0.11288011  0.13110533  1
  P  P13  1  0.21897654  0.44549063  0.79739999  1
  P  P14  1  0.88588470  0.77886823  0.46406203  1
  H  H15  1  0.56657130  0.29133660  0.31294429  1
  H  H16  1  0.23333411  0.62465129  0.97948014  1
  H  H17  1  0.90125962  0.95746491  0.64688526  1
  H  H18  1  0.09874038  0.04253509  0.35311474  1
  H  H19  1  0.76666589  0.37534871  0.02051986  1
  H  H20  1  0.43342870  0.70866340  0.68705571  1
  H  H21  1  0.02498261  0.05749540  0.63055794  1
  H  H22  1  0.68950715  0.39071729  0.29592576  1
  H  H23  1  0.35622367  0.72384963  0.96250775  1
  H  H24  1  0.64377633  0.27615037  0.03749225  1
  H  H25  1  0.31049285  0.60928271  0.70407424  1
  H  H26  1  0.97501739  0.94250460  0.36944206  1
  O  O27  1  0.14962140  0.12363961  0.49385985  1
  O  O28  1  0.81676659  0.45727972  0.15992020  1
  O  O29  1  0.48434962  0.79027966  0.82459988  1
  O  O30  1  0.51565038  0.20972034  0.17540012  1
  O  O31  1  0.18323341  0.54272028  0.84007980  1
  O  O32  1  0.85037860  0.87636039  0.50614015  1
  O  O33  1  0.08729885  0.27929218  0.34608231  1
  O  O34  1  0.75416001  0.61289539  0.01296525  1
  O  O35  1  0.42061960  0.94627087  0.68067167  1
  O  O36  1  0.57938040  0.05372913  0.31932833  1
  O  O37  1  0.24583999  0.38710461  0.98703475  1
  O  O38  1  0.91270115  0.72070782  0.65391769  1
  O  O39  1  0.91244801  0.01625591  0.70604414  1
  O  O40  1  0.58124617  0.34955070  0.37429988  1
  O  O41  1  0.24796336  0.68282909  0.04081863  1
  O  O42  1  0.75203664  0.31717091  0.95918137  1
  O  O43  1  0.41875383  0.65044930  0.62570012  1
  O  O44  1  0.08755199  0.98374409  0.29395586  1
  O  O45  1  0.34780222  0.24708498  0.67899021  1
  O  O46  1  0.01453792  0.58046225  0.34605050  1
  O  O47  1  0.67693037  0.91244394  0.01646836  1
  O  O48  1  0.32306963  0.08755606  0.98353164  1
  O  O49  1  0.98546208  0.41953775  0.65394950  1
  O  O50  1  0.65219778  0.75291502  0.32100979  1
  O  O51  1  0.88686101  0.22278841  0.65105641  1
  O  O52  1  0.55366114  0.55615950  0.31780424  1
  O  O53  1  0.21865166  0.88676911  0.98433096  1
  O  O54  1  0.78134834  0.11323089  0.01566904  1
  O  O55  1  0.44633886  0.44384050  0.68219576  1
  O  O56  1  0.11313899  0.77721159  0.34894359  1
