# generated using pymatgen
data_CaLaMn2O6
_symmetry_space_group_name_H-M   'P 1'
_cell_length_a   5.54016232
_cell_length_b   7.70717756
_cell_length_c   11.03654596
_cell_angle_alpha   90.00000000
_cell_angle_beta   89.64001780
_cell_angle_gamma   90.00000000
_symmetry_Int_Tables_number   1
_chemical_formula_structural   CaLaMn2O6
_chemical_formula_sum   'Ca4 La4 Mn8 O24'
_cell_volume   471.24033675
_cell_formula_units_Z   4
loop_
 _symmetry_equiv_pos_site_id
 _symmetry_equiv_pos_as_xyz
  1  'x, y, z'
loop_
 _atom_site_type_symbol
 _atom_site_label
 _atom_site_symmetry_multiplicity
 _atom_site_fract_x
 _atom_site_fract_y
 _atom_site_fract_z
 _atom_site_occupancy
  Ca  Ca0  1  0.97811487  0.75000000  0.73770910  1
  Ca  Ca1  1  0.02188513  0.25000000  0.26229090  1
  Ca  Ca2  1  0.00014933  0.75000000  0.23505831  1
  Ca  Ca3  1  0.99985067  0.25000000  0.76494169  1
  La  La4  1  0.50365274  0.75000000  0.48466306  1
  La  La5  1  0.49634726  0.25000000  0.51533694  1
  La  La6  1  0.50209683  0.75000000  0.99179186  1
  La  La7  1  0.49790317  0.25000000  0.00820814  1
  Mn  Mn8  1  0.48818023  0.50224882  0.74931567  1
  Mn  Mn9  1  0.51181977  0.00224882  0.25068433  1
  Mn  Mn10  1  0.51181977  0.49775118  0.25068433  1
  Mn  Mn11  1  0.48818023  0.99775118  0.74931567  1
  Mn  Mn12  1  -0.00000000  0.50000000  0.00000000  1
  Mn  Mn13  1  -0.00000000  0.00000000  0.00000000  1
  Mn  Mn14  1  -0.00000000  0.50000000  0.50000000  1
  Mn  Mn15  1  -0.00000000  0.00000000  0.50000000  1
  O  O16  1  0.78601394  0.54562777  0.36201022  1
  O  O17  1  0.21398606  0.04562777  0.63798978  1
  O  O18  1  0.21398606  0.45437223  0.63798978  1
  O  O19  1  0.78601394  0.95437223  0.36201022  1
  O  O20  1  0.75378249  0.53995152  0.86251059  1
  O  O21  1  0.24621751  0.03995152  0.13748941  1
  O  O22  1  0.24621751  0.46004848  0.13748941  1
  O  O23  1  0.75378249  0.96004848  0.86251059  1
  O  O24  1  0.06762110  0.75000000  0.00424169  1
  O  O25  1  0.93237890  0.25000000  0.99575831  1
  O  O26  1  0.43089666  0.75000000  0.25297095  1
  O  O27  1  0.56910334  0.25000000  0.74702905  1
  O  O28  1  0.29396506  0.46726661  0.38838957  1
  O  O29  1  0.70603494  0.96726661  0.61161043  1
  O  O30  1  0.70603494  0.53273339  0.61161043  1
  O  O31  1  0.29396506  0.03273339  0.38838957  1
  O  O32  1  0.06679821  0.75000000  0.51468347  1
  O  O33  1  0.93320179  0.25000000  0.48531653  1
  O  O34  1  0.26769667  0.46059392  0.88802239  1
  O  O35  1  0.73230333  0.96059392  0.11197761  1
  O  O36  1  0.73230333  0.53940608  0.11197761  1
  O  O37  1  0.26769667  0.03940608  0.88802239  1
  O  O38  1  0.40572223  0.75000000  0.75443435  1
  O  O39  1  0.59427777  0.25000000  0.24556565  1
