# generated using pymatgen
data_Ca4Cd3Au5
_symmetry_space_group_name_H-M   'P 1'
_cell_length_a   4.38227639
_cell_length_b   7.42210591
_cell_length_c   8.83475235
_cell_angle_alpha   89.83354411
_cell_angle_beta   90.00000000
_cell_angle_gamma   90.00000000
_symmetry_Int_Tables_number   1
_chemical_formula_structural   Ca4Cd3Au5
_chemical_formula_sum   'Ca4 Cd3 Au5'
_cell_volume   287.35546419
_cell_formula_units_Z   1
loop_
 _symmetry_equiv_pos_site_id
 _symmetry_equiv_pos_as_xyz
  1  'x, y, z'
loop_
 _atom_site_type_symbol
 _atom_site_label
 _atom_site_symmetry_multiplicity
 _atom_site_fract_x
 _atom_site_fract_y
 _atom_site_fract_z
 _atom_site_occupancy
  Ca  Ca0  1  0.75000000  0.45751203  0.18564038  1
  Ca  Ca1  1  0.75000000  0.96314547  0.32237298  1
  Ca  Ca2  1  0.25000000  0.53554123  0.81055097  1
  Ca  Ca3  1  0.25000000  0.05128587  0.67781957  1
  Cd  Cd4  1  0.75000000  0.85703310  0.93900242  1
  Cd  Cd5  1  0.25000000  0.63784660  0.44025157  1
  Cd  Cd6  1  0.25000000  0.14127045  0.06091468  1
  Au  Au7  1  0.75000000  0.25029985  0.87562122  1
  Au  Au8  1  0.75000000  0.75092363  0.62794315  1
  Au  Au9  1  0.25000000  0.75017364  0.12877795  1
  Au  Au10  1  0.25000000  0.25061114  0.36825303  1
  Au  Au11  1  0.75000000  0.35435700  0.56285208  1
