# generated using pymatgen
data_Ce2TiCo16
_symmetry_space_group_name_H-M   'P 1'
_cell_length_a   8.17743421
_cell_length_b   8.32312518
_cell_length_c   8.32312518
_cell_angle_alpha   119.96703675
_cell_angle_beta   89.98818202
_cell_angle_gamma   90.01181798
_symmetry_Int_Tables_number   1
_chemical_formula_structural   Ce2TiCo16
_chemical_formula_sum   'Ce4 Ti2 Co32'
_cell_volume   490.75495100
_cell_formula_units_Z   2
loop_
 _symmetry_equiv_pos_site_id
 _symmetry_equiv_pos_as_xyz
  1  'x, y, z'
loop_
 _atom_site_type_symbol
 _atom_site_label
 _atom_site_symmetry_multiplicity
 _atom_site_fract_x
 _atom_site_fract_y
 _atom_site_fract_z
 _atom_site_occupancy
  Ce  Ce0  1  0.26470182  0.66638706  0.33361294  1
  Ce  Ce1  1  0.73529818  0.33361294  0.66638706  1
  Ce  Ce2  1  0.75083235  0.99994239  0.00005761  1
  Ce  Ce3  1  0.24916765  0.00005761  0.99994239  1
  Ti  Ti4  1  0.11388177  0.33333644  0.66666356  1
  Ti  Ti5  1  0.88611823  0.66666356  0.33333644  1
  Co  Co6  1  0.75004179  0.67232116  0.04167847  1
  Co  Co7  1  0.74967693  0.36937554  0.32780905  1
  Co  Co8  1  0.75005211  0.95835638  0.63074175  1
  Co  Co9  1  0.75005211  0.36925825  0.04164362  1
  Co  Co10  1  0.75004179  0.95832153  0.32767884  1
  Co  Co11  1  0.74967693  0.67219095  0.63062446  1
  Co  Co12  1  0.24995821  0.32767884  0.95832153  1
  Co  Co13  1  0.25032307  0.63062446  0.67219095  1
  Co  Co14  1  0.24994789  0.04164362  0.36925825  1
  Co  Co15  1  0.24994789  0.63074175  0.95835638  1
  Co  Co16  1  0.24995821  0.04167847  0.67232116  1
  Co  Co17  1  0.25032307  0.32780905  0.36937554  1
  Co  Co18  1  0.48315020  0.83294401  0.66642063  1
  Co  Co19  1  0.48316817  0.83329633  0.16670367  1
  Co  Co20  1  0.48315020  0.33357937  0.16705599  1
  Co  Co21  1  0.51684980  0.16705599  0.33357937  1
  Co  Co22  1  0.51683183  0.16670367  0.83329633  1
  Co  Co23  1  0.51684980  0.66642063  0.83294401  1
  Co  Co24  1  0.97547174  0.16646614  0.33311733  1
  Co  Co25  1  0.97561600  0.16659086  0.83340914  1
  Co  Co26  1  0.97547174  0.66688267  0.83353386  1
  Co  Co27  1  0.02452826  0.83353386  0.66688267  1
  Co  Co28  1  0.02438400  0.83340914  0.16659086  1
  Co  Co29  1  0.02452826  0.33311733  0.16646614  1
  Co  Co30  1  0.50000000  0.50000000  -0.00000000  1
  Co  Co31  1  0.50000000  0.50000000  0.50000000  1
  Co  Co32  1  0.50000000  0.00000000  0.50000000  1
  Co  Co33  1  0.00000000  0.50000000  -0.00000000  1
  Co  Co34  1  0.00000000  0.50000000  0.50000000  1
  Co  Co35  1  0.00000000  0.00000000  0.50000000  1
  Co  Co36  1  0.60304263  0.66656143  0.33343857  1
  Co  Co37  1  0.39695737  0.33343857  0.66656143  1
