# generated using pymatgen
data_Ca3Tl4O9
_symmetry_space_group_name_H-M   'P 1'
_cell_length_a   3.39243626
_cell_length_b   5.89411917
_cell_length_c   12.45024719
_cell_angle_alpha   102.22186571
_cell_angle_beta   90.00000000
_cell_angle_gamma   73.27481912
_symmetry_Int_Tables_number   1
_chemical_formula_structural   Ca3Tl4O9
_chemical_formula_sum   'Ca3 Tl4 O9'
_cell_volume   232.51871791
_cell_formula_units_Z   1
loop_
 _symmetry_equiv_pos_site_id
 _symmetry_equiv_pos_as_xyz
  1  'x, y, z'
loop_
 _atom_site_type_symbol
 _atom_site_label
 _atom_site_symmetry_multiplicity
 _atom_site_fract_x
 _atom_site_fract_y
 _atom_site_fract_z
 _atom_site_occupancy
  Ca  Ca0  1  0.45161108  0.09677784  0.28996474  1
  Ca  Ca1  1  0.54907942  0.90184115  0.71015401  1
  Ca  Ca2  1  0.75982409  0.48035183  0.87149313  1
  Tl  Tl3  1  0.84994796  0.30010408  0.56417344  1
  Tl  Tl4  1  0.15096612  0.69806776  0.43838352  1
  Tl  Tl5  1  0.99872735  0.00254530  0.99678664  1
  Tl  Tl6  1  0.23750903  0.52498194  0.12669140  1
  O  O7  1  0.80957182  0.38085637  0.39793379  1
  O  O8  1  0.19332676  0.61334648  0.60330913  1
  O  O9  1  0.90752124  0.18495753  0.71576389  1
  O  O10  1  0.09734159  0.80531682  0.27984399  1
  O  O11  1  0.87498845  0.25002309  0.16116468  1
  O  O12  1  0.12301988  0.75396023  0.83852322  1
  O  O13  1  0.62788147  0.74423706  0.05880223  1
  O  O14  1  0.36543417  0.26913166  0.95375570  1
  O  O15  1  0.50324957  0.99350086  0.49325648  1
