# generated using pymatgen
data_Ca2TbMn3O9
_symmetry_space_group_name_H-M   'P 1'
_cell_length_a   5.36205264
_cell_length_b   16.35589858
_cell_length_c   7.64914285
_cell_angle_alpha   90.00000000
_cell_angle_beta   90.00000000
_cell_angle_gamma   90.00000000
_symmetry_Int_Tables_number   1
_chemical_formula_structural   Ca2TbMn3O9
_chemical_formula_sum   'Ca8 Tb4 Mn12 O36'
_cell_volume   670.83892400
_cell_formula_units_Z   4
loop_
 _symmetry_equiv_pos_site_id
 _symmetry_equiv_pos_as_xyz
  1  'x, y, z'
loop_
 _atom_site_type_symbol
 _atom_site_label
 _atom_site_symmetry_multiplicity
 _atom_site_fract_x
 _atom_site_fract_y
 _atom_site_fract_z
 _atom_site_occupancy
  Ca  Ca0  1  0.49093759  0.48466863  0.25000000  1
  Ca  Ca1  1  0.49092946  0.81854673  0.25000000  1
  Ca  Ca2  1  0.00907054  0.31854673  0.25000000  1
  Ca  Ca3  1  0.00906241  0.98466863  0.25000000  1
  Ca  Ca4  1  0.50907054  0.18145327  0.75000000  1
  Ca  Ca5  1  0.50906241  0.51533137  0.75000000  1
  Ca  Ca6  1  0.99093759  0.01533137  0.75000000  1
  Ca  Ca7  1  0.99092946  0.68145327  0.75000000  1
  Tb  Tb8  1  0.48955606  0.14990359  0.25000000  1
  Tb  Tb9  1  0.01044394  0.64990359  0.25000000  1
  Tb  Tb10  1  0.51044394  0.85009641  0.75000000  1
  Tb  Tb11  1  0.98955606  0.35009641  0.75000000  1
  Mn  Mn12  1  0.99920915  0.16672608  0.99855050  1
  Mn  Mn13  1  0.00000000  0.50000000  -0.00000000  1
  Mn  Mn14  1  0.00079085  0.83327392  0.00144950  1
  Mn  Mn15  1  0.50000000  -0.00000000  0.50000000  1
  Mn  Mn16  1  0.49920915  0.33327392  0.49855050  1
  Mn  Mn17  1  0.50079085  0.66672608  0.50144950  1
  Mn  Mn18  1  0.99920915  0.16672608  0.50144950  1
  Mn  Mn19  1  0.00000000  0.50000000  0.50000000  1
  Mn  Mn20  1  0.00079085  0.83327392  0.49855050  1
  Mn  Mn21  1  0.50000000  -0.00000000  -0.00000000  1
  Mn  Mn22  1  0.49920915  0.33327392  0.00144950  1
  Mn  Mn23  1  0.50079085  0.66672608  0.99855050  1
  O  O24  1  0.21211286  0.07143014  0.04801961  1
  O  O25  1  0.20330350  0.40128947  0.03662176  1
  O  O26  1  0.20329388  0.73462665  0.04551192  1
  O  O27  1  0.29670612  0.23462665  0.45448808  1
  O  O28  1  0.28788714  0.57143014  0.45198039  1
  O  O29  1  0.29669650  0.90128947  0.46337824  1
  O  O30  1  0.79670612  0.26537335  0.54551192  1
  O  O31  1  0.79669650  0.59871053  0.53662176  1
  O  O32  1  0.78788714  0.92856986  0.54801961  1
  O  O33  1  0.70330350  0.09871053  0.96337824  1
  O  O34  1  0.71211286  0.42856986  0.95198039  1
  O  O35  1  0.70329388  0.76537335  0.95448808  1
  O  O36  1  0.79670612  0.26537335  0.95448808  1
  O  O37  1  0.79669650  0.59871053  0.96337824  1
  O  O38  1  0.78788714  0.92856986  0.95198039  1
  O  O39  1  0.70330350  0.09871053  0.53662176  1
  O  O40  1  0.71211286  0.42856986  0.54801961  1
  O  O41  1  0.70329388  0.76537335  0.54551192  1
  O  O42  1  0.21211286  0.07143014  0.45198039  1
  O  O43  1  0.20330350  0.40128947  0.46337824  1
  O  O44  1  0.20329388  0.73462665  0.45448808  1
  O  O45  1  0.29670612  0.23462665  0.04551192  1
  O  O46  1  0.28788714  0.57143014  0.04801961  1
  O  O47  1  0.29669650  0.90128947  0.03662176  1
  O  O48  1  0.57916194  0.00857751  0.25000000  1
  O  O49  1  0.57849542  0.33870297  0.25000000  1
  O  O50  1  0.58776364  0.67303016  0.25000000  1
  O  O51  1  0.91223636  0.17303016  0.25000000  1
  O  O52  1  0.92083806  0.50857751  0.25000000  1
  O  O53  1  0.92150458  0.83870297  0.25000000  1
  O  O54  1  0.41223636  0.32696984  0.75000000  1
  O  O55  1  0.42150458  0.66129703  0.75000000  1
  O  O56  1  0.42083806  0.99142249  0.75000000  1
  O  O57  1  0.07849542  0.16129703  0.75000000  1
  O  O58  1  0.07916194  0.49142249  0.75000000  1
  O  O59  1  0.08776364  0.82696984  0.75000000  1
