# generated using pymatgen
data_Ca7InN4
_symmetry_space_group_name_H-M   'P 1'
_cell_length_a   3.58613589
_cell_length_b   12.17881344
_cell_length_c   11.76138477
_cell_angle_alpha   90.00000000
_cell_angle_beta   90.00000000
_cell_angle_gamma   90.00000000
_symmetry_Int_Tables_number   1
_chemical_formula_structural   Ca7InN4
_chemical_formula_sum   'Ca14 In2 N8'
_cell_volume   513.67706817
_cell_formula_units_Z   2
loop_
 _symmetry_equiv_pos_site_id
 _symmetry_equiv_pos_as_xyz
  1  'x, y, z'
loop_
 _atom_site_type_symbol
 _atom_site_label
 _atom_site_symmetry_multiplicity
 _atom_site_fract_x
 _atom_site_fract_y
 _atom_site_fract_z
 _atom_site_occupancy
  Ca  Ca0  1  0.49980742  0.67170678  0.23587639  1
  Ca  Ca1  1  0.49980742  0.32829322  0.76412361  1
  Ca  Ca2  1  0.50019258  0.17170678  0.26412361  1
  Ca  Ca3  1  0.50019258  0.82829322  0.73587639  1
  Ca  Ca4  1  0.49968847  0.50000000  -0.00000000  1
  Ca  Ca5  1  0.50031153  -0.00000000  0.50000000  1
  Ca  Ca6  1  0.99817104  0.92864559  0.27023947  1
  Ca  Ca7  1  0.99817104  0.07135441  0.72976053  1
  Ca  Ca8  1  0.00182896  0.42864559  0.22976053  1
  Ca  Ca9  1  0.00182896  0.57135441  0.77023947  1
  Ca  Ca10  1  0.00303479  0.76892379  0.48020446  1
  Ca  Ca11  1  0.00303479  0.23107621  0.51979554  1
  Ca  Ca12  1  0.99696521  0.26892379  0.01979554  1
  Ca  Ca13  1  0.99696521  0.73107621  0.98020446  1
  In  In14  1  0.60157119  0.50000000  0.50000000  1
  In  In15  1  0.39842881  -0.00000000  -0.00000000  1
  N  N16  1  0.99959757  0.60077853  0.13003859  1
  N  N17  1  0.99959757  0.39922147  0.86996141  1
  N  N18  1  0.00040243  0.10077853  0.36996141  1
  N  N19  1  0.00040243  0.89922147  0.63003859  1
  N  N20  1  0.50013608  0.83149171  0.36039690  1
  N  N21  1  0.50013608  0.16850829  0.63960310  1
  N  N22  1  0.49986392  0.33149171  0.13960310  1
  N  N23  1  0.49986392  0.66850829  0.86039690  1
