# generated using pymatgen
data_Ba5Ti4MoO15
_symmetry_space_group_name_H-M   'P 1'
_cell_length_a   4.04233737
_cell_length_b   5.75349793
_cell_length_c   14.66530368
_cell_angle_alpha   78.68749255
_cell_angle_beta   90.00000000
_cell_angle_gamma   90.00000000
_symmetry_Int_Tables_number   1
_chemical_formula_structural   Ba5Ti4MoO15
_chemical_formula_sum   'Ba5 Ti4 Mo1 O15'
_cell_volume   334.45292959
_cell_formula_units_Z   1
loop_
 _symmetry_equiv_pos_site_id
 _symmetry_equiv_pos_as_xyz
  1  'x, y, z'
loop_
 _atom_site_type_symbol
 _atom_site_label
 _atom_site_symmetry_multiplicity
 _atom_site_fract_x
 _atom_site_fract_y
 _atom_site_fract_z
 _atom_site_occupancy
  Ba  Ba0  1  0.50000000  0.70010808  0.59978384  1
  Ba  Ba1  1  0.50000000  0.10136946  0.79726109  1
  Ba  Ba2  1  0.50000000  0.50000000  -0.00000000  1
  Ba  Ba3  1  0.50000000  0.89863054  0.20273891  1
  Ba  Ba4  1  0.50000000  0.29989192  0.40021616  1
  Ti  Ti5  1  -0.00000000  0.39963253  0.20073494  1
  Ti  Ti6  1  0.00000000  0.79995578  0.40008845  1
  Ti  Ti7  1  -0.00000000  0.20004422  0.59991155  1
  Ti  Ti8  1  0.00000000  0.60036747  0.79926506  1
  Mo  Mo9  1  -0.00000000  0.00000000  -0.00000000  1
  O  O10  1  -0.00000000  0.39922424  0.69944148  1
  O  O11  1  0.00000000  0.79504428  0.89727764  1
  O  O12  1  -0.00000000  0.20495572  0.10272236  1
  O  O13  1  -0.00000000  0.60077576  0.30055852  1
  O  O14  1  0.00000000  0.00000000  0.50000000  1
  O  O15  1  0.00000000  0.50000000  0.50000000  1
  O  O16  1  -0.00000000  0.90133428  0.69944148  1
  O  O17  1  -0.00000000  0.30767808  0.89727764  1
  O  O18  1  -0.00000000  0.69232192  0.10272236  1
  O  O19  1  0.00000000  0.09866572  0.30055852  1
  O  O20  1  0.50000000  0.19991496  0.60017008  1
  O  O21  1  0.50000000  0.60012261  0.79975478  1
  O  O22  1  0.50000000  0.00000000  -0.00000000  1
  O  O23  1  0.50000000  0.39987739  0.20024522  1
  O  O24  1  0.50000000  0.80008504  0.39982992  1
