# generated using pymatgen
data_Bi3Sb5Pb4O21
_symmetry_space_group_name_H-M   'P 1'
_cell_length_a   7.45923511
_cell_length_b   7.43175268
_cell_length_c   10.17960196
_cell_angle_alpha   90.35394578
_cell_angle_beta   89.69092103
_cell_angle_gamma   119.44741638
_symmetry_Int_Tables_number   1
_chemical_formula_structural   Bi3Sb5Pb4O21
_chemical_formula_sum   'Bi3 Sb5 Pb4 O21'
_cell_volume   491.39247461
_cell_formula_units_Z   1
loop_
 _symmetry_equiv_pos_site_id
 _symmetry_equiv_pos_as_xyz
  1  'x, y, z'
loop_
 _atom_site_type_symbol
 _atom_site_label
 _atom_site_symmetry_multiplicity
 _atom_site_fract_x
 _atom_site_fract_y
 _atom_site_fract_z
 _atom_site_occupancy
  Bi  Bi0  1  0.71231227  0.86198472  0.35466831  1
  Bi  Bi1  1  0.84977061  0.70243608  0.64342708  1
  Bi  Bi2  1  0.29526649  0.15368522  0.63933254  1
  Sb  Sb3  1  0.33396620  0.66375780  0.70192019  1
  Sb  Sb4  1  0.66288761  0.33069362  0.30247968  1
  Sb  Sb5  1  0.50112925  0.49966428  0.00018171  1
  Sb  Sb6  1  0.49984575  0.99936568  0.99994774  1
  Sb  Sb7  1  0.99861827  0.49959452  0.00050684  1
  Pb  Pb8  1  0.99963459  0.99869950  0.00073003  1
  Pb  Pb9  1  0.17200800  0.83851041  0.33314161  1
  Pb  Pb10  1  0.17313003  0.34262200  0.32916916  1
  Pb  Pb11  1  0.83304862  0.17313127  0.66478327  1
  O  O12  1  0.20084862  0.79438411  0.59588939  1
  O  O13  1  0.20321048  0.39933517  0.59479851  1
  O  O14  1  0.59321897  0.78933823  0.59191139  1
  O  O15  1  0.79359525  0.19673191  0.40683142  1
  O  O16  1  0.78930055  0.58991173  0.41145579  1
  O  O17  1  0.40194453  0.20080141  0.41114340  1
  O  O18  1  0.20219674  0.79731877  0.04422663  1
  O  O19  1  0.20317884  0.40564008  0.04432227  1
  O  O20  1  0.59584528  0.79726904  0.04282209  1
  O  O21  1  0.79713895  0.20177463  0.95651638  1
  O  O22  1  0.79811491  0.59666141  0.95795101  1
  O  O23  1  0.40387398  0.20156305  0.95906598  1
  O  O24  1  0.99937222  0.00302581  0.24398487  1
  O  O25  1  0.00429541  -0.00003454  0.75845037  1
  O  O26  1  0.53338528  0.46671128  0.19446019  1
  O  O27  1  0.53377636  0.06626561  0.19374417  1
  O  O28  1  0.92563500  0.46281497  0.19262412  1
  O  O29  1  0.46821975  0.52986733  0.80626686  1
  O  O30  1  0.46597729  0.93015476  0.80739452  1
  O  O31  1  0.06964616  0.53354440  0.80850543  1
  O  O32  1  0.98560775  0.97277573  0.50734702  1
