# generated using pymatgen
data_Ba3UIn2O9
_symmetry_space_group_name_H-M   'P 1'
_cell_length_a   6.09127161
_cell_length_b   6.09127161
_cell_length_c   7.51729896
_cell_angle_alpha   90.00000000
_cell_angle_beta   90.00000000
_cell_angle_gamma   120.00000000
_symmetry_Int_Tables_number   1
_chemical_formula_structural   Ba3UIn2O9
_chemical_formula_sum   'Ba3 U1 In2 O9'
_cell_volume   241.55074660
_cell_formula_units_Z   1
loop_
 _symmetry_equiv_pos_site_id
 _symmetry_equiv_pos_as_xyz
  1  'x, y, z'
loop_
 _atom_site_type_symbol
 _atom_site_label
 _atom_site_symmetry_multiplicity
 _atom_site_fract_x
 _atom_site_fract_y
 _atom_site_fract_z
 _atom_site_occupancy
  Ba  Ba0  1  0.00000000  0.00000000  0.50000000  1
  Ba  Ba1  1  0.66666700  0.33333300  0.80088677  1
  Ba  Ba2  1  0.33333300  0.66666700  0.19911323  1
  U  U3  1  0.00000000  0.00000000  0.00000000  1
  In  In4  1  0.66666700  0.33333300  0.33698634  1
  In  In5  1  0.33333300  0.66666700  0.66301366  1
  O  O6  1  0.67531446  0.83765673  0.83941617  1
  O  O7  1  0.32468554  0.16234327  0.16058383  1
  O  O8  1  0.00000000  0.50000000  0.50000000  1
  O  O9  1  0.50000000  0.00000000  0.50000000  1
  O  O10  1  0.16234327  0.32468554  0.83941617  1
  O  O11  1  0.83765673  0.67531446  0.16058383  1
  O  O12  1  0.50000000  0.50000000  0.50000000  1
  O  O13  1  0.16234327  0.83765673  0.83941617  1
  O  O14  1  0.83765673  0.16234327  0.16058383  1
