# generated using pymatgen
data_Ca4Al6MoO16
_symmetry_space_group_name_H-M   'P 1'
_cell_length_a   8.14805936
_cell_length_b   8.14805936
_cell_length_c   8.14805936
_cell_angle_alpha   69.91814488
_cell_angle_beta   71.74326467
_cell_angle_gamma   110.08185512
_symmetry_Int_Tables_number   1
_chemical_formula_structural   Ca4Al6MoO16
_chemical_formula_sum   'Ca4 Al6 Mo1 O16'
_cell_volume   416.28874284
_cell_formula_units_Z   1
loop_
 _symmetry_equiv_pos_site_id
 _symmetry_equiv_pos_as_xyz
  1  'x, y, z'
loop_
 _atom_site_type_symbol
 _atom_site_label
 _atom_site_symmetry_multiplicity
 _atom_site_fract_x
 _atom_site_fract_y
 _atom_site_fract_z
 _atom_site_occupancy
  Ca  Ca0  1  0.55766224  0.54691334  0.47420468  1
  Ca  Ca1  1  0.47420468  0.03186691  0.97888198  1
  Ca  Ca2  1  0.97888198  0.45308666  0.98925111  1
  Ca  Ca3  1  0.98925111  0.96813309  0.55766224  1
  Al  Al4  1  0.25346786  0.75990991  0.48266331  1
  Al  Al5  1  0.75000000  0.50000000  0.75000000  1
  Al  Al6  1  0.50644205  0.26386883  0.25346786  1
  Al  Al7  1  0.25000000  0.50000000  0.25000000  1
  Al  Al8  1  0.75742678  0.24009009  0.50644205  1
  Al  Al9  1  0.48266331  0.73613117  0.75742678  1
  Mo  Mo10  1  0.00000000  0.00000000  -0.00000000  1
  O  O11  1  0.69345680  0.37003322  0.62550479  1
  O  O12  1  0.41093603  0.41561180  0.30651108  1
  O  O13  1  0.38436823  0.68943024  0.60210995  1
  O  O14  1  0.30651108  0.71744711  0.27787712  1
  O  O15  1  0.62550479  0.31896158  0.00446200  1
  O  O16  1  0.60210995  0.98647818  0.70845982  1
  O  O17  1  0.00446200  0.62996678  0.67657642  1
  O  O18  1  0.27787712  0.58438820  0.00467577  1
  O  O19  1  0.70845982  0.31056976  0.30506200  1
  O  O20  1  0.00467577  0.28255289  0.41093603  1
  O  O21  1  0.67657642  0.68103842  0.69345680  1
  O  O22  1  0.30506200  0.01352182  0.38436823  1
  O  O23  1  0.26385756  0.13896151  0.90829832  1
  O  O24  1  0.90829832  0.17215587  0.95274018  1
  O  O25  1  0.95274018  0.86103849  0.87510395  1
  O  O26  1  0.87510395  0.82784413  0.26385756  1
