# generated using pymatgen
data_Ca3Cu2Ni(PO4)4
_symmetry_space_group_name_H-M   'P 1'
_cell_length_a   4.94317632
_cell_length_b   9.01682190
_cell_length_c   14.87734697
_cell_angle_alpha   94.42825189
_cell_angle_beta   90.00000000
_cell_angle_gamma   90.00000000
_symmetry_Int_Tables_number   1
_chemical_formula_structural   Ca3Cu2Ni(PO4)4
_chemical_formula_sum   'Ca6 Cu4 Ni2 P8 O32'
_cell_volume   661.12973627
_cell_formula_units_Z   2
loop_
 _symmetry_equiv_pos_site_id
 _symmetry_equiv_pos_as_xyz
  1  'x, y, z'
loop_
 _atom_site_type_symbol
 _atom_site_label
 _atom_site_symmetry_multiplicity
 _atom_site_fract_x
 _atom_site_fract_y
 _atom_site_fract_z
 _atom_site_occupancy
  Ca  Ca0  1  0.03435721  0.96232504  0.76557914  1
  Ca  Ca1  1  0.53435721  0.53767496  0.73442086  1
  Ca  Ca2  1  0.96382391  0.03814884  0.23475681  1
  Ca  Ca3  1  0.46382391  0.46185116  0.26524319  1
  Ca  Ca4  1  0.49910642  0.49943388  0.99912963  1
  Ca  Ca5  1  0.99910642  0.00056612  0.50087037  1
  Cu  Cu6  1  0.49947624  0.50078027  0.50059458  1
  Cu  Cu7  1  0.99947624  0.99921973  0.99940542  1
  Cu  Cu8  1  0.02944596  0.32683773  0.62136234  1
  Cu  Cu9  1  0.52944596  0.17316227  0.87863766  1
  Ni  Ni10  1  0.97124088  0.67935487  0.37825202  1
  Ni  Ni11  1  0.47124088  0.82064513  0.12174798  1
  P  P12  1  0.48200993  0.87611355  0.34178608  1
  P  P13  1  0.98200993  0.62388645  0.15821392  1
  P  P14  1  0.51819059  0.12415050  0.65878590  1
  P  P15  1  0.01819059  0.37584950  0.84121410  1
  P  P16  1  0.51430647  0.15563046  0.09340803  1
  P  P17  1  0.01430647  0.34436954  0.40659197  1
  P  P18  1  0.48761977  0.84364385  0.90586224  1
  P  P19  1  0.98761977  0.65635615  0.59413776  1
  O  O20  1  0.57572387  0.71299849  0.35127288  1
  O  O21  1  0.07572387  0.78700151  0.14872712  1
  O  O22  1  0.42659247  0.28771658  0.64884899  1
  O  O23  1  0.92659247  0.21228342  0.85115101  1
  O  O24  1  0.59482843  0.24777927  0.17975510  1
  O  O25  1  0.09482843  0.25222073  0.32024490  1
  O  O26  1  0.40487778  0.75317895  0.81935621  1
  O  O27  1  0.90487778  0.74682105  0.68064379  1
  O  O28  1  0.33018568  0.38740107  0.85808954  1
  O  O29  1  0.83018568  0.11259893  0.64191046  1
  O  O30  1  0.66671032  0.61783101  0.14135277  1
  O  O31  1  0.16671032  0.88216899  0.35864723  1
  O  O32  1  0.70224921  0.01219844  0.08445557  1
  O  O33  1  0.20224921  0.48780156  0.41554443  1
  O  O34  1  0.30035503  0.98899368  0.91582529  1
  O  O35  1  0.80035503  0.51100632  0.58417471  1
  O  O36  1  0.63622561  0.98972538  0.40291573  1
  O  O37  1  0.13622561  0.51027462  0.09708427  1
  O  O38  1  0.36121633  0.01019262  0.59871915  1
  O  O39  1  0.86121633  0.48980738  0.90128085  1
  O  O40  1  0.53116086  0.92014911  0.24293974  1
  O  O41  1  0.03116086  0.57985089  0.25706026  1
  O  O42  1  0.46738663  0.08044166  0.75840109  1
  O  O43  1  0.96738663  0.41955834  0.74159891  1
  O  O44  1  0.21948779  0.09311360  0.10100434  1
  O  O45  1  0.71948779  0.40688640  0.39899566  1
  O  O46  1  0.78340689  0.90373294  0.89889964  1
  O  O47  1  0.28340689  0.59626706  0.60110036  1
  O  O48  1  0.94784670  0.74369614  0.51005416  1
  O  O49  1  0.44784670  0.75630386  0.98994584  1
  O  O50  1  0.05216903  0.25683827  0.49106300  1
  O  O51  1  0.55216903  0.24316173  0.00893700  1
