# generated using pymatgen
data_Fe4O7F
_symmetry_space_group_name_H-M   'P 1'
_cell_length_a   8.89185927
_cell_length_b   5.52572549
_cell_length_c   5.52152659
_cell_angle_alpha   73.00912226
_cell_angle_beta   85.83847289
_cell_angle_gamma   85.80880760
_symmetry_Int_Tables_number   1
_chemical_formula_structural   Fe4O7F
_chemical_formula_sum   'Fe8 O14 F2'
_cell_volume   258.38577944
_cell_formula_units_Z   2
loop_
 _symmetry_equiv_pos_site_id
 _symmetry_equiv_pos_as_xyz
  1  'x, y, z'
loop_
 _atom_site_type_symbol
 _atom_site_label
 _atom_site_symmetry_multiplicity
 _atom_site_fract_x
 _atom_site_fract_y
 _atom_site_fract_z
 _atom_site_occupancy
  Fe  Fe0  1  0.61835061  0.87474759  0.88625444  1
  Fe  Fe1  1  0.88170184  0.61199395  0.62726078  1
  Fe  Fe2  1  0.50251479  0.50136492  0.50872331  1
  Fe  Fe3  1  0.24839519  0.73908383  0.73895414  1
  Fe  Fe4  1  0.75117341  0.27299052  0.23128381  1
  Fe  Fe5  1  0.12437775  0.36766361  0.37042222  1
  Fe  Fe6  1  0.38309496  0.13429642  0.13860012  1
  Fe  Fe7  1  0.98979408  0.99147589  0.99892504  1
  O  O8  1  0.74926888  0.57318754  0.93338721  1
  O  O9  1  0.49711857  0.19145785  0.81759891  1
  O  O10  1  0.47196364  0.72047083  0.72275997  1
  O  O11  1  0.72146063  0.47577620  0.47360142  1
  O  O12  1  0.96770009  0.22010852  0.21496406  1
  O  O13  1  0.28503482  0.51777129  0.52503545  1
  O  O14  1  0.02874812  0.77493033  0.77652832  1
  O  O15  1  0.53361561  0.28908721  0.28740978  1
  O  O16  1  0.77008965  0.03488622  0.02919028  1
  O  O17  1  0.24969651  0.05488658  0.44008654  1
  O  O18  1  0.49397910  0.81391207  0.20313078  1
  O  O19  1  0.00669452  0.29476395  0.68769687  1
  O  O20  1  0.24971030  0.43746431  0.05851011  1
  O  O21  1  0.00314794  0.68560275  0.30474996  1
  F  F22  1  0.74990527  0.95307166  0.55224060  1
  F  F23  1  0.22246372  0.96900598  0.97268788  1
