# generated using pymatgen
data_Ba3MgTiWO9
_symmetry_space_group_name_H-M   'P 1'
_cell_length_a   5.87090452
_cell_length_b   5.87090452
_cell_length_c   14.41616078
_cell_angle_alpha   90.00000000
_cell_angle_beta   90.00000000
_cell_angle_gamma   119.99979199
_symmetry_Int_Tables_number   1
_chemical_formula_structural   Ba3MgTiWO9
_chemical_formula_sum   'Ba6 Mg2 Ti2 W2 O18'
_cell_volume   430.31966603
_cell_formula_units_Z   2
loop_
 _symmetry_equiv_pos_site_id
 _symmetry_equiv_pos_as_xyz
  1  'x, y, z'
loop_
 _atom_site_type_symbol
 _atom_site_label
 _atom_site_symmetry_multiplicity
 _atom_site_fract_x
 _atom_site_fract_y
 _atom_site_fract_z
 _atom_site_occupancy
  Ba  Ba0  1  0.66667147  0.33332853  0.59324517  1
  Ba  Ba1  1  0.33332456  0.66667544  0.40235769  1
  Ba  Ba2  1  0.33332853  0.66667147  0.09324517  1
  Ba  Ba3  1  0.66667544  0.33332456  0.90235769  1
  Ba  Ba4  1  0.00000091  0.99999909  0.75394901  1
  Ba  Ba5  1  0.99999909  0.00000091  0.25394901  1
  Mg  Mg6  1  0.99999962  0.00000038  0.49763807  1
  Mg  Mg7  1  0.00000038  0.99999962  0.99763807  1
  Ti  Ti8  1  0.66666537  0.33333463  0.35785472  1
  Ti  Ti9  1  0.33333463  0.66666537  0.85785472  1
  W  W10  1  0.33333306  0.66666694  0.65676445  1
  W  W11  1  0.66666694  0.33333306  0.15676445  1
  O  O12  1  0.48339581  0.96680256  0.74566426  1
  O  O13  1  0.48339607  0.51660393  0.74566505  1
  O  O14  1  0.03319744  0.51660419  0.74566426  1
  O  O15  1  0.51660419  0.03319744  0.24566426  1
  O  O16  1  0.51660393  0.48339607  0.24566505  1
  O  O17  1  0.96680256  0.48339581  0.24566426  1
  O  O18  1  0.17276822  0.34554351  0.58551256  1
  O  O19  1  0.17276628  0.82723372  0.58551253  1
  O  O20  1  0.65445649  0.82723178  0.58551256  1
  O  O21  1  0.82872515  0.65744396  0.41488646  1
  O  O22  1  0.82872295  0.17127705  0.41488674  1
  O  O23  1  0.34255604  0.17127485  0.41488646  1
  O  O24  1  0.82723178  0.65445649  0.08551256  1
  O  O25  1  0.82723372  0.17276628  0.08551253  1
  O  O26  1  0.34554351  0.17276822  0.08551256  1
  O  O27  1  0.17127485  0.34255604  0.91488646  1
  O  O28  1  0.17127705  0.82872295  0.91488674  1
  O  O29  1  0.65744396  0.82872515  0.91488646  1
