# generated using pymatgen
data_BaIn3Pt
_symmetry_space_group_name_H-M   'P 1'
_cell_length_a   4.89593954
_cell_length_b   4.89593954
_cell_length_c   6.74863355
_cell_angle_alpha   68.73170878
_cell_angle_beta   68.73170878
_cell_angle_gamma   90.00000000
_symmetry_Int_Tables_number   1
_chemical_formula_structural   BaIn3Pt
_chemical_formula_sum   'Ba1 In3 Pt1'
_cell_volume   138.85971030
_cell_formula_units_Z   1
loop_
 _symmetry_equiv_pos_site_id
 _symmetry_equiv_pos_as_xyz
  1  'x, y, z'
loop_
 _atom_site_type_symbol
 _atom_site_label
 _atom_site_symmetry_multiplicity
 _atom_site_fract_x
 _atom_site_fract_y
 _atom_site_fract_z
 _atom_site_occupancy
  Ba  Ba0  1  0.00264941  0.00264941  0.99470118  1
  In  In1  1  0.76156079  0.26156079  0.47687843  1
  In  In2  1  0.26156079  0.76156079  0.47687843  1
  In  In3  1  0.60242036  0.60242036  0.79515928  1
  Pt  Pt4  1  0.37180866  0.37180866  0.25638268  1
