# generated using pymatgen
data_Ba3Sr(MoO4)4
_symmetry_space_group_name_H-M   'P 1'
_cell_length_a   5.63645610
_cell_length_b   7.55837168
_cell_length_c   10.98424122
_cell_angle_alpha   72.21427708
_cell_angle_beta   75.13151770
_cell_angle_gamma   68.10644367
_symmetry_Int_Tables_number   1
_chemical_formula_structural   Ba3Sr(MoO4)4
_chemical_formula_sum   'Ba3 Sr1 Mo4 O16'
_cell_volume   408.02462565
_cell_formula_units_Z   1
loop_
 _symmetry_equiv_pos_site_id
 _symmetry_equiv_pos_as_xyz
  1  'x, y, z'
loop_
 _atom_site_type_symbol
 _atom_site_label
 _atom_site_symmetry_multiplicity
 _atom_site_fract_x
 _atom_site_fract_y
 _atom_site_fract_z
 _atom_site_occupancy
  Ba  Ba0  1  0.37416166  0.56265982  0.68887993  1
  Ba  Ba1  1  0.37585397  0.06232213  0.18612585  1
  Ba  Ba2  1  0.62508129  0.43753602  0.31235379  1
  Sr  Sr3  1  0.62494220  0.93742988  0.81249376  1
  Mo  Mo4  1  0.87735031  0.31165377  0.93504621  1
  Mo  Mo5  1  0.87252711  0.81358207  0.44002084  1
  Mo  Mo6  1  0.12501869  0.69042570  0.05949150  1
  Mo  Mo7  1  0.12499987  0.18439088  0.56547353  1
  O  O8  1  0.91044846  0.55179861  0.85869154  1
  O  O9  1  0.91875437  0.04662913  0.35920009  1
  O  O10  1  0.67998340  0.31015665  0.09207283  1
  O  O11  1  0.67451538  0.81594881  0.59832140  1
  O  O12  1  0.27747161  0.74474100  0.16244815  1
  O  O13  1  0.29055927  0.23394970  0.66596336  1
  O  O14  1  0.80947522  0.86547230  0.03398997  1
  O  O15  1  0.81526468  0.36647265  0.54113161  1
  O  O16  1  0.08307339  0.45509807  0.13883838  1
  O  O17  1  0.06724232  0.95369474  0.64525033  1
  O  O18  1  0.33349156  0.69483534  0.90414656  1
  O  O19  1  0.32334859  0.18578336  0.40818689  1
  O  O20  1  0.71868739  0.24944022  0.83811226  1
  O  O21  1  0.71714621  0.75693264  0.33917600  1
  O  O22  1  0.19387104  0.13407756  0.95447377  1
  O  O23  1  0.18673202  0.63496892  0.46011144  1
