# generated using pymatgen
data_Ca4CoSi8(NiO8)3
_symmetry_space_group_name_H-M   'P 1'
_cell_length_a   5.30858656
_cell_length_b   9.85877502
_cell_length_c   8.99898166
_cell_angle_alpha   90.00000000
_cell_angle_beta   90.00000000
_cell_angle_gamma   105.21521058
_symmetry_Int_Tables_number   1
_chemical_formula_structural   Ca4CoSi8(NiO8)3
_chemical_formula_sum   'Ca4 Co1 Si8 Ni3 O24'
_cell_volume   454.46309504
_cell_formula_units_Z   1
loop_
 _symmetry_equiv_pos_site_id
 _symmetry_equiv_pos_as_xyz
  1  'x, y, z'
loop_
 _atom_site_type_symbol
 _atom_site_label
 _atom_site_symmetry_multiplicity
 _atom_site_fract_x
 _atom_site_fract_y
 _atom_site_fract_z
 _atom_site_occupancy
  Ca  Ca0  1  0.25000000  0.50000000  0.79711997  1
  Ca  Ca1  1  0.75000000  0.00000000  0.29719198  1
  Ca  Ca2  1  0.75000000  0.50000000  0.20322767  1
  Ca  Ca3  1  0.25000000  0.00000000  0.70290886  1
  Co  Co4  1  0.25000000  0.50000000  0.40744008  1
  Si  Si5  1  0.44188215  0.71384325  0.09249513  1
  Si  Si6  1  0.94148624  0.21327792  0.59340168  1
  Si  Si7  1  0.05811785  0.28615675  0.09249513  1
  Si  Si8  1  0.55851376  0.78672208  0.59340168  1
  Si  Si9  1  0.55829931  0.28648247  0.90695311  1
  Si  Si10  1  0.05778668  0.78699950  0.40691841  1
  Si  Si11  1  0.94170069  0.71351753  0.90695311  1
  Si  Si12  1  0.44221332  0.21300050  0.40691841  1
  Ni  Ni13  1  0.75000000  0.00000000  0.90890366  1
  Ni  Ni14  1  0.75000000  0.50000000  0.59102170  1
  Ni  Ni15  1  0.25000000  0.00000000  0.09105779  1
  O  O16  1  0.52679777  0.88442981  0.08804573  1
  O  O17  1  0.02573395  0.38414300  0.58899578  1
  O  O18  1  0.97320223  0.11557019  0.08804573  1
  O  O19  1  0.47426605  0.61585700  0.58899578  1
  O  O20  1  0.47318920  0.11578220  0.91202599  1
  O  O21  1  0.97017675  0.61631499  0.41189532  1
  O  O22  1  0.02681080  0.88421780  0.91202599  1
  O  O23  1  0.52982325  0.38368501  0.41189532  1
  O  O24  1  0.14319882  0.65077517  0.01898961  1
  O  O25  1  0.64329479  0.15046200  0.51907121  1
  O  O26  1  0.35680118  0.34922483  0.01898961  1
  O  O27  1  0.85670521  0.84953800  0.51907121  1
  O  O28  1  0.85680524  0.34922494  0.98100505  1
  O  O29  1  0.35666873  0.84896703  0.48101209  1
  O  O30  1  0.64319476  0.65077506  0.98100505  1
  O  O31  1  0.14333127  0.15103297  0.48101209  1
  O  O32  1  0.45969182  0.63788325  0.24884008  1
  O  O33  1  0.95895597  0.13720379  0.74926284  1
  O  O34  1  0.04030818  0.36211675  0.24884008  1
  O  O35  1  0.54104403  0.86279621  0.74926284  1
  O  O36  1  0.54106573  0.36276772  0.75084610  1
  O  O37  1  0.04124897  0.86289039  0.25080602  1
  O  O38  1  0.95893427  0.63723228  0.75084610  1
  O  O39  1  0.45875103  0.13710961  0.25080602  1
