# generated using pymatgen
data_P
_symmetry_space_group_name_H-M   'P 1'
_cell_length_a   6.02478933
_cell_length_b   11.86297414
_cell_length_c   12.01903084
_cell_angle_alpha   94.11353482
_cell_angle_beta   98.72841770
_cell_angle_gamma   100.18562174
_symmetry_Int_Tables_number   1
_chemical_formula_structural   P
_chemical_formula_sum   P24
_cell_volume   831.39265916
_cell_formula_units_Z   24
loop_
 _symmetry_equiv_pos_site_id
 _symmetry_equiv_pos_as_xyz
  1  'x, y, z'
loop_
 _atom_site_type_symbol
 _atom_site_label
 _atom_site_symmetry_multiplicity
 _atom_site_fract_x
 _atom_site_fract_y
 _atom_site_fract_z
 _atom_site_occupancy
  P  P0  1  0.07205808  0.00222467  0.18681852  1
  P  P1  1  0.92794192  0.99777533  0.81318148  1
  P  P2  1  0.85046667  0.95299281  0.31207705  1
  P  P3  1  0.14953333  0.04700719  0.68792295  1
  P  P4  1  0.00684319  0.13495303  0.30915672  1
  P  P5  1  0.99315681  0.86504697  0.69084328  1
  P  P6  1  0.22192753  0.01150514  0.36692665  1
  P  P7  1  0.77807247  0.98849486  0.63307335  1
  P  P8  1  0.76358452  0.36829180  0.05752250  1
  P  P9  1  0.23641548  0.63170820  0.94247750  1
  P  P10  1  0.59258400  0.18613734  0.03489470  1
  P  P11  1  0.40741600  0.81386266  0.96510530  1
  P  P12  1  0.51383105  0.30559139  0.16593007  1
  P  P13  1  0.48616895  0.69440861  0.83406993  1
  P  P14  1  0.39688379  0.32011434  0.98581447  1
  P  P15  1  0.60311621  0.67988566  0.01418553  1
  P  P16  1  0.29688342  0.68288287  0.46344774  1
  P  P17  1  0.70311658  0.31711713  0.53655226  1
  P  P18  1  0.94758760  0.62715240  0.36782435  1
  P  P19  1  0.05241240  0.37284760  0.63217565  1
  P  P20  1  0.20128420  0.51529449  0.35995403  1
  P  P21  1  0.79871580  0.48470551  0.64004597  1
  P  P22  1  0.23651916  0.67602611  0.27749274  1
  P  P23  1  0.76348084  0.32397389  0.72250726  1
