# generated using pymatgen
data_Fe3O5F
_symmetry_space_group_name_H-M   'P 1'
_cell_length_a   7.21268441
_cell_length_b   5.52980567
_cell_length_c   5.52665471
_cell_angle_alpha   72.85363908
_cell_angle_beta   71.71061732
_cell_angle_gamma   71.85061046
_symmetry_Int_Tables_number   1
_chemical_formula_structural   Fe3O5F
_chemical_formula_sum   'Fe6 O10 F2'
_cell_volume   194.07938367
_cell_formula_units_Z   2
loop_
 _symmetry_equiv_pos_site_id
 _symmetry_equiv_pos_as_xyz
  1  'x, y, z'
loop_
 _atom_site_type_symbol
 _atom_site_label
 _atom_site_symmetry_multiplicity
 _atom_site_fract_x
 _atom_site_fract_y
 _atom_site_fract_z
 _atom_site_occupancy
  Fe  Fe0  1  0.84036325  0.65284980  0.66881260  1
  Fe  Fe1  1  0.66741714  0.35797989  0.31574230  1
  Fe  Fe2  1  0.32987917  0.65334926  0.66162320  1
  Fe  Fe3  1  0.16410810  0.32883291  0.33338020  1
  Fe  Fe4  1  0.50388536  0.00633809  0.02091448  1
  Fe  Fe5  1  0.99188107  0.99524682  0.00407734  1
  O  O6  1  0.32832143  0.35934609  0.97750462  1
  O  O7  1  0.95774749  0.23143052  0.22964168  1
  O  O8  1  0.62755575  0.56547473  0.56208362  1
  O  O9  1  0.03875184  0.76498871  0.77234424  1
  O  O10  1  0.37745079  0.42838249  0.42550496  1
  O  O11  1  0.70007015  0.11442379  0.10882118  1
  O  O12  1  0.32378834  0.97323958  0.37069298  1
  O  O13  1  0.66791502  0.65646054  0.01624071  1
  O  O14  1  0.00855887  0.29330025  0.68982244  1
  O  O15  1  0.00402881  0.68611772  0.30570316  1
  F  F16  1  0.66569666  0.03519093  0.63788311  1
  F  F17  1  0.30258076  0.89704587  0.89920618  1
