# generated using pymatgen
data_Ba2NaMn3F11
_symmetry_space_group_name_H-M   'P 1'
_cell_length_a   7.11688838
_cell_length_b   7.11688879
_cell_length_c   12.63677647
_cell_angle_alpha   73.64462135
_cell_angle_beta   106.35537929
_cell_angle_gamma   119.99999653
_symmetry_Int_Tables_number   1
_chemical_formula_structural   Ba2NaMn3F11
_chemical_formula_sum   'Ba4 Na2 Mn6 F22'
_cell_volume   524.18225516
_cell_formula_units_Z   2
loop_
 _symmetry_equiv_pos_site_id
 _symmetry_equiv_pos_as_xyz
  1  'x, y, z'
loop_
 _atom_site_type_symbol
 _atom_site_label
 _atom_site_symmetry_multiplicity
 _atom_site_fract_x
 _atom_site_fract_y
 _atom_site_fract_z
 _atom_site_occupancy
  Ba  Ba0  1  0.31134968  0.68865032  0.93404904  1
  Ba  Ba1  1  0.81134968  0.18865032  0.43404904  1
  Ba  Ba2  1  0.68985426  0.31014574  0.06956278  1
  Ba  Ba3  1  0.18985426  0.81014574  0.56956278  1
  Na  Na4  1  0.50018593  0.49981407  0.50055780  1
  Na  Na5  1  0.00018593  0.99981407  0.00055780  1
  Mn  Mn6  1  0.25559511  0.19776131  0.75112788  1
  Mn  Mn7  1  0.69329408  0.74440489  0.75112788  1
  Mn  Mn8  1  0.80223869  0.30670592  0.75112788  1
  Mn  Mn9  1  0.30223869  0.24440489  0.25112788  1
  Mn  Mn10  1  0.19329408  0.69776131  0.25112788  1
  Mn  Mn11  1  0.75559511  0.80670592  0.25112788  1
  F  F12  1  0.42585833  0.57414167  0.27757500  1
  F  F13  1  0.92585833  0.07414167  0.77757500  1
  F  F14  1  0.56952026  0.43047974  0.70856078  1
  F  F15  1  0.06952026  0.93047974  0.20856078  1
  F  F16  1  0.32818002  0.33761009  0.08263429  1
  F  F17  1  0.09206436  0.67181998  0.08263429  1
  F  F18  1  0.66238991  0.90793564  0.08263429  1
  F  F19  1  0.16238991  0.17181998  0.58263429  1
  F  F20  1  0.59206436  0.83761009  0.58263429  1
  F  F21  1  0.82818002  0.40793564  0.58263429  1
  F  F22  1  0.68618966  0.67502564  0.92146879  1
  F  F23  1  0.91030477  0.31381034  0.92146879  1
  F  F24  1  0.32497436  0.08969523  0.92146879  1
  F  F25  1  0.82497436  0.81381034  0.42146879  1
  F  F26  1  0.41030477  0.17502564  0.42146879  1
  F  F27  1  0.18618966  0.58969523  0.42146879  1
  F  F28  1  0.77909676  0.50941646  0.25190057  1
  F  F29  1  0.98222026  0.22090324  0.25190057  1
  F  F30  1  0.49058354  0.01777974  0.25190057  1
  F  F31  1  0.99058354  0.72090324  0.75190057  1
  F  F32  1  0.48222026  0.00941646  0.75190057  1
  F  F33  1  0.27909676  0.51777974  0.75190057  1
