# generated using pymatgen
data_Ba4Ta10NiO30
_symmetry_space_group_name_H-M   'P 1'
_cell_length_a   7.91193281
_cell_length_b   10.03740568
_cell_length_c   10.03740568
_cell_angle_alpha   117.90682237
_cell_angle_beta   113.21125153
_cell_angle_gamma   66.78874847
_symmetry_Int_Tables_number   1
_chemical_formula_structural   Ba4Ta10NiO30
_chemical_formula_sum   'Ba4 Ta10 Ni1 O30'
_cell_volume   625.46525441
_cell_formula_units_Z   1
loop_
 _symmetry_equiv_pos_site_id
 _symmetry_equiv_pos_as_xyz
  1  'x, y, z'
loop_
 _atom_site_type_symbol
 _atom_site_label
 _atom_site_symmetry_multiplicity
 _atom_site_fract_x
 _atom_site_fract_y
 _atom_site_fract_z
 _atom_site_occupancy
  Ba  Ba0  1  0.95310576  0.79689424  0.20310576  1
  Ba  Ba1  1  0.45184681  0.79815319  0.20184681  1
  Ba  Ba2  1  0.04211399  0.20788601  0.79211399  1
  Ba  Ba3  1  0.55365569  0.19634431  0.80365569  1
  Ta  Ta4  1  0.62489121  0.18746217  0.44254329  1
  Ta  Ta5  1  0.13018991  0.18746217  0.44254329  1
  Ta  Ta6  1  0.13018991  0.55745671  0.81253783  1
  Ta  Ta7  1  0.62489121  0.55745671  0.81253783  1
  Ta  Ta8  1  0.49864560  0.00179138  0.99820862  1
  Ta  Ta9  1  0.99777164  0.00179138  0.99820862  1
  Ta  Ta10  1  0.37521366  0.44254919  0.19232736  1
  Ta  Ta11  1  0.87456450  0.44254919  0.19232736  1
  Ta  Ta12  1  0.37521366  0.80767264  0.55745081  1
  Ta  Ta13  1  0.87456450  0.80767264  0.55745081  1
  Ni  Ni14  1  0.77701756  0.47298244  0.52701756  1
  O  O15  1  0.07838911  0.03955199  0.22346620  1
  O  O16  1  0.60552509  0.03955199  0.22346620  1
  O  O17  1  0.07838911  0.77653380  0.96044801  1
  O  O18  1  0.60552509  0.77653380  0.96044801  1
  O  O19  1  0.22985559  0.50162632  0.99309165  1
  O  O20  1  0.76160974  0.50162632  0.99309165  1
  O  O21  1  0.22985559  0.00690835  0.49837368  1
  O  O22  1  0.76160974  0.00690835  0.49837368  1
  O  O23  1  0.39845553  0.22822960  0.03312056  1
  O  O24  1  0.90643543  0.22822960  0.03312056  1
  O  O25  1  0.39845553  0.96687944  0.77177040  1
  O  O26  1  0.90643543  0.96687944  0.77177040  1
  O  O27  1  0.32604640  0.67420704  0.32579296  1
  O  O28  1  0.82553951  0.67420704  0.32579296  1
  O  O29  1  0.12139630  0.45250685  0.19529945  1
  O  O30  1  0.60194817  0.46408910  0.16798543  1
  O  O31  1  0.12139630  0.80470055  0.54749315  1
  O  O32  1  0.60194817  0.83201457  0.53591090  1
  O  O33  1  0.64223072  0.33223233  0.66776767  1
  O  O34  1  0.19330462  0.33223233  0.66776767  1
  O  O35  1  0.37231808  0.18537730  0.43001347  1
  O  O36  1  0.87725781  0.22776915  0.48228477  1
  O  O37  1  0.37231808  0.56998653  0.81462270  1
  O  O38  1  0.87725781  0.51771523  0.77223085  1
  O  O39  1  0.53067091  0.36924288  0.36205277  1
  O  O40  1  0.96213897  0.36924288  0.36205277  1
  O  O41  1  0.96213897  0.63794723  0.63075712  1
  O  O42  1  0.53067091  0.63794723  0.63075712  1
  O  O43  1  0.74175529  0.00824471  0.99175529  1
  O  O44  1  0.25474637  0.99525363  0.00474637  1
