# generated using pymatgen
data_Ba3BiPb2O9
_symmetry_space_group_name_H-M   'P 1'
_cell_length_a   6.17055520
_cell_length_b   6.16980017
_cell_length_c   13.79387291
_cell_angle_alpha   77.28941686
_cell_angle_beta   77.30058571
_cell_angle_gamma   89.87089551
_symmetry_Int_Tables_number   1
_chemical_formula_structural   Ba3BiPb2O9
_chemical_formula_sum   'Ba6 Bi2 Pb4 O18'
_cell_volume   499.15936848
_cell_formula_units_Z   2
loop_
 _symmetry_equiv_pos_site_id
 _symmetry_equiv_pos_as_xyz
  1  'x, y, z'
loop_
 _atom_site_type_symbol
 _atom_site_label
 _atom_site_symmetry_multiplicity
 _atom_site_fract_x
 _atom_site_fract_y
 _atom_site_fract_z
 _atom_site_occupancy
  Ba  Ba0  1  0.08550687  0.58589276  0.83036519  1
  Ba  Ba1  1  0.41806522  0.91808557  0.16600442  1
  Ba  Ba2  1  0.75043740  0.25008281  0.50158357  1
  Ba  Ba3  1  0.91526778  0.41524743  0.16732858  1
  Ba  Ba4  1  0.24782613  0.74744024  0.50296781  1
  Ba  Ba5  1  0.58289660  0.08325119  0.83175043  1
  Bi  Bi6  1  0.49999209  0.50014806  0.99984681  1
  Bi  Bi7  1  0.83334091  0.83318494  0.33348619  1
  Pb  Pb8  1  0.16666700  0.16666700  0.66666700  1
  Pb  Pb9  1  0.00050352  0.00056390  0.99892265  1
  Pb  Pb10  1  0.33282948  0.33276910  0.33441035  1
  Pb  Pb11  1  0.66666700  0.66666700  0.66666700  1
  O  O12  1  0.78125608  0.28435281  0.98398299  1
  O  O13  1  0.11518822  0.61778164  0.31637338  1
  O  O14  1  0.45059808  0.95051972  0.64988615  1
  O  O15  1  0.21814478  0.71555136  0.01695962  1
  O  O16  1  0.55207792  0.04898119  0.34935101  1
  O  O17  1  0.88273492  0.38281328  0.68344685  1
  O  O18  1  0.72233905  0.77430911  0.00082711  1
  O  O19  1  0.05610982  0.10835974  0.33274512  1
  O  O20  1  0.38968233  0.44371997  0.66665242  1
  O  O21  1  0.44311172  0.39101259  0.16620398  1
  O  O22  1  0.77693445  0.72462833  0.49898521  1
  O  O23  1  0.11001601  0.05622862  0.83315269  1
  O  O24  1  0.55639855  0.60870467  0.83434779  1
  O  O25  1  0.89022228  0.94232141  0.16713002  1
  O  O26  1  0.22331699  0.27710438  0.50018031  1
  O  O27  1  0.27722318  0.22497326  0.00058788  1
  O  O28  1  0.61099395  0.55902389  0.33250589  1
  O  O29  1  0.94365167  0.88961403  0.66668158  1
