# generated using pymatgen
data_Ba2LaMn2O7
_symmetry_space_group_name_H-M   'P 1'
_cell_length_a   4.00776927
_cell_length_b   4.00776927
_cell_length_c   10.86810453
_cell_angle_alpha   79.37488661
_cell_angle_beta   79.37488661
_cell_angle_gamma   90.00000000
_symmetry_Int_Tables_number   1
_chemical_formula_structural   Ba2LaMn2O7
_chemical_formula_sum   'Ba2 La1 Mn2 O7'
_cell_volume   168.52668737
_cell_formula_units_Z   1
loop_
 _symmetry_equiv_pos_site_id
 _symmetry_equiv_pos_as_xyz
  1  'x, y, z'
loop_
 _atom_site_type_symbol
 _atom_site_label
 _atom_site_symmetry_multiplicity
 _atom_site_fract_x
 _atom_site_fract_y
 _atom_site_fract_z
 _atom_site_occupancy
  Ba  Ba0  1  0.31862819  0.31862819  0.36274363  1
  Ba  Ba1  1  0.68137181  0.68137181  0.63725637  1
  La  La2  1  0.50000000  0.50000000  -0.00000000  1
  Mn  Mn3  1  0.09323978  0.09323978  0.81352044  1
  Mn  Mn4  1  0.90676022  0.90676022  0.18647956  1
  O  O5  1  0.18626345  0.18626345  0.62747310  1
  O  O6  1  0.81373655  0.81373655  0.37252690  1
  O  O7  1  0.58638215  0.08638215  0.82723570  1
  O  O8  1  0.08638215  0.58638215  0.82723570  1
  O  O9  1  0.41361785  0.91361785  0.17276430  1
  O  O10  1  0.91361785  0.41361785  0.17276430  1
  O  O11  1  0.00000000  0.00000000  -0.00000000  1
