# generated using pymatgen
data_La3NbO7
_symmetry_space_group_name_H-M   'P 1'
_cell_length_a   6.78151368
_cell_length_b   6.78151368
_cell_length_c   7.85493739
_cell_angle_alpha   90.00000000
_cell_angle_beta   90.00000000
_cell_angle_gamma   111.43733600
_symmetry_Int_Tables_number   1
_chemical_formula_structural   La3NbO7
_chemical_formula_sum   'La6 Nb2 O14'
_cell_volume   336.24877857
_cell_formula_units_Z   2
loop_
 _symmetry_equiv_pos_site_id
 _symmetry_equiv_pos_as_xyz
  1  'x, y, z'
loop_
 _atom_site_type_symbol
 _atom_site_label
 _atom_site_symmetry_multiplicity
 _atom_site_fract_x
 _atom_site_fract_y
 _atom_site_fract_z
 _atom_site_occupancy
  O  O0  1  0.56327553  0.56327553  0.75000000  1
  O  O1  1  0.43672447  0.43672447  0.25000000  1
  O  O2  1  0.10740581  0.84662501  0.75000000  1
  O  O3  1  0.89259419  0.15337499  0.25000000  1
  O  O4  1  0.84662501  0.10740581  0.75000000  1
  O  O5  1  0.15337499  0.89259419  0.25000000  1
  O  O6  1  0.18700175  0.43797507  0.96788843  1
  O  O7  1  0.81299825  0.56202493  0.46788843  1
  O  O8  1  0.43797507  0.18700175  0.96788843  1
  O  O9  1  0.56202493  0.81299825  0.46788843  1
  O  O10  1  0.18700175  0.43797507  0.53211157  1
  O  O11  1  0.81299825  0.56202493  0.03211157  1
  O  O12  1  0.56202493  0.81299825  0.03211157  1
  O  O13  1  0.43797507  0.18700175  0.53211157  1
  Nb  Nb14  1  0.50000000  0.50000000  0.00000000  1
  Nb  Nb15  1  0.50000000  0.50000000  0.50000000  1
  La  La16  1  0.47783884  0.93198454  0.75000000  1
  La  La17  1  0.52216116  0.06801546  0.25000000  1
  La  La18  1  0.00000000  0.00000000  0.50000000  1
  La  La19  1  0.00000000  0.00000000  0.00000000  1
  La  La20  1  0.06801546  0.52216116  0.25000000  1
  La  La21  1  0.93198454  0.47783884  0.75000000  1
