# generated using pymatgen
data_Ba2Ti4Cr2O13
_symmetry_space_group_name_H-M   'P 1'
_cell_length_a   3.94755444
_cell_length_b   7.86714348
_cell_length_c   9.23078888
_cell_angle_alpha   98.00043981
_cell_angle_beta   90.00000000
_cell_angle_gamma   75.46989426
_symmetry_Int_Tables_number   1
_chemical_formula_structural   Ba2Ti4Cr2O13
_chemical_formula_sum   'Ba2 Ti4 Cr2 O13'
_cell_volume   274.61895065
_cell_formula_units_Z   1
loop_
 _symmetry_equiv_pos_site_id
 _symmetry_equiv_pos_as_xyz
  1  'x, y, z'
loop_
 _atom_site_type_symbol
 _atom_site_label
 _atom_site_symmetry_multiplicity
 _atom_site_fract_x
 _atom_site_fract_y
 _atom_site_fract_z
 _atom_site_occupancy
  Ba  Ba0  1  0.55186301  0.89627397  0.22597355  1
  Ba  Ba1  1  0.44813699  0.10372603  0.77402645  1
  Ti  Ti2  1  0.87636804  0.24726392  0.08801392  1
  Ti  Ti3  1  0.12363196  0.75273608  0.91198608  1
  Ti  Ti4  1  0.83377169  0.33245663  0.43716357  1
  Ti  Ti5  1  0.16622831  0.66754337  0.56283643  1
  Cr  Cr6  1  0.75571945  0.48856109  0.76017673  1
  Cr  Cr7  1  0.24428055  0.51143891  0.23982327  1
  O  O8  1  0.69946718  0.60106565  0.57174314  1
  O  O9  1  0.30053282  0.39893435  0.42825686  1
  O  O10  1  0.86963835  0.26072330  0.61852328  1
  O  O11  1  0.13036165  0.73927670  0.38147672  1
  O  O12  1  0.83077189  0.33845622  0.91917302  1
  O  O13  1  0.16922811  0.66154378  0.08082698  1
  O  O14  1  0.63155223  0.73689555  0.88445644  1
  O  O15  1  0.36844777  0.26310445  0.11554356  1
  O  O16  1  0.93128538  0.13742925  0.30452709  1
  O  O17  1  0.06871462  0.86257075  0.69547291  1
  O  O18  1  -0.00000000  0.00000000  0.00000000  1
  O  O19  1  0.76433629  0.47132741  0.24267078  1
  O  O20  1  0.23566371  0.52867259  0.75732922  1
