# generated using pymatgen
data_Al2Si2PbO8
_symmetry_space_group_name_H-M   'P 1'
_cell_length_a   7.27949721
_cell_length_b   7.86926083
_cell_length_c   7.80807627
_cell_angle_alpha   113.83043399
_cell_angle_beta   103.38274655
_cell_angle_gamma   103.51698622
_symmetry_Int_Tables_number   1
_chemical_formula_structural   Al2Si2PbO8
_chemical_formula_sum   'Al4 Si4 Pb2 O16'
_cell_volume   370.14693871
_cell_formula_units_Z   2
loop_
 _symmetry_equiv_pos_site_id
 _symmetry_equiv_pos_as_xyz
  1  'x, y, z'
loop_
 _atom_site_type_symbol
 _atom_site_label
 _atom_site_symmetry_multiplicity
 _atom_site_fract_x
 _atom_site_fract_y
 _atom_site_fract_z
 _atom_site_occupancy
  Al  Al0  1  0.22690541  0.82385980  0.18207147  1
  Al  Al1  1  0.22863980  0.18556596  0.82666730  1
  Al  Al2  1  0.77309459  0.17614020  0.81792853  1
  Al  Al3  1  0.77136020  0.81443404  0.17333270  1
  Si  Si4  1  0.34511579  0.57601169  0.80820017  1
  Si  Si5  1  0.34484525  0.80719194  0.57606739  1
  Si  Si6  1  0.65488421  0.42398831  0.19179983  1
  Si  Si7  1  0.65515475  0.19280806  0.42393261  1
  Pb  Pb8  1  0.13682129  0.24135248  0.28096939  1
  Pb  Pb9  1  0.86317871  0.75864752  0.71903061  1
  O  O10  1  0.22517376  0.68224070  0.94331184  1
  O  O11  1  0.22504159  0.94388017  0.68427333  1
  O  O12  1  0.77482624  0.31775930  0.05668816  1
  O  O13  1  0.77495841  0.05611983  0.31572667  1
  O  O14  1  0.29464732  0.60591773  0.60546518  1
  O  O15  1  0.70535268  0.39408227  0.39453482  1
  O  O16  1  0.00292889  0.87787312  0.13474757  1
  O  O17  1  0.99707111  0.12212688  0.86525243  1
  O  O18  1  0.25896009  0.71324058  0.33387319  1
  O  O19  1  0.25595829  0.33217406  0.70637073  1
  O  O20  1  0.74103991  0.28675942  0.66612681  1
  O  O21  1  0.74404171  0.66782594  0.29362927  1
  O  O22  1  0.40787127  0.07377996  0.31695356  1
  O  O23  1  0.40934077  0.31966186  0.07301147  1
  O  O24  1  0.59212873  0.92622004  0.68304644  1
  O  O25  1  0.59065923  0.68033814  0.92698853  1
