# generated using pymatgen
data_Ba10MgMn3V8(Cl3O7)4
_symmetry_space_group_name_H-M   'P 1'
_cell_length_a   5.82982578
_cell_length_b   13.57822971
_cell_length_c   16.06111490
_cell_angle_alpha   113.61671959
_cell_angle_beta   90.00000000
_cell_angle_gamma   90.00000000
_symmetry_Int_Tables_number   1
_chemical_formula_structural   Ba10MgMn3V8(Cl3O7)4
_chemical_formula_sum   'Ba10 Mg1 Mn3 V8 Cl12 O28'
_cell_volume   1164.89409559
_cell_formula_units_Z   1
loop_
 _symmetry_equiv_pos_site_id
 _symmetry_equiv_pos_as_xyz
  1  'x, y, z'
loop_
 _atom_site_type_symbol
 _atom_site_label
 _atom_site_symmetry_multiplicity
 _atom_site_fract_x
 _atom_site_fract_y
 _atom_site_fract_z
 _atom_site_occupancy
  Ba  Ba0  1  0.74762376  0.26409347  0.20568006  1
  Ba  Ba1  1  0.74762376  0.73590653  0.29431994  1
  Ba  Ba2  1  0.25236732  0.73617832  0.79430022  1
  Ba  Ba3  1  0.25236732  0.26382168  0.70569978  1
  Ba  Ba4  1  0.25146306  0.27117088  0.97803975  1
  Ba  Ba5  1  0.25146306  0.72882912  0.52196025  1
  Ba  Ba6  1  0.74853302  0.72904113  0.02220211  1
  Ba  Ba7  1  0.74853302  0.27095887  0.47779789  1
  Ba  Ba8  1  0.25397135  -0.00000000  0.25000000  1
  Ba  Ba9  1  0.74602592  -0.00000000  0.75000000  1
  Mg  Mg10  1  0.24998596  0.50000000  0.25000000  1
  Mn  Mn11  1  0.00004712  -0.00000456  0.50000820  1
  Mn  Mn12  1  0.00004712  0.00000456  -0.00000820  1
  Mn  Mn13  1  0.74958531  0.50000000  0.75000000  1
  V  V14  1  0.24798028  0.54933574  0.90594791  1
  V  V15  1  0.24798028  0.45066426  0.59405209  1
  V  V16  1  0.75216719  0.45075868  0.09501720  1
  V  V17  1  0.75216719  0.54924132  0.40498280  1
  V  V18  1  0.25069903  0.70521149  0.15153968  1
  V  V19  1  0.25069903  0.29478851  0.34846032  1
  V  V20  1  0.74931005  0.29385669  0.84924423  1
  V  V21  1  0.74931005  0.70614331  0.65075577  1
  Cl  Cl22  1  0.24339377  0.14837274  0.48667395  1
  Cl  Cl23  1  0.24339377  0.85162726  0.01332605  1
  Cl  Cl24  1  0.75656100  0.85158593  0.51332005  1
  Cl  Cl25  1  0.75656100  0.14841407  0.98667995  1
  Cl  Cl26  1  0.23159048  0.99812061  0.63643514  1
  Cl  Cl27  1  0.23159048  0.00187939  0.86356486  1
  Cl  Cl28  1  0.76839532  0.00189316  0.36355483  1
  Cl  Cl29  1  0.76839532  0.99810684  0.13644517  1
  Cl  Cl30  1  0.24436628  0.85495455  0.38824617  1
  Cl  Cl31  1  0.24436628  0.14504545  0.11175383  1
  Cl  Cl32  1  0.75564323  0.14504896  0.61172905  1
  Cl  Cl33  1  0.75564323  0.85495104  0.88827095  1
  O  O34  1  0.48364140  0.79047296  0.17804351  1
  O  O35  1  0.48364140  0.20952704  0.32195649  1
  O  O36  1  0.51573745  0.20904115  0.82201392  1
  O  O37  1  0.51573745  0.79095885  0.67798608  1
  O  O38  1  0.48627679  0.58695442  0.86018983  1
  O  O39  1  0.48627679  0.41304558  0.63981017  1
  O  O40  1  0.51233845  0.41458041  0.14119624  1
  O  O41  1  0.51233845  0.58541959  0.35880376  1
  O  O42  1  0.25179037  0.62418738  0.02858558  1
  O  O43  1  0.25179037  0.37581262  0.47141442  1
  O  O44  1  0.74826750  0.37602389  0.97208417  1
  O  O45  1  0.74826750  0.62397611  0.52791583  1
  O  O46  1  0.00727228  0.58576575  0.86095439  1
  O  O47  1  0.00727228  0.41423425  0.63904561  1
  O  O48  1  0.99426856  0.41587541  0.14060553  1
  O  O49  1  0.99426856  0.58412459  0.35939447  1
  O  O50  1  0.24987096  0.41576071  0.88150151  1
  O  O51  1  0.24987096  0.58423929  0.61849849  1
  O  O52  1  0.75013084  0.58395080  0.11834324  1
  O  O53  1  0.75013084  0.41604920  0.38165676  1
  O  O54  1  0.25326006  0.63076693  0.21602169  1
  O  O55  1  0.25326006  0.36923307  0.28397831  1
  O  O56  1  0.74663309  0.36713482  0.78380921  1
  O  O57  1  0.74663309  0.63286518  0.71619079  1
  O  O58  1  0.01566189  0.78830798  0.17741686  1
  O  O59  1  0.01566189  0.21169202  0.32258314  1
  O  O60  1  0.98492518  0.21122508  0.82263558  1
  O  O61  1  0.98492518  0.78877492  0.67736442  1
