# generated using pymatgen
data_AsPRh4
_symmetry_space_group_name_H-M   'P 1'
_cell_length_a   3.99761618
_cell_length_b   3.99761618
_cell_length_c   6.95217839
_cell_angle_alpha   73.29116750
_cell_angle_beta   90.00000000
_cell_angle_gamma   120.00000000
_symmetry_Int_Tables_number   1
_chemical_formula_structural   AsPRh4
_chemical_formula_sum   'As1 P1 Rh4'
_cell_volume   90.76039255
_cell_formula_units_Z   1
loop_
 _symmetry_equiv_pos_site_id
 _symmetry_equiv_pos_as_xyz
  1  'x, y, z'
loop_
 _atom_site_type_symbol
 _atom_site_label
 _atom_site_symmetry_multiplicity
 _atom_site_fract_x
 _atom_site_fract_y
 _atom_site_fract_z
 _atom_site_occupancy
  As  As0  1  0.50000000  0.00000000  0.50000000  1
  P  P1  1  0.00000000  -0.00000000  0.00000000  1
  Rh  Rh2  1  0.62797143  0.25594287  0.11608570  1
  Rh  Rh3  1  0.12143227  0.24286454  0.63570319  1
  Rh  Rh4  1  0.87856773  0.75713546  0.36429681  1
  Rh  Rh5  1  0.37202857  0.74405713  0.88391430  1
