# generated using pymatgen
data_Bi3As3Pb10S19
_symmetry_space_group_name_H-M   'P 1'
_cell_length_a   8.64443744
_cell_length_b   8.81924157
_cell_length_c   27.07930422
_cell_angle_alpha   90.00000000
_cell_angle_beta   90.00000000
_cell_angle_gamma   119.50067847
_symmetry_Int_Tables_number   1
_chemical_formula_structural   Bi3As3Pb10S19
_chemical_formula_sum   'Bi6 As6 Pb20 S38'
_cell_volume   1796.79835752
_cell_formula_units_Z   2
loop_
 _symmetry_equiv_pos_site_id
 _symmetry_equiv_pos_as_xyz
  1  'x, y, z'
loop_
 _atom_site_type_symbol
 _atom_site_label
 _atom_site_symmetry_multiplicity
 _atom_site_fract_x
 _atom_site_fract_y
 _atom_site_fract_z
 _atom_site_occupancy
  Bi  Bi0  1  0.75005166  0.75331282  0.50038822  1
  Bi  Bi1  1  0.24994834  0.24668718  0.00038822  1
  Bi  Bi2  1  0.25024475  0.24562964  0.50157722  1
  Bi  Bi3  1  0.74975525  0.75437036  0.00157722  1
  Bi  Bi4  1  0.56640684  0.42310047  0.75141848  1
  Bi  Bi5  1  0.43359316  0.57689953  0.25141848  1
  As  As6  1  0.91232269  0.58079129  0.62700958  1
  As  As7  1  0.08767731  0.41920871  0.12700958  1
  As  As8  1  0.08793594  0.41901152  0.37198110  1
  As  As9  1  0.91206406  0.58098848  0.87198110  1
  As  As10  1  0.59388739  0.92725336  0.78169376  1
  As  As11  1  0.40611261  0.07274664  0.28169376  1
  Pb  Pb12  1  0.25824790  0.76723012  0.50124393  1
  Pb  Pb13  1  0.74175210  0.23276988  0.00124393  1
  Pb  Pb14  1  0.73884773  0.23405233  0.50020822  1
  Pb  Pb15  1  0.26115227  0.76594767  0.00020822  1
  Pb  Pb16  1  0.91961492  0.09790916  0.62524557  1
  Pb  Pb17  1  0.08038508  0.90209084  0.12524557  1
  Pb  Pb18  1  0.07173920  0.89990920  0.37695219  1
  Pb  Pb19  1  0.92826080  0.10009080  0.87695219  1
  Pb  Pb20  1  0.06711887  0.88523671  0.75050434  1
  Pb  Pb21  1  0.93288113  0.11476329  0.25050434  1
  Pb  Pb22  1  0.40823229  0.57406705  0.62548829  1
  Pb  Pb23  1  0.59176771  0.42593295  0.12548829  1
  Pb  Pb24  1  0.59401017  0.43268448  0.37783447  1
  Pb  Pb25  1  0.40598983  0.56731552  0.87783447  1
  Pb  Pb26  1  0.41714218  0.08976437  0.62785558  1
  Pb  Pb27  1  0.58285782  0.91023563  0.12785558  1
  Pb  Pb28  1  0.58570024  0.90705191  0.37564495  1
  Pb  Pb29  1  0.41429976  0.09294809  0.87564495  1
  Pb  Pb30  1  0.07633904  0.42345691  0.75153212  1
  Pb  Pb31  1  0.92366096  0.57654309  0.25153212  1
  S  S32  1  0.27477361  0.27520036  0.68611285  1
  S  S33  1  0.72522639  0.72479964  0.18611285  1
  S  S34  1  0.72774530  0.72371842  0.31738220  1
  S  S35  1  0.27225470  0.27628158  0.81738220  1
  S  S36  1  0.59691511  0.93607485  0.56290052  1
  S  S37  1  0.40308489  0.06392515  0.06290052  1
  S  S38  1  0.40546335  0.06065896  0.43976905  1
  S  S39  1  0.59453665  0.93934104  0.93976905  1
  S  S40  1  0.45684862  0.66771999  0.74113840  1
  S  S41  1  0.54315138  0.33228001  0.24113840  1
  S  S42  1  0.54764950  0.39078389  0.55463970  1
  S  S43  1  0.45235050  0.60921611  0.05463970  1
  S  S44  1  0.45638859  0.61160732  0.44467936  1
  S  S45  1  0.54361141  0.38839268  0.94467936  1
  S  S46  1  0.45336393  0.05457635  0.74394514  1
  S  S47  1  0.54663607  0.94542365  0.24394514  1
  S  S48  1  0.77665275  0.69884515  0.67229479  1
  S  S49  1  0.22334725  0.30115485  0.17229479  1
  S  S50  1  0.22543993  0.29866395  0.32765126  1
  S  S51  1  0.77456007  0.70133605  0.82765126  1
  S  S52  1  0.09396990  0.38500183  0.55707141  1
  S  S53  1  0.90603010  0.61499817  0.05707141  1
  S  S54  1  0.90690024  0.61359568  0.44348581  1
  S  S55  1  0.09309976  0.38640432  0.94348581  1
  S  S56  1  0.78726661  0.32653641  0.67025600  1
  S  S57  1  0.21273339  0.67346359  0.17025600  1
  S  S58  1  0.21533557  0.67502247  0.32957568  1
  S  S59  1  0.78466443  0.32497753  0.82957568  1
  S  S60  1  0.85827842  0.05444096  0.74358336  1
  S  S61  1  0.14172158  0.94555904  0.24358336  1
  S  S62  1  0.17599396  0.71321896  0.66841803  1
  S  S63  1  0.82400604  0.28678104  0.16841803  1
  S  S64  1  0.82197809  0.28626579  0.33163394  1
  S  S65  1  0.17802191  0.71373421  0.83163394  1
  S  S66  1  0.10784319  0.96000540  0.55681124  1
  S  S67  1  0.89215681  0.03999460  0.05681124  1
  S  S68  1  0.89089482  0.03614865  0.44257326  1
  S  S69  1  0.10910518  0.96385135  0.94257326  1
