# generated using pymatgen
data_Fe3O5F
_symmetry_space_group_name_H-M   'P 1'
_cell_length_a   7.20218417
_cell_length_b   5.55795703
_cell_length_c   5.54129945
_cell_angle_alpha   72.58001909
_cell_angle_beta   71.48429740
_cell_angle_gamma   71.76666368
_symmetry_Int_Tables_number   1
_chemical_formula_structural   Fe3O5F
_chemical_formula_sum   'Fe6 O10 F2'
_cell_volume   194.78372234
_cell_formula_units_Z   2
loop_
 _symmetry_equiv_pos_site_id
 _symmetry_equiv_pos_as_xyz
  1  'x, y, z'
loop_
 _atom_site_type_symbol
 _atom_site_label
 _atom_site_symmetry_multiplicity
 _atom_site_fract_x
 _atom_site_fract_y
 _atom_site_fract_z
 _atom_site_occupancy
  Fe  Fe0  1  0.82798153  0.66717319  0.68003897  1
  Fe  Fe1  1  0.66717106  0.33457825  0.34163193  1
  Fe  Fe2  1  0.33029123  0.64911919  0.65864366  1
  Fe  Fe3  1  0.17151470  0.31560307  0.33090215  1
  Fe  Fe4  1  0.51017069  0.00361834  0.01024036  1
  Fe  Fe5  1  0.99068304  0.02467609  0.97815476  1
  O  O6  1  0.66539597  0.02519606  0.65401491  1
  O  O7  1  0.33165899  0.35194050  0.97242220  1
  O  O8  1  0.95833003  0.23833831  0.23102600  1
  O  O9  1  0.62814192  0.55891847  0.56669248  1
  O  O10  1  0.04028530  0.77178579  0.76448755  1
  O  O11  1  0.37621475  0.41831523  0.42983825  1
  O  O12  1  0.70109723  0.11455982  0.11574877  1
  O  O13  1  0.33660016  0.95740641  0.35657738  1
  O  O14  1  0.66064612  0.64850460  0.03717954  1
  O  O15  1  0.00297582  0.31761828  0.68035831  1
  F  F16  1  0.29652280  0.89777561  0.89736807  1
  F  F17  1  0.00431965  0.70487279  0.29467470  1
