# generated using pymatgen
data_AlIn3(CuSe2)4
_symmetry_space_group_name_H-M   'P 1'
_cell_length_a   5.82957334
_cell_length_b   7.11596899
_cell_length_c   10.88807150
_cell_angle_alpha   77.56399838
_cell_angle_beta   74.47017093
_cell_angle_gamma   65.82405022
_symmetry_Int_Tables_number   1
_chemical_formula_structural   AlIn3(CuSe2)4
_chemical_formula_sum   'Al1 In3 Cu4 Se8'
_cell_volume   394.13093061
_cell_formula_units_Z   1
loop_
 _symmetry_equiv_pos_site_id
 _symmetry_equiv_pos_as_xyz
  1  'x, y, z'
loop_
 _atom_site_type_symbol
 _atom_site_label
 _atom_site_symmetry_multiplicity
 _atom_site_fract_x
 _atom_site_fract_y
 _atom_site_fract_z
 _atom_site_occupancy
  Al  Al0  1  0.25016816  0.37508452  0.12493017  1
  In  In1  1  0.24983489  0.87487484  0.62503837  1
  In  In2  1  0.49681824  0.25078710  0.75272791  1
  In  In3  1  0.50322695  0.74926656  0.24714099  1
  Cu  Cu4  1  0.74928173  0.62302386  0.87711894  1
  Cu  Cu5  1  0.75064034  0.12698660  0.37294532  1
  Cu  Cu6  1  0.99979357  0.00058888  0.00157909  1
  Cu  Cu7  1  0.00009509  0.49942780  0.49840473  1
  Se  Se8  1  0.36411880  0.68128728  0.05156522  1
  Se  Se9  1  0.37608030  0.20461254  0.54647233  1
  Se  Se10  1  0.90115950  0.41920700  0.31401153  1
  Se  Se11  1  0.87467354  0.92099688  0.83002948  1
  Se  Se12  1  0.10305927  0.31555032  0.95167020  1
  Se  Se13  1  0.09320455  0.81242101  0.43626137  1
  Se  Se14  1  0.65999864  0.56163002  0.68704388  1
  Se  Se15  1  0.62784643  0.08425481  0.18306048  1
