# generated using pymatgen
data_Ba3WO6
_symmetry_space_group_name_H-M   'P 1'
_cell_length_a   6.14343049
_cell_length_b   6.70404720
_cell_length_c   8.94233073
_cell_angle_alpha   92.37344642
_cell_angle_beta   89.64638220
_cell_angle_gamma   90.37688894
_symmetry_Int_Tables_number   1
_chemical_formula_structural   Ba3WO6
_chemical_formula_sum   'Ba6 W2 O12'
_cell_volume   367.96714671
_cell_formula_units_Z   2
loop_
 _symmetry_equiv_pos_site_id
 _symmetry_equiv_pos_as_xyz
  1  'x, y, z'
loop_
 _atom_site_type_symbol
 _atom_site_label
 _atom_site_symmetry_multiplicity
 _atom_site_fract_x
 _atom_site_fract_y
 _atom_site_fract_z
 _atom_site_occupancy
  Ba  Ba0  1  0.51734987  0.39796177  0.04299331  1
  Ba  Ba1  1  0.99382767  0.00612969  0.52522775  1
  Ba  Ba2  1  0.02480475  0.03502421  0.99652533  1
  Ba  Ba3  1  0.50191095  0.42013361  0.50102258  1
  Ba  Ba4  1  0.01227443  0.51158280  0.76990064  1
  Ba  Ba5  1  0.50828437  0.91994374  0.26156390  1
  W  W6  1  0.50607368  0.99010929  0.76042307  1
  W  W7  1  0.00655816  0.43537706  0.27311604  1
  O  O8  1  0.50037910  0.99909946  0.98053969  1
  O  O9  1  0.23859248  0.62923132  0.28101994  1
  O  O10  1  0.65684837  0.73821336  0.74555117  1
  O  O11  1  0.78342842  0.21759092  0.26248046  1
  O  O12  1  0.98545121  0.43873205  0.05290152  1
  O  O13  1  0.02460043  0.39746873  0.49036958  1
  O  O14  1  0.23277091  0.22208905  0.24634680  1
  O  O15  1  0.51563076  0.02345515  0.54404332  1
  O  O16  1  0.34427523  0.25426161  0.77823517  1
  O  O17  1  0.77588433  0.62780388  0.30278489  1
  O  O18  1  0.78437884  0.14840290  0.77278214  1
  O  O19  1  0.22067601  0.85738938  0.75117270  1
