# generated using pymatgen
data_Ag6SbAsS6
_symmetry_space_group_name_H-M   'P 1'
_cell_length_a   7.05507895
_cell_length_b   7.05507895
_cell_length_c   7.05507908
_cell_angle_alpha   102.12427191
_cell_angle_beta   102.12427191
_cell_angle_gamma   102.12427001
_symmetry_Int_Tables_number   1
_chemical_formula_structural   Ag6SbAsS6
_chemical_formula_sum   'Ag6 Sb1 As1 S6'
_cell_volume   323.58787581
_cell_formula_units_Z   1
loop_
 _symmetry_equiv_pos_site_id
 _symmetry_equiv_pos_as_xyz
  1  'x, y, z'
loop_
 _atom_site_type_symbol
 _atom_site_label
 _atom_site_symmetry_multiplicity
 _atom_site_fract_x
 _atom_site_fract_y
 _atom_site_fract_z
 _atom_site_occupancy
  Ag  Ag0  1  0.78414208  0.97852566  0.42965421  1
  Ag  Ag1  1  0.97852566  0.42965421  0.78414208  1
  Ag  Ag2  1  0.42965421  0.78414208  0.97852566  1
  Ag  Ag3  1  0.27671196  0.93276974  0.47547883  1
  Ag  Ag4  1  0.93276974  0.47547883  0.27671196  1
  Ag  Ag5  1  0.47547883  0.27671196  0.93276974  1
  Sb  Sb6  1  0.52365930  0.52365930  0.52365930  1
  As  As7  1  0.00521217  0.00521217  0.00521217  1
  S  S8  1  0.77579877  0.09966704  0.78179269  1
  S  S9  1  0.09966704  0.78179269  0.77579877  1
  S  S10  1  0.78179269  0.77579877  0.09966704  1
  S  S11  1  0.26685114  0.27902436  0.61071207  1
  S  S12  1  0.27902436  0.61071207  0.26685114  1
  S  S13  1  0.61071207  0.26685114  0.27902436  1
