# generated using pymatgen
data_Ba5NbIr4O15
_symmetry_space_group_name_H-M   'P 1'
_cell_length_a   10.12934871
_cell_length_b   13.16982307
_cell_length_c   11.79973493
_cell_angle_alpha   76.34423260
_cell_angle_beta   73.37578696
_cell_angle_gamma   97.36368704
_symmetry_Int_Tables_number   1
_chemical_formula_structural   Ba5NbIr4O15
_chemical_formula_sum   'Ba20 Nb4 Ir16 O60'
_cell_volume   1432.93077019
_cell_formula_units_Z   4
loop_
 _symmetry_equiv_pos_site_id
 _symmetry_equiv_pos_as_xyz
  1  'x, y, z'
loop_
 _atom_site_type_symbol
 _atom_site_label
 _atom_site_symmetry_multiplicity
 _atom_site_fract_x
 _atom_site_fract_y
 _atom_site_fract_z
 _atom_site_occupancy
  Ba  Ba0  1  0.51468026  0.45696177  0.68483214  1
  Ba  Ba1  1  0.31135058  0.05605091  0.08407773  1
  Ba  Ba2  1  0.11450908  0.65650593  0.48534654  1
  Ba  Ba3  1  0.91504260  0.25436821  0.88646326  1
  Ba  Ba4  1  0.71696116  0.85827697  0.28256796  1
  Ba  Ba5  1  0.88549092  0.34349407  0.51465346  1
  Ba  Ba6  1  0.68864942  0.94394909  0.91592227  1
  Ba  Ba7  1  0.48531974  0.54303823  0.31516786  1
  Ba  Ba8  1  0.28303884  0.14172303  0.71743204  1
  Ba  Ba9  1  0.08495740  0.74563179  0.11353674  1
  Ba  Ba10  1  0.45091552  0.64587463  0.96854244  1
  Ba  Ba11  1  0.25186741  0.24581153  0.36840438  1
  Ba  Ba12  1  0.05103600  0.84731800  0.77138327  1
  Ba  Ba13  1  0.85207380  0.44533087  0.16840095  1
  Ba  Ba14  1  0.65089898  0.04562391  0.56817515  1
  Ba  Ba15  1  0.94896400  0.15268200  0.22861673  1
  Ba  Ba16  1  0.74813259  0.75418847  0.63159562  1
  Ba  Ba17  1  0.54908448  0.35412537  0.03145756  1
  Ba  Ba18  1  0.34910102  0.95437609  0.43182485  1
  Ba  Ba19  1  0.14792620  0.55466913  0.83159905  1
  Nb  Nb20  1  0.59999716  0.20008290  0.79990047  1
  Nb  Nb21  1  0.19997342  0.40006967  0.60002747  1
  Nb  Nb22  1  0.80002658  0.59993033  0.39997253  1
  Nb  Nb23  1  0.40000284  0.79991710  0.20009953  1
  Ir  Ir24  1  0.16490040  0.50573447  0.25827060  1
  Ir  Ir25  1  0.96466105  0.10571751  0.65878042  1
  Ir  Ir26  1  0.76480207  0.70572880  0.05841087  1
  Ir  Ir27  1  0.56460552  0.30562252  0.45862781  1
  Ir  Ir28  1  0.36504574  0.90556900  0.85834099  1
  Ir  Ir29  1  0.23519793  0.29427120  0.94158913  1
  Ir  Ir30  1  0.03533895  0.89428249  0.34121958  1
  Ir  Ir31  1  0.83509960  0.49426553  0.74172940  1
  Ir  Ir32  1  0.63495426  0.09443100  0.14165901  1
  Ir  Ir33  1  0.43539448  0.69437748  0.54137219  1
  Ir  Ir34  1  0.20001024  0.40004059  0.10025860  1
  Ir  Ir35  1  -0.00000000  0.00000000  0.50000000  1
  Ir  Ir36  1  0.79998976  0.59995941  0.89974140  1
  Ir  Ir37  1  0.60012318  0.19995744  0.29987677  1
  Ir  Ir38  1  0.39987682  0.80004256  0.70012323  1
  Ir  Ir39  1  -0.00000000  0.00000000  -0.00000000  1
  O  O40  1  0.34217200  0.45289047  0.17912862  1
  O  O41  1  0.14167683  0.05320659  0.57901220  1
  O  O42  1  0.94149763  0.65257752  0.97940849  1
  O  O43  1  0.74185868  0.25267892  0.37919941  1
  O  O44  1  0.54047764  0.85343992  0.78018032  1
  O  O45  1  0.05495352  0.35710136  0.27477696  1
  O  O46  1  0.85454167  0.95740410  0.67471400  1
  O  O47  1  0.65569276  0.55873061  0.07519601  1
  O  O48  1  0.45472961  0.15714382  0.47496810  1
  O  O49  1  0.25511416  0.75700872  0.87500446  1
  O  O50  1  0.15044188  0.54850020  0.08355760  1
  O  O51  1  0.95064179  0.14818674  0.48572357  1
  O  O52  1  0.75000565  0.74841343  0.88364354  1
  O  O53  1  0.55045817  0.34864190  0.28342503  1
  O  O54  1  0.35092901  0.94850203  0.68338573  1
  O  O55  1  0.05850237  0.34742248  0.02059151  1
  O  O56  1  0.85832317  0.94679341  0.42098780  1
  O  O57  1  0.65782800  0.54710953  0.82087138  1
  O  O58  1  0.45952236  0.14656008  0.21981968  1
  O  O59  1  0.25814132  0.74732108  0.62080059  1
  O  O60  1  0.34430724  0.44126939  0.92480399  1
  O  O61  1  0.14545833  0.04259590  0.32528600  1
  O  O62  1  0.94504648  0.64289864  0.72522304  1
  O  O63  1  0.74488584  0.24299128  0.12499554  1
  O  O64  1  0.54527039  0.84285618  0.52503190  1
  O  O65  1  0.24999435  0.25158657  0.11635646  1
  O  O66  1  0.04935821  0.85181326  0.51427643  1
  O  O67  1  0.84955812  0.45149980  0.91644240  1
  O  O68  1  0.64907099  0.05149797  0.31661427  1
  O  O69  1  0.44954183  0.65135810  0.71657497  1
  O  O70  1  0.42006446  0.24774958  0.87138492  1
  O  O71  1  0.22006517  0.84743869  0.27147676  1
  O  O72  1  0.01987273  0.44758408  0.67109345  1
  O  O73  1  0.82075926  0.04774252  0.07155131  1
  O  O74  1  0.61989381  0.64738170  0.47122932  1
  O  O75  1  0.11460935  0.14564488  0.97364220  1
  O  O76  1  0.91549618  0.74595312  0.37300328  1
  O  O77  1  0.71549611  0.34602936  0.77259540  1
  O  O78  1  0.51532696  0.94610074  0.17293753  1
  O  O79  1  0.31557772  0.54609518  0.57258701  1
  O  O80  1  0.21709583  0.34916236  0.76990436  1
  O  O81  1  0.01662462  0.95009110  0.16938211  1
  O  O82  1  0.81704910  0.54887644  0.56975444  1
  O  O83  1  0.61680143  0.14913288  0.96991921  1
  O  O84  1  0.41694744  0.74884911  0.36982697  1
  O  O85  1  0.98012727  0.55241592  0.32890655  1
  O  O86  1  0.77993483  0.15256131  0.72852324  1
  O  O87  1  0.57993554  0.75225042  0.12861508  1
  O  O88  1  0.38010619  0.35261830  0.52877068  1
  O  O89  1  0.17924074  0.95225748  0.92844869  1
  O  O90  1  0.28450389  0.65397064  0.22740460  1
  O  O91  1  0.08450382  0.25404688  0.62699672  1
  O  O92  1  0.88539065  0.85435512  0.02635780  1
  O  O93  1  0.68442228  0.45390482  0.42741299  1
  O  O94  1  0.48467304  0.05389926  0.82706247  1
  O  O95  1  0.18295090  0.45112356  0.43024556  1
  O  O96  1  0.98337538  0.04990890  0.83061789  1
  O  O97  1  0.78290417  0.65083764  0.23009564  1
  O  O98  1  0.58305256  0.25115089  0.63017303  1
  O  O99  1  0.38319857  0.85086712  0.03008079  1
