# generated using pymatgen
data_Ba10Pr5Ir(Ru2O15)2
_symmetry_space_group_name_H-M   'P 1'
_cell_length_a   6.10021283
_cell_length_b   25.24076763
_cell_length_c   6.10021283
_cell_angle_alpha   83.23092720
_cell_angle_beta   120.34890374
_cell_angle_gamma   96.76907280
_symmetry_Int_Tables_number   1
_chemical_formula_structural   Ba10Pr5Ir(Ru2O15)2
_chemical_formula_sum   'Ba10 Pr5 Ir1 Ru4 O30'
_cell_volume   803.04472418
_cell_formula_units_Z   1
loop_
 _symmetry_equiv_pos_site_id
 _symmetry_equiv_pos_as_xyz
  1  'x, y, z'
loop_
 _atom_site_type_symbol
 _atom_site_label
 _atom_site_symmetry_multiplicity
 _atom_site_fract_x
 _atom_site_fract_y
 _atom_site_fract_z
 _atom_site_occupancy
  Ba  Ba0  1  0.24807778  0.25194001  0.75192222  1
  Ba  Ba1  1  0.64765850  0.45092040  0.35234150  1
  Ba  Ba2  1  0.04768198  0.65093592  0.95231802  1
  Ba  Ba3  1  0.44753586  0.85062003  0.55246414  1
  Ba  Ba4  1  0.84759833  0.05013692  0.15240167  1
  Ba  Ba5  1  0.95246414  0.34937997  0.04753586  1
  Ba  Ba6  1  0.35231802  0.54906408  0.64768198  1
  Ba  Ba7  1  0.75234150  0.74907960  0.24765850  1
  Ba  Ba8  1  0.15192222  0.94805999  0.84807778  1
  Ba  Ba9  1  0.55240167  0.14986308  0.44759833  1
  Pr  Pr10  1  0.29998099  0.40008862  0.70001901  1
  Pr  Pr11  1  0.70000000  0.60000000  0.30000000  1
  Pr  Pr12  1  0.10001901  0.79991138  0.89998099  1
  Pr  Pr13  1  0.50014089  0.00007344  0.49985911  1
  Pr  Pr14  1  0.89985911  0.19992656  0.10014089  1
  Ir  Ir15  1  0.20000000  0.10000000  0.80000000  1
  Ru  Ru16  1  0.59991540  0.29975068  0.40008460  1
  Ru  Ru17  1  0.00002404  0.49993463  0.99997596  1
  Ru  Ru18  1  0.39997596  0.70006537  0.60002404  1
  Ru  Ru19  1  0.80008460  0.90024932  0.19991540  1
  O  O20  1  0.45932535  0.34544951  0.07783336  1
  O  O21  1  0.85947214  0.54562347  0.67798188  1
  O  O22  1  0.25962074  0.74561234  0.27827928  1
  O  O23  1  0.65966104  0.94588035  0.87808246  1
  O  O24  1  0.05973623  0.14543392  0.47774195  1
  O  O25  1  0.92216664  0.34544951  0.54067465  1
  O  O26  1  0.32201812  0.54562347  0.14052786  1
  O  O27  1  0.72172072  0.74561234  0.74037926  1
  O  O28  1  0.12191754  0.94588035  0.34033896  1
  O  O29  1  0.52225805  0.14543392  0.94026377  1
  O  O30  1  0.74033896  0.25411965  0.72191754  1
  O  O31  1  0.14037926  0.45438766  0.32172072  1
  O  O32  1  0.54052786  0.65437653  0.92201812  1
  O  O33  1  0.94067465  0.85455049  0.52216664  1
  O  O34  1  0.34026377  0.05456608  0.12225805  1
  O  O35  1  0.27808246  0.25411965  0.25966104  1
  O  O36  1  0.67827928  0.45438766  0.85962074  1
  O  O37  1  0.07798188  0.65437653  0.45947214  1
  O  O38  1  0.47783336  0.85455049  0.05932535  1
  O  O39  1  0.87774195  0.05456608  0.65973623  1
  O  O40  1  0.13806816  0.45442569  0.86193184  1
  O  O41  1  0.53825222  0.65441161  0.46174778  1
  O  O42  1  0.93836156  0.85457843  0.06163844  1
  O  O43  1  0.33849091  0.05462928  0.66150909  1
  O  O44  1  0.73805554  0.25415767  0.26194446  1
  O  O45  1  0.06150909  0.14537072  0.93849091  1
  O  O46  1  0.46163844  0.34542157  0.53836156  1
  O  O47  1  0.86174778  0.54558839  0.13825222  1
  O  O48  1  0.26193184  0.74557431  0.73806816  1
  O  O49  1  0.66194446  0.94584233  0.33805554  1
