# generated using pymatgen
data_Co2OF3
_symmetry_space_group_name_H-M   'P 1'
_cell_length_a   6.16452525
_cell_length_b   6.81863450
_cell_length_c   7.11435867
_cell_angle_alpha   90.00000000
_cell_angle_beta   115.67369361
_cell_angle_gamma   90.00000000
_symmetry_Int_Tables_number   1
_chemical_formula_structural   Co2OF3
_chemical_formula_sum   'Co8 O4 F12'
_cell_volume   269.51976900
_cell_formula_units_Z   4
loop_
 _symmetry_equiv_pos_site_id
 _symmetry_equiv_pos_as_xyz
  1  'x, y, z'
loop_
 _atom_site_type_symbol
 _atom_site_label
 _atom_site_symmetry_multiplicity
 _atom_site_fract_x
 _atom_site_fract_y
 _atom_site_fract_z
 _atom_site_occupancy
  Co  Co0  1  -0.00003465  0.00000000  0.00010750  1
  Co  Co1  1  0.50014215  0.00000000  0.00010750  1
  Co  Co2  1  0.50068070  0.00000000  0.50136141  1
  Co  Co3  1  0.75067137  0.50000000  0.00134274  1
  Co  Co4  1  0.24931930  0.50000000  0.99863859  1
  Co  Co5  1  0.99932863  0.00000000  0.49865726  1
  Co  Co6  1  0.24985785  0.50000000  0.49989250  1
  Co  Co7  1  0.75003465  0.50000000  0.49989250  1
  O  O8  1  0.84471215  0.00000000  0.18942431  1
  O  O9  1  0.15501373  0.00000000  0.81002645  1
  O  O10  1  0.90528785  0.50000000  0.31057569  1
  O  O11  1  0.59498627  0.50000000  0.68997355  1
  F  F12  1  0.34884772  0.00000000  0.19769544  1
  F  F13  1  0.00008601  0.30125216  0.00026275  1
  F  F14  1  0.50017674  0.30125216  0.00026275  1
  F  F15  1  0.24982326  0.19874784  0.49973725  1
  F  F16  1  0.74991399  0.19874784  0.49973725  1
  F  F17  1  0.00008601  0.69874784  0.00026275  1
  F  F18  1  0.50017674  0.69874784  0.00026275  1
  F  F19  1  0.40115228  0.50000000  0.30230456  1
  F  F20  1  0.65178541  0.00000000  0.80357081  1
  F  F21  1  0.09821459  0.50000000  0.69642919  1
  F  F22  1  0.24982326  0.80125216  0.49973725  1
  F  F23  1  0.74991399  0.80125216  0.49973725  1
