# generated using pymatgen
data_LiAlSiO4
_symmetry_space_group_name_H-M   'P 1'
_cell_length_a   10.59727687
_cell_length_b   10.59727687
_cell_length_c   11.38671468
_cell_angle_alpha   90.00000000
_cell_angle_beta   90.00000000
_cell_angle_gamma   120.00000002
_symmetry_Int_Tables_number   1
_chemical_formula_structural   LiAlSiO4
_chemical_formula_sum   'Li12 Al12 Si12 O48'
_cell_volume   1107.43343771
_cell_formula_units_Z   12
loop_
 _symmetry_equiv_pos_site_id
 _symmetry_equiv_pos_as_xyz
  1  'x, y, z'
loop_
 _atom_site_type_symbol
 _atom_site_label
 _atom_site_symmetry_multiplicity
 _atom_site_fract_x
 _atom_site_fract_y
 _atom_site_fract_z
 _atom_site_occupancy
  Li  Li0  1  0.00000000  0.50000000  0.33884927  1
  Li  Li1  1  0.50000000  0.50000000  0.00551594  1
  Li  Li2  1  0.50000000  0.00000000  0.67218261  1
  Li  Li3  1  0.00000000  0.50000000  0.99448406  1
  Li  Li4  1  0.50000000  0.50000000  0.66115073  1
  Li  Li5  1  0.50000000  0.00000000  0.32781739  1
  Li  Li6  1  0.00000000  0.50000000  0.66666667  1
  Li  Li7  1  0.50000000  0.50000000  0.33333333  1
  Li  Li8  1  0.50000000  0.00000000  0.00000000  1
  Li  Li9  1  0.00000000  0.00000000  0.16666667  1
  Li  Li10  1  0.00000000  0.00000000  0.83333333  1
  Li  Li11  1  0.00000000  0.00000000  0.50000000  1
  O  O12  1  0.30274748  0.90343028  0.40627881  1
  O  O13  1  0.39931720  0.09656972  0.59372119  1
  O  O14  1  0.69725252  0.60068280  0.92705452  1
  O  O15  1  0.30274748  0.39931720  0.92705452  1
  O  O16  1  0.60068280  0.90343028  0.59372119  1
  O  O17  1  0.39931720  0.30274748  0.73961214  1
  O  O18  1  0.90343028  0.60068280  0.07294548  1
  O  O19  1  0.90343028  0.30274748  0.26038786  1
  O  O20  1  0.69725252  0.09656972  0.40627881  1
  O  O21  1  0.09656972  0.69725252  0.26038786  1
  O  O22  1  0.60068280  0.69725252  0.73961214  1
  O  O23  1  0.09656972  0.39931720  0.07294548  1
  O  O24  1  0.60046461  0.70646152  0.26278659  1
  O  O25  1  0.89400309  0.60046461  0.59611992  1
  O  O26  1  0.70646152  0.10599691  0.92945326  1
  O  O27  1  0.29353848  0.89400309  0.92945326  1
  O  O28  1  0.10599691  0.39953539  0.59611992  1
  O  O29  1  0.89400309  0.29353848  0.73721341  1
  O  O30  1  0.39953539  0.10599691  0.07054674  1
  O  O31  1  0.39953539  0.29353848  0.26278659  1
  O  O32  1  0.70646152  0.60046461  0.40388008  1
  O  O33  1  0.29353848  0.39953539  0.40388008  1
  O  O34  1  0.10599691  0.70646152  0.73721341  1
  O  O35  1  0.60046461  0.89400309  0.07054674  1
  O  O36  1  0.60857552  0.20025985  0.25076642  1
  O  O37  1  0.40831567  0.60857552  0.58409975  1
  O  O38  1  0.20025985  0.59168433  0.91743309  1
  O  O39  1  0.79974015  0.40831567  0.91743309  1
  O  O40  1  0.59168433  0.39142448  0.58409975  1
  O  O41  1  0.40831567  0.79974015  0.74923358  1
  O  O42  1  0.39142448  0.59168433  0.08256691  1
  O  O43  1  0.39142448  0.79974015  0.25076642  1
  O  O44  1  0.20025985  0.60857552  0.41590025  1
  O  O45  1  0.79974015  0.39142448  0.41590025  1
  O  O46  1  0.59168433  0.20025985  0.74923358  1
  O  O47  1  0.60857552  0.40831567  0.08256691  1
  O  O48  1  0.91303319  0.11111575  0.57583623  1
  O  O49  1  0.19808256  0.08696681  0.90916957  1
  O  O50  1  0.80191744  0.91303319  0.90916957  1
  O  O51  1  0.08696681  0.88888425  0.57583623  1
  O  O52  1  0.91303319  0.80191744  0.75749710  1
  O  O53  1  0.88888425  0.08696681  0.09083043  1
  O  O54  1  0.88888425  0.80191744  0.24250290  1
  O  O55  1  0.19808256  0.11111575  0.42416377  1
  O  O56  1  0.80191744  0.88888425  0.42416377  1
  O  O57  1  0.08696681  0.19808256  0.75749710  1
  O  O58  1  0.11111575  0.91303319  0.09083043  1
  O  O59  1  0.11111575  0.19808256  0.24250290  1
  Al  Al60  1  0.25086287  0.00000000  0.50000000  1
  Al  Al61  1  0.25086287  0.25086287  0.83333333  1
  Al  Al62  1  0.00000000  0.74913713  0.16666667  1
  Al  Al63  1  0.00000000  0.25086287  0.16666667  1
  Al  Al64  1  0.74913713  0.74913713  0.83333333  1
  Al  Al65  1  0.74873191  0.49746381  0.50000000  1
  Al  Al66  1  0.25126809  0.50253619  0.50000000  1
  Al  Al67  1  0.74873191  0.25126809  0.83333333  1
  Al  Al68  1  0.50253619  0.25126809  0.16666667  1
  Al  Al69  1  0.49746381  0.74873191  0.16666667  1
  Al  Al70  1  0.25126809  0.74873191  0.83333333  1
  Al  Al71  1  0.74913713  0.00000000  0.50000000  1
  Si  Si72  1  0.75182482  0.50364964  0.00000000  1
  Si  Si73  1  0.50364964  0.75182482  0.66666667  1
  Si  Si74  1  0.49635036  0.24817518  0.66666667  1
  Si  Si75  1  0.75182482  0.24817518  0.33333333  1
  Si  Si76  1  0.24817518  0.49635036  0.00000000  1
  Si  Si77  1  0.75244084  0.00000000  0.00000000  1
  Si  Si78  1  0.75244084  0.75244084  0.33333333  1
  Si  Si79  1  0.00000000  0.24755916  0.66666667  1
  Si  Si80  1  0.00000000  0.75244084  0.66666667  1
  Si  Si81  1  0.24755916  0.24755916  0.33333333  1
  Si  Si82  1  0.24755916  0.00000000  0.00000000  1
  Si  Si83  1  0.24817518  0.75182482  0.33333333  1
