# generated using pymatgen
data_NdZn(BO2)5
_symmetry_space_group_name_H-M   'P 1'
_cell_length_a   7.69381808
_cell_length_b   8.78238431
_cell_length_c   9.53092833
_cell_angle_alpha   92.74951690
_cell_angle_beta   90.00000000
_cell_angle_gamma   90.00000000
_symmetry_Int_Tables_number   1
_chemical_formula_structural   NdZn(BO2)5
_chemical_formula_sum   'Nd4 Zn4 B20 O40'
_cell_volume   643.26408306
_cell_formula_units_Z   4
loop_
 _symmetry_equiv_pos_site_id
 _symmetry_equiv_pos_as_xyz
  1  'x, y, z'
loop_
 _atom_site_type_symbol
 _atom_site_label
 _atom_site_symmetry_multiplicity
 _atom_site_fract_x
 _atom_site_fract_y
 _atom_site_fract_z
 _atom_site_occupancy
  B  B0  1  0.42131860  0.08570628  0.73821159  1
  B  B1  1  0.81442888  0.56984507  0.08569519  1
  B  B2  1  0.31442888  0.93015493  0.41430481  1
  B  B3  1  0.18557112  0.43015493  0.91430481  1
  B  B4  1  0.68557112  0.06984507  0.58569519  1
  B  B5  1  0.09840005  0.65320785  0.49982097  1
  B  B6  1  0.59840005  0.84679215  0.00017903  1
  B  B7  1  0.90159995  0.34679215  0.50017903  1
  B  B8  1  0.40159995  0.15320785  0.99982097  1
  B  B9  1  0.92131860  0.41429372  0.76178841  1
  B  B10  1  0.57868140  0.91429372  0.26178841  1
  B  B11  1  0.07868140  0.58570628  0.23821159  1
  B  B12  1  0.67389366  0.51563953  0.60742783  1
  B  B13  1  0.17389366  0.98436047  0.89257217  1
  B  B14  1  0.32610634  0.48436047  0.39257217  1
  B  B15  1  0.82610634  0.01563953  0.10742783  1
  B  B16  1  0.46786601  0.28103311  0.55426041  1
  B  B17  1  0.96786601  0.21896689  0.94573959  1
  B  B18  1  0.53213399  0.71896689  0.44573959  1
  B  B19  1  0.03213399  0.78103311  0.05426041  1
  O  O20  1  0.78785401  0.53065306  0.73366971  1
  O  O21  1  0.34618692  0.49998883  0.93133828  1
  O  O22  1  0.84618692  0.00001117  0.56866172  1
  O  O23  1  0.65381308  0.50001117  0.06866172  1
  O  O24  1  0.15381308  0.99998883  0.43133828  1
  O  O25  1  0.54646718  0.76654871  0.88336008  1
  O  O26  1  0.04646718  0.73345129  0.61663992  1
  O  O27  1  0.45353282  0.23345129  0.11663992  1
  O  O28  1  0.28785401  0.96934694  0.76633029  1
  O  O29  1  0.95353282  0.26654871  0.38336008  1
  O  O30  1  0.71214599  0.03065306  0.23366971  1
  O  O31  1  0.21214599  0.46934694  0.26633029  1
  O  O32  1  0.46504149  0.18164935  0.86840188  1
  O  O33  1  0.96504149  0.31835065  0.63159812  1
  O  O34  1  0.53495851  0.81835065  0.13159812  1
  O  O35  1  0.03495851  0.68164935  0.36840188  1
  O  O36  1  0.58563042  0.01247565  0.69157470  1
  O  O37  1  0.08563042  0.48752435  0.80842530  1
  O  O38  1  0.41436958  0.98752435  0.30842530  1
  O  O39  1  0.91436958  0.51247565  0.19157470  1
  O  O40  1  0.34974599  0.18510570  0.63242639  1
  O  O41  1  0.84974599  0.31489430  0.86757361  1
  O  O42  1  0.65025401  0.81489430  0.36757361  1
  O  O43  1  0.15025401  0.68510570  0.13242639  1
  O  O44  1  0.52699185  0.41420492  0.64674113  1
  O  O45  1  0.02699185  0.08579508  0.85325887  1
  O  O46  1  0.47300815  0.58579508  0.35325887  1
  O  O47  1  0.97300815  0.91420492  0.14674113  1
  O  O48  1  0.60636386  0.67106447  0.58268331  1
  O  O49  1  0.10636386  0.82893553  0.91731669  1
  O  O50  1  0.39363614  0.32893553  0.41731669  1
  O  O51  1  0.87456951  0.68734748  0.00933399  1
  O  O52  1  0.77392446  0.45761726  0.48533899  1
  O  O53  1  0.27392446  0.04238274  0.01466101  1
  O  O54  1  0.22607554  0.54238274  0.51466101  1
  O  O55  1  0.72607554  0.95761726  0.98533899  1
  O  O56  1  0.62543049  0.18734748  0.50933399  1
  O  O57  1  0.12543049  0.31265252  0.99066601  1
  O  O58  1  0.37456951  0.81265252  0.49066601  1
  O  O59  1  0.89363614  0.17106447  0.08268331  1
  Zn  Zn60  1  0.58872534  0.39034487  0.87656575  1
  Zn  Zn61  1  0.08872534  0.10965513  0.62343425  1
  Zn  Zn62  1  0.41127466  0.60965513  0.12343425  1
  Zn  Zn63  1  0.91127466  0.89034487  0.37656575  1
  Nd  Nd64  1  0.81602962  0.81653434  0.76329075  1
  Nd  Nd65  1  0.31602962  0.68346566  0.73670925  1
  Nd  Nd66  1  0.18397038  0.18346566  0.23670925  1
  Nd  Nd67  1  0.68397038  0.31653434  0.26329075  1
