# generated using pymatgen
data_Al2Cd3(SiO4)3
_symmetry_space_group_name_H-M   'P 1'
_cell_length_a   10.36994579
_cell_length_b   10.36994579
_cell_length_c   10.36994579
_cell_angle_alpha   109.47122066
_cell_angle_beta   109.47122065
_cell_angle_gamma   109.47122059
_symmetry_Int_Tables_number   1
_chemical_formula_structural   Al2Cd3(SiO4)3
_chemical_formula_sum   'Al8 Cd12 Si12 O48'
_cell_volume   858.43529844
_cell_formula_units_Z   4
loop_
 _symmetry_equiv_pos_site_id
 _symmetry_equiv_pos_as_xyz
  1  'x, y, z'
loop_
 _atom_site_type_symbol
 _atom_site_label
 _atom_site_symmetry_multiplicity
 _atom_site_fract_x
 _atom_site_fract_y
 _atom_site_fract_z
 _atom_site_occupancy
  O  O0  1  0.69452841  0.68873721  0.08154837  1
  O  O1  1  0.68873721  0.10718884  0.99420880  1
  O  O2  1  0.61298004  0.69452841  0.50579120  1
  O  O3  1  0.50579120  0.61298004  0.69452841  1
  O  O4  1  0.08154837  0.88701996  0.39281116  1
  O  O5  1  0.39281116  0.08154837  0.88701996  1
  O  O6  1  0.10718884  0.99420880  0.68873721  1
  O  O7  1  0.61298004  0.41845163  0.10718884  1
  O  O8  1  0.50579120  0.39281116  0.81126279  1
  O  O9  1  0.88701996  0.99420880  0.80547159  1
  O  O10  1  0.41845163  0.10718884  0.61298004  1
  O  O11  1  0.81126279  0.50579120  0.39281116  1
  O  O12  1  0.99420880  0.80547159  0.88701996  1
  O  O13  1  0.08154837  0.69452841  0.68873721  1
  O  O14  1  0.68873721  0.08154837  0.69452841  1
  O  O15  1  0.10718884  0.61298004  0.41845163  1
  O  O16  1  0.81126279  0.80547159  0.41845163  1
  O  O17  1  0.39281116  0.81126279  0.50579120  1
  O  O18  1  0.41845163  0.81126279  0.80547159  1
  O  O19  1  0.80547159  0.88701996  0.99420880  1
  O  O20  1  0.80547159  0.41845163  0.81126279  1
  O  O21  1  0.88701996  0.39281116  0.08154837  1
  O  O22  1  0.99420880  0.68873721  0.10718884  1
  O  O23  1  0.69452841  0.50579120  0.61298004  1
  O  O24  1  0.30547159  0.31126279  0.91845163  1
  O  O25  1  0.31126279  0.89281116  0.00579120  1
  O  O26  1  0.38701996  0.30547159  0.49420880  1
  O  O27  1  0.49420880  0.38701996  0.30547159  1
  O  O28  1  0.91845163  0.11298004  0.60718884  1
  O  O29  1  0.60718884  0.91845163  0.11298004  1
  O  O30  1  0.89281116  0.00579120  0.31126279  1
  O  O31  1  0.38701996  0.58154837  0.89281116  1
  O  O32  1  0.49420880  0.60718884  0.18873721  1
  O  O33  1  0.11298004  0.00579120  0.19452841  1
  O  O34  1  0.58154837  0.89281116  0.38701996  1
  O  O35  1  0.18873721  0.49420880  0.60718884  1
  O  O36  1  0.00579120  0.19452841  0.11298004  1
  O  O37  1  0.91845163  0.30547159  0.31126279  1
  O  O38  1  0.31126279  0.91845163  0.30547159  1
  O  O39  1  0.89281116  0.38701996  0.58154837  1
  O  O40  1  0.18873721  0.19452841  0.58154837  1
  O  O41  1  0.60718884  0.18873721  0.49420880  1
  O  O42  1  0.58154837  0.18873721  0.19452841  1
  O  O43  1  0.19452841  0.11298004  0.00579120  1
  O  O44  1  0.19452841  0.58154837  0.18873721  1
  O  O45  1  0.11298004  0.60718884  0.91845163  1
  O  O46  1  0.00579120  0.31126279  0.89281116  1
  O  O47  1  0.30547159  0.49420880  0.38701996  1
  Al  Al48  1  0.00000000  0.50000000  0.50000000  1
  Al  Al49  1  0.50000000  0.00000000  0.50000000  1
  Al  Al50  1  0.50000000  0.50000000  0.50000000  1
  Al  Al51  1  0.50000000  0.00000000  0.00000000  1
  Al  Al52  1  0.00000000  0.00000000  0.50000000  1
  Al  Al53  1  0.00000000  0.50000000  0.00000000  1
  Al  Al54  1  0.00000000  0.00000000  0.00000000  1
  Al  Al55  1  0.50000000  0.50000000  0.00000000  1
  Si  Si56  1  0.12500000  0.87500000  0.25000000  1
  Si  Si57  1  0.37500000  0.62500000  0.75000000  1
  Si  Si58  1  0.62500000  0.75000000  0.37500000  1
  Si  Si59  1  0.25000000  0.62500000  0.37500000  1
  Si  Si60  1  0.75000000  0.37500000  0.62500000  1
  Si  Si61  1  0.87500000  0.12500000  0.75000000  1
  Si  Si62  1  0.12500000  0.75000000  0.87500000  1
  Si  Si63  1  0.62500000  0.37500000  0.25000000  1
  Si  Si64  1  0.37500000  0.25000000  0.62500000  1
  Si  Si65  1  0.75000000  0.87500000  0.12500000  1
  Si  Si66  1  0.87500000  0.25000000  0.12500000  1
  Si  Si67  1  0.25000000  0.12500000  0.87500000  1
  Cd  Cd68  1  0.25000000  0.87500000  0.62500000  1
  Cd  Cd69  1  0.87500000  0.62500000  0.25000000  1
  Cd  Cd70  1  0.62500000  0.87500000  0.75000000  1
  Cd  Cd71  1  0.87500000  0.75000000  0.62500000  1
  Cd  Cd72  1  0.62500000  0.25000000  0.87500000  1
  Cd  Cd73  1  0.75000000  0.62500000  0.87500000  1
  Cd  Cd74  1  0.75000000  0.12500000  0.37500000  1
  Cd  Cd75  1  0.12500000  0.37500000  0.75000000  1
  Cd  Cd76  1  0.37500000  0.12500000  0.25000000  1
  Cd  Cd77  1  0.12500000  0.25000000  0.37500000  1
  Cd  Cd78  1  0.37500000  0.75000000  0.12500000  1
  Cd  Cd79  1  0.25000000  0.37500000  0.12500000  1
