# generated using pymatgen
data_SrSnO3
_symmetry_space_group_name_H-M   'P 1'
_cell_length_a   5.79168589
_cell_length_b   5.79168589
_cell_length_c   5.79168589
_cell_angle_alpha   90.45478722
_cell_angle_beta   119.47603835
_cell_angle_gamma   120.00020005
_symmetry_Int_Tables_number   1
_chemical_formula_structural   SrSnO3
_chemical_formula_sum   'Sr2 Sn2 O6'
_cell_volume   137.90805229
_cell_formula_units_Z   2
loop_
 _symmetry_equiv_pos_site_id
 _symmetry_equiv_pos_as_xyz
  1  'x, y, z'
loop_
 _atom_site_type_symbol
 _atom_site_label
 _atom_site_symmetry_multiplicity
 _atom_site_fract_x
 _atom_site_fract_y
 _atom_site_fract_z
 _atom_site_occupancy
  O  O0  1  0.50000000  0.79470895  0.79470895  1
  O  O1  1  0.00000000  0.70529105  0.20529105  1
  O  O2  1  0.50000000  0.20529105  0.20529105  1
  O  O3  1  0.00000000  0.29470895  0.79470895  1
  O  O4  1  0.57993841  0.75000000  0.32993841  1
  O  O5  1  0.42006159  0.25000000  0.67006159  1
  Sr  Sr6  1  0.99038372  0.25000000  0.24038372  1
  Sr  Sr7  1  0.00961628  0.75000000  0.75961628  1
  Sn  Sn8  1  0.50000000  0.00000000  0.50000000  1
  Sn  Sn9  1  0.50000000  0.50000000  0.00000000  1
