# generated using pymatgen
data_NaZr2TiF11
_symmetry_space_group_name_H-M   'P 1'
_cell_length_a   5.77834830
_cell_length_b   5.77834830
_cell_length_c   7.93189737
_cell_angle_alpha   69.30366289
_cell_angle_beta   69.30366288
_cell_angle_gamma   73.08863876
_symmetry_Int_Tables_number   1
_chemical_formula_structural   NaZr2TiF11
_chemical_formula_sum   'Na1 Zr2 Ti1 F11'
_cell_volume   227.55394036
_cell_formula_units_Z   1
loop_
 _symmetry_equiv_pos_site_id
 _symmetry_equiv_pos_as_xyz
  1  'x, y, z'
loop_
 _atom_site_type_symbol
 _atom_site_label
 _atom_site_symmetry_multiplicity
 _atom_site_fract_x
 _atom_site_fract_y
 _atom_site_fract_z
 _atom_site_occupancy
  F  F0  1  0.80917816  0.21955838  0.69007438  1
  F  F1  1  0.78044162  0.19082184  0.30992562  1
  F  F2  1  0.19082184  0.78044162  0.30992562  1
  F  F3  1  0.21955838  0.80917816  0.69007438  1
  F  F4  1  0.50000000  0.50000000  0.50000000  1
  F  F5  1  0.32930814  0.67069186  0.00000000  1
  F  F6  1  0.67069186  0.32930814  0.00000000  1
  F  F7  1  0.24419999  0.24419999  0.35872420  1
  F  F8  1  0.75580001  0.75580001  0.64127580  1
  F  F9  1  0.26572865  0.26572865  0.88918037  1
  F  F10  1  0.73427135  0.73427135  0.11081963  1
  Na  Na11  1  0.00000000  0.00000000  0.00000000  1
  Ti  Ti12  1  0.00000000  0.00000000  0.50000000  1
  Zr  Zr13  1  0.50432711  0.50432711  0.76543582  1
  Zr  Zr14  1  0.49567289  0.49567289  0.23456418  1
