# generated using pymatgen
data_Cs2NaTiF6
_symmetry_space_group_name_H-M   'P 1'
_cell_length_a   11.09355201
_cell_length_b   11.09355201
_cell_length_c   11.09355201
_cell_angle_alpha   33.45975728
_cell_angle_beta   33.45975727
_cell_angle_gamma   33.45975728
_symmetry_Int_Tables_number   1
_chemical_formula_structural   Cs2NaTiF6
_chemical_formula_sum   'Cs4 Na2 Ti2 F12'
_cell_volume   369.60837281
_cell_formula_units_Z   2
loop_
 _symmetry_equiv_pos_site_id
 _symmetry_equiv_pos_as_xyz
  1  'x, y, z'
loop_
 _atom_site_type_symbol
 _atom_site_label
 _atom_site_symmetry_multiplicity
 _atom_site_fract_x
 _atom_site_fract_y
 _atom_site_fract_z
 _atom_site_occupancy
  F  F0  1  0.18552551  0.18552551  0.73935851  1
  F  F1  1  0.18552551  0.73935851  0.18552551  1
  F  F2  1  0.73935851  0.18552551  0.18552551  1
  F  F3  1  0.26064149  0.81447449  0.81447449  1
  F  F4  1  0.81447449  0.81447449  0.26064149  1
  F  F5  1  0.81447449  0.26064149  0.81447449  1
  F  F6  1  0.39551800  0.39551800  0.82522067  1
  F  F7  1  0.39551800  0.82522067  0.39551800  1
  F  F8  1  0.60448200  0.17477933  0.60448200  1
  F  F9  1  0.60448200  0.60448200  0.17477933  1
  F  F10  1  0.17477933  0.60448200  0.60448200  1
  F  F11  1  0.82522067  0.39551800  0.39551800  1
  Na  Na12  1  0.40277964  0.40277964  0.40277964  1
  Na  Na13  1  0.59722036  0.59722036  0.59722036  1
  Ti  Ti14  1  0.00000000  0.00000000  0.00000000  1
  Ti  Ti15  1  0.50000000  0.50000000  0.50000000  1
  Cs  Cs16  1  0.71844202  0.71844202  0.71844202  1
  Cs  Cs17  1  0.28155798  0.28155798  0.28155798  1
  Cs  Cs18  1  0.87201284  0.87201284  0.87201284  1
  Cs  Cs19  1  0.12798716  0.12798716  0.12798716  1
