# generated using pymatgen
data_SrCu2SnS4
_symmetry_space_group_name_H-M   'P 1'
_cell_length_a   6.34658273
_cell_length_b   6.34658273
_cell_length_c   15.59178774
_cell_angle_alpha   90.00000000
_cell_angle_beta   90.00000000
_cell_angle_gamma   119.99999998
_symmetry_Int_Tables_number   1
_chemical_formula_structural   SrCu2SnS4
_chemical_formula_sum   'Sr3 Cu6 Sn3 S12'
_cell_volume   543.88419254
_cell_formula_units_Z   3
loop_
 _symmetry_equiv_pos_site_id
 _symmetry_equiv_pos_as_xyz
  1  'x, y, z'
loop_
 _atom_site_type_symbol
 _atom_site_label
 _atom_site_symmetry_multiplicity
 _atom_site_fract_x
 _atom_site_fract_y
 _atom_site_fract_z
 _atom_site_occupancy
  S  S0  1  0.09768934  0.31361636  0.75260258  1
  S  S1  1  0.21592702  0.90231066  0.41926925  1
  S  S2  1  0.68638364  0.78407298  0.08593591  1
  S  S3  1  0.45093803  0.02001775  0.74346374  1
  S  S4  1  0.56907973  0.54906197  0.41013040  1
  S  S5  1  0.97998225  0.43092027  0.07679707  1
  S  S6  1  0.28865782  0.10790909  0.96072867  1
  S  S7  1  0.81925127  0.71134218  0.62739534  1
  S  S8  1  0.37789956  0.15225563  0.20208560  1
  S  S9  1  0.77435607  0.62210044  0.86875227  1
  S  S10  1  0.84774437  0.22564393  0.53541893  1
  S  S11  1  0.89209091  0.18074873  0.29406200  1
  Cu  Cu12  1  0.77037698  0.03077579  0.66915510  1
  Cu  Cu13  1  0.89654648  0.59388650  0.49360016  1
  Cu  Cu14  1  0.69734002  0.10345352  0.16026683  1
  Cu  Cu15  1  0.96922421  0.73960120  0.00248844  1
  Cu  Cu16  1  0.26039880  0.22962302  0.33582177  1
  Cu  Cu17  1  0.40611350  0.30265998  0.82693349  1
  Sr  Sr18  1  0.89581441  0.66653199  0.24794331  1
  Sr  Sr19  1  0.33346801  0.22928242  0.58127664  1
  Sr  Sr20  1  0.77071758  0.10418559  0.91460998  1
  Sn  Sn21  1  0.03872190  0.66685020  0.74815418  1
  Sn  Sn22  1  0.62812830  0.96127810  0.41482085  1
  Sn  Sn23  1  0.33314980  0.37187170  0.08148751  1
