# generated using pymatgen
data_Ba3Sc4(CuO4)3
_symmetry_space_group_name_H-M   'P 1'
_cell_length_a   8.46111751
_cell_length_b   9.50341897
_cell_length_c   9.50341897
_cell_angle_alpha   78.57009265
_cell_angle_beta   63.56631112
_cell_angle_gamma   63.56631111
_symmetry_Int_Tables_number   1
_chemical_formula_structural   Ba3Sc4(CuO4)3
_chemical_formula_sum   'Ba6 Sc8 Cu6 O24'
_cell_volume   612.73166338
_cell_formula_units_Z   2
loop_
 _symmetry_equiv_pos_site_id
 _symmetry_equiv_pos_as_xyz
  1  'x, y, z'
loop_
 _atom_site_type_symbol
 _atom_site_label
 _atom_site_symmetry_multiplicity
 _atom_site_fract_x
 _atom_site_fract_y
 _atom_site_fract_z
 _atom_site_occupancy
  O  O0  1  0.73757916  0.26103964  0.26380203  1
  O  O1  1  0.26242084  0.73896036  0.73619797  1
  O  O2  1  0.00138119  0.73619797  0.26103964  1
  O  O3  1  0.99861881  0.26380203  0.73896036  1
  O  O4  1  0.76242084  0.73619797  0.73896036  1
  O  O5  1  0.50138119  0.26103964  0.73619797  1
  O  O6  1  0.49861881  0.73896036  0.26380203  1
  O  O7  1  0.23757916  0.26380203  0.26103964  1
  O  O8  1  0.87749649  0.00000000  0.74500702  1
  O  O9  1  0.62250351  0.25499298  0.00000000  1
  O  O10  1  0.87749649  0.74500702  0.00000000  1
  O  O11  1  0.62250351  0.00000000  0.25499298  1
  O  O12  1  0.12250351  0.00000000  0.25499298  1
  O  O13  1  0.37749649  0.74500702  0.00000000  1
  O  O14  1  0.12250351  0.25499298  0.00000000  1
  O  O15  1  0.37749649  0.00000000  0.74500702  1
  O  O16  1  0.38531334  0.26794879  0.50000000  1
  O  O17  1  0.15326213  0.73205121  0.50000000  1
  O  O18  1  0.88531334  0.50000000  0.26794879  1
  O  O19  1  0.65326213  0.50000000  0.73205121  1
  O  O20  1  0.34673787  0.50000000  0.26794879  1
  O  O21  1  0.61468666  0.73205121  0.50000000  1
  O  O22  1  0.84673787  0.26794879  0.50000000  1
  O  O23  1  0.11468666  0.50000000  0.73205121  1
  Sc  Sc24  1  0.99110086  0.75889914  0.75889914  1
  Sc  Sc25  1  0.75000000  0.24110086  0.75889914  1
  Sc  Sc26  1  0.75000000  0.75889914  0.24110086  1
  Sc  Sc27  1  0.50889914  0.24110086  0.24110086  1
  Sc  Sc28  1  0.00889914  0.24110086  0.24110086  1
  Sc  Sc29  1  0.25000000  0.75889914  0.24110086  1
  Sc  Sc30  1  0.25000000  0.24110086  0.75889914  1
  Sc  Sc31  1  0.49110086  0.75889914  0.75889914  1
  Cu  Cu32  1  0.89630176  0.50000000  0.70739648  1
  Cu  Cu33  1  0.60369824  0.29260352  0.50000000  1
  Cu  Cu34  1  0.39630176  0.70739648  0.50000000  1
  Cu  Cu35  1  0.10369824  0.50000000  0.29260352  1
  Cu  Cu36  1  0.25000000  0.50000000  0.50000000  1
  Cu  Cu37  1  0.75000000  0.50000000  0.50000000  1
  Ba  Ba38  1  0.72284963  0.50000000  0.05430073  1
  Ba  Ba39  1  0.77715037  0.94569927  0.50000000  1
  Ba  Ba40  1  0.22284963  0.05430073  0.50000000  1
  Ba  Ba41  1  0.27715037  0.50000000  0.94569927  1
  Ba  Ba42  1  0.50000000  0.00000000  0.00000000  1
  Ba  Ba43  1  0.00000000  0.00000000  0.00000000  1
