# generated using pymatgen
data_Nd2Si2O7
_symmetry_space_group_name_H-M   'P 1'
_cell_length_a   6.73739559
_cell_length_b   6.82261164
_cell_length_c   12.51637409
_cell_angle_alpha   90.00000000
_cell_angle_beta   101.72940491
_cell_angle_gamma   90.00000000
_symmetry_Int_Tables_number   1
_chemical_formula_structural   Nd2Si2O7
_chemical_formula_sum   'Nd8 Si8 O28'
_cell_volume   563.32177384
_cell_formula_units_Z   4
loop_
 _symmetry_equiv_pos_site_id
 _symmetry_equiv_pos_as_xyz
  1  'x, y, z'
loop_
 _atom_site_type_symbol
 _atom_site_label
 _atom_site_symmetry_multiplicity
 _atom_site_fract_x
 _atom_site_fract_y
 _atom_site_fract_z
 _atom_site_occupancy
  O  O0  1  0.29814970  0.10491249  0.96104242  1
  O  O1  1  0.20185030  0.60491249  0.53895758  1
  O  O2  1  0.70185030  0.89508751  0.03895758  1
  O  O3  1  0.79814970  0.39508751  0.46104242  1
  O  O4  1  0.35473737  0.82629397  0.15371465  1
  O  O5  1  0.14526263  0.32629397  0.34628535  1
  O  O6  1  0.64526263  0.17370603  0.84628535  1
  O  O7  1  0.85473737  0.67370603  0.65371465  1
  O  O8  1  0.03532926  0.58785504  0.15839482  1
  O  O9  1  0.46467074  0.08785504  0.34160518  1
  O  O10  1  0.96467074  0.41214496  0.84160518  1
  O  O11  1  0.53532926  0.91214496  0.65839482  1
  O  O12  1  0.00076438  0.98746859  0.79243621  1
  O  O13  1  0.49923562  0.48746859  0.70756379  1
  O  O14  1  0.99923562  0.01253141  0.20756379  1
  O  O15  1  0.50076438  0.51253141  0.29243621  1
  O  O16  1  0.56948323  0.71853712  0.47099303  1
  O  O17  1  0.93051677  0.21853712  0.02900697  1
  O  O18  1  0.43051677  0.28146288  0.52900697  1
  O  O19  1  0.06948323  0.78146288  0.97099303  1
  O  O20  1  0.82581154  0.01029713  0.55034596  1
  O  O21  1  0.67418846  0.51029713  0.94965404  1
  O  O22  1  0.17418846  0.98970287  0.44965404  1
  O  O23  1  0.32581154  0.48970287  0.05034596  1
  O  O24  1  0.83425697  0.71991021  0.33481766  1
  O  O25  1  0.66574303  0.21991021  0.16518234  1
  O  O26  1  0.16574303  0.28008979  0.66518234  1
  O  O27  1  0.33425697  0.78008979  0.83481766  1
  Si  Si28  1  0.18570740  0.92129283  0.89213959  1
  Si  Si29  1  0.31429260  0.42129283  0.60786041  1
  Si  Si30  1  0.81429260  0.07870717  0.10786041  1
  Si  Si31  1  0.68570740  0.57870717  0.39213959  1
  Si  Si32  1  0.19006581  0.67248122  0.08567168  1
  Si  Si33  1  0.30993419  0.17248122  0.41432832  1
  Si  Si34  1  0.80993419  0.32751878  0.91432832  1
  Si  Si35  1  0.69006581  0.82751878  0.58567168  1
  Nd  Nd36  1  0.70113182  0.82196716  0.84489930  1
  Nd  Nd37  1  0.79886818  0.32196716  0.65510070  1
  Nd  Nd38  1  0.29886818  0.17803284  0.15510070  1
  Nd  Nd39  1  0.20113182  0.67803284  0.34489930  1
  Nd  Nd40  1  0.66796035  0.60824859  0.13871791  1
  Nd  Nd41  1  0.83203965  0.10824859  0.36128209  1
  Nd  Nd42  1  0.33203965  0.39175141  0.86128209  1
  Nd  Nd43  1  0.16796035  0.89175141  0.63871791  1
