# generated using pymatgen
data_Li4Mn3Nb(PO4)4
_symmetry_space_group_name_H-M   'P 1'
_cell_length_a   4.79034902
_cell_length_b   10.66667165
_cell_length_c   6.23068074
_cell_angle_alpha   90.00000000
_cell_angle_beta   90.00000000
_cell_angle_gamma   90.01181106
_symmetry_Int_Tables_number   1
_chemical_formula_structural   Li4Mn3Nb(PO4)4
_chemical_formula_sum   'Li4 Mn3 Nb1 P4 O16'
_cell_volume   318.36958626
_cell_formula_units_Z   1
loop_
 _symmetry_equiv_pos_site_id
 _symmetry_equiv_pos_as_xyz
  1  'x, y, z'
loop_
 _atom_site_type_symbol
 _atom_site_label
 _atom_site_symmetry_multiplicity
 _atom_site_fract_x
 _atom_site_fract_y
 _atom_site_fract_z
 _atom_site_occupancy
  Li  Li0  1  -0.00000285  0.99791393  0.99853665  1
  Li  Li1  1  -0.00000285  0.99791393  0.50146335  1
  Li  Li2  1  0.50090264  0.49933162  0.49694749  1
  Li  Li3  1  0.50090264  0.49933162  0.00305251  1
  Mn  Mn4  1  0.02817165  0.71940076  0.75000000  1
  Mn  Mn5  1  0.47615460  0.21940063  0.75000000  1
  Mn  Mn6  1  0.52847850  0.78141905  0.25000000  1
  Nb  Nb7  1  0.97216690  0.27690396  0.25000000  1
  P  P8  1  0.09080839  0.59482845  0.25000000  1
  P  P9  1  0.41160115  0.08924343  0.25000000  1
  P  P10  1  0.59015963  0.90789490  0.75000000  1
  P  P11  1  0.90683885  0.41091309  0.75000000  1
  O  O12  1  0.21476825  0.45966667  0.25000000  1
  O  O13  1  0.22291626  0.66325629  0.05057508  1
  O  O14  1  0.22291626  0.66325629  0.44942492  1
  O  O15  1  0.22751270  0.40293656  0.75000000  1
  O  O16  1  0.26917203  0.90357704  0.75000000  1
  O  O17  1  0.28294940  0.15792930  0.04779653  1
  O  O18  1  0.28294940  0.15792930  0.45220347  1
  O  O19  1  0.28585201  0.95503143  0.25000000  1
  O  O20  1  0.71129756  0.04378359  0.75000000  1
  O  O21  1  0.72233155  0.83947658  0.55071538  1
  O  O22  1  0.72233155  0.83947658  0.94928462  1
  O  O23  1  0.73274343  0.08849157  0.25000000  1
  O  O24  1  0.77002265  0.59863457  0.25000000  1
  O  O25  1  0.76742543  0.34254797  0.55386147  1
  O  O26  1  0.76742543  0.34254797  0.94613853  1
  O  O27  1  0.79120583  0.54696192  0.75000000  1
