# generated using pymatgen
data_ZrCr5P3
_symmetry_space_group_name_H-M   'P 1'
_cell_length_a   3.65400263
_cell_length_b   6.88822738
_cell_length_c   9.35477826
_cell_angle_alpha   100.21587780
_cell_angle_beta   90.00000000
_cell_angle_gamma   90.00000000
_symmetry_Int_Tables_number   1
_chemical_formula_structural   ZrCr5P3
_chemical_formula_sum   'Zr2 Cr10 P6'
_cell_volume   231.72323303
_cell_formula_units_Z   2
loop_
 _symmetry_equiv_pos_site_id
 _symmetry_equiv_pos_as_xyz
  1  'x, y, z'
loop_
 _atom_site_type_symbol
 _atom_site_label
 _atom_site_symmetry_multiplicity
 _atom_site_fract_x
 _atom_site_fract_y
 _atom_site_fract_z
 _atom_site_occupancy
  P  P0  1  0.75000000  0.09164134  0.33179003  1
  P  P1  1  0.25000000  0.90835866  0.66820997  1
  P  P2  1  0.75000000  0.56266305  0.32449400  1
  P  P3  1  0.25000000  0.43733695  0.67550600  1
  P  P4  1  0.75000000  0.75331448  0.98717213  1
  P  P5  1  0.25000000  0.24668552  0.01282787  1
  Cr  Cr6  1  0.75000000  0.68578068  0.72346609  1
  Cr  Cr7  1  0.25000000  0.54120776  0.92478247  1
  Cr  Cr8  1  0.25000000  0.91493612  0.91573810  1
  Cr  Cr9  1  0.75000000  0.08506388  0.08426190  1
  Cr  Cr10  1  0.25000000  0.62713147  0.49083967  1
  Cr  Cr11  1  0.75000000  0.37286853  0.50916033  1
  Cr  Cr12  1  0.75000000  0.86511884  0.49367859  1
  Cr  Cr13  1  0.25000000  0.13488116  0.50632141  1
  Cr  Cr14  1  0.75000000  0.45879224  0.07521753  1
  Cr  Cr15  1  0.25000000  0.31421932  0.27653391  1
  Zr  Zr16  1  0.75000000  0.19152154  0.77911079  1
  Zr  Zr17  1  0.25000000  0.80847846  0.22088921  1
