# generated using pymatgen
data_SrCu2SnS4
_symmetry_space_group_name_H-M   'P 1'
_cell_length_a   6.34706515
_cell_length_b   6.34706515
_cell_length_c   15.58948175
_cell_angle_alpha   90.00000000
_cell_angle_beta   90.00000000
_cell_angle_gamma   119.99999996
_symmetry_Int_Tables_number   1
_chemical_formula_structural   SrCu2SnS4
_chemical_formula_sum   'Sr3 Cu6 Sn3 S12'
_cell_volume   543.88642847
_cell_formula_units_Z   3
loop_
 _symmetry_equiv_pos_site_id
 _symmetry_equiv_pos_as_xyz
  1  'x, y, z'
loop_
 _atom_site_type_symbol
 _atom_site_label
 _atom_site_symmetry_multiplicity
 _atom_site_fract_x
 _atom_site_fract_y
 _atom_site_fract_z
 _atom_site_occupancy
  S  S0  1  0.64689195  0.76413324  0.33800339  1
  S  S1  1  0.23586676  0.88275871  0.00467006  1
  S  S2  1  0.11724129  0.35310805  0.67133672  1
  S  S3  1  0.88275871  0.23586676  0.99532994  1
  S  S4  1  0.35310805  0.11724129  0.32866328  1
  S  S5  1  0.76413324  0.64689195  0.66199661  1
  S  S6  1  0.95512237  0.44077796  0.45401908  1
  S  S7  1  0.55922204  0.51434441  0.12068575  1
  S  S8  1  0.44077796  0.95512237  0.54598092  1
  S  S9  1  0.51434441  0.55922204  0.87931425  1
  S  S10  1  0.04487763  0.48565559  0.21264759  1
  S  S11  1  0.48565559  0.04487763  0.78735241  1
  Cu  Cu12  1  0.92735741  0.56292814  0.07889671  1
  Cu  Cu13  1  0.36442927  0.43707186  0.25443662  1
  Cu  Cu14  1  0.07264259  0.63557073  0.58776995  1
  Cu  Cu15  1  0.63557073  0.07264259  0.41223005  1
  Cu  Cu16  1  0.43707186  0.36442927  0.74556338  1
  Cu  Cu17  1  0.56292814  0.92735741  0.92110329  1
  Sr  Sr18  1  0.00000000  0.56298884  0.83333333  1
  Sr  Sr19  1  0.56298884  0.00000000  0.16666667  1
  Sr  Sr20  1  0.43701116  0.43701116  0.50000000  1
  Sn  Sn21  1  0.70498067  0.00000000  0.66666667  1
  Sn  Sn22  1  0.00000000  0.70498067  0.33333333  1
  Sn  Sn23  1  0.29501933  0.29501933  0.00000000  1
