# generated using pymatgen
data_Tm2Cu(B2O5)2
_symmetry_space_group_name_H-M   'P 1'
_cell_length_a   4.57939662
_cell_length_b   7.24172052
_cell_length_c   9.32540570
_cell_angle_alpha   90.00000000
_cell_angle_beta   90.26139146
_cell_angle_gamma   90.00000000
_symmetry_Int_Tables_number   1
_chemical_formula_structural   Tm2Cu(B2O5)2
_chemical_formula_sum   'Tm4 Cu2 B8 O20'
_cell_volume   309.25251081
_cell_formula_units_Z   2
loop_
 _symmetry_equiv_pos_site_id
 _symmetry_equiv_pos_as_xyz
  1  'x, y, z'
loop_
 _atom_site_type_symbol
 _atom_site_label
 _atom_site_symmetry_multiplicity
 _atom_site_fract_x
 _atom_site_fract_y
 _atom_site_fract_z
 _atom_site_occupancy
  B  B0  1  0.46094724  0.73071646  0.07959142  1
  B  B1  1  0.53905276  0.23071646  0.42040858  1
  B  B2  1  0.53905276  0.26928354  0.92040858  1
  B  B3  1  0.46094724  0.76928354  0.57959142  1
  B  B4  1  0.47150286  0.40192063  0.66328833  1
  B  B5  1  0.52849714  0.90192063  0.83671167  1
  B  B6  1  0.47150286  0.09807937  0.16328833  1
  B  B7  1  0.52849714  0.59807937  0.33671167  1
  O  O8  1  0.65951528  0.83645648  0.69801894  1
  O  O9  1  0.34048472  0.33645648  0.80198106  1
  O  O10  1  0.22800530  0.89006614  0.54095486  1
  O  O11  1  0.77199470  0.39006614  0.95904514  1
  O  O12  1  0.77199470  0.10993386  0.45904514  1
  O  O13  1  0.22800530  0.60993386  0.04095486  1
  O  O14  1  0.78653447  0.08961603  0.16735457  1
  O  O15  1  0.21346553  0.58961603  0.33264543  1
  O  O16  1  0.21346553  0.91038397  0.83264543  1
  O  O17  1  0.78653447  0.41038397  0.66735457  1
  O  O18  1  0.32246195  0.91129053  0.13849184  1
  O  O19  1  0.67753805  0.41129053  0.36150816  1
  O  O20  1  0.67753805  0.08870947  0.86150816  1
  O  O21  1  0.32246195  0.58870947  0.63849184  1
  O  O22  1  0.35792701  0.22332290  0.04903471  1
  O  O23  1  0.64207299  0.72332290  0.45096529  1
  O  O24  1  0.64207299  0.77667710  0.95096529  1
  O  O25  1  0.35792701  0.27667710  0.54903471  1
  O  O26  1  0.34048472  0.16354352  0.30198106  1
  O  O27  1  0.65951528  0.66354352  0.19801894  1
  Cu  Cu28  1  0.00000000  0.00000000  0.00000000  1
  Cu  Cu29  1  0.00000000  0.50000000  0.50000000  1
  Tm  Tm30  1  0.99714275  0.60330974  0.83525006  1
  Tm  Tm31  1  0.00285725  0.10330974  0.66474994  1
  Tm  Tm32  1  0.99714275  0.89669026  0.33525006  1
  Tm  Tm33  1  0.00285725  0.39669026  0.16474994  1
