# generated using pymatgen
data_NaCuF3
_symmetry_space_group_name_H-M   'P 1'
_cell_length_a   5.45997679
_cell_length_b   5.63379797
_cell_length_c   8.01577453
_cell_angle_alpha   89.29342954
_cell_angle_beta   87.60928118
_cell_angle_gamma   86.29998893
_symmetry_Int_Tables_number   1
_chemical_formula_structural   NaCuF3
_chemical_formula_sum   'Na4 Cu4 F12'
_cell_volume   245.82887805
_cell_formula_units_Z   4
loop_
 _symmetry_equiv_pos_site_id
 _symmetry_equiv_pos_as_xyz
  1  'x, y, z'
loop_
 _atom_site_type_symbol
 _atom_site_label
 _atom_site_symmetry_multiplicity
 _atom_site_fract_x
 _atom_site_fract_y
 _atom_site_fract_z
 _atom_site_occupancy
  F  F0  1  0.10620931  0.45786210  0.77192023  1
  F  F1  1  0.89379069  0.54213790  0.22807977  1
  F  F2  1  0.39068354  0.95809156  0.72713774  1
  F  F3  1  0.60931646  0.04190844  0.27286226  1
  F  F4  1  0.19654877  0.19865357  0.45280181  1
  F  F5  1  0.80345123  0.80134643  0.54719819  1
  F  F6  1  0.72326241  0.32253183  0.56253682  1
  F  F7  1  0.27673759  0.67746817  0.43746318  1
  F  F8  1  0.32054426  0.72643391  0.05367330  1
  F  F9  1  0.67945574  0.27356609  0.94632670  1
  F  F10  1  0.79426523  0.79206647  0.93690193  1
  F  F11  1  0.20573477  0.20793353  0.06309807  1
  Na  Na12  1  0.49171332  0.44542582  0.23984277  1
  Na  Na13  1  0.50828668  0.55457418  0.76015723  1
  Na  Na14  1  0.02603614  0.94033365  0.25809597  1
  Na  Na15  1  0.97396386  0.05966635  0.74190403  1
  Cu  Cu16  1  0.50000000  0.00000000  0.00000000  1
  Cu  Cu17  1  0.00000000  0.50000000  0.00000000  1
  Cu  Cu18  1  0.50000000  0.00000000  0.50000000  1
  Cu  Cu19  1  0.00000000  0.50000000  0.50000000  1
