# generated using pymatgen
data_La4V5(Si2O11)2
_symmetry_space_group_name_H-M   'P 1'
_cell_length_a   5.73083117
_cell_length_b   7.39188205
_cell_length_c   11.23628222
_cell_angle_alpha   99.77409571
_cell_angle_beta   90.00000000
_cell_angle_gamma   112.80795506
_symmetry_Int_Tables_number   1
_chemical_formula_structural   La4V5(Si2O11)2
_chemical_formula_sum   'La4 V5 Si4 O22'
_cell_volume   431.26454584
_cell_formula_units_Z   1
loop_
 _symmetry_equiv_pos_site_id
 _symmetry_equiv_pos_as_xyz
  1  'x, y, z'
loop_
 _atom_site_type_symbol
 _atom_site_label
 _atom_site_symmetry_multiplicity
 _atom_site_fract_x
 _atom_site_fract_y
 _atom_site_fract_z
 _atom_site_occupancy
  O  O0  1  0.21757529  0.43515058  0.86358804  1
  O  O1  1  0.78242359  0.56484841  0.13641227  1
  O  O2  1  0.69498348  0.86011828  0.08602569  1
  O  O3  1  0.83486483  0.13988220  0.91397389  1
  O  O4  1  0.30501791  0.13988220  0.91397389  1
  O  O5  1  0.16513480  0.86011828  0.08602569  1
  O  O6  1  0.81110297  0.62220717  0.90211955  1
  O  O7  1  0.18889666  0.37779332  0.09788003  1
  O  O8  1  0.41072993  0.82145986  0.83950798  1
  O  O9  1  0.58926894  0.17853912  0.16049233  1
  O  O10  1  0.48855653  0.45130862  0.31173661  1
  O  O11  1  0.03724877  0.54869187  0.68826386  1
  O  O12  1  0.51144310  0.54869187  0.68826386  1
  O  O13  1  0.34970175  0.69940349  0.48524796  1
  O  O14  1  0.65029713  0.30059549  0.51475235  1
  O  O15  1  0.14261111  0.28522223  0.47544720  1
  O  O16  1  0.85738851  0.71477826  0.52455239  1
  O  O17  1  0.96275086  0.45130862  0.31173661  1
  O  O18  1  0.78181386  0.04471796  0.62941370  1
  O  O19  1  0.26290287  0.04471796  0.62941370  1
  O  O20  1  0.21818502  0.95528102  0.37058572  1
  O  O21  1  0.73709601  0.95528102  0.37058572  1
  Si  Si22  1  0.13823062  0.27646124  0.95697386  1
  Si  Si23  1  0.86176826  0.72353775  0.04302645  1
  Si  Si24  1  0.29580451  0.59160901  0.77045781  1
  Si  Si25  1  0.70419437  0.40838997  0.22954161  1
  V  V26  1  0.49999938  0.00000000  0.00000000  1
  V  V27  1  0.49999944  0.49999949  0.50000016  1
  V  V28  1  0.49999957  0.00000038  0.49999993  1
  V  V29  1  0.00000019  0.00000038  0.49999993  1
  V  V30  1  0.00000006  0.49999949  0.50000016  1
  La  La31  1  0.92717722  0.85435567  0.75218573  1
  La  La32  1  0.07282241  0.14564482  0.24781474  1
  La  La33  1  0.64347999  0.28696122  0.75733257  1
  La  La34  1  0.35651963  0.71303927  0.24266791  1
