# generated using pymatgen
data_BaMnP2O7
_symmetry_space_group_name_H-M   'P 1'
_cell_length_a   5.51918709
_cell_length_b   7.48119123
_cell_length_c   7.69957832
_cell_angle_alpha   102.67362664
_cell_angle_beta   91.29736739
_cell_angle_gamma   93.84880622
_symmetry_Int_Tables_number   1
_chemical_formula_structural   BaMnP2O7
_chemical_formula_sum   'Ba2 Mn2 P4 O14'
_cell_volume   309.24283473
_cell_formula_units_Z   2
loop_
 _symmetry_equiv_pos_site_id
 _symmetry_equiv_pos_as_xyz
  1  'x, y, z'
loop_
 _atom_site_type_symbol
 _atom_site_label
 _atom_site_symmetry_multiplicity
 _atom_site_fract_x
 _atom_site_fract_y
 _atom_site_fract_z
 _atom_site_occupancy
  O  O0  1  0.54606280  0.27181326  0.38907125  1
  O  O1  1  0.45393720  0.72818674  0.61092875  1
  O  O2  1  0.78214653  0.98717408  0.73988841  1
  O  O3  1  0.21785347  0.01282592  0.26011159  1
  O  O4  1  0.09869426  0.33440512  0.40133106  1
  O  O5  1  0.90130574  0.66559488  0.59866894  1
  O  O6  1  0.73226958  0.87013099  0.40855303  1
  O  O7  1  0.26773042  0.12986901  0.59144697  1
  O  O8  1  0.07959055  0.38970290  0.80427349  1
  O  O9  1  0.92040945  0.61029710  0.19572651  1
  O  O10  1  0.54106827  0.37982031  0.80010367  1
  O  O11  1  0.45893173  0.62017969  0.19989633  1
  O  O12  1  0.28553833  0.14594314  0.92435416  1
  O  O13  1  0.71446167  0.85405686  0.07564584  1
  P  P14  1  0.70420401  0.73348697  0.21147740  1
  P  P15  1  0.29579599  0.26651303  0.78852260  1
  P  P16  1  0.71333896  0.81488055  0.60176295  1
  P  P17  1  0.28666104  0.18511945  0.39823705  1
  Mn  Mn18  1  0.19871783  0.62042391  0.39848131  1
  Mn  Mn19  1  0.80128217  0.37957609  0.60151869  1
  Ba  Ba20  1  0.21328183  0.77695670  0.93701223  1
  Ba  Ba21  1  0.78671817  0.22304330  0.06298777  1
