# generated using pymatgen
data_MnSe2O5
_symmetry_space_group_name_H-M   'P 1'
_cell_length_a   6.00981854
_cell_length_b   6.88169637
_cell_length_c   6.88169637
_cell_angle_alpha   107.06817245
_cell_angle_beta   105.28654517
_cell_angle_gamma   105.28654520
_symmetry_Int_Tables_number   1
_chemical_formula_structural   MnSe2O5
_chemical_formula_sum   'Mn2 Se4 O10'
_cell_volume   243.84241418
_cell_formula_units_Z   2
loop_
 _symmetry_equiv_pos_site_id
 _symmetry_equiv_pos_as_xyz
  1  'x, y, z'
loop_
 _atom_site_type_symbol
 _atom_site_label
 _atom_site_symmetry_multiplicity
 _atom_site_fract_x
 _atom_site_fract_y
 _atom_site_fract_z
 _atom_site_occupancy
  O  O0  1  0.25000000  0.57539691  0.42460309  1
  O  O1  1  0.75000000  0.42460309  0.57539691  1
  O  O2  1  0.22733404  0.97315930  0.40419454  1
  O  O3  1  0.27266596  0.59580546  0.02684070  1
  O  O4  1  0.77266596  0.02684070  0.59580546  1
  O  O5  1  0.72733404  0.40419454  0.97315930  1
  O  O6  1  0.84011118  0.78409907  0.91508520  1
  O  O7  1  0.65988882  0.08491480  0.21590093  1
  O  O8  1  0.15988882  0.21590093  0.08491480  1
  O  O9  1  0.34011118  0.91508520  0.78409907  1
  Mn  Mn10  1  0.25000000  0.91753034  0.08246966  1
  Mn  Mn11  1  0.75000000  0.08246966  0.91753034  1
  Se  Se12  1  0.13251756  0.79670087  0.51814657  1
  Se  Se13  1  0.36748244  0.48185343  0.20329913  1
  Se  Se14  1  0.86748244  0.20329913  0.48185343  1
  Se  Se15  1  0.63251756  0.51814657  0.79670087  1
