# generated using pymatgen
data_SrV10O15
_symmetry_space_group_name_H-M   'P 1'
_cell_length_a   7.89121338
_cell_length_b   7.89121337
_cell_length_c   9.57821477
_cell_angle_alpha   90.00000000
_cell_angle_beta   90.00000000
_cell_angle_gamma   96.44357293
_symmetry_Int_Tables_number   1
_chemical_formula_structural   SrV10O15
_chemical_formula_sum   'Sr2 V20 O30'
_cell_volume   592.67955156
_cell_formula_units_Z   2
loop_
 _symmetry_equiv_pos_site_id
 _symmetry_equiv_pos_as_xyz
  1  'x, y, z'
loop_
 _atom_site_type_symbol
 _atom_site_label
 _atom_site_symmetry_multiplicity
 _atom_site_fract_x
 _atom_site_fract_y
 _atom_site_fract_z
 _atom_site_occupancy
  O  O0  1  0.00000000  0.00000000  0.49999975  1
  O  O1  1  0.49999985  0.49999957  0.00000000  1
  O  O2  1  0.24071383  0.75928534  0.49999975  1
  O  O3  1  0.25928641  0.74071433  0.00000000  1
  O  O4  1  0.75928587  0.24071380  0.49999975  1
  O  O5  1  0.74071352  0.25928616  0.00000000  1
  O  O6  1  0.64732723  0.64732720  0.73373324  1
  O  O7  1  0.85267256  0.85267285  0.23373349  1
  O  O8  1  0.14732715  0.14732629  0.76626707  1
  O  O9  1  0.35267270  0.35267328  0.26626732  1
  O  O10  1  0.57229495  0.07229477  0.24999988  1
  O  O11  1  0.92770444  0.42770519  0.74999963  1
  O  O12  1  0.42770476  0.92770437  0.74999963  1
  O  O13  1  0.07229549  0.57229530  0.24999988  1
  O  O14  1  0.71238931  0.46553151  0.24341544  1
  O  O15  1  0.78761008  0.03446845  0.74341519  1
  O  O16  1  0.96553235  0.21238968  0.25658537  1
  O  O17  1  0.53446837  0.28761029  0.75658513  1
  O  O18  1  0.28761040  0.53446763  0.75658513  1
  O  O19  1  0.21238985  0.96553203  0.25658537  1
  O  O20  1  0.03446758  0.78761080  0.74341519  1
  O  O21  1  0.46553156  0.71239019  0.24341544  1
  O  O22  1  0.10956938  0.35864115  0.50701471  1
  O  O23  1  0.39043048  0.14135842  0.00701447  1
  O  O24  1  0.85864174  0.60956914  0.99298504  1
  O  O25  1  0.64135804  0.89043091  0.49298585  1
  O  O26  1  0.35864189  0.10956957  0.50701471  1
  O  O27  1  0.60956945  0.85864206  0.99298504  1
  O  O28  1  0.14135797  0.39043000  0.00701447  1
  O  O29  1  0.89043033  0.64135799  0.49298585  1
  V  V30  1  0.81905049  0.81905088  0.63030704  1
  V  V31  1  0.68094929  0.68094917  0.13030728  1
  V  V32  1  0.31905042  0.31904997  0.86969328  1
  V  V33  1  0.18094944  0.18094960  0.36969353  1
  V  V34  1  0.04178050  0.79067778  0.35390876  1
  V  V35  1  0.45821975  0.70932189  0.85390852  1
  V  V36  1  0.29067810  0.54178052  0.14609099  1
  V  V37  1  0.20932215  0.95821914  0.64609180  1
  V  V38  1  0.95821943  0.20932271  0.64609180  1
  V  V39  1  0.54178129  0.29067727  0.14609099  1
  V  V40  1  0.70932294  0.45821863  0.85390852  1
  V  V41  1  0.91898866  0.40706187  0.11878479  1
  V  V42  1  0.40706270  0.91898775  0.11878479  1
  V  V43  1  0.09293754  0.58101191  0.61878455  1
  V  V44  1  0.41898787  0.90706238  0.38121496  1
  V  V45  1  0.08101237  0.59293728  0.88121577  1
  V  V46  1  0.59293701  0.08101139  0.88121577  1
  V  V47  1  0.90706238  0.41898858  0.38121496  1
  V  V48  1  0.58101205  0.09293810  0.61878455  1
  V  V49  1  0.79067778  0.04178134  0.35390876  1
  Sr  Sr50  1  0.49999985  0.49999957  0.49999975  1
  Sr  Sr51  1  0.00000000  0.00000000  0.00000000  1
