# generated using pymatgen
data_Na2V(PO4)2
_symmetry_space_group_name_H-M   'P 1'
_cell_length_a   6.37217885
_cell_length_b   7.82323540
_cell_length_c   13.62592308
_cell_angle_alpha   90.00000000
_cell_angle_beta   90.00000000
_cell_angle_gamma   99.73504937
_symmetry_Int_Tables_number   1
_chemical_formula_structural   Na2V(PO4)2
_chemical_formula_sum   'Na8 V4 P8 O32'
_cell_volume   669.48535006
_cell_formula_units_Z   4
loop_
 _symmetry_equiv_pos_site_id
 _symmetry_equiv_pos_as_xyz
  1  'x, y, z'
loop_
 _atom_site_type_symbol
 _atom_site_label
 _atom_site_symmetry_multiplicity
 _atom_site_fract_x
 _atom_site_fract_y
 _atom_site_fract_z
 _atom_site_occupancy
  O  O0  1  0.97518931  0.28686773  0.76626075  1
  O  O1  1  0.52481069  0.71313227  0.26626075  1
  O  O2  1  0.02481069  0.71313227  0.23373925  1
  O  O3  1  0.47518931  0.28686773  0.73373925  1
  O  O4  1  0.18506925  0.21830304  0.90845186  1
  O  O5  1  0.31493075  0.78169696  0.40845186  1
  O  O6  1  0.81493075  0.78169696  0.09154814  1
  O  O7  1  0.68506925  0.21830304  0.59154814  1
  O  O8  1  0.47191422  0.28337090  0.03517820  1
  O  O9  1  0.02808578  0.71662910  0.53517820  1
  O  O10  1  0.52808578  0.71662910  0.96482180  1
  O  O11  1  0.97191422  0.28337090  0.46482180  1
  O  O12  1  0.74482443  0.02085459  0.97670316  1
  O  O13  1  0.75517557  0.97914541  0.47670316  1
  O  O14  1  0.25517557  0.97914541  0.02329684  1
  O  O15  1  0.24482443  0.02085459  0.52329684  1
  O  O16  1  0.08857384  0.23117185  0.08933600  1
  O  O17  1  0.41142616  0.76882815  0.58933600  1
  O  O18  1  0.91142616  0.76882815  0.91066400  1
  O  O19  1  0.58857384  0.23117185  0.41066400  1
  O  O20  1  0.35405354  0.36007203  0.56284063  1
  O  O21  1  0.14594646  0.63992797  0.06284063  1
  O  O22  1  0.64594646  0.63992797  0.43715937  1
  O  O23  1  0.85405354  0.36007203  0.93715937  1
  O  O24  1  0.30459740  0.46680775  0.36264271  1
  O  O25  1  0.19540260  0.53319225  0.86264271  1
  O  O26  1  0.69540260  0.53319225  0.63735729  1
  O  O27  1  0.80459740  0.46680775  0.13735729  1
  O  O28  1  0.18578892  0.10884480  0.32788125  1
  O  O29  1  0.31421108  0.89115520  0.82788125  1
  O  O30  1  0.81421108  0.89115520  0.67211875  1
  O  O31  1  0.68578892  0.10884480  0.17211875  1
  Na  Na32  1  0.43808551  0.52929533  0.13212488  1
  Na  Na33  1  0.06191449  0.47070467  0.63212488  1
  Na  Na34  1  0.56191449  0.47070467  0.86787512  1
  Na  Na35  1  0.93808551  0.52929533  0.36787512  1
  Na  Na36  1  0.65941072  0.06425719  0.78818099  1
  Na  Na37  1  0.84058928  0.93574281  0.28818099  1
  Na  Na38  1  0.34058928  0.93574281  0.21181901  1
  Na  Na39  1  0.15941072  0.06425719  0.71181901  1
  P  P40  1  0.24999089  0.17325149  0.01845020  1
  P  P41  1  0.25000911  0.82674851  0.51845020  1
  P  P42  1  0.75000911  0.82674851  0.98154980  1
  P  P43  1  0.74999089  0.17325149  0.48154980  1
  P  P44  1  0.04118879  0.35888683  0.86692951  1
  P  P45  1  0.45881121  0.64111317  0.36692951  1
  P  P46  1  0.95881121  0.64111317  0.13307049  1
  P  P47  1  0.54118879  0.35888683  0.63307049  1
  V  V48  1  0.76918775  0.22787184  0.07396631  1
  V  V49  1  0.73081225  0.77212816  0.57396631  1
  V  V50  1  0.23081225  0.77212816  0.92603369  1
  V  V51  1  0.26918775  0.22787184  0.42603369  1
