# generated using pymatgen
data_Li2VGeO5
_symmetry_space_group_name_H-M   'P 1'
_cell_length_a   4.60748838
_cell_length_b   6.59858441
_cell_length_c   6.59858441
_cell_angle_alpha   90.00000000
_cell_angle_beta   90.00000000
_cell_angle_gamma   90.00000000
_symmetry_Int_Tables_number   1
_chemical_formula_structural   Li2VGeO5
_chemical_formula_sum   'Li4 V2 Ge2 O10'
_cell_volume   200.61610851
_cell_formula_units_Z   2
loop_
 _symmetry_equiv_pos_site_id
 _symmetry_equiv_pos_as_xyz
  1  'x, y, z'
loop_
 _atom_site_type_symbol
 _atom_site_label
 _atom_site_symmetry_multiplicity
 _atom_site_fract_x
 _atom_site_fract_y
 _atom_site_fract_z
 _atom_site_occupancy
  Li  Li0  1  0.00000000  0.00000000  0.50000000  1
  Li  Li1  1  0.00000000  0.00000000  0.00000000  1
  Li  Li2  1  0.00000000  0.50000000  0.50000000  1
  Li  Li3  1  0.00000000  0.50000000  0.00000000  1
  O  O4  1  0.23020337  0.25000000  0.25000000  1
  O  O5  1  0.76979663  0.75000000  0.75000000  1
  O  O6  1  0.73261693  0.25000000  0.53616387  1
  O  O7  1  0.73261693  0.96383613  0.25000000  1
  O  O8  1  0.73261693  0.53616387  0.25000000  1
  O  O9  1  0.73261693  0.25000000  0.96383613  1
  O  O10  1  0.26738307  0.75000000  0.46383613  1
  O  O11  1  0.26738307  0.75000000  0.03616387  1
  O  O12  1  0.26738307  0.03616387  0.75000000  1
  O  O13  1  0.26738307  0.46383613  0.75000000  1
  V  V14  1  0.59457659  0.25000000  0.25000000  1
  V  V15  1  0.40542341  0.75000000  0.75000000  1
  Ge  Ge16  1  0.50000000  0.25000000  0.75000000  1
  Ge  Ge17  1  0.50000000  0.75000000  0.25000000  1
