# generated using pymatgen
data_CuGe5Pb3O14
_symmetry_space_group_name_H-M   'P 1'
_cell_length_a   8.26832520
_cell_length_b   10.00597208
_cell_length_c   10.15854425
_cell_angle_alpha   63.09255379
_cell_angle_beta   65.98573488
_cell_angle_gamma   65.59590530
_symmetry_Int_Tables_number   1
_chemical_formula_structural   CuGe5Pb3O14
_chemical_formula_sum   'Cu2 Ge10 Pb6 O28'
_cell_volume   656.97578200
_cell_formula_units_Z   2
loop_
 _symmetry_equiv_pos_site_id
 _symmetry_equiv_pos_as_xyz
  1  'x, y, z'
loop_
 _atom_site_type_symbol
 _atom_site_label
 _atom_site_symmetry_multiplicity
 _atom_site_fract_x
 _atom_site_fract_y
 _atom_site_fract_z
 _atom_site_occupancy
  O  O0  1  0.37773021  0.98031049  0.21423092  1
  O  O1  1  0.07227162  0.51968951  0.28576908  1
  O  O2  1  0.62226979  0.01968951  0.78576908  1
  O  O3  1  0.92772838  0.48031049  0.71423092  1
  O  O4  1  0.49782999  0.63444253  0.31966629  1
  O  O5  1  0.95193881  0.86555747  0.18033371  1
  O  O6  1  0.50217001  0.36555747  0.68033371  1
  O  O7  1  0.04806119  0.13444253  0.81966629  1
  O  O8  1  0.17278470  0.59669315  0.79269679  1
  O  O9  1  0.06217464  0.90330685  0.70730321  1
  O  O10  1  0.82721530  0.40330685  0.20730321  1
  O  O11  1  0.93782536  0.09669315  0.29269679  1
  O  O12  1  0.63243139  0.08428574  0.28729395  1
  O  O13  1  0.50401107  0.41571426  0.21270605  1
  O  O14  1  0.36756861  0.91571426  0.71270605  1
  O  O15  1  0.49598893  0.58428574  0.78729395  1
  O  O16  1  0.12439077  0.78038761  0.41373742  1
  O  O17  1  0.81851580  0.71961239  0.08626258  1
  O  O18  1  0.40400565  0.33347507  0.01328788  1
  O  O19  1  0.25076860  0.16652493  0.48671212  1
  O  O20  1  0.59599435  0.66652493  0.98671212  1
  O  O21  1  0.74923140  0.83347507  0.51328788  1
  O  O22  1  0.79256939  0.27452209  0.02978836  1
  O  O23  1  0.59687983  0.22547791  0.47021164  1
  O  O24  1  0.20743061  0.72547791  0.97021164  1
  O  O25  1  0.40312017  0.77452209  0.52978836  1
  O  O26  1  0.18148420  0.28038761  0.91373742  1
  O  O27  1  0.87560923  0.21961239  0.58626258  1
  Cu  Cu28  1  0.50000000  0.00000000  0.50000000  1
  Cu  Cu29  1  0.50000000  0.50000000  0.00000000  1
  Ge  Ge30  1  0.98003623  0.30940883  0.86562581  1
  Ge  Ge31  1  0.65507087  0.19059117  0.63437419  1
  Ge  Ge32  1  0.32848686  0.40734644  0.84541504  1
  Ge  Ge33  1  0.08124834  0.09265356  0.65458496  1
  Ge  Ge34  1  0.67151314  0.59265356  0.15458496  1
  Ge  Ge35  1  0.91875166  0.90734644  0.34541504  1
  Ge  Ge36  1  0.28430879  0.75000000  0.75000000  1
  Ge  Ge37  1  0.71569121  0.25000000  0.25000000  1
  Ge  Ge38  1  0.01996377  0.69059117  0.13437419  1
  Ge  Ge39  1  0.34492913  0.80940883  0.36562581  1
  Pb  Pb40  1  0.71710732  0.56581930  0.56107827  1
  Pb  Pb41  1  0.34400489  0.93418070  0.93892173  1
  Pb  Pb42  1  0.28289268  0.43418070  0.43892173  1
  Pb  Pb43  1  0.65599511  0.06581930  0.06107827  1
  Pb  Pb44  1  0.85208866  0.75000000  0.75000000  1
  Pb  Pb45  1  0.14791134  0.25000000  0.25000000  1
