# generated using pymatgen
data_NaNdTiO4
_symmetry_space_group_name_H-M   'P 1'
_cell_length_a   3.75920907
_cell_length_b   3.75920907
_cell_length_c   13.09858380
_cell_angle_alpha   90.00000000
_cell_angle_beta   90.00000000
_cell_angle_gamma   90.00000000
_symmetry_Int_Tables_number   1
_chemical_formula_structural   NaNdTiO4
_chemical_formula_sum   'Na2 Nd2 Ti2 O8'
_cell_volume   185.10463885
_cell_formula_units_Z   2
loop_
 _symmetry_equiv_pos_site_id
 _symmetry_equiv_pos_as_xyz
  1  'x, y, z'
loop_
 _atom_site_type_symbol
 _atom_site_label
 _atom_site_symmetry_multiplicity
 _atom_site_fract_x
 _atom_site_fract_y
 _atom_site_fract_z
 _atom_site_occupancy
  O  O0  1  0.75000000  0.75000000  0.93053202  1
  O  O1  1  0.25000000  0.25000000  0.06946798  1
  O  O2  1  0.75000000  0.75000000  0.59409787  1
  O  O3  1  0.25000000  0.25000000  0.40590213  1
  O  O4  1  0.75000000  0.25000000  0.23386455  1
  O  O5  1  0.25000000  0.75000000  0.23386455  1
  O  O6  1  0.75000000  0.25000000  0.76613545  1
  O  O7  1  0.25000000  0.75000000  0.76613545  1
  Na  Na8  1  0.25000000  0.25000000  0.58351708  1
  Na  Na9  1  0.75000000  0.75000000  0.41648292  1
  Ti  Ti10  1  0.25000000  0.25000000  0.27113968  1
  Ti  Ti11  1  0.75000000  0.75000000  0.72886032  1
  Nd  Nd12  1  0.75000000  0.75000000  0.10807008  1
  Nd  Nd13  1  0.25000000  0.25000000  0.89192992  1
