# generated using pymatgen
data_Cu4As2O9
_symmetry_space_group_name_H-M   'P 1'
_cell_length_a   6.51290927
_cell_length_b   8.32979382
_cell_length_c   14.08438612
_cell_angle_alpha   90.00000000
_cell_angle_beta   90.00000000
_cell_angle_gamma   90.00000000
_symmetry_Int_Tables_number   1
_chemical_formula_structural   Cu4As2O9
_chemical_formula_sum   'Cu16 As8 O36'
_cell_volume   764.09472697
_cell_formula_units_Z   4
loop_
 _symmetry_equiv_pos_site_id
 _symmetry_equiv_pos_as_xyz
  1  'x, y, z'
loop_
 _atom_site_type_symbol
 _atom_site_label
 _atom_site_symmetry_multiplicity
 _atom_site_fract_x
 _atom_site_fract_y
 _atom_site_fract_z
 _atom_site_occupancy
  O  O0  1  0.25000000  0.85396108  0.11585590  1
  O  O1  1  0.75000000  0.14603892  0.88414410  1
  O  O2  1  0.25000000  0.35396108  0.38414410  1
  O  O3  1  0.75000000  0.64603892  0.61585590  1
  O  O4  1  0.25000000  0.81065762  0.40837355  1
  O  O5  1  0.75000000  0.18934238  0.59162645  1
  O  O6  1  0.25000000  0.31065762  0.09162645  1
  O  O7  1  0.75000000  0.68934238  0.90837355  1
  O  O8  1  0.96667060  0.12007460  0.14793481  1
  O  O9  1  0.46667060  0.87992540  0.85206519  1
  O  O10  1  0.53332940  0.62007460  0.35206519  1
  O  O11  1  0.03332940  0.37992540  0.64793481  1
  O  O12  1  0.03332940  0.87992540  0.85206519  1
  O  O13  1  0.53332940  0.12007460  0.14793481  1
  O  O14  1  0.25000000  0.13033524  0.93908750  1
  O  O15  1  0.46667060  0.37992540  0.64793481  1
  O  O16  1  0.02500800  0.08168988  0.35805252  1
  O  O17  1  0.52500800  0.91831012  0.64194748  1
  O  O18  1  0.47499200  0.58168988  0.14194748  1
  O  O19  1  0.97499200  0.41831012  0.85805252  1
  O  O20  1  0.97499200  0.91831012  0.64194748  1
  O  O21  1  0.47499200  0.08168988  0.35805252  1
  O  O22  1  0.52500800  0.41831012  0.85805252  1
  O  O23  1  0.02500800  0.58168988  0.14194748  1
  O  O24  1  0.75000000  0.38514341  0.23863238  1
  O  O25  1  0.25000000  0.61485659  0.76136762  1
  O  O26  1  0.75000000  0.88514341  0.26136762  1
  O  O27  1  0.25000000  0.11485659  0.73863238  1
  O  O28  1  0.75000000  0.39961434  0.02867921  1
  O  O29  1  0.25000000  0.60038566  0.97132079  1
  O  O30  1  0.75000000  0.89961434  0.47132079  1
  O  O31  1  0.25000000  0.10038566  0.52867921  1
  O  O32  1  0.75000000  0.36966476  0.43908750  1
  O  O33  1  0.25000000  0.63033524  0.56091250  1
  O  O34  1  0.75000000  0.86966476  0.06091250  1
  O  O35  1  0.96667060  0.62007460  0.35206519  1
  Cu  Cu36  1  0.25000000  0.86505684  0.55038721  1
  Cu  Cu37  1  0.75000000  0.13494316  0.44961279  1
  Cu  Cu38  1  0.25000000  0.36505684  0.94961279  1
  Cu  Cu39  1  0.75000000  0.63494316  0.05038721  1
  Cu  Cu40  1  0.99276690  0.85297307  0.34514867  1
  Cu  Cu41  1  0.49276690  0.14702693  0.65485133  1
  Cu  Cu42  1  0.50723310  0.35297307  0.15485133  1
  Cu  Cu43  1  0.00723310  0.64702693  0.84514867  1
  Cu  Cu44  1  0.00723310  0.14702693  0.65485133  1
  Cu  Cu45  1  0.50723310  0.85297307  0.34514867  1
  Cu  Cu46  1  0.49276690  0.64702693  0.84514867  1
  Cu  Cu47  1  0.99276690  0.35297307  0.15485133  1
  Cu  Cu48  1  0.25000000  0.07358258  0.08675837  1
  Cu  Cu49  1  0.75000000  0.92641742  0.91324163  1
  Cu  Cu50  1  0.25000000  0.57358258  0.41324163  1
  Cu  Cu51  1  0.75000000  0.42641742  0.58675837  1
  As  As52  1  0.25000000  1.00042763  0.84352776  1
  As  As53  1  0.75000000  -0.00042763  0.15647224  1
  As  As54  1  0.25000000  0.50042763  0.65647224  1
  As  As55  1  0.75000000  0.49957237  0.34352776  1
  As  As56  1  0.25000000  0.65577165  0.09044650  1
  As  As57  1  0.75000000  0.34422835  0.90955350  1
  As  As58  1  0.25000000  0.15577165  0.40955350  1
  As  As59  1  0.75000000  0.84422835  0.59044650  1
