# generated using pymatgen
data_Ce2Co17
_symmetry_space_group_name_H-M   'P 1'
_cell_length_a   8.32484873
_cell_length_b   8.32484873
_cell_length_c   8.09540304
_cell_angle_alpha   90.00000000
_cell_angle_beta   90.00000000
_cell_angle_gamma   119.99999998
_symmetry_Int_Tables_number   1
_chemical_formula_structural   Ce2Co17
_chemical_formula_sum   'Ce4 Co34'
_cell_volume   485.87192885
_cell_formula_units_Z   2
loop_
 _symmetry_equiv_pos_site_id
 _symmetry_equiv_pos_as_xyz
  1  'x, y, z'
loop_
 _atom_site_type_symbol
 _atom_site_label
 _atom_site_symmetry_multiplicity
 _atom_site_fract_x
 _atom_site_fract_y
 _atom_site_fract_z
 _atom_site_occupancy
  Co  Co0  1  0.16733260  0.33466519  0.52315957  1
  Co  Co1  1  0.66533481  0.83266740  0.52315957  1
  Co  Co2  1  0.16733260  0.83266740  0.52315957  1
  Co  Co3  1  0.83266740  0.16733260  0.02315957  1
  Co  Co4  1  0.33333333  0.66666667  0.10529884  1
  Co  Co5  1  0.66666667  0.33333333  0.60529884  1
  Co  Co6  1  0.66666667  0.33333333  0.89470116  1
  Co  Co7  1  0.33333333  0.66666667  0.39470116  1
  Co  Co8  1  0.50000000  0.00000000  0.00000000  1
  Co  Co9  1  0.50000000  0.50000000  0.50000000  1
  Co  Co10  1  0.00000000  0.50000000  0.50000000  1
  Co  Co11  1  0.00000000  0.50000000  0.00000000  1
  Co  Co12  1  0.50000000  0.50000000  0.00000000  1
  Co  Co13  1  0.50000000  0.00000000  0.50000000  1
  Co  Co14  1  0.32798749  0.95159997  0.25000000  1
  Co  Co15  1  0.37638752  0.32798749  0.75000000  1
  Co  Co16  1  0.95159997  0.62361248  0.75000000  1
  Co  Co17  1  0.04840003  0.37638752  0.25000000  1
  Co  Co18  1  0.62361248  0.67201251  0.25000000  1
  Co  Co19  1  0.37638752  0.04840003  0.75000000  1
  Co  Co20  1  0.67201251  0.62361248  0.75000000  1
  Co  Co21  1  0.67201251  0.04840003  0.75000000  1
  Co  Co22  1  0.95159997  0.32798749  0.75000000  1
  Co  Co23  1  0.04840003  0.67201251  0.25000000  1
  Co  Co24  1  0.62361248  0.95159997  0.25000000  1
  Co  Co25  1  0.32798749  0.37638752  0.25000000  1
  Co  Co26  1  0.16733260  0.83266740  0.97684043  1
  Co  Co27  1  0.33466519  0.16733260  0.47684043  1
  Co  Co28  1  0.83266740  0.66533481  0.47684043  1
  Co  Co29  1  0.16733260  0.33466519  0.97684043  1
  Co  Co30  1  0.66533481  0.83266740  0.97684043  1
  Co  Co31  1  0.33466519  0.16733260  0.02315957  1
  Co  Co32  1  0.83266740  0.66533481  0.02315957  1
  Co  Co33  1  0.83266740  0.16733260  0.47684043  1
  Ce  Ce34  1  0.66666667  0.33333333  0.25000000  1
  Ce  Ce35  1  0.33333333  0.66666667  0.75000000  1
  Ce  Ce36  1  0.00000000  0.00000000  0.75000000  1
  Ce  Ce37  1  0.00000000  0.00000000  0.25000000  1
