# generated using pymatgen
data_Mn6Ni16P7
_symmetry_space_group_name_H-M   'P 1'
_cell_length_a   7.75786067
_cell_length_b   7.75786066
_cell_length_c   7.75786067
_cell_angle_alpha   60.00000002
_cell_angle_beta   60.00000003
_cell_angle_gamma   60.00000003
_symmetry_Int_Tables_number   1
_chemical_formula_structural   Mn6Ni16P7
_chemical_formula_sum   'Mn6 Ni16 P7'
_cell_volume   330.14971634
_cell_formula_units_Z   1
loop_
 _symmetry_equiv_pos_site_id
 _symmetry_equiv_pos_as_xyz
  1  'x, y, z'
loop_
 _atom_site_type_symbol
 _atom_site_label
 _atom_site_symmetry_multiplicity
 _atom_site_fract_x
 _atom_site_fract_y
 _atom_site_fract_z
 _atom_site_occupancy
  P  P0  1  0.50000000  0.50000000  0.50000000  1
  P  P1  1  0.50000000  0.00000000  0.00000000  1
  P  P2  1  0.00000000  0.00000000  0.50000000  1
  P  P3  1  0.50000000  0.50000000  0.00000000  1
  P  P4  1  0.00000000  0.50000000  0.50000000  1
  P  P5  1  0.00000000  0.50000000  0.00000000  1
  P  P6  1  0.50000000  0.00000000  0.50000000  1
  Mn  Mn7  1  0.19136908  0.80863092  0.80863092  1
  Mn  Mn8  1  0.19136908  0.80863092  0.19136908  1
  Mn  Mn9  1  0.80863092  0.19136908  0.80863092  1
  Mn  Mn10  1  0.19136908  0.19136908  0.80863092  1
  Mn  Mn11  1  0.80863092  0.80863092  0.19136908  1
  Mn  Mn12  1  0.80863092  0.19136908  0.19136908  1
  Ni  Ni13  1  0.16421676  0.16421676  0.50734971  1
  Ni  Ni14  1  0.83578324  0.83578324  0.83578324  1
  Ni  Ni15  1  0.61674747  0.61674747  0.14975759  1
  Ni  Ni16  1  0.14975759  0.61674747  0.61674747  1
  Ni  Ni17  1  0.61674747  0.14975759  0.61674747  1
  Ni  Ni18  1  0.85024241  0.38325253  0.38325253  1
  Ni  Ni19  1  0.38325253  0.85024241  0.38325253  1
  Ni  Ni20  1  0.38325253  0.38325253  0.85024241  1
  Ni  Ni21  1  0.61674747  0.61674747  0.61674747  1
  Ni  Ni22  1  0.16421676  0.50734971  0.16421676  1
  Ni  Ni23  1  0.50734971  0.16421676  0.16421676  1
  Ni  Ni24  1  0.83578324  0.49265029  0.83578324  1
  Ni  Ni25  1  0.49265029  0.83578324  0.83578324  1
  Ni  Ni26  1  0.83578324  0.83578324  0.49265029  1
  Ni  Ni27  1  0.16421676  0.16421676  0.16421676  1
  Ni  Ni28  1  0.38325253  0.38325253  0.38325253  1
