# generated using pymatgen
data_MgP(HO)7
_symmetry_space_group_name_H-M   'P 1'
_cell_length_a   10.03047378
_cell_length_b   10.36838993
_cell_length_c   10.69290070
_cell_angle_alpha   90.00000000
_cell_angle_beta   90.00000000
_cell_angle_gamma   90.00000000
_symmetry_Int_Tables_number   1
_chemical_formula_structural   MgP(HO)7
_chemical_formula_sum   'Mg8 P8 H56 O56'
_cell_volume   1112.06021144
_cell_formula_units_Z   8
loop_
 _symmetry_equiv_pos_site_id
 _symmetry_equiv_pos_as_xyz
  1  'x, y, z'
loop_
 _atom_site_type_symbol
 _atom_site_label
 _atom_site_symmetry_multiplicity
 _atom_site_fract_x
 _atom_site_fract_y
 _atom_site_fract_z
 _atom_site_occupancy
  H  H0  1  0.60016414  0.99466063  0.57405901  1
  H  H1  1  0.10016414  0.50533937  0.42594099  1
  H  H2  1  0.39983586  0.49466063  0.92594099  1
  H  H3  1  0.89983586  0.00533937  0.07405901  1
  H  H4  1  0.39983586  0.00533937  0.42594099  1
  H  H5  1  0.89983586  0.49466063  0.57405901  1
  H  H6  1  0.60016414  0.50533937  0.07405901  1
  H  H7  1  0.10016414  0.99466063  0.92594099  1
  H  H8  1  0.48048634  0.34508265  0.49880498  1
  H  H9  1  0.98048634  0.15491735  0.50119502  1
  H  H10  1  0.51951366  0.84508265  0.00119502  1
  H  H11  1  0.01951366  0.65491735  0.99880498  1
  H  H12  1  0.51951366  0.65491735  0.50119502  1
  H  H13  1  0.01951366  0.84508265  0.49880498  1
  H  H14  1  0.48048634  0.15491735  0.99880498  1
  H  H15  1  0.98048634  0.34508265  0.00119502  1
  H  H16  1  0.36858338  0.32753699  0.39761790  1
  H  H17  1  0.86858338  0.17246301  0.60238210  1
  H  H18  1  0.63141662  0.82753699  0.10238210  1
  H  H19  1  0.13141662  0.67246301  0.89761790  1
  H  H20  1  0.63141662  0.67246301  0.60238210  1
  H  H21  1  0.13141662  0.82753699  0.39761790  1
  H  H22  1  0.36858338  0.17246301  0.89761790  1
  H  H23  1  0.86858338  0.32753699  0.10238210  1
  H  H24  1  0.73757957  0.16720646  0.06780093  1
  H  H25  1  0.23757957  0.33279354  0.93219907  1
  H  H26  1  0.26242043  0.66720646  0.43219907  1
  H  H27  1  0.76242043  0.83279354  0.56780093  1
  H  H28  1  0.26242043  0.83279354  0.93219907  1
  H  H29  1  0.76242043  0.66720646  0.06780093  1
  H  H30  1  0.73757957  0.33279354  0.56780093  1
  H  H31  1  0.23757957  0.16720646  0.43219907  1
  H  H32  1  0.68258406  0.29391464  0.00456592  1
  H  H33  1  0.18258406  0.20608536  0.99543408  1
  H  H34  1  0.31741594  0.79391464  0.49543408  1
  H  H35  1  0.81741594  0.70608536  0.50456592  1
  H  H36  1  0.31741594  0.70608536  0.99543408  1
  H  H37  1  0.81741594  0.79391464  0.00456592  1
  H  H38  1  0.68258406  0.20608536  0.50456592  1
  H  H39  1  0.18258406  0.29391464  0.49543408  1
  H  H40  1  0.46264929  0.07821635  0.21926152  1
  H  H41  1  0.96264929  0.42178365  0.78073848  1
  H  H42  1  0.53735071  0.57821635  0.28073848  1
  H  H43  1  0.03735071  0.92178365  0.71926152  1
  H  H44  1  0.53735071  0.92178365  0.78073848  1
  H  H45  1  0.03735071  0.57821635  0.21926152  1
  H  H46  1  0.46264929  0.42178365  0.71926152  1
  H  H47  1  0.96264929  0.07821635  0.28073848  1
  H  H48  1  0.34741650  0.16953574  0.17361974  1
  H  H49  1  0.84741650  0.33046426  0.82638026  1
  H  H50  1  0.65258350  0.66953574  0.32638026  1
  H  H51  1  0.15258350  0.83046426  0.67361974  1
  H  H52  1  0.65258350  0.83046426  0.82638026  1
  H  H53  1  0.15258350  0.66953574  0.17361974  1
  H  H54  1  0.34741650  0.33046426  0.67361974  1
  H  H55  1  0.84741650  0.16953574  0.32638026  1
  O  O56  1  0.46511107  0.34473992  0.40785490  1
  O  O57  1  0.96511107  0.15526008  0.59214510  1
  O  O58  1  0.53488893  0.84473992  0.09214510  1
  O  O59  1  0.03488893  0.65526008  0.90785490  1
  O  O60  1  0.53488893  0.65526008  0.59214510  1
  O  O61  1  0.03488893  0.84473992  0.40785490  1
  O  O62  1  0.46511107  0.15526008  0.90785490  1
  O  O63  1  0.96511107  0.34473992  0.09214510  1
  O  O64  1  0.70133270  0.25439508  0.08774300  1
  O  O65  1  0.20133270  0.24560492  0.91225700  1
  O  O66  1  0.29866730  0.75439508  0.41225700  1
  O  O67  1  0.79866730  0.74560492  0.58774300  1
  O  O68  1  0.29866730  0.74560492  0.91225700  1
  O  O69  1  0.79866730  0.75439508  0.08774300  1
  O  O70  1  0.70133270  0.24560492  0.58774300  1
  O  O71  1  0.20133270  0.25439508  0.41225700  1
  O  O72  1  0.44644378  0.16324845  0.17924552  1
  O  O73  1  0.94644378  0.33675155  0.82075448  1
  O  O74  1  0.55355622  0.66324845  0.32075448  1
  O  O75  1  0.05355622  0.83675155  0.67924552  1
  O  O76  1  0.55355622  0.83675155  0.82075448  1
  O  O77  1  0.05355622  0.66324845  0.17924552  1
  O  O78  1  0.44644378  0.33675155  0.67924552  1
  O  O79  1  0.94644378  0.16324845  0.32075448  1
  O  O80  1  0.67474200  0.96286170  0.51631800  1
  O  O81  1  0.17474200  0.53713830  0.48368200  1
  O  O82  1  0.32525800  0.46286170  0.98368200  1
  O  O83  1  0.82525800  0.03713830  0.01631800  1
  O  O84  1  0.32525800  0.03713830  0.48368200  1
  O  O85  1  0.82525800  0.46286170  0.51631800  1
  O  O86  1  0.67474200  0.53713830  0.01631800  1
  O  O87  1  0.17474200  0.96286170  0.98368200  1
  O  O88  1  0.67464716  0.13952476  0.35157892  1
  O  O89  1  0.17464716  0.36047524  0.64842108  1
  O  O90  1  0.32535284  0.63952476  0.14842108  1
  O  O91  1  0.82535284  0.86047524  0.85157892  1
  O  O92  1  0.32535284  0.86047524  0.64842108  1
  O  O93  1  0.82535284  0.63952476  0.35157892  1
  O  O94  1  0.67464716  0.36047524  0.85157892  1
  O  O95  1  0.17464716  0.13952476  0.14842108  1
  O  O96  1  0.50968935  0.95484769  0.33487364  1
  O  O97  1  0.00968935  0.54515231  0.66512636  1
  O  O98  1  0.49031065  0.45484769  0.16512636  1
  O  O99  1  0.99031065  0.04515231  0.83487364  1
  O  O100  1  0.49031065  0.04515231  0.66512636  1
  O  O101  1  0.99031065  0.45484769  0.33487364  1
  O  O102  1  0.50968935  0.54515231  0.83487364  1
  O  O103  1  0.00968935  0.95484769  0.16512636  1
  O  O104  1  0.75970062  0.91198274  0.30397765  1
  O  O105  1  0.25970062  0.58801726  0.69602235  1
  O  O106  1  0.24029938  0.41198274  0.19602235  1
  O  O107  1  0.74029938  0.08801726  0.80397765  1
  O  O108  1  0.24029938  0.08801726  0.69602235  1
  O  O109  1  0.74029938  0.41198274  0.30397765  1
  O  O110  1  0.75970062  0.58801726  0.80397765  1
  O  O111  1  0.25970062  0.91198274  0.19602235  1
  Mg  Mg112  1  0.58688895  0.29754735  0.25454022  1
  Mg  Mg113  1  0.08688895  0.20245265  0.74545978  1
  Mg  Mg114  1  0.41311105  0.79754735  0.24545978  1
  Mg  Mg115  1  0.91311105  0.70245265  0.75454022  1
  Mg  Mg116  1  0.41311105  0.70245265  0.74545978  1
  Mg  Mg117  1  0.91311105  0.79754735  0.25454022  1
  Mg  Mg118  1  0.58688895  0.20245265  0.75454022  1
  Mg  Mg119  1  0.08688895  0.29754735  0.24545978  1
  P  P120  1  0.65568947  0.99184847  0.36941425  1
  P  P121  1  0.15568947  0.50815153  0.63058575  1
  P  P122  1  0.34431053  0.49184847  0.13058575  1
  P  P123  1  0.84431053  0.00815153  0.86941425  1
  P  P124  1  0.34431053  0.00815153  0.63058575  1
  P  P125  1  0.84431053  0.49184847  0.36941425  1
  P  P126  1  0.65568947  0.50815153  0.86941425  1
  P  P127  1  0.15568947  0.99184847  0.13058575  1
