# generated using pymatgen
data_Hg3(ClO)2
_symmetry_space_group_name_H-M   'P 1'
_cell_length_a   6.48583804
_cell_length_b   6.95787141
_cell_length_c   7.10408480
_cell_angle_alpha   90.00000000
_cell_angle_beta   90.00000000
_cell_angle_gamma   113.74850912
_symmetry_Int_Tables_number   1
_chemical_formula_structural   Hg3(ClO)2
_chemical_formula_sum   'Hg6 Cl4 O4'
_cell_volume   293.44351471
_cell_formula_units_Z   2
loop_
 _symmetry_equiv_pos_site_id
 _symmetry_equiv_pos_as_xyz
  1  'x, y, z'
loop_
 _atom_site_type_symbol
 _atom_site_label
 _atom_site_symmetry_multiplicity
 _atom_site_fract_x
 _atom_site_fract_y
 _atom_site_fract_z
 _atom_site_occupancy
  O  O0  1  0.67503570  0.43957084  0.60391174  1
  O  O1  1  0.32496430  0.06042916  0.10391174  1
  O  O2  1  0.32496430  0.56042916  0.39608826  1
  O  O3  1  0.67503570  0.93957084  0.89608826  1
  Cl  Cl4  1  0.22048685  0.96081430  0.62586460  1
  Cl  Cl5  1  0.77951315  0.53918570  0.12586460  1
  Cl  Cl6  1  0.22048685  0.46081430  0.87413540  1
  Cl  Cl7  1  0.77951315  0.03918570  0.37413540  1
  Hg  Hg8  1  0.57675664  0.23863709  0.86401337  1
  Hg  Hg9  1  0.42324336  0.26136291  0.36401337  1
  Hg  Hg10  1  0.42324336  0.76136291  0.13598663  1
  Hg  Hg11  1  0.57675664  0.73863709  0.63598663  1
  Hg  Hg12  1  0.00000000  0.50000000  0.50000000  1
  Hg  Hg13  1  0.00000000  0.00000000  0.00000000  1
