# generated using pymatgen
data_Ca2SnS4
_symmetry_space_group_name_H-M   'P 1'
_cell_length_a   7.17077548
_cell_length_b   16.80750867
_cell_length_c   11.78263558
_cell_angle_alpha   90.00000000
_cell_angle_beta   90.00000000
_cell_angle_gamma   90.00000000
_symmetry_Int_Tables_number   1
_chemical_formula_structural   Ca2SnS4
_chemical_formula_sum   'Ca16 Sn8 S32'
_cell_volume   1420.07706865
_cell_formula_units_Z   8
loop_
 _symmetry_equiv_pos_site_id
 _symmetry_equiv_pos_as_xyz
  1  'x, y, z'
loop_
 _atom_site_type_symbol
 _atom_site_label
 _atom_site_symmetry_multiplicity
 _atom_site_fract_x
 _atom_site_fract_y
 _atom_site_fract_z
 _atom_site_occupancy
  Ca  Ca0  1  0.22811965  0.87674766  0.00516123  1
  Ca  Ca1  1  0.77188035  0.12325234  0.50516123  1
  Ca  Ca2  1  0.72811965  0.62325234  0.50516123  1
  Ca  Ca3  1  0.27188035  0.37674766  0.00516123  1
  Ca  Ca4  1  0.19269931  0.61994552  0.11738436  1
  Ca  Ca5  1  0.80730069  0.38005448  0.61738436  1
  Ca  Ca6  1  0.69269931  0.88005448  0.61738436  1
  Ca  Ca7  1  0.30730069  0.11994552  0.11738436  1
  Ca  Ca8  1  0.18146054  0.81197047  0.36858430  1
  Ca  Ca9  1  0.81853946  0.18802953  0.86858430  1
  Ca  Ca10  1  0.68146054  0.68802953  0.86858430  1
  Ca  Ca11  1  0.31853946  0.31197047  0.36858430  1
  Ca  Ca12  1  0.20993396  0.55061938  0.75484435  1
  Ca  Ca13  1  0.79006604  0.44938062  0.25484435  1
  Ca  Ca14  1  0.70993396  0.94938062  0.25484435  1
  Ca  Ca15  1  0.29006604  0.05061938  0.75484435  1
  Sn  Sn16  1  0.28080119  0.52847954  0.39720205  1
  Sn  Sn17  1  0.71919881  0.47152046  0.89720205  1
  Sn  Sn18  1  0.78080119  0.97152046  0.89720205  1
  Sn  Sn19  1  0.21919881  0.02847954  0.39720205  1
  Sn  Sn20  1  0.18838934  0.76382117  0.72543953  1
  Sn  Sn21  1  0.81161066  0.23617883  0.22543953  1
  Sn  Sn22  1  0.68838934  0.73617883  0.22543953  1
  Sn  Sn23  1  0.31161066  0.26382117  0.72543953  1
  S  S24  1  0.47423485  0.74002314  0.06514002  1
  S  S25  1  0.52576515  0.25997686  0.56514002  1
  S  S26  1  0.97423485  0.75997686  0.56514002  1
  S  S27  1  0.02576515  0.24002314  0.06514002  1
  S  S28  1  0.45308311  0.01766018  0.53787412  1
  S  S29  1  0.54691689  0.98233982  0.03787412  1
  S  S30  1  0.95308311  0.48233982  0.03787412  1
  S  S31  1  0.04691689  0.51766018  0.53787412  1
  S  S32  1  0.45485297  0.67717314  0.67442042  1
  S  S33  1  0.54514703  0.32282686  0.17442042  1
  S  S34  1  0.95485297  0.82282686  0.17442042  1
  S  S35  1  0.04514703  0.17717314  0.67442042  1
  S  S36  1  0.43063318  0.53320054  0.95662515  1
  S  S37  1  0.56936682  0.46679946  0.45662515  1
  S  S38  1  0.93063318  0.96679946  0.45662515  1
  S  S39  1  0.06936682  0.03320054  0.95662515  1
  S  S40  1  0.35869244  0.65913855  0.33427264  1
  S  S41  1  0.64130756  0.34086145  0.83427264  1
  S  S42  1  0.85869244  0.84086145  0.83427264  1
  S  S43  1  0.14130756  0.15913855  0.33427264  1
  S  S44  1  0.36180707  0.88125718  0.77504566  1
  S  S45  1  0.63819293  0.11874282  0.27504566  1
  S  S46  1  0.86180707  0.61874282  0.27504566  1
  S  S47  1  0.13819293  0.38125718  0.77504566  1
  S  S48  1  0.30517975  0.95252213  0.23318998  1
  S  S49  1  0.69482025  0.04747787  0.73318998  1
  S  S50  1  0.80517975  0.54747787  0.73318998  1
  S  S51  1  0.19482025  0.45252213  0.23318998  1
  S  S52  1  0.08756271  0.68211774  0.88901618  1
  S  S53  1  0.91243729  0.31788226  0.38901618  1
  S  S54  1  0.58756271  0.81788226  0.38901618  1
  S  S55  1  0.41243729  0.18211774  0.88901618  1
