# generated using pymatgen
data_KP(HO2)2
_symmetry_space_group_name_H-M   'P 1'
_cell_length_a   4.55953484
_cell_length_b   6.20085793
_cell_length_c   14.48586013
_cell_angle_alpha   92.03181193
_cell_angle_beta   90.00000000
_cell_angle_gamma   90.00000000
_symmetry_Int_Tables_number   1
_chemical_formula_structural   KP(HO2)2
_chemical_formula_sum   'K4 P4 H8 O16'
_cell_volume   409.30163426
_cell_formula_units_Z   4
loop_
 _symmetry_equiv_pos_site_id
 _symmetry_equiv_pos_as_xyz
  1  'x, y, z'
loop_
 _atom_site_type_symbol
 _atom_site_label
 _atom_site_symmetry_multiplicity
 _atom_site_fract_x
 _atom_site_fract_y
 _atom_site_fract_z
 _atom_site_occupancy
  H  H0  1  0.00000000  0.00000000  0.50000000  1
  H  H1  1  0.50000000  0.00000000  0.00000000  1
  H  H2  1  0.49398521  0.26073258  0.68395556  1
  H  H3  1  0.99398521  0.73926742  0.81604444  1
  H  H4  1  0.50601479  0.73926742  0.31604444  1
  H  H5  1  0.00601479  0.26073258  0.18395556  1
  H  H6  1  0.00000000  0.50000000  0.50000000  1
  H  H7  1  0.50000000  0.50000000  0.00000000  1
  O  O8  1  0.79877907  0.33591145  0.19030690  1
  O  O9  1  0.29877907  0.66408855  0.30969310  1
  O  O10  1  0.20122093  0.66408855  0.80969310  1
  O  O11  1  0.70122093  0.33591145  0.69030690  1
  O  O12  1  0.66725833  0.09563773  0.05194925  1
  O  O13  1  0.16725833  0.90436227  0.44805075  1
  O  O14  1  0.33274167  0.90436227  0.94805075  1
  O  O15  1  0.83274167  0.09563773  0.55194925  1
  O  O16  1  0.29475411  0.16344417  0.18310570  1
  O  O17  1  0.79475411  0.83655583  0.31689430  1
  O  O18  1  0.70524589  0.83655583  0.81689430  1
  O  O19  1  0.20524589  0.16344417  0.68310570  1
  O  O20  1  0.42213816  0.46622424  0.07746471  1
  O  O21  1  0.92213816  0.53377576  0.42253529  1
  O  O22  1  0.57786184  0.53377576  0.92253529  1
  O  O23  1  0.07786184  0.46622424  0.57746471  1
  P  P24  1  0.96270216  0.26091362  0.62463351  1
  P  P25  1  0.46270216  0.73908638  0.87536649  1
  P  P26  1  0.03729784  0.73908638  0.37536649  1
  P  P27  1  0.53729784  0.26091362  0.12463351  1
  K  K28  1  0.98828387  0.23300537  0.86575113  1
  K  K29  1  0.48828387  0.76699463  0.63424887  1
  K  K30  1  0.01171613  0.76699463  0.13424887  1
  K  K31  1  0.51171613  0.23300537  0.36575113  1
