# generated using pymatgen
data_Rb3B12H12I
_symmetry_space_group_name_H-M   'P 1'
_cell_length_a   7.21662050
_cell_length_b   7.21662049
_cell_length_c   7.21662050
_cell_angle_alpha   93.04506775
_cell_angle_beta   93.04506781
_cell_angle_gamma   93.04506771
_symmetry_Int_Tables_number   1
_chemical_formula_structural   Rb3B12H12I
_chemical_formula_sum   'Rb3 B12 H12 I1'
_cell_volume   374.18796373
_cell_formula_units_Z   1
loop_
 _symmetry_equiv_pos_site_id
 _symmetry_equiv_pos_as_xyz
  1  'x, y, z'
loop_
 _atom_site_type_symbol
 _atom_site_label
 _atom_site_symmetry_multiplicity
 _atom_site_fract_x
 _atom_site_fract_y
 _atom_site_fract_z
 _atom_site_occupancy
  H  H0  1  0.79620340  0.79620340  0.26726796  1
  H  H1  1  0.79620340  0.26726796  0.79620340  1
  H  H2  1  0.26726796  0.79620340  0.79620340  1
  H  H3  1  0.73273204  0.20379660  0.20379660  1
  H  H4  1  0.90232274  0.90232274  0.61123062  1
  H  H5  1  0.90232274  0.61123062  0.90232274  1
  H  H6  1  0.61123062  0.90232274  0.90232274  1
  H  H7  1  0.38876938  0.09767726  0.09767726  1
  H  H8  1  0.09767726  0.09767726  0.38876938  1
  H  H9  1  0.09767726  0.38876938  0.09767726  1
  H  H10  1  0.20379660  0.20379660  0.73273204  1
  H  H11  1  0.20379660  0.73273204  0.20379660  1
  B  B12  1  0.84355889  0.11863873  0.11863873  1
  B  B13  1  0.15644111  0.88136127  0.88136127  1
  B  B14  1  0.88136127  0.15644111  0.88136127  1
  B  B15  1  0.88136127  0.88136127  0.15644111  1
  B  B16  1  0.05738600  0.05738600  0.22726574  1
  B  B17  1  0.05738600  0.22726574  0.05738600  1
  B  B18  1  0.22726574  0.05738600  0.05738600  1
  B  B19  1  0.77273426  0.94261400  0.94261400  1
  B  B20  1  0.94261400  0.94261400  0.77273426  1
  B  B21  1  0.94261400  0.77273426  0.94261400  1
  B  B22  1  0.11863873  0.11863873  0.84355889  1
  B  B23  1  0.11863873  0.84355889  0.11863873  1
  Rb  Rb24  1  0.50000000  0.50000000  0.00000000  1
  Rb  Rb25  1  0.50000000  0.00000000  0.50000000  1
  Rb  Rb26  1  0.00000000  0.50000000  0.50000000  1
  I  I27  1  0.50000000  0.50000000  0.50000000  1
