# generated using pymatgen
data_Sr3NiPbO6
_symmetry_space_group_name_H-M   'P 1'
_cell_length_a   6.83601826
_cell_length_b   6.83601826
_cell_length_c   6.83601826
_cell_angle_alpha   91.69519316
_cell_angle_beta   91.69519323
_cell_angle_gamma   91.69519315
_symmetry_Int_Tables_number   1
_chemical_formula_structural   Sr3NiPbO6
_chemical_formula_sum   'Sr6 Ni2 Pb2 O12'
_cell_volume   319.02706720
_cell_formula_units_Z   2
loop_
 _symmetry_equiv_pos_site_id
 _symmetry_equiv_pos_as_xyz
  1  'x, y, z'
loop_
 _atom_site_type_symbol
 _atom_site_label
 _atom_site_symmetry_multiplicity
 _atom_site_fract_x
 _atom_site_fract_y
 _atom_site_fract_z
 _atom_site_occupancy
  O  O0  1  0.79308419  0.59609771  0.45873556  1
  O  O1  1  0.59609771  0.45873556  0.79308419  1
  O  O2  1  0.45873556  0.79308419  0.59609771  1
  O  O3  1  0.04126444  0.90390229  0.70691581  1
  O  O4  1  0.90390229  0.70691581  0.04126444  1
  O  O5  1  0.70691581  0.04126444  0.90390229  1
  O  O6  1  0.20691581  0.40390229  0.54126444  1
  O  O7  1  0.40390229  0.54126444  0.20691581  1
  O  O8  1  0.54126444  0.20691581  0.40390229  1
  O  O9  1  0.95873556  0.09609771  0.29308419  1
  O  O10  1  0.29308419  0.95873556  0.09609771  1
  O  O11  1  0.09609771  0.29308419  0.95873556  1
  Ni  Ni12  1  0.50000000  0.50000000  0.50000000  1
  Ni  Ni13  1  0.00000000  0.00000000  0.00000000  1
  Sr  Sr14  1  0.37867524  0.12132476  0.75000000  1
  Sr  Sr15  1  0.87867524  0.25000000  0.62132476  1
  Sr  Sr16  1  0.25000000  0.62132476  0.87867524  1
  Sr  Sr17  1  0.62132476  0.87867524  0.25000000  1
  Sr  Sr18  1  0.12132476  0.75000000  0.37867524  1
  Sr  Sr19  1  0.75000000  0.37867524  0.12132476  1
  Pb  Pb20  1  0.75000000  0.75000000  0.75000000  1
  Pb  Pb21  1  0.25000000  0.25000000  0.25000000  1
