# generated using pymatgen
data_LiCoAsO4
_symmetry_space_group_name_H-M   'P 1'
_cell_length_a   4.96329721
_cell_length_b   6.04573546
_cell_length_c   10.60438651
_cell_angle_alpha   90.00000000
_cell_angle_beta   90.00000000
_cell_angle_gamma   90.00000000
_symmetry_Int_Tables_number   1
_chemical_formula_structural   LiCoAsO4
_chemical_formula_sum   'Li4 Co4 As4 O16'
_cell_volume   318.20351362
_cell_formula_units_Z   4
loop_
 _symmetry_equiv_pos_site_id
 _symmetry_equiv_pos_as_xyz
  1  'x, y, z'
loop_
 _atom_site_type_symbol
 _atom_site_label
 _atom_site_symmetry_multiplicity
 _atom_site_fract_x
 _atom_site_fract_y
 _atom_site_fract_z
 _atom_site_occupancy
  Li  Li0  1  0.00000000  0.00000000  0.00000000  1
  Li  Li1  1  0.50000000  0.00000000  0.50000000  1
  Li  Li2  1  0.00000000  0.50000000  0.00000000  1
  Li  Li3  1  0.50000000  0.50000000  0.50000000  1
  O  O4  1  0.77973003  0.53013945  0.32810759  1
  O  O5  1  0.22026997  0.46986055  0.67189241  1
  O  O6  1  0.72026997  0.53013945  0.82810759  1
  O  O7  1  0.77973003  0.96986055  0.32810759  1
  O  O8  1  0.27973003  0.03013945  0.17189241  1
  O  O9  1  0.78218620  0.25000000  0.09585341  1
  O  O10  1  0.27973003  0.46986055  0.17189241  1
  O  O11  1  0.22026997  0.03013945  0.67189241  1
  O  O12  1  0.21781380  0.75000000  0.90414659  1
  O  O13  1  0.71781380  0.25000000  0.59585341  1
  O  O14  1  0.79322380  0.75000000  0.55266154  1
  O  O15  1  0.28218620  0.75000000  0.40414659  1
  O  O16  1  0.70677620  0.75000000  0.05266154  1
  O  O17  1  0.29322380  0.25000000  0.94733846  1
  O  O18  1  0.20677620  0.25000000  0.44733846  1
  O  O19  1  0.72026997  0.96986055  0.82810759  1
  Co  Co20  1  0.00598563  0.75000000  0.72278546  1
  Co  Co21  1  0.99401437  0.25000000  0.27721454  1
  Co  Co22  1  0.49401437  0.75000000  0.22278546  1
  Co  Co23  1  0.50598563  0.25000000  0.77721454  1
  As  As24  1  0.06176193  0.25000000  0.59541318  1
  As  As25  1  0.43823807  0.25000000  0.09541318  1
  As  As26  1  0.93823807  0.75000000  0.40458682  1
  As  As27  1  0.56176193  0.75000000  0.90458682  1
