# generated using pymatgen
data_CaSnS3
_symmetry_space_group_name_H-M   'P 1'
_cell_length_a   6.73063769
_cell_length_b   7.06358033
_cell_length_c   9.63491778
_cell_angle_alpha   90.00005095
_cell_angle_beta   90.00008776
_cell_angle_gamma   90.00028938
_symmetry_Int_Tables_number   1
_chemical_formula_structural   CaSnS3
_chemical_formula_sum   'Ca4 Sn4 S12'
_cell_volume   458.06711502
_cell_formula_units_Z   4
loop_
 _symmetry_equiv_pos_site_id
 _symmetry_equiv_pos_as_xyz
  1  'x, y, z'
loop_
 _atom_site_type_symbol
 _atom_site_label
 _atom_site_symmetry_multiplicity
 _atom_site_fract_x
 _atom_site_fract_y
 _atom_site_fract_z
 _atom_site_occupancy
  Ca  Ca0  1  0.46857523  0.41195641  0.74999924  1
  Ca  Ca1  1  0.03143178  0.91197812  0.75000128  1
  Ca  Ca2  1  0.53143157  0.58803590  0.25000198  1
  Ca  Ca3  1  0.96856872  0.08802881  0.24999844  1
  Sn  Sn4  1  0.50000046  0.00000082  0.50000020  1
  Sn  Sn5  1  -0.00000009  0.50000050  0.00000008  1
  Sn  Sn6  1  0.50000154  0.00000108  -0.00000064  1
  Sn  Sn7  1  -0.00000122  0.50000071  0.49999969  1
  S  S8  1  0.63313602  0.04837907  0.75000000  1
  S  S9  1  0.86687062  0.54838635  0.75000094  1
  S  S10  1  0.36685905  0.95162043  0.25000058  1
  S  S11  1  0.13312833  0.45161116  0.25000039  1
  S  S12  1  0.18598083  0.19104456  0.93507534  1
  S  S13  1  0.31402226  0.69104240  0.56492185  1
  S  S14  1  0.81401826  0.80895637  0.43507866  1
  S  S15  1  0.68597645  0.30895595  0.06491908  1
  S  S16  1  0.81402122  0.80895839  0.06492383  1
  S  S17  1  0.68597706  0.30895609  0.43507962  1
  S  S18  1  0.18597955  0.19104513  0.56492172  1
  S  S19  1  0.31402236  0.69104177  0.93507774  1
