# generated using pymatgen
data_Na3SbH18S4O9
_symmetry_space_group_name_H-M   'P 1'
_cell_length_a   12.01488051
_cell_length_b   12.01488051
_cell_length_c   12.01488051
_cell_angle_alpha   90.00000000
_cell_angle_beta   90.00000000
_cell_angle_gamma   90.00000000
_symmetry_Int_Tables_number   1
_chemical_formula_structural   Na3SbH18S4O9
_chemical_formula_sum   'Na12 Sb4 H72 S16 O36'
_cell_volume   1734.43635508
_cell_formula_units_Z   4
loop_
 _symmetry_equiv_pos_site_id
 _symmetry_equiv_pos_as_xyz
  1  'x, y, z'
loop_
 _atom_site_type_symbol
 _atom_site_label
 _atom_site_symmetry_multiplicity
 _atom_site_fract_x
 _atom_site_fract_y
 _atom_site_fract_z
 _atom_site_occupancy
  H  H0  1  0.44227602  0.69559964  0.87366298  1
  H  H1  1  0.94227602  0.80440036  0.12633702  1
  H  H2  1  0.55772398  0.19559964  0.62633702  1
  H  H3  1  0.80440036  0.12633702  0.94227602  1
  H  H4  1  0.62633702  0.55772398  0.19559964  1
  H  H5  1  0.12633702  0.94227602  0.80440036  1
  H  H6  1  0.69559964  0.87366298  0.44227602  1
  H  H7  1  0.87366298  0.44227602  0.69559964  1
  H  H8  1  0.19559964  0.62633702  0.55772398  1
  H  H9  1  0.30440036  0.37366298  0.05772398  1
  H  H10  1  0.37366298  0.05772398  0.30440036  1
  H  H11  1  0.05772398  0.30440036  0.37366298  1
  H  H12  1  0.45336952  0.77913554  0.77398180  1
  H  H13  1  0.95336952  0.72086446  0.22601820  1
  H  H14  1  0.54663048  0.27913554  0.72601820  1
  H  H15  1  0.72086446  0.22601820  0.95336952  1
  H  H16  1  0.72601820  0.54663048  0.27913554  1
  H  H17  1  0.22601820  0.95336952  0.72086446  1
  H  H18  1  0.77913554  0.77398180  0.45336952  1
  H  H19  1  0.77398180  0.45336952  0.77913554  1
  H  H20  1  0.27913554  0.72601820  0.54663048  1
  H  H21  1  0.22086446  0.27398180  0.04663048  1
  H  H22  1  0.27398180  0.04663048  0.22086446  1
  H  H23  1  0.04663048  0.22086446  0.27398180  1
  H  H24  1  0.32708095  0.23980426  0.54171540  1
  H  H25  1  0.82708095  0.26019574  0.45828460  1
  H  H26  1  0.67291905  0.73980426  0.95828460  1
  H  H27  1  0.26019574  0.45828460  0.82708095  1
  H  H28  1  0.95828460  0.67291905  0.73980426  1
  H  H29  1  0.45828460  0.82708095  0.26019574  1
  H  H30  1  0.23980426  0.54171540  0.32708095  1
  H  H31  1  0.54171540  0.32708095  0.23980426  1
  H  H32  1  0.73980426  0.95828460  0.67291905  1
  H  H33  1  0.76019574  0.04171540  0.17291905  1
  H  H34  1  0.20010937  0.08246444  0.52080047  1
  H  H35  1  0.04171540  0.17291905  0.76019574  1
  H  H36  1  0.24460906  0.34011364  0.52218659  1
  H  H37  1  0.74460906  0.15988636  0.47781341  1
  H  H38  1  0.75539094  0.84011364  0.97781341  1
  H  H39  1  0.15988636  0.47781341  0.74460906  1
  H  H40  1  0.97781341  0.75539094  0.84011364  1
  H  H41  1  0.47781341  0.74460906  0.15988636  1
  H  H42  1  0.34011364  0.52218659  0.24460906  1
  H  H43  1  0.52218659  0.24460906  0.34011364  1
  H  H44  1  0.84011364  0.97781341  0.75539094  1
  H  H45  1  0.65988636  0.02218659  0.25539094  1
  H  H46  1  0.02218659  0.25539094  0.65988636  1
  H  H47  1  0.25539094  0.65988636  0.02218659  1
  H  H48  1  0.57703905  0.63155556  0.35971262  1
  H  H49  1  0.07703905  0.86844444  0.64028738  1
  H  H50  1  0.42296095  0.13155556  0.14028738  1
  H  H51  1  0.86844444  0.64028738  0.07703905  1
  H  H52  1  0.14028738  0.42296095  0.13155556  1
  H  H53  1  0.64028738  0.07703905  0.86844444  1
  H  H54  1  0.63155556  0.35971262  0.57703905  1
  H  H55  1  0.35971262  0.57703905  0.63155556  1
  H  H56  1  0.13155556  0.14028738  0.42296095  1
  H  H57  1  0.36844444  0.85971262  0.92296095  1
  H  H58  1  0.85971262  0.92296095  0.36844444  1
  H  H59  1  0.92296095  0.36844444  0.85971262  1
  H  H60  1  0.47919953  0.70010937  0.41753556  1
  H  H61  1  0.97919953  0.79989063  0.58246444  1
  H  H62  1  0.52080047  0.20010937  0.08246444  1
  H  H63  1  0.79989063  0.58246444  0.97919953  1
  H  H64  1  0.08246444  0.52080047  0.20010937  1
  H  H65  1  0.58246444  0.97919953  0.79989063  1
  H  H66  1  0.70010937  0.41753556  0.47919953  1
  H  H67  1  0.41753556  0.47919953  0.70010937  1
  H  H68  1  0.02080047  0.29989063  0.91753556  1
  H  H69  1  0.91753556  0.02080047  0.29989063  1
  H  H70  1  0.29989063  0.91753556  0.02080047  1
  H  H71  1  0.17291905  0.76019574  0.04171540  1
  O  O72  1  0.40005114  0.75035979  0.83037335  1
  O  O73  1  0.90005114  0.74964021  0.16962665  1
  O  O74  1  0.59994886  0.25035979  0.66962665  1
  O  O75  1  0.74964021  0.16962665  0.90005114  1
  O  O76  1  0.66962665  0.59994886  0.25035979  1
  O  O77  1  0.16962665  0.90005114  0.74964021  1
  O  O78  1  0.75035979  0.83037335  0.40005114  1
  O  O79  1  0.83037335  0.40005114  0.75035979  1
  O  O80  1  0.25035979  0.66962665  0.59994886  1
  O  O81  1  0.24964021  0.33037335  0.09994886  1
  O  O82  1  0.33037335  0.09994886  0.24964021  1
  O  O83  1  0.09994886  0.24964021  0.33037335  1
  O  O84  1  0.31341328  0.30535749  0.49378151  1
  O  O85  1  0.81341328  0.19464251  0.50621849  1
  O  O86  1  0.68658672  0.80535749  0.00621849  1
  O  O87  1  0.19464251  0.50621849  0.81341328  1
  O  O88  1  0.00621849  0.68658672  0.80535749  1
  O  O89  1  0.50621849  0.81341328  0.19464251  1
  O  O90  1  0.30535749  0.49378151  0.31341328  1
  O  O91  1  0.49378151  0.31341328  0.30535749  1
  O  O92  1  0.80535749  0.00621849  0.68658672  1
  O  O93  1  0.69464251  0.99378151  0.18658672  1
  O  O94  1  0.99378151  0.18658672  0.69464251  1
  O  O95  1  0.18658672  0.69464251  0.99378151  1
  O  O96  1  0.52772445  0.63438698  0.42595019  1
  O  O97  1  0.02772445  0.86561302  0.57404981  1
  O  O98  1  0.47227555  0.13438698  0.07404981  1
  O  O99  1  0.86561302  0.57404981  0.02772445  1
  O  O100  1  0.07404981  0.47227555  0.13438698  1
  O  O101  1  0.57404981  0.02772445  0.86561302  1
  O  O102  1  0.63438698  0.42595019  0.52772445  1
  O  O103  1  0.42595019  0.52772445  0.63438698  1
  O  O104  1  0.13438698  0.07404981  0.47227555  1
  O  O105  1  0.36561302  0.92595019  0.97227555  1
  O  O106  1  0.92595019  0.97227555  0.36561302  1
  O  O107  1  0.97227555  0.36561302  0.92595019  1
  Na  Na108  1  0.29199132  0.29199132  0.29199132  1
  Na  Na109  1  0.95034946  0.04965054  0.54965054  1
  Na  Na110  1  0.54965054  0.95034946  0.04965054  1
  Na  Na111  1  0.60514674  0.60514674  0.60514674  1
  Na  Na112  1  0.89485326  0.39485326  0.10514674  1
  Na  Na113  1  0.10514674  0.89485326  0.39485326  1
  Na  Na114  1  0.39485326  0.10514674  0.89485326  1
  Na  Na115  1  0.70800868  0.79199132  0.20800868  1
  Na  Na116  1  0.79199132  0.20800868  0.70800868  1
  Na  Na117  1  0.20800868  0.70800868  0.79199132  1
  Na  Na118  1  0.45034946  0.45034946  0.45034946  1
  Na  Na119  1  0.04965054  0.54965054  0.95034946  1
  S  S120  1  0.07612055  0.42387945  0.57612055  1
  S  S121  1  0.14614502  0.15390392  0.92120950  1
  S  S122  1  0.57612055  0.07612055  0.42387945  1
  S  S123  1  0.92387945  0.92387945  0.92387945  1
  S  S124  1  0.92120950  0.14614502  0.15390392  1
  S  S125  1  0.15390392  0.92120950  0.14614502  1
  S  S126  1  0.34609608  0.07879050  0.64614502  1
  S  S127  1  0.42120950  0.35385498  0.84609608  1
  S  S128  1  0.84609608  0.42120950  0.35385498  1
  S  S129  1  0.57879050  0.85385498  0.65390392  1
  S  S130  1  0.07879050  0.64614502  0.34609608  1
  S  S131  1  0.65390392  0.57879050  0.85385498  1
  S  S132  1  0.64614502  0.34609608  0.07879050  1
  S  S133  1  0.85385498  0.65390392  0.57879050  1
  S  S134  1  0.42387945  0.57612055  0.07612055  1
  S  S135  1  0.35385498  0.84609608  0.42120950  1
  Sb  Sb136  1  0.03768747  0.03768747  0.03768747  1
  Sb  Sb137  1  0.46231253  0.96231253  0.53768747  1
  Sb  Sb138  1  0.53768747  0.46231253  0.96231253  1
  Sb  Sb139  1  0.96231253  0.53768747  0.46231253  1
