# generated using pymatgen
data_Fe4Ni3(PO4)6
_symmetry_space_group_name_H-M   'P 1'
_cell_length_a   6.38020886
_cell_length_b   8.00470893
_cell_length_c   9.32780912
_cell_angle_alpha   104.49159963
_cell_angle_beta   108.49847834
_cell_angle_gamma   101.22832446
_symmetry_Int_Tables_number   1
_chemical_formula_structural   Fe4Ni3(PO4)6
_chemical_formula_sum   'Fe4 Ni3 P6 O24'
_cell_volume   417.45205943
_cell_formula_units_Z   1
loop_
 _symmetry_equiv_pos_site_id
 _symmetry_equiv_pos_as_xyz
  1  'x, y, z'
loop_
 _atom_site_type_symbol
 _atom_site_label
 _atom_site_symmetry_multiplicity
 _atom_site_fract_x
 _atom_site_fract_y
 _atom_site_fract_z
 _atom_site_occupancy
  O  O0  1  0.78914953  0.05146164  0.29338420  1
  O  O1  1  0.21085047  0.94853836  0.70661580  1
  O  O2  1  0.45220641  0.36474788  0.29186990  1
  O  O3  1  0.54779359  0.63525212  0.70813010  1
  O  O4  1  0.27508885  0.03681933  0.23841944  1
  O  O5  1  0.72491115  0.96318067  0.76158056  1
  O  O6  1  0.53823322  0.73598181  0.22373178  1
  O  O7  1  0.46176678  0.26401819  0.77626822  1
  O  O8  1  0.63275485  0.22956578  0.49758014  1
  O  O9  1  0.36724515  0.77043422  0.50241986  1
  O  O10  1  0.75131602  0.72719585  0.53309824  1
  O  O11  1  0.24868398  0.27280415  0.46690176  1
  O  O12  1  0.11580177  0.78826472  0.92153027  1
  O  O13  1  0.76851058  0.80586749  0.05281773  1
  O  O14  1  0.23148942  0.19413251  0.94718227  1
  O  O15  1  0.12616110  0.53276782  0.16278914  1
  O  O16  1  0.87383890  0.46723218  0.83721086  1
  O  O17  1  0.93592149  0.44798069  0.34578498  1
  O  O18  1  0.06407851  0.55201931  0.65421502  1
  O  O19  1  0.97837340  0.80699424  0.33258955  1
  O  O20  1  0.02162660  0.19300576  0.66741045  1
  O  O21  1  0.69243770  0.46349244  0.08475528  1
  O  O22  1  0.30756230  0.53650756  0.91524472  1
  O  O23  1  0.88419823  0.21173528  0.07846973  1
  P  P24  1  0.39765183  0.22523620  0.37240413  1
  P  P25  1  0.60234817  0.77476380  0.62759587  1
  P  P26  1  0.23351384  0.14698716  0.77351189  1
  P  P27  1  0.76648616  0.85301284  0.22648811  1
  P  P28  1  0.09106901  0.59596825  0.83369118  1
  P  P29  1  0.90893099  0.40403175  0.16630882  1
  Fe  Fe30  1  0.38800653  0.45208841  0.11767510  1
  Fe  Fe31  1  0.61199347  0.54791159  0.88232490  1
  Fe  Fe32  1  0.95285065  0.27591203  0.47407804  1
  Fe  Fe33  1  0.04714935  0.72408797  0.52592196  1
  Ni  Ni34  1  0.73043573  0.19818726  0.72133516  1
  Ni  Ni35  1  0.26956427  0.80181274  0.27866484  1
  Ni  Ni36  1  0.00000000  0.00000000  0.00000000  1
