# generated using pymatgen
data_Rb3B12H12Cl
_symmetry_space_group_name_H-M   'P 1'
_cell_length_a   7.05809954
_cell_length_b   7.05809954
_cell_length_c   7.05809954
_cell_angle_alpha   92.84620129
_cell_angle_beta   92.84620133
_cell_angle_gamma   92.84620132
_symmetry_Int_Tables_number   1
_chemical_formula_structural   Rb3B12H12Cl
_chemical_formula_sum   'Rb3 B12 H12 Cl1'
_cell_volume   350.26567161
_cell_formula_units_Z   1
loop_
 _symmetry_equiv_pos_site_id
 _symmetry_equiv_pos_as_xyz
  1  'x, y, z'
loop_
 _atom_site_type_symbol
 _atom_site_label
 _atom_site_symmetry_multiplicity
 _atom_site_fract_x
 _atom_site_fract_y
 _atom_site_fract_z
 _atom_site_occupancy
  H  H0  1  0.79095372  0.79095372  0.27227326  1
  H  H1  1  0.79095372  0.27227326  0.79095372  1
  H  H2  1  0.27227326  0.79095372  0.79095372  1
  H  H3  1  0.72772674  0.20904628  0.20904628  1
  H  H4  1  0.90067600  0.90067600  0.60413801  1
  H  H5  1  0.90067600  0.60413801  0.90067600  1
  H  H6  1  0.60413801  0.90067600  0.90067600  1
  H  H7  1  0.39586199  0.09932400  0.09932400  1
  H  H8  1  0.09932400  0.09932400  0.39586199  1
  H  H9  1  0.09932400  0.39586199  0.09932400  1
  H  H10  1  0.20904628  0.20904628  0.72772674  1
  H  H11  1  0.20904628  0.72772674  0.20904628  1
  B  B12  1  0.83992576  0.12132681  0.12132681  1
  B  B13  1  0.16007424  0.87867319  0.87867319  1
  B  B14  1  0.87867319  0.16007424  0.87867319  1
  B  B15  1  0.87867319  0.87867319  0.16007424  1
  B  B16  1  0.05797325  0.05797325  0.23155053  1
  B  B17  1  0.05797325  0.23155053  0.05797325  1
  B  B18  1  0.23155053  0.05797325  0.05797325  1
  B  B19  1  0.76844947  0.94202675  0.94202675  1
  B  B20  1  0.94202675  0.94202675  0.76844947  1
  B  B21  1  0.94202675  0.76844947  0.94202675  1
  B  B22  1  0.12132681  0.12132681  0.83992576  1
  B  B23  1  0.12132681  0.83992576  0.12132681  1
  Cl  Cl24  1  0.50000000  0.50000000  0.50000000  1
  Rb  Rb25  1  0.50000000  0.00000000  0.50000000  1
  Rb  Rb26  1  0.00000000  0.50000000  0.50000000  1
  Rb  Rb27  1  0.50000000  0.50000000  0.00000000  1
