# generated using pymatgen
data_CaP2(HO2)4
_symmetry_space_group_name_H-M   'P 1'
_cell_length_a   5.57982915
_cell_length_b   7.81037962
_cell_length_c   8.46386598
_cell_angle_alpha   66.40322103
_cell_angle_beta   69.85920642
_cell_angle_gamma   86.32968126
_symmetry_Int_Tables_number   1
_chemical_formula_structural   CaP2(HO2)4
_chemical_formula_sum   'Ca2 P4 H8 O16'
_cell_volume   316.17775416
_cell_formula_units_Z   2
loop_
 _symmetry_equiv_pos_site_id
 _symmetry_equiv_pos_as_xyz
  1  'x, y, z'
loop_
 _atom_site_type_symbol
 _atom_site_label
 _atom_site_symmetry_multiplicity
 _atom_site_fract_x
 _atom_site_fract_y
 _atom_site_fract_z
 _atom_site_occupancy
  H  H0  1  0.00000000  0.50000000  0.00000000  1
  H  H1  1  0.00000000  0.00000000  0.50000000  1
  H  H2  1  0.63004755  0.14382059  0.21916165  1
  H  H3  1  0.36995245  0.85617941  0.78083835  1
  H  H4  1  0.24258821  0.01761902  0.00142947  1
  H  H5  1  0.75741179  0.98238098  0.99857053  1
  H  H6  1  0.34274022  0.32244857  0.06232590  1
  H  H7  1  0.65725978  0.67755143  0.93767410  1
  O  O8  1  0.47259532  0.71397318  0.96997026  1
  O  O9  1  0.59151629  0.81472951  0.18420439  1
  O  O10  1  0.52740468  0.28602682  0.03002974  1
  O  O11  1  0.40848371  0.18527049  0.81579561  1
  O  O12  1  0.83221582  0.10130619  0.88139934  1
  O  O13  1  0.16778418  0.89869381  0.11860066  1
  O  O14  1  0.19594317  0.57844055  0.31884884  1
  O  O15  1  0.66899056  0.39620305  0.37534258  1
  O  O16  1  0.05482057  0.37020247  0.11527965  1
  O  O17  1  0.94517943  0.62979753  0.88472035  1
  O  O18  1  0.33100944  0.60379695  0.62465742  1
  O  O19  1  0.01055278  0.16872235  0.44433215  1
  O  O20  1  0.28997007  0.90294595  0.68421739  1
  O  O21  1  0.71002993  0.09705405  0.31578261  1
  O  O22  1  0.98944722  0.83127765  0.55566785  1
  O  O23  1  0.80405683  0.42155945  0.68115116  1
  P  P24  1  0.14064301  0.73214621  0.68679733  1
  P  P25  1  0.85935699  0.26785379  0.31320267  1
  P  P26  1  0.36540152  0.74462429  0.15706138  1
  P  P27  1  0.63459848  0.25537571  0.84293862  1
  Ca  Ca28  1  0.77168608  0.68235200  0.41985044  1
  Ca  Ca29  1  0.22831392  0.31764800  0.58014956  1
