# generated using pymatgen
data_Mg2VBiO6
_symmetry_space_group_name_H-M   'P 1'
_cell_length_a   5.52463374
_cell_length_b   8.01462682
_cell_length_c   12.49227741
_cell_angle_alpha   90.00000000
_cell_angle_beta   90.00000000
_cell_angle_gamma   90.00000000
_symmetry_Int_Tables_number   1
_chemical_formula_structural   Mg2VBiO6
_chemical_formula_sum   'Mg8 V4 Bi4 O24'
_cell_volume   553.13153190
_cell_formula_units_Z   4
loop_
 _symmetry_equiv_pos_site_id
 _symmetry_equiv_pos_as_xyz
  1  'x, y, z'
loop_
 _atom_site_type_symbol
 _atom_site_label
 _atom_site_symmetry_multiplicity
 _atom_site_fract_x
 _atom_site_fract_y
 _atom_site_fract_z
 _atom_site_occupancy
  O  O0  1  0.74999918  0.78915145  0.24077931  1
  O  O1  1  0.25000033  0.21084887  0.75922015  1
  O  O2  1  0.25000033  0.28915066  0.25922042  1
  O  O3  1  0.74999918  0.71084840  0.74077985  1
  O  O4  1  0.25000033  0.63655229  0.29352431  1
  O  O5  1  0.74999918  0.36344802  0.70647596  1
  O  O6  1  0.74999918  0.13655151  0.20647623  1
  O  O7  1  0.25000033  0.86344756  0.79352404  1
  O  O8  1  0.50210677  0.67131699  0.50738176  1
  O  O9  1  0.00210611  0.32868332  0.49261771  1
  O  O10  1  0.49789455  0.17131746  0.99261824  1
  O  O11  1  0.99789340  0.82868286  0.00738202  1
  O  O12  1  0.49789455  0.32868332  0.49261771  1
  O  O13  1  0.99789340  0.67131699  0.50738176  1
  O  O14  1  0.50210677  0.82868286  0.00738202  1
  O  O15  1  0.00210611  0.17131746  0.99261824  1
  O  O16  1  0.98966570  0.00656107  0.61727946  1
  O  O17  1  0.48966504  0.99343925  0.38272081  1
  O  O18  1  0.01033563  0.50656060  0.88272054  1
  O  O19  1  0.51033448  0.49343972  0.11727972  1
  O  O20  1  0.48966504  0.50656060  0.88272054  1
  O  O21  1  0.51033448  0.00656107  0.61727946  1
  O  O22  1  0.98966570  0.49343972  0.11727972  1
  O  O23  1  0.01033563  0.99343925  0.38272081  1
  Mg  Mg24  1  0.25000033  0.18780364  0.40524947  1
  Mg  Mg25  1  0.74999918  0.81219668  0.59475080  1
  Mg  Mg26  1  0.74999918  0.68780317  0.09475106  1
  Mg  Mg27  1  0.25000033  0.31219714  0.90524920  1
  Mg  Mg28  1  0.74999918  0.19876035  0.58473742  1
  Mg  Mg29  1  0.74999918  0.30123918  0.08473769  1
  Mg  Mg30  1  0.25000033  0.69875988  0.91526258  1
  Mg  Mg31  1  0.25000033  0.80123996  0.41526284  1
  V  V32  1  0.25000033  0.01866666  0.69841051  1
  V  V33  1  0.74999918  0.51866744  0.80158949  1
  V  V34  1  0.74999918  0.98133366  0.30158976  1
  V  V35  1  0.25000033  0.48133288  0.19841077  1
  Bi  Bi36  1  0.74999918  0.51272407  0.40928678  1
  Bi  Bi37  1  0.25000033  0.48727625  0.59071349  1
  Bi  Bi38  1  0.25000033  0.01272328  0.09071376  1
  Bi  Bi39  1  0.74999918  0.98727703  0.90928651  1
