# generated using pymatgen
data_Zr5Sb3
_symmetry_space_group_name_H-M   'P 1'
_cell_length_a   5.79913312
_cell_length_b   8.51622362
_cell_length_c   8.51927104
_cell_angle_alpha   119.98817190
_cell_angle_beta   90.00000000
_cell_angle_gamma   90.00000000
_symmetry_Int_Tables_number   1
_chemical_formula_structural   Zr5Sb3
_chemical_formula_sum   'Zr10 Sb6'
_cell_volume   364.41391536
_cell_formula_units_Z   2
loop_
 _symmetry_equiv_pos_site_id
 _symmetry_equiv_pos_as_xyz
  1  'x, y, z'
loop_
 _atom_site_type_symbol
 _atom_site_label
 _atom_site_symmetry_multiplicity
 _atom_site_fract_x
 _atom_site_fract_y
 _atom_site_fract_z
 _atom_site_occupancy
  Zr  Zr0  1  0.74998590  0.25273235  0.00000000  1
  Zr  Zr1  1  0.75000941  0.74702327  0.74678063  1
  Zr  Zr2  1  0.75000941  0.00024263  0.25321937  1
  Zr  Zr3  1  0.24998590  0.74726765  1.00000000  1
  Zr  Zr4  1  0.25000941  0.25297673  0.25321937  1
  Zr  Zr5  1  0.25000941  0.99975737  0.74678063  1
  Zr  Zr6  1  0.50000139  0.33338601  0.66676268  1
  Zr  Zr7  1  0.50000139  0.66662333  0.33323732  1
  Zr  Zr8  1  0.00000139  0.66661399  0.33323732  1
  Zr  Zr9  1  0.00000139  0.33337667  0.66676268  1
  Sb  Sb10  1  0.74998351  0.61236421  0.00000000  1
  Sb  Sb11  1  0.75000449  0.38794936  0.38795419  1
  Sb  Sb12  1  0.75000449  -0.00000483  0.61204581  1
  Sb  Sb13  1  0.24998351  0.38763579  1.00000000  1
  Sb  Sb14  1  0.25000449  0.61205064  0.61204581  1
  Sb  Sb15  1  0.25000449  0.00000483  0.38795419  1
