# generated using pymatgen
data_Cd4As2I3
_symmetry_space_group_name_H-M   'P 1'
_cell_length_a   13.30855151
_cell_length_b   13.30855151
_cell_length_c   13.30855151
_cell_angle_alpha   90.00000000
_cell_angle_beta   90.00000000
_cell_angle_gamma   90.00000000
_symmetry_Int_Tables_number   1
_chemical_formula_structural   Cd4As2I3
_chemical_formula_sum   'Cd32 As16 I24'
_cell_volume   2357.17794826
_cell_formula_units_Z   8
loop_
 _symmetry_equiv_pos_site_id
 _symmetry_equiv_pos_as_xyz
  1  'x, y, z'
loop_
 _atom_site_type_symbol
 _atom_site_label
 _atom_site_symmetry_multiplicity
 _atom_site_fract_x
 _atom_site_fract_y
 _atom_site_fract_z
 _atom_site_occupancy
  As  As0  1  0.10828750  0.10828750  0.10828750  1
  As  As1  1  0.39171250  0.89171250  0.60828750  1
  As  As2  1  0.60828750  0.39171250  0.89171250  1
  As  As3  1  0.89171250  0.60828750  0.39171250  1
  As  As4  1  0.89171250  0.89171250  0.89171250  1
  As  As5  1  0.60828750  0.10828750  0.39171250  1
  As  As6  1  0.39171250  0.60828750  0.10828750  1
  As  As7  1  0.10828750  0.39171250  0.60828750  1
  As  As8  1  0.44656290  0.44656290  0.44656290  1
  As  As9  1  0.05343710  0.55343710  0.94656290  1
  As  As10  1  0.94656290  0.05343710  0.55343710  1
  As  As11  1  0.55343710  0.94656290  0.05343710  1
  As  As12  1  0.55343710  0.55343710  0.55343710  1
  As  As13  1  0.94656290  0.44656290  0.05343710  1
  As  As14  1  0.05343710  0.94656290  0.44656290  1
  As  As15  1  0.44656290  0.05343710  0.94656290  1
  Cd  Cd16  1  0.03396257  0.00089785  0.25605631  1
  Cd  Cd17  1  0.25605631  0.03396257  0.00089785  1
  Cd  Cd18  1  0.00089785  0.25605631  0.03396257  1
  Cd  Cd19  1  0.49910215  0.74394369  0.53396257  1
  Cd  Cd20  1  0.75605631  0.46603743  0.99910215  1
  Cd  Cd21  1  0.99910215  0.75605631  0.46603743  1
  Cd  Cd22  1  0.24394369  0.96603743  0.50089785  1
  Cd  Cd23  1  0.74394369  0.53396257  0.49910215  1
  Cd  Cd24  1  0.50089785  0.24394369  0.96603743  1
  Cd  Cd25  1  0.53396257  0.49910215  0.74394369  1
  Cd  Cd26  1  0.96603743  0.50089785  0.24394369  1
  Cd  Cd27  1  0.46603743  0.99910215  0.75605631  1
  Cd  Cd28  1  0.96603743  0.99910215  0.74394369  1
  Cd  Cd29  1  0.74394369  0.96603743  0.99910215  1
  Cd  Cd30  1  0.99910215  0.74394369  0.96603743  1
  Cd  Cd31  1  0.50089785  0.25605631  0.46603743  1
  Cd  Cd32  1  0.24394369  0.53396257  0.00089785  1
  Cd  Cd33  1  0.00089785  0.24394369  0.53396257  1
  Cd  Cd34  1  0.75605631  0.03396257  0.49910215  1
  Cd  Cd35  1  0.25605631  0.46603743  0.50089785  1
  Cd  Cd36  1  0.49910215  0.75605631  0.03396257  1
  Cd  Cd37  1  0.46603743  0.50089785  0.25605631  1
  Cd  Cd38  1  0.03396257  0.49910215  0.75605631  1
  Cd  Cd39  1  0.53396257  0.00089785  0.24394369  1
  Cd  Cd40  1  0.22143336  0.22143336  0.22143336  1
  Cd  Cd41  1  0.27856664  0.77856664  0.72143336  1
  Cd  Cd42  1  0.72143336  0.27856664  0.77856664  1
  Cd  Cd43  1  0.77856664  0.72143336  0.27856664  1
  Cd  Cd44  1  0.77856664  0.77856664  0.77856664  1
  Cd  Cd45  1  0.72143336  0.22143336  0.27856664  1
  Cd  Cd46  1  0.27856664  0.72143336  0.22143336  1
  Cd  Cd47  1  0.22143336  0.27856664  0.72143336  1
  I  I48  1  0.18611307  0.43815090  0.26212344  1
  I  I49  1  0.26212344  0.18611307  0.43815090  1
  I  I50  1  0.43815090  0.26212344  0.18611307  1
  I  I51  1  0.06184910  0.73787656  0.68611307  1
  I  I52  1  0.76212344  0.31388693  0.56184910  1
  I  I53  1  0.56184910  0.76212344  0.31388693  1
  I  I54  1  0.23787656  0.81388693  0.93815090  1
  I  I55  1  0.73787656  0.68611307  0.06184910  1
  I  I56  1  0.93815090  0.23787656  0.81388693  1
  I  I57  1  0.68611307  0.06184910  0.73787656  1
  I  I58  1  0.81388693  0.93815090  0.23787656  1
  I  I59  1  0.31388693  0.56184910  0.76212344  1
  I  I60  1  0.81388693  0.56184910  0.73787656  1
  I  I61  1  0.73787656  0.81388693  0.56184910  1
  I  I62  1  0.56184910  0.73787656  0.81388693  1
  I  I63  1  0.93815090  0.26212344  0.31388693  1
  I  I64  1  0.23787656  0.68611307  0.43815090  1
  I  I65  1  0.43815090  0.23787656  0.68611307  1
  I  I66  1  0.76212344  0.18611307  0.06184910  1
  I  I67  1  0.26212344  0.31388693  0.93815090  1
  I  I68  1  0.06184910  0.76212344  0.18611307  1
  I  I69  1  0.31388693  0.93815090  0.26212344  1
  I  I70  1  0.18611307  0.06184910  0.76212344  1
  I  I71  1  0.68611307  0.43815090  0.23787656  1
