# generated using pymatgen
data_Ca12Be17O29
_symmetry_space_group_name_H-M   'P 1'
_cell_length_a   9.96141969
_cell_length_b   9.96141969
_cell_length_c   9.96141969
_cell_angle_alpha   60.00000003
_cell_angle_beta   60.00000003
_cell_angle_gamma   60.00000002
_symmetry_Int_Tables_number   1
_chemical_formula_structural   Ca12Be17O29
_chemical_formula_sum   'Ca12 Be17 O29'
_cell_volume   698.95419574
_cell_formula_units_Z   1
loop_
 _symmetry_equiv_pos_site_id
 _symmetry_equiv_pos_as_xyz
  1  'x, y, z'
loop_
 _atom_site_type_symbol
 _atom_site_label
 _atom_site_symmetry_multiplicity
 _atom_site_fract_x
 _atom_site_fract_y
 _atom_site_fract_z
 _atom_site_occupancy
  Be  Be0  1  0.15742907  0.15742907  0.52771278  1
  Be  Be1  1  0.84125897  0.47622309  0.84125897  1
  Be  Be2  1  0.47622309  0.84125897  0.84125897  1
  Be  Be3  1  0.84125897  0.84125897  0.47622309  1
  Be  Be4  1  0.84125897  0.84125897  0.84125897  1
  Be  Be5  1  0.15742907  0.52771278  0.15742907  1
  Be  Be6  1  0.52771278  0.15742907  0.15742907  1
  Be  Be7  1  0.15742907  0.15742907  0.15742907  1
  Be  Be8  1  0.32589170  0.02232489  0.32589170  1
  Be  Be9  1  0.02232489  0.32589170  0.32589170  1
  Be  Be10  1  0.32589170  0.32589170  0.02232489  1
  Be  Be11  1  0.32589170  0.32589170  0.32589170  1
  Be  Be12  1  0.50000000  0.50000000  0.50000000  1
  Be  Be13  1  0.63780445  0.63780445  0.63780445  1
  Be  Be14  1  0.63780445  0.63780445  0.08658666  1
  Be  Be15  1  0.08658666  0.63780445  0.63780445  1
  Be  Be16  1  0.63780445  0.08658666  0.63780445  1
  O  O17  1  0.02049149  0.47795671  0.75077590  1
  O  O18  1  0.47795671  0.02049149  0.75077590  1
  O  O19  1  0.02049149  0.75077590  0.75077590  1
  O  O20  1  0.75077590  0.02049149  0.75077590  1
  O  O21  1  0.47795671  0.75077590  0.02049149  1
  O  O22  1  0.56911262  0.29266213  0.56911262  1
  O  O23  1  0.75077590  0.47795671  0.02049149  1
  O  O24  1  0.75077590  0.75077590  0.47795671  1
  O  O25  1  0.25000000  0.25000000  0.25000000  1
  O  O26  1  0.56911262  0.56911262  0.56911262  1
  O  O27  1  0.56911262  0.56911262  0.29266213  1
  O  O28  1  0.29266213  0.56911262  0.56911262  1
  O  O29  1  0.24921754  0.24921754  0.97794084  1
  O  O30  1  0.24921754  0.97794084  0.52362408  1
  O  O31  1  0.52362408  0.24921754  0.24921754  1
  O  O32  1  0.24921754  0.52362408  0.24921754  1
  O  O33  1  0.97794084  0.24921754  0.52362408  1
  O  O34  1  0.97794084  0.52362408  0.24921754  1
  O  O35  1  0.52362408  0.97794084  0.24921754  1
  O  O36  1  0.97794084  0.24921754  0.24921754  1
  O  O37  1  0.24921754  0.97794084  0.24921754  1
  O  O38  1  0.52362408  0.24921754  0.97794084  1
  O  O39  1  0.24921754  0.52362408  0.97794084  1
  O  O40  1  0.24921754  0.24921754  0.52362408  1
  O  O41  1  0.75077590  0.75077590  0.02049149  1
  O  O42  1  0.75077590  0.02049149  0.47795671  1
  O  O43  1  0.47795671  0.75077590  0.75077590  1
  O  O44  1  0.75077590  0.47795671  0.75077590  1
  O  O45  1  0.02049149  0.75077590  0.47795671  1
  Ca  Ca46  1  0.70663376  0.29336624  0.70663376  1
  Ca  Ca47  1  0.29336624  0.70663376  0.29336624  1
  Ca  Ca48  1  0.29336624  0.70663376  0.70663376  1
  Ca  Ca49  1  0.70663376  0.70663376  0.29336624  1
  Ca  Ca50  1  0.29336624  0.29336624  0.70663376  1
  Ca  Ca51  1  0.70663376  0.29336624  0.29336624  1
  Ca  Ca52  1  0.50410707  0.99589293  0.50410707  1
  Ca  Ca53  1  0.99589293  0.50410707  0.99589293  1
  Ca  Ca54  1  0.99589293  0.50410707  0.50410707  1
  Ca  Ca55  1  0.50410707  0.50410707  0.99589293  1
  Ca  Ca56  1  0.99589293  0.99589293  0.50410707  1
  Ca  Ca57  1  0.50410707  0.99589293  0.99589293  1
