# generated using pymatgen
data_Li3MnV3O8
_symmetry_space_group_name_H-M   'P 1'
_cell_length_a   4.07800964
_cell_length_b   6.58140241
_cell_length_c   6.61762853
_cell_angle_alpha   73.30642783
_cell_angle_beta   90.00696664
_cell_angle_gamma   71.95421855
_symmetry_Int_Tables_number   1
_chemical_formula_structural   Li3MnV3O8
_chemical_formula_sum   'Li3 Mn1 V3 O8'
_cell_volume   160.98057804
_cell_formula_units_Z   1
loop_
 _symmetry_equiv_pos_site_id
 _symmetry_equiv_pos_as_xyz
  1  'x, y, z'
loop_
 _atom_site_type_symbol
 _atom_site_label
 _atom_site_symmetry_multiplicity
 _atom_site_fract_x
 _atom_site_fract_y
 _atom_site_fract_z
 _atom_site_occupancy
  Li  Li0  1  0.06058583  0.87858016  0.36574246  1
  Li  Li1  1  0.17695225  0.64588198  0.00372909  1
  Li  Li2  1  0.93801670  0.12428323  0.63246595  1
  Mn  Mn3  1  0.71414498  0.57159633  0.30340602  1
  V  V4  1  0.29134429  0.41743708  0.69410787  1
  V  V5  1  0.60790751  0.78430247  0.69854177  1
  V  V6  1  0.39556196  0.20871878  0.29110473  1
  O  O7  1  0.63902583  0.72198813  0.97626117  1
  O  O8  1  0.12049603  0.75899377  0.68726049  1
  O  O9  1  0.55873565  0.88225512  0.37432821  1
  O  O10  1  0.23817275  0.52360162  0.34765164  1
  O  O11  1  0.76892526  0.46232354  0.67175303  1
  O  O12  1  0.44085474  0.11855886  0.62846009  1
  O  O13  1  0.34166596  0.31674861  0.00874247  1
  O  O14  1  0.89471827  0.21051333  0.32212000  1
