# generated using pymatgen
data_NiH4SeO5
_symmetry_space_group_name_H-M   'P 1'
_cell_length_a   6.50222720
_cell_length_b   7.64155457
_cell_length_c   8.83562503
_cell_angle_alpha   90.00000000
_cell_angle_beta   90.00000000
_cell_angle_gamma   99.52738561
_symmetry_Int_Tables_number   1
_chemical_formula_structural   NiH4SeO5
_chemical_formula_sum   'Ni4 H16 Se4 O20'
_cell_volume   432.96126278
_cell_formula_units_Z   4
loop_
 _symmetry_equiv_pos_site_id
 _symmetry_equiv_pos_as_xyz
  1  'x, y, z'
loop_
 _atom_site_type_symbol
 _atom_site_label
 _atom_site_symmetry_multiplicity
 _atom_site_fract_x
 _atom_site_fract_y
 _atom_site_fract_z
 _atom_site_occupancy
  H  H0  1  0.93245001  0.85830131  0.36525642  1
  H  H1  1  0.56754940  0.64169776  0.86525631  1
  H  H2  1  0.06754925  0.14169896  0.63474337  1
  H  H3  1  0.43245116  0.35830118  0.13474348  1
  H  H4  1  0.17134217  0.86871668  0.42269296  1
  H  H5  1  0.32865787  0.63128320  0.92269285  1
  H  H6  1  0.82865709  0.13128359  0.57730683  1
  H  H7  1  0.67134294  0.36871707  0.07730694  1
  H  H8  1  0.94310615  0.37218780  0.85333209  1
  H  H9  1  0.55689363  0.12781153  0.35333219  1
  H  H10  1  0.00904763  0.70631644  0.98290715  1
  H  H11  1  0.49095266  0.79368478  0.48290725  1
  H  H12  1  0.99095318  0.29368384  0.01709264  1
  H  H13  1  0.50904660  0.20631549  0.51709253  1
  H  H14  1  0.05689311  0.62781247  0.14666770  1
  H  H15  1  0.44310718  0.87218874  0.64666759  1
  O  O16  1  0.54078884  0.99735367  0.79590085  1
  O  O17  1  0.82870810  0.96674040  0.09153029  1
  O  O18  1  0.45921197  0.00264660  0.20409894  1
  O  O19  1  0.04078844  0.49735354  0.70409883  1
  O  O20  1  0.61769769  0.21046272  0.43687513  1
  O  O21  1  0.88230209  0.28953661  0.93687502  1
  O  O22  1  0.67129157  0.53326001  0.59153019  1
  O  O23  1  0.11769692  0.71046233  0.06312477  1
  O  O24  1  0.57783555  0.42514554  0.14188644  1
  O  O25  1  0.92216423  0.07485378  0.64188634  1
  O  O26  1  0.42216500  0.57485340  0.85811335  1
  O  O27  1  0.07783503  0.92514648  0.35811345  1
  O  O28  1  0.17129271  0.03325988  0.90846949  1
  O  O29  1  0.32870769  0.46674026  0.40846960  1
  O  O30  1  0.82593409  0.73395835  0.83078561  1
  O  O31  1  0.67406713  0.76604206  0.33078572  1
  O  O32  1  0.17406672  0.26604192  0.16921418  1
  O  O33  1  0.32593368  0.23395821  0.66921407  1
  O  O34  1  0.95921237  0.50264674  0.29590095  1
  O  O35  1  0.38230311  0.78953755  0.56312466  1
  Ni  Ni36  1  0.64913807  0.48177515  0.36205046  1
  Ni  Ni37  1  0.85086196  0.01822551  0.86205149  1
  Ni  Ni38  1  0.35086119  0.51822512  0.63794932  1
  Ni  Ni39  1  0.14913884  0.98177477  0.13794943  1
  Se  Se40  1  0.40150103  0.16244177  0.84496901  1
  Se  Se41  1  0.09849912  0.33755704  0.34496912  1
  Se  Se42  1  0.59849798  0.83755717  0.15503077  1
  Se  Se43  1  0.90150143  0.66244191  0.65503067  1
