# generated using pymatgen
data_BaTi5O11
_symmetry_space_group_name_H-M   'P 1'
_cell_length_a   7.62484088
_cell_length_b   7.73584090
_cell_length_c   14.24450536
_cell_angle_alpha   90.00000000
_cell_angle_beta   90.00000000
_cell_angle_gamma   98.34751556
_symmetry_Int_Tables_number   1
_chemical_formula_structural   BaTi5O11
_chemical_formula_sum   'Ba4 Ti20 O44'
_cell_volume   831.30445883
_cell_formula_units_Z   4
loop_
 _symmetry_equiv_pos_site_id
 _symmetry_equiv_pos_as_xyz
  1  'x, y, z'
loop_
 _atom_site_type_symbol
 _atom_site_label
 _atom_site_symmetry_multiplicity
 _atom_site_fract_x
 _atom_site_fract_y
 _atom_site_fract_z
 _atom_site_occupancy
  O  O0  1  0.04152632  0.82879295  0.07184309  1
  O  O1  1  0.45847368  0.67120705  0.57184309  1
  O  O2  1  0.95847368  0.17120705  0.92815691  1
  O  O3  1  0.54152632  0.32879295  0.42815691  1
  O  O4  1  0.68020483  0.66034729  0.10398388  1
  O  O5  1  0.81979517  0.83965271  0.60398388  1
  O  O6  1  0.31979517  0.33965271  0.89601612  1
  O  O7  1  0.18020483  0.16034729  0.39601612  1
  O  O8  1  0.41393025  0.91283389  0.09792527  1
  O  O9  1  0.08606975  0.58716611  0.59792527  1
  O  O10  1  0.58606975  0.08716611  0.90207473  1
  O  O11  1  0.91393025  0.41283389  0.40207473  1
  O  O12  1  0.77850408  0.02490503  0.08714825  1
  O  O13  1  0.72149592  0.47509497  0.58714825  1
  O  O14  1  0.22149592  0.97509497  0.91285175  1
  O  O15  1  0.27850408  0.52490503  0.41285175  1
  O  O16  1  0.57125659  0.27192650  0.09121184  1
  O  O17  1  0.89909648  0.39297907  0.07381023  1
  O  O18  1  0.10090352  0.60702093  0.92618977  1
  O  O19  1  0.39909648  0.89297907  0.42618977  1
  O  O20  1  0.30414995  0.58466618  0.08341087  1
  O  O21  1  0.19585005  0.91533382  0.58341087  1
  O  O22  1  0.69585005  0.41533382  0.91658913  1
  O  O23  1  0.80414995  0.08466618  0.41658913  1
  O  O24  1  0.00563656  0.99485273  0.25184199  1
  O  O25  1  0.49436344  0.50514727  0.75184199  1
  O  O26  1  0.99436344  0.00514727  0.74815801  1
  O  O27  1  0.50563656  0.49485273  0.24815801  1
  O  O28  1  0.39309612  0.12456503  0.25922353  1
  O  O29  1  0.10690388  0.37543497  0.75922353  1
  O  O30  1  0.60690388  0.87543497  0.74077647  1
  O  O31  1  0.89309612  0.62456503  0.24077647  1
  O  O32  1  0.76443075  0.24326267  0.24086368  1
  O  O33  1  0.73556925  0.25673733  0.74086368  1
  O  O34  1  0.23556925  0.75673733  0.75913632  1
  O  O35  1  0.26443075  0.74326267  0.25913632  1
  O  O36  1  0.13698111  0.37124652  0.26037316  1
  O  O37  1  0.36301889  0.12875348  0.76037316  1
  O  O38  1  0.86301889  0.62875348  0.73962684  1
  O  O39  1  0.63698111  0.87124652  0.23962684  1
  O  O40  1  0.07125659  0.77192650  0.40878816  1
  O  O41  1  0.42874341  0.72807350  0.90878816  1
  O  O42  1  0.92874341  0.22807350  0.59121184  1
  O  O43  1  0.60090352  0.10702093  0.57381023  1
  Ti  Ti44  1  0.25249609  0.73046507  0.50989794  1
  Ti  Ti45  1  0.24750391  0.76953493  0.00989794  1
  Ti  Ti46  1  0.74750391  0.26953493  0.49010206  1
  Ti  Ti47  1  0.75249609  0.23046507  0.99010206  1
  Ti  Ti48  1  0.74489540  0.44902497  0.16046065  1
  Ti  Ti49  1  0.75510460  0.05097503  0.66046065  1
  Ti  Ti50  1  0.25510460  0.55097503  0.83953935  1
  Ti  Ti51  1  0.24489540  0.94902497  0.33953935  1
  Ti  Ti52  1  0.57985245  0.07023326  0.17509932  1
  Ti  Ti53  1  0.92014755  0.42976674  0.67509932  1
  Ti  Ti54  1  0.42014755  0.92976674  0.82490068  1
  Ti  Ti55  1  0.07985245  0.57023326  0.32490068  1
  Ti  Ti56  1  0.86914701  0.84534684  0.16032941  1
  Ti  Ti57  1  0.63085299  0.65465316  0.66032941  1
  Ti  Ti58  1  0.13085299  0.15465316  0.83967059  1
  Ti  Ti59  1  0.36914701  0.34534684  0.33967059  1
  Ti  Ti60  1  0.45132769  0.69027728  0.17642006  1
  Ti  Ti61  1  0.04867231  0.80972272  0.67642006  1
  Ti  Ti62  1  0.54867231  0.30972272  0.82357994  1
  Ti  Ti63  1  0.95132769  0.19027728  0.32357994  1
  Ba  Ba64  1  0.70086103  0.73606831  0.41780787  1
  Ba  Ba65  1  0.79913897  0.76393169  0.91780787  1
  Ba  Ba66  1  0.29913897  0.26393169  0.58219213  1
  Ba  Ba67  1  0.20086103  0.23606831  0.08219213  1
