# generated using pymatgen
data_La5Ti5O17
_symmetry_space_group_name_H-M   'P 1'
_cell_length_a   3.96781550
_cell_length_b   5.54592699
_cell_length_c   31.76261116
_cell_angle_alpha   90.00000000
_cell_angle_beta   89.99952984
_cell_angle_gamma   90.00000000
_symmetry_Int_Tables_number   1
_chemical_formula_structural   La5Ti5O17
_chemical_formula_sum   'La10 Ti10 O34'
_cell_volume   698.94308912
_cell_formula_units_Z   2
loop_
 _symmetry_equiv_pos_site_id
 _symmetry_equiv_pos_as_xyz
  1  'x, y, z'
loop_
 _atom_site_type_symbol
 _atom_site_label
 _atom_site_symmetry_multiplicity
 _atom_site_fract_x
 _atom_site_fract_y
 _atom_site_fract_z
 _atom_site_occupancy
  O  O0  1  0.00530301  0.24968809  0.03412291  1
  O  O1  1  0.50530301  0.75031191  0.53412291  1
  O  O2  1  0.50530637  -0.02466339  0.07048692  1
  O  O3  1  0.00530637  1.02466339  0.57048692  1
  O  O4  1  0.50528970  0.45442017  0.08486590  1
  O  O5  1  1.00528970  0.54557983  0.58486590  1
  O  O6  1  0.00527000  0.75152656  0.12302725  1
  O  O7  1  0.50527000  0.24847344  0.62302725  1
  O  O8  1  0.50529716  0.05656560  0.15387140  1
  O  O9  1  0.00529716  0.94343440  0.65387140  1
  O  O10  1  0.50528272  0.55835405  0.17185325  1
  O  O11  1  0.00528272  0.44164595  0.67185325  1
  O  O12  1  0.00529119  0.26011490  0.20498149  1
  O  O13  1  0.50529119  0.73988510  0.70498149  1
  O  O14  1  0.50525902  -0.03727278  0.23901225  1
  O  O15  1  0.00525902  1.03727278  0.73901225  1
  O  O16  1  0.50525566  0.46209928  0.25650224  1
  O  O17  1  0.00525566  0.53790072  0.75650224  1
  O  O18  1  0.00528693  0.76378506  0.28770426  1
  O  O19  1  0.50528693  0.23621494  0.78770426  1
  O  O20  1  0.50530766  0.06649925  0.98167292  1
  O  O21  1  0.00530766  0.93350075  0.48167292  1
  O  O22  1  0.50530567  0.55362833  0.99385437  1
  O  O23  1  0.00530567  0.44637167  0.49385437  1
  O  O24  1  0.00534149  0.04844788  0.91654191  1
  O  O25  1  0.50534149  0.95155212  0.41654191  1
  O  O26  1  0.00533066  0.56278074  0.92913386  1
  O  O27  1  0.50533066  0.43721926  0.42913386  1
  O  O28  1  0.50532237  0.74134523  0.87627931  1
  O  O29  1  0.00532237  0.25865477  0.37627931  1
  O  O30  1  0.00526236  0.46184392  0.84048715  1
  O  O31  1  0.50526236  0.53815608  0.34048715  1
  O  O32  1  0.00530984  0.94038416  0.82551842  1
  O  O33  1  0.50530984  0.05961584  0.32551842  1
  Ti  Ti34  1  0.50531537  0.28928550  0.02870708  1
  Ti  Ti35  1  0.00531537  0.71071450  0.52870708  1
  Ti  Ti36  1  0.50529215  0.76039680  0.11451754  1
  Ti  Ti37  1  0.00529215  0.23960320  0.61451754  1
  Ti  Ti38  1  0.50533783  0.25739632  0.20513776  1
  Ti  Ti39  1  0.00533783  0.74260368  0.70513776  1
  Ti  Ti40  1  0.50530148  0.75064794  0.29641107  1
  Ti  Ti41  1  0.00530148  0.24935206  0.79641107  1
  Ti  Ti42  1  0.50526571  0.21634769  0.38200177  1
  Ti  Ti43  1  0.00526571  0.78365231  0.88200177  1
  La  La44  1  0.00524375  0.23864830  0.11245560  1
  La  La45  1  0.50524375  0.76135170  0.61245560  1
  La  La46  1  0.00527254  0.75574089  0.20546870  1
  La  La47  1  0.50527254  0.24425911  0.70546870  1
  La  La48  1  0.00531070  0.27053938  0.29779619  1
  La  La49  1  0.50531070  0.72946062  0.79779619  1
  La  La50  1  0.00534187  0.67422369  0.42035708  1
  La  La51  1  0.50534187  0.32577631  0.92035708  1
  La  La52  1  0.50529681  0.17264889  0.49023141  1
  La  La53  1  0.00529681  0.82735111  0.99023141  1
