# generated using pymatgen
data_Li3CoO3
_symmetry_space_group_name_H-M   'P 1'
_cell_length_a   8.73879684
_cell_length_b   8.73879684
_cell_length_c   3.62356577
_cell_angle_alpha   90.00000000
_cell_angle_beta   90.00000000
_cell_angle_gamma   90.00000000
_symmetry_Int_Tables_number   1
_chemical_formula_structural   Li3CoO3
_chemical_formula_sum   'Li12 Co4 O12'
_cell_volume   276.71928979
_cell_formula_units_Z   4
loop_
 _symmetry_equiv_pos_site_id
 _symmetry_equiv_pos_as_xyz
  1  'x, y, z'
loop_
 _atom_site_type_symbol
 _atom_site_label
 _atom_site_symmetry_multiplicity
 _atom_site_fract_x
 _atom_site_fract_y
 _atom_site_fract_z
 _atom_site_occupancy
  Li  Li0  1  0.10402812  0.35726647  0.50000000  1
  Li  Li1  1  0.14273353  0.60402812  0.00000000  1
  Li  Li2  1  0.16482246  0.16482246  0.00000000  1
  Li  Li3  1  0.33517754  0.66482246  0.50000000  1
  Li  Li4  1  0.35726647  0.10402812  0.50000000  1
  Li  Li5  1  0.39597188  0.85726647  0.00000000  1
  Li  Li6  1  0.60402812  0.14273353  0.00000000  1
  Li  Li7  1  0.64273353  0.89597188  0.50000000  1
  Li  Li8  1  0.66482246  0.33517754  0.50000000  1
  Li  Li9  1  0.83517754  0.83517754  0.00000000  1
  Li  Li10  1  0.85726647  0.39597188  0.00000000  1
  Li  Li11  1  0.89597188  0.64273353  0.50000000  1
  Co  Co12  1  0.11530102  0.88469898  0.50000000  1
  Co  Co13  1  0.38469898  0.38469898  0.00000000  1
  Co  Co14  1  0.61530102  0.61530102  0.00000000  1
  Co  Co15  1  0.88469898  0.11530102  0.50000000  1
  O  O16  1  0.09928741  0.09928741  0.50000000  1
  O  O17  1  0.11132105  0.67866818  0.50000000  1
  O  O18  1  0.17866818  0.38867895  0.00000000  1
  O  O19  1  0.32133182  0.88867895  0.50000000  1
  O  O20  1  0.38867895  0.17866818  0.00000000  1
  O  O21  1  0.40071259  0.59928741  0.00000000  1
  O  O22  1  0.59928741  0.40071259  0.00000000  1
  O  O23  1  0.61132105  0.82133182  0.00000000  1
  O  O24  1  0.67866818  0.11132105  0.50000000  1
  O  O25  1  0.82133182  0.61132105  0.00000000  1
  O  O26  1  0.88867895  0.32133182  0.50000000  1
  O  O27  1  0.90071259  0.90071259  0.50000000  1
