# generated using pymatgen
data_Ta3TeI7
_symmetry_space_group_name_H-M   'P 1'
_cell_length_a   7.68760178
_cell_length_b   7.68760178
_cell_length_c   15.07368264
_cell_angle_alpha   90.00000000
_cell_angle_beta   90.00000000
_cell_angle_gamma   119.99999998
_symmetry_Int_Tables_number   1
_chemical_formula_structural   Ta3TeI7
_chemical_formula_sum   'Ta6 Te2 I14'
_cell_volume   771.49258576
_cell_formula_units_Z   2
loop_
 _symmetry_equiv_pos_site_id
 _symmetry_equiv_pos_as_xyz
  1  'x, y, z'
loop_
 _atom_site_type_symbol
 _atom_site_label
 _atom_site_symmetry_multiplicity
 _atom_site_fract_x
 _atom_site_fract_y
 _atom_site_fract_z
 _atom_site_occupancy
  Te  Te0  1  0.00000000  0.00000000  0.89084795  1
  Te  Te1  1  0.00000000  0.00000000  0.39084795  1
  I  I2  1  0.49849735  0.99699470  0.35113459  1
  I  I3  1  0.50150265  0.00300530  0.85113459  1
  I  I4  1  0.99699470  0.49849735  0.85113459  1
  I  I5  1  0.49849735  0.50150265  0.35113459  1
  I  I6  1  0.00300530  0.50150265  0.35113459  1
  I  I7  1  0.50150265  0.49849735  0.85113459  1
  I  I8  1  0.33333333  0.66666667  0.65409947  1
  I  I9  1  0.66666667  0.33333333  0.15409947  1
  I  I10  1  0.83277712  0.16722288  0.62627150  1
  I  I11  1  0.66555424  0.83277712  0.12627150  1
  I  I12  1  0.16722288  0.33444576  0.12627150  1
  I  I13  1  0.83277712  0.66555424  0.62627150  1
  I  I14  1  0.33444576  0.16722288  0.62627150  1
  I  I15  1  0.16722288  0.83277712  0.12627150  1
  Ta  Ta16  1  0.13068085  0.86931915  0.75051144  1
  Ta  Ta17  1  0.26136170  0.13068085  0.25051144  1
  Ta  Ta18  1  0.86931915  0.73863830  0.25051144  1
  Ta  Ta19  1  0.13068085  0.26136170  0.75051144  1
  Ta  Ta20  1  0.73863830  0.86931915  0.75051144  1
  Ta  Ta21  1  0.86931915  0.13068085  0.25051144  1
