# generated using pymatgen
data_Na3Sb5F18
_symmetry_space_group_name_H-M   'P 1'
_cell_length_a   5.58879048
_cell_length_b   12.33231406
_cell_length_c   24.26632788
_cell_angle_alpha   90.00000000
_cell_angle_beta   90.00000000
_cell_angle_gamma   90.98341754
_symmetry_Int_Tables_number   1
_chemical_formula_structural   Na3Sb5F18
_chemical_formula_sum   'Na12 Sb20 F72'
_cell_volume   1672.25495557
_cell_formula_units_Z   4
loop_
 _symmetry_equiv_pos_site_id
 _symmetry_equiv_pos_as_xyz
  1  'x, y, z'
loop_
 _atom_site_type_symbol
 _atom_site_label
 _atom_site_symmetry_multiplicity
 _atom_site_fract_x
 _atom_site_fract_y
 _atom_site_fract_z
 _atom_site_occupancy
  F  F0  1  0.47963099  0.10238545  0.88506186  1
  F  F1  1  0.02036901  0.39761455  0.38506186  1
  F  F2  1  0.52036901  0.89761455  0.11493814  1
  F  F3  1  0.97963099  0.60238545  0.61493814  1
  F  F4  1  0.03351831  0.13408875  0.86501950  1
  F  F5  1  0.46648169  0.36591125  0.36501950  1
  F  F6  1  0.96648169  0.86591125  0.13498050  1
  F  F7  1  0.53351831  0.63408875  0.63498050  1
  F  F8  1  0.89000896  0.35360305  0.88166325  1
  F  F9  1  0.60999104  0.14639695  0.38166325  1
  F  F10  1  0.10999104  0.64639695  0.11833675  1
  F  F11  1  0.39000896  0.85360305  0.61833675  1
  F  F12  1  0.99083369  0.08617217  0.76218555  1
  F  F13  1  0.50916631  0.41382783  0.26218555  1
  F  F14  1  0.00916631  0.91382783  0.23781445  1
  F  F15  1  0.49083369  0.58617217  0.73781445  1
  F  F16  1  0.57681998  0.05412957  0.59870419  1
  F  F17  1  0.92318002  0.44587043  0.09870419  1
  F  F18  1  0.42318002  0.94587043  0.40129581  1
  F  F19  1  0.07681998  0.55412957  0.90129581  1
  F  F20  1  0.39027064  0.35464382  0.86296736  1
  F  F21  1  0.10972936  0.14535618  0.36296736  1
  F  F22  1  0.60972936  0.64535618  0.13703264  1
  F  F23  1  0.89027064  0.85464382  0.63703264  1
  F  F24  1  0.11729255  0.04224556  0.65458172  1
  F  F25  1  0.38270745  0.45775444  0.15458172  1
  F  F26  1  0.88270745  0.95775444  0.34541828  1
  F  F27  1  0.61729255  0.54224556  0.84541828  1
  F  F28  1  0.14624944  0.92530856  0.91484240  1
  F  F29  1  0.35375056  0.57469144  0.41484240  1
  F  F30  1  0.85375056  0.07469144  0.08515760  1
  F  F31  1  0.64624944  0.42530856  0.58515760  1
  F  F32  1  0.95029160  0.63858055  0.72079964  1
  F  F33  1  0.54970840  0.86141945  0.22079964  1
  F  F34  1  0.04970840  0.36141945  0.27920036  1
  F  F35  1  0.45029160  0.13858055  0.77920036  1
  F  F36  1  0.05776212  0.39966582  0.98159013  1
  F  F37  1  0.44223788  0.10033418  0.48159013  1
  F  F38  1  0.94223788  0.60033418  0.01840987  1
  F  F39  1  0.55776212  0.89966582  0.51840987  1
  F  F40  1  0.58792873  0.31476587  0.97960549  1
  F  F41  1  0.91207127  0.18523413  0.47960549  1
  F  F42  1  0.41207127  0.68523413  0.02039451  1
  F  F43  1  0.08792873  0.81476587  0.52039451  1
  F  F44  1  0.51879997  0.88648307  0.98427403  1
  F  F45  1  0.98120003  0.61351693  0.48427403  1
  F  F46  1  0.48120003  0.11351693  0.01572597  1
  F  F47  1  0.01879997  0.38648307  0.51572597  1
  F  F48  1  0.70429015  0.91472310  0.84003745  1
  F  F49  1  0.79570985  0.58527690  0.34003745  1
  F  F50  1  0.29570985  0.08527690  0.15996255  1
  F  F51  1  0.20429015  0.41472310  0.65996255  1
  F  F52  1  0.58138752  0.38403063  0.76457162  1
  F  F53  1  0.91861248  0.11596937  0.26457162  1
  F  F54  1  0.41861248  0.61596937  0.23542838  1
  F  F55  1  0.08138752  0.88403063  0.73542838  1
  F  F56  1  0.61113995  0.83007500  0.74015551  1
  F  F57  1  0.88886005  0.66992500  0.24015551  1
  F  F58  1  0.38886005  0.16992500  0.25984449  1
  F  F59  1  0.11113995  0.33007500  0.75984449  1
  F  F60  1  0.66415666  0.74376371  0.90572237  1
  F  F61  1  0.83584334  0.75623629  0.40572237  1
  F  F62  1  0.33584334  0.25623629  0.09427763  1
  F  F63  1  0.16415666  0.24376371  0.59427763  1
  F  F64  1  0.93729702  0.15521860  0.98380590  1
  F  F65  1  0.56270298  0.34478140  0.48380590  1
  F  F66  1  0.06270298  0.84478140  0.01619410  1
  F  F67  1  0.43729702  0.65521860  0.51619410  1
  F  F68  1  0.84988927  0.24909649  0.67677104  1
  F  F69  1  0.65011073  0.25090351  0.17677104  1
  F  F70  1  0.15011073  0.75090351  0.32322896  1
  F  F71  1  0.34988927  0.74909649  0.82322896  1
  Na  Na72  1  0.77081159  0.00793287  0.93138770  1
  Na  Na73  1  0.72918841  0.49206713  0.43138770  1
  Na  Na74  1  0.22918841  0.99206713  0.06861230  1
  Na  Na75  1  0.27081159  0.50793287  0.56861230  1
  Na  Na76  1  0.78181944  0.24009388  0.80669501  1
  Na  Na77  1  0.71818056  0.25990612  0.30669501  1
  Na  Na78  1  0.21818056  0.75990612  0.19330499  1
  Na  Na79  1  0.28181944  0.74009388  0.69330499  1
  Na  Na80  1  0.24965138  0.24218464  0.93291258  1
  Na  Na81  1  0.25034862  0.25781536  0.43291258  1
  Na  Na82  1  0.75034862  0.75781536  0.06708742  1
  Na  Na83  1  0.74965138  0.74218464  0.56708742  1
  Sb  Sb84  1  0.16577835  0.03370535  0.30441549  1
  Sb  Sb85  1  0.33422165  0.46629465  0.80441549  1
  Sb  Sb86  1  0.83422165  0.96629465  0.69558451  1
  Sb  Sb87  1  0.66577835  0.53370535  0.19558451  1
  Sb  Sb88  1  0.19418168  0.53053293  0.06646468  1
  Sb  Sb89  1  0.30581832  0.96946707  0.56646468  1
  Sb  Sb90  1  0.80581832  0.46946707  0.93353532  1
  Sb  Sb91  1  0.69418168  0.03053293  0.43353532  1
  Sb  Sb92  1  0.29999017  0.24365252  0.17953601  1
  Sb  Sb93  1  0.20000983  0.25634748  0.67953601  1
  Sb  Sb94  1  0.70000983  0.75634748  0.82046399  1
  Sb  Sb95  1  0.79999017  0.74365252  0.32046399  1
  Sb  Sb96  1  0.76013266  0.53554821  0.67396966  1
  Sb  Sb97  1  0.73986734  0.96445179  0.17396966  1
  Sb  Sb98  1  0.23986734  0.46445179  0.32603034  1
  Sb  Sb99  1  0.26013266  0.03554821  0.82603034  1
  Sb  Sb100  1  0.22900707  0.71550260  0.45590768  1
  Sb  Sb101  1  0.27099293  0.78449740  0.95590768  1
  Sb  Sb102  1  0.77099293  0.28449740  0.54409232  1
  Sb  Sb103  1  0.72900707  0.21550260  0.04409232  1
