# generated using pymatgen
data_K5SnBi3
_symmetry_space_group_name_H-M   'P 1'
_cell_length_a   8.95811856
_cell_length_b   10.25989040
_cell_length_c   16.60760968
_cell_angle_alpha   89.88773446
_cell_angle_beta   90.00000000
_cell_angle_gamma   90.00000000
_symmetry_Int_Tables_number   1
_chemical_formula_structural   K5SnBi3
_chemical_formula_sum   'K20 Sn4 Bi12'
_cell_volume   1526.39109301
_cell_formula_units_Z   4
loop_
 _symmetry_equiv_pos_site_id
 _symmetry_equiv_pos_as_xyz
  1  'x, y, z'
loop_
 _atom_site_type_symbol
 _atom_site_label
 _atom_site_symmetry_multiplicity
 _atom_site_fract_x
 _atom_site_fract_y
 _atom_site_fract_z
 _atom_site_occupancy
  K  K0  1  0.31681886  0.92232618  0.92176286  1
  K  K1  1  0.81681886  0.57767382  0.57823714  1
  K  K2  1  0.68318114  0.07767382  0.07823714  1
  K  K3  1  0.18318114  0.42232618  0.42176286  1
  K  K4  1  0.01808699  0.83556443  0.42385481  1
  K  K5  1  0.51808699  0.66443557  0.07614519  1
  K  K6  1  0.98191301  0.16443557  0.57614519  1
  K  K7  1  0.48191301  0.33556443  0.92385481  1
  K  K8  1  0.00328224  0.80608883  0.74351897  1
  K  K9  1  0.50328224  0.69391117  0.75648103  1
  K  K10  1  0.99671776  0.19391117  0.25648103  1
  K  K11  1  0.49671776  0.30608883  0.24351897  1
  K  K12  1  0.83914917  0.57540695  0.26067728  1
  K  K13  1  0.33914917  0.92459305  0.23932272  1
  K  K14  1  0.16085083  0.42459305  0.73932272  1
  K  K15  1  0.66085083  0.07540695  0.76067728  1
  K  K16  1  1.00173276  0.78977976  0.08667592  1
  K  K17  1  0.50173276  0.71022024  0.41332408  1
  K  K18  1  -0.00173276  0.21022024  0.91332408  1
  K  K19  1  0.49826724  0.28977976  0.58667592  1
  Sn  Sn20  1  0.14646447  0.42708289  0.08809686  1
  Sn  Sn21  1  0.64646447  0.07291711  0.41190314  1
  Sn  Sn22  1  0.85353553  0.57291711  0.91190314  1
  Sn  Sn23  1  0.35353553  0.92708289  0.58809686  1
  Bi  Bi24  1  0.19154585  0.58114055  0.93312355  1
  Bi  Bi25  1  0.69154585  0.91885945  0.56687645  1
  Bi  Bi26  1  0.80845415  0.41885945  0.06687645  1
  Bi  Bi27  1  0.30845415  0.08114055  0.43312355  1
  Bi  Bi28  1  0.26471737  0.15615288  0.08110709  1
  Bi  Bi29  1  0.76471737  0.34384712  0.41889291  1
  Bi  Bi30  1  0.73528263  0.84384712  0.91889291  1
  Bi  Bi31  1  0.23528263  0.65615288  0.58110709  1
  Bi  Bi32  1  0.23946065  0.58178457  0.23003182  1
  Bi  Bi33  1  0.73946065  0.91821543  0.26996818  1
  Bi  Bi34  1  0.76053935  0.41821543  0.76996818  1
  Bi  Bi35  1  0.26053935  0.08178457  0.73003182  1
