# generated using pymatgen
data_Ti4Bi2O11
_symmetry_space_group_name_H-M   'P 1'
_cell_length_a   3.79694245
_cell_length_b   7.70292927
_cell_length_c   7.80312438
_cell_angle_alpha   83.35893448
_cell_angle_beta   75.91882779
_cell_angle_gamma   75.73181255
_symmetry_Int_Tables_number   1
_chemical_formula_structural   Ti4Bi2O11
_chemical_formula_sum   'Ti4 Bi2 O11'
_cell_volume   214.15961273
_cell_formula_units_Z   1
loop_
 _symmetry_equiv_pos_site_id
 _symmetry_equiv_pos_as_xyz
  1  'x, y, z'
loop_
 _atom_site_type_symbol
 _atom_site_label
 _atom_site_symmetry_multiplicity
 _atom_site_fract_x
 _atom_site_fract_y
 _atom_site_fract_z
 _atom_site_occupancy
  O  O0  1  0.70738728  0.63394206  0.95128339  1
  O  O1  1  0.29261272  0.36605794  0.04871661  1
  O  O2  1  0.62347456  0.10582573  0.64722515  1
  O  O3  1  0.37652544  0.89417427  0.35277485  1
  O  O4  1  0.43692334  0.45901207  0.66714124  1
  O  O5  1  0.56307666  0.54098793  0.33285876  1
  O  O6  1  0.79906989  0.16000406  0.24185616  1
  O  O7  1  0.20093011  0.83999594  0.75814384  1
  O  O8  1  0.14577576  0.27882201  0.42962647  1
  O  O9  1  0.85422424  0.72117799  0.57037353  1
  O  O10  1  0.50000000  0.00000000  0.00000000  1
  Ti  Ti11  1  0.61879837  0.29411172  0.46829155  1
  Ti  Ti12  1  0.38120163  0.70588828  0.53170845  1
  Ti  Ti13  1  0.66082952  0.89628803  0.78205292  1
  Ti  Ti14  1  0.33917048  0.10371197  0.21794708  1
  Bi  Bi15  1  0.11075295  0.63658949  0.14190461  1
  Bi  Bi16  1  0.88924705  0.36341051  0.85809539  1
