# generated using pymatgen
data_ThSi2
_symmetry_space_group_name_H-M   'P 1'
_cell_length_a   4.12329438
_cell_length_b   4.12329438
_cell_length_c   7.81395560
_cell_angle_alpha   105.29813673
_cell_angle_beta   105.29813673
_cell_angle_gamma   90.00000000
_symmetry_Int_Tables_number   1
_chemical_formula_structural   ThSi2
_chemical_formula_sum   'Th2 Si4'
_cell_volume   123.25498111
_cell_formula_units_Z   2
loop_
 _symmetry_equiv_pos_site_id
 _symmetry_equiv_pos_as_xyz
  1  'x, y, z'
loop_
 _atom_site_type_symbol
 _atom_site_label
 _atom_site_symmetry_multiplicity
 _atom_site_fract_x
 _atom_site_fract_y
 _atom_site_fract_z
 _atom_site_occupancy
  Th  Th0  1  0.12500000  0.87500000  0.25000000  1
  Th  Th1  1  0.87500000  0.12500000  0.75000000  1
  Si  Si2  1  0.45807630  0.70807630  0.91615260  1
  Si  Si3  1  0.70807630  0.45807630  0.41615260  1
  Si  Si4  1  0.54192370  0.29192370  0.08384740  1
  Si  Si5  1  0.29192370  0.54192370  0.58384740  1
