# generated using pymatgen
data_Sn2ClF3
_symmetry_space_group_name_H-M   'P 1'
_cell_length_a   7.99377956
_cell_length_b   7.99340913
_cell_length_c   7.99060366
_cell_angle_alpha   90.00000000
_cell_angle_beta   90.00000000
_cell_angle_gamma   90.00000000
_symmetry_Int_Tables_number   1
_chemical_formula_structural   Sn2ClF3
_chemical_formula_sum   'Sn8 Cl4 F12'
_cell_volume   510.58000104
_cell_formula_units_Z   4
loop_
 _symmetry_equiv_pos_site_id
 _symmetry_equiv_pos_as_xyz
  1  'x, y, z'
loop_
 _atom_site_type_symbol
 _atom_site_label
 _atom_site_symmetry_multiplicity
 _atom_site_fract_x
 _atom_site_fract_y
 _atom_site_fract_z
 _atom_site_occupancy
  F  F0  1  0.37164499  0.88094340  0.37307816  1
  F  F1  1  0.87164499  0.61905660  0.62692184  1
  F  F2  1  0.62835501  0.38094340  0.12692184  1
  F  F3  1  0.12835501  0.11905660  0.87307816  1
  F  F4  1  0.38140494  0.12766105  0.62858484  1
  F  F5  1  0.88140494  0.37233895  0.37141516  1
  F  F6  1  0.61859506  0.62766105  0.87141516  1
  F  F7  1  0.87241246  0.12834164  0.11912975  1
  F  F8  1  0.62758754  0.87165836  0.61912975  1
  F  F9  1  0.12758754  0.62834164  0.38087025  1
  F  F10  1  0.37241246  0.37165836  0.88087025  1
  F  F11  1  0.11859506  0.87233895  0.12858484  1
  Cl  Cl12  1  0.26488062  0.26374006  0.26491009  1
  Cl  Cl13  1  0.73511938  0.76374006  0.23508991  1
  Cl  Cl14  1  0.76488062  0.23625994  0.73508991  1
  Cl  Cl15  1  0.23511938  0.73625994  0.76491009  1
  Sn  Sn16  1  0.10358215  0.89649991  0.39697788  1
  Sn  Sn17  1  0.39641785  0.10350009  0.89697788  1
  Sn  Sn18  1  0.89641785  0.39649991  0.10302212  1
  Sn  Sn19  1  0.60358215  0.60350009  0.60302212  1
  Sn  Sn20  1  0.56729787  0.06730286  0.43286133  1
  Sn  Sn21  1  0.06729787  0.43269714  0.56713867  1
  Sn  Sn22  1  0.43270213  0.56730286  0.06713867  1
  Sn  Sn23  1  0.93270213  0.93269714  0.93286133  1
