# generated using pymatgen
data_LuMnGe2
_symmetry_space_group_name_H-M   'P 1'
_cell_length_a   5.39590368
_cell_length_b   8.19764233
_cell_length_c   9.57010204
_cell_angle_alpha   90.00000000
_cell_angle_beta   106.37450948
_cell_angle_gamma   90.00000000
_symmetry_Int_Tables_number   1
_chemical_formula_structural   LuMnGe2
_chemical_formula_sum   'Lu6 Mn6 Ge12'
_cell_volume   406.15079993
_cell_formula_units_Z   6
loop_
 _symmetry_equiv_pos_site_id
 _symmetry_equiv_pos_as_xyz
  1  'x, y, z'
loop_
 _atom_site_type_symbol
 _atom_site_label
 _atom_site_symmetry_multiplicity
 _atom_site_fract_x
 _atom_site_fract_y
 _atom_site_fract_z
 _atom_site_occupancy
  Mn  Mn0  1  0.00000000  0.25207295  0.50000000  1
  Mn  Mn1  1  0.50000000  0.25207295  0.50000000  1
  Mn  Mn2  1  0.00000000  0.74792705  0.50000000  1
  Mn  Mn3  1  0.50000000  0.74792705  0.50000000  1
  Mn  Mn4  1  0.50000000  0.75138830  0.00000000  1
  Mn  Mn5  1  0.50000000  0.24861170  0.00000000  1
  Ge  Ge6  1  0.79730324  0.50000000  0.59460648  1
  Ge  Ge7  1  0.20269676  0.50000000  0.40539352  1
  Ge  Ge8  1  0.36184380  0.84458785  0.72368759  1
  Ge  Ge9  1  0.36184380  0.15541215  0.72368759  1
  Ge  Ge10  1  0.63815620  0.84458785  0.27631241  1
  Ge  Ge11  1  0.63815620  0.15541215  0.27631241  1
  Ge  Ge12  1  0.24570710  0.00000000  0.00000000  1
  Ge  Ge13  1  0.75429290  0.00000000  0.00000000  1
  Ge  Ge14  1  0.24635713  0.50000000  0.00000000  1
  Ge  Ge15  1  0.75364287  0.50000000  0.00000000  1
  Ge  Ge16  1  0.78908384  0.00000000  0.57816769  1
  Ge  Ge17  1  0.21091616  0.00000000  0.42183231  1
  Lu  Lu18  1  0.90636456  0.74794944  0.81272912  1
  Lu  Lu19  1  0.09363544  0.25205056  0.18727088  1
  Lu  Lu20  1  0.09363544  0.74794944  0.18727088  1
  Lu  Lu21  1  0.90636456  0.25205056  0.81272912  1
  Lu  Lu22  1  0.64059479  0.50000000  0.28118958  1
  Lu  Lu23  1  0.35940521  0.50000000  0.71881042  1
