# generated using pymatgen
data_TlAs5S8
_symmetry_space_group_name_H-M   'P 1'
_cell_length_a   8.15640157
_cell_length_b   11.36088483
_cell_length_c   15.98780476
_cell_angle_alpha   91.59310549
_cell_angle_beta   90.00000000
_cell_angle_gamma   90.00000000
_symmetry_Int_Tables_number   1
_chemical_formula_structural   TlAs5S8
_chemical_formula_sum   'Tl4 As20 S32'
_cell_volume   1480.92031718
_cell_formula_units_Z   4
loop_
 _symmetry_equiv_pos_site_id
 _symmetry_equiv_pos_as_xyz
  1  'x, y, z'
loop_
 _atom_site_type_symbol
 _atom_site_label
 _atom_site_symmetry_multiplicity
 _atom_site_fract_x
 _atom_site_fract_y
 _atom_site_fract_z
 _atom_site_occupancy
  S  S0  1  0.31938476  0.86720142  0.68482913  1
  S  S1  1  0.81938476  0.63279858  0.31517087  1
  S  S2  1  0.68061524  0.13279858  0.31517087  1
  S  S3  1  0.18061524  0.36720142  0.68482913  1
  S  S4  1  0.16816271  0.05144304  0.84817053  1
  S  S5  1  0.66816271  0.44855696  0.15182947  1
  S  S6  1  0.83183729  0.94855696  0.15182947  1
  S  S7  1  0.33183729  0.55144304  0.84817053  1
  S  S8  1  0.04337168  0.20007879  0.12996823  1
  S  S9  1  0.54337168  0.29992121  0.87003177  1
  S  S10  1  0.95662832  0.79992121  0.87003177  1
  S  S11  1  0.45662832  0.70007879  0.12996823  1
  S  S12  1  0.08375170  0.50280900  0.18257214  1
  S  S13  1  0.58375170  0.99719100  0.81742786  1
  S  S14  1  0.91624830  0.49719100  0.81742786  1
  S  S15  1  0.41624830  0.00280900  0.18257214  1
  S  S16  1  0.30812007  0.38557005  0.03269119  1
  S  S17  1  0.80812007  0.11442995  0.96730881  1
  S  S18  1  0.69187993  0.61442995  0.96730881  1
  S  S19  1  0.19187993  0.88557005  0.03269119  1
  S  S20  1  0.39033253  0.59932632  0.34016967  1
  S  S21  1  0.89033253  0.90067368  0.65983033  1
  S  S22  1  0.60966747  0.40067368  0.65983033  1
  S  S23  1  0.10966747  0.09932632  0.34016967  1
  S  S24  1  0.11426759  0.40049585  0.43002540  1
  S  S25  1  0.61426759  0.09950415  0.56997460  1
  S  S26  1  0.88573241  0.59950415  0.56997460  1
  S  S27  1  0.38573241  0.90049585  0.43002540  1
  S  S28  1  0.14264030  0.09079184  0.56209619  1
  S  S29  1  0.64264030  0.40920816  0.43790381  1
  S  S30  1  0.85735970  0.90920816  0.43790381  1
  S  S31  1  0.35735970  0.59079184  0.56209619  1
  As  As32  1  0.27879058  0.36190503  0.88938418  1
  As  As33  1  0.77879058  0.13809497  0.11061582  1
  As  As34  1  0.72120942  0.63809497  0.11061582  1
  As  As35  1  0.22120942  0.86190503  0.88938418  1
  As  As36  1  0.37978379  0.39157333  0.57683594  1
  As  As37  1  0.87978379  0.10842667  0.42316406  1
  As  As38  1  0.62021621  0.60842667  0.42316406  1
  As  As39  1  0.12021621  0.89157333  0.57683594  1
  As  As40  1  0.85716691  0.44710302  0.26179013  1
  As  As41  1  0.35716691  0.05289698  0.73820987  1
  As  As42  1  0.14283309  0.55289698  0.73820987  1
  As  As43  1  0.64283309  0.94710302  0.26179013  1
  As  As44  1  0.03603774  0.37989405  0.06735009  1
  As  As45  1  0.53603774  0.12010595  0.93264991  1
  As  As46  1  0.96396226  0.62010595  0.93264991  1
  As  As47  1  0.46396226  0.87989405  0.06735009  1
  As  As48  1  0.82636543  0.41095623  0.55296942  1
  As  As49  1  0.32636543  0.08904377  0.44703058  1
  As  As50  1  0.17363457  0.58904377  0.44703058  1
  As  As51  1  0.67363457  0.91095623  0.55296942  1
  Tl  Tl52  1  0.33506152  0.33633896  0.28500458  1
  Tl  Tl53  1  0.83506152  0.16366104  0.71499542  1
  Tl  Tl54  1  0.66493848  0.66366104  0.71499542  1
  Tl  Tl55  1  0.16493848  0.83633896  0.28500458  1
