# generated using pymatgen
data_Ni(IO3)2
_symmetry_space_group_name_H-M   'P 1'
_cell_length_a   5.89490262
_cell_length_b   5.91988879
_cell_length_c   5.17176383
_cell_angle_alpha   89.77127487
_cell_angle_beta   90.00000000
_cell_angle_gamma   119.86047777
_symmetry_Int_Tables_number   1
_chemical_formula_structural   Ni(IO3)2
_chemical_formula_sum   'Ni1 I2 O6'
_cell_volume   156.51781128
_cell_formula_units_Z   1
loop_
 _symmetry_equiv_pos_site_id
 _symmetry_equiv_pos_as_xyz
  1  'x, y, z'
loop_
 _atom_site_type_symbol
 _atom_site_label
 _atom_site_symmetry_multiplicity
 _atom_site_fract_x
 _atom_site_fract_y
 _atom_site_fract_z
 _atom_site_occupancy
  Ni  Ni0  1  -0.00000000  -0.00000000  0.00000000  1
  I  I1  1  0.66532610  0.33065321  0.05180834  1
  I  I2  1  0.33467390  0.66934679  0.94819166  1
  O  O3  1  0.34856035  0.17220230  0.22080555  1
  O  O4  1  0.82296423  0.64592847  0.21830338  1
  O  O5  1  0.82364196  0.17220230  0.22080555  1
  O  O6  1  0.65143965  0.82779770  0.77919445  1
  O  O7  1  0.17703577  0.35407153  0.78169662  1
  O  O8  1  0.17635804  0.82779770  0.77919445  1
