# generated using pymatgen
data_U3Te5
_symmetry_space_group_name_H-M   'P 1'
_cell_length_a   4.12872031
_cell_length_b   14.09334464
_cell_length_c   16.26473722
_cell_angle_alpha   90.00000000
_cell_angle_beta   90.00000000
_cell_angle_gamma   90.00000000
_symmetry_Int_Tables_number   1
_chemical_formula_structural   U3Te5
_chemical_formula_sum   'U12 Te20'
_cell_volume   946.40404325
_cell_formula_units_Z   4
loop_
 _symmetry_equiv_pos_site_id
 _symmetry_equiv_pos_as_xyz
  1  'x, y, z'
loop_
 _atom_site_type_symbol
 _atom_site_label
 _atom_site_symmetry_multiplicity
 _atom_site_fract_x
 _atom_site_fract_y
 _atom_site_fract_z
 _atom_site_occupancy
  Te  Te0  1  0.25000000  0.91899520  0.07523079  1
  Te  Te1  1  0.75000000  0.08100480  0.92476921  1
  Te  Te2  1  0.75000000  0.41899520  0.42476921  1
  Te  Te3  1  0.25000000  0.58100480  0.57523079  1
  Te  Te4  1  0.25000000  0.45376234  0.78479016  1
  Te  Te5  1  0.75000000  0.54623766  0.21520984  1
  Te  Te6  1  0.75000000  0.95376234  0.71520984  1
  Te  Te7  1  0.25000000  0.04623766  0.28479016  1
  Te  Te8  1  0.25000000  0.72093289  0.76447300  1
  Te  Te9  1  0.75000000  0.27906711  0.23552700  1
  Te  Te10  1  0.75000000  0.22093289  0.73552700  1
  Te  Te11  1  0.25000000  0.77906711  0.26447300  1
  Te  Te12  1  0.25000000  0.61028740  0.02499934  1
  Te  Te13  1  0.75000000  0.38971260  0.97500066  1
  Te  Te14  1  0.75000000  0.11028740  0.47500066  1
  Te  Te15  1  0.25000000  0.88971260  0.52499934  1
  Te  Te16  1  0.25000000  0.20262304  0.06712066  1
  Te  Te17  1  0.75000000  0.79737696  0.93287934  1
  Te  Te18  1  0.75000000  0.70262304  0.43287934  1
  Te  Te19  1  0.25000000  0.29737696  0.56712066  1
  U  U20  1  0.25000000  0.24982635  0.88033993  1
  U  U21  1  0.75000000  0.75017365  0.11966007  1
  U  U22  1  0.75000000  0.74982635  0.61966007  1
  U  U23  1  0.25000000  0.25017365  0.38033993  1
  U  U24  1  0.25000000  0.93078985  0.86059570  1
  U  U25  1  0.75000000  0.06921015  0.13940430  1
  U  U26  1  0.75000000  0.43078985  0.63940430  1
  U  U27  1  0.25000000  0.56921015  0.36059570  1
  U  U28  1  0.25000000  0.09025786  0.62656151  1
  U  U29  1  0.75000000  0.90974214  0.37343849  1
  U  U30  1  0.75000000  0.59025786  0.87343849  1
  U  U31  1  0.25000000  0.40974214  0.12656151  1
