# generated using pymatgen
data_Ga5Pd
_symmetry_space_group_name_H-M   'P 1'
_cell_length_a   6.52068562
_cell_length_b   6.52068562
_cell_length_c   6.84330771
_cell_angle_alpha   118.45236213
_cell_angle_beta   118.45236213
_cell_angle_gamma   90.00000003
_symmetry_Int_Tables_number   1
_chemical_formula_structural   Ga5Pd
_chemical_formula_sum   'Ga10 Pd2'
_cell_volume   215.01165049
_cell_formula_units_Z   2
loop_
 _symmetry_equiv_pos_site_id
 _symmetry_equiv_pos_as_xyz
  1  'x, y, z'
loop_
 _atom_site_type_symbol
 _atom_site_label
 _atom_site_symmetry_multiplicity
 _atom_site_fract_x
 _atom_site_fract_y
 _atom_site_fract_z
 _atom_site_occupancy
  Ga  Ga0  1  0.00000000  0.00000000  0.00000000  1
  Ga  Ga1  1  0.50000000  0.50000000  0.00000000  1
  Ga  Ga2  1  0.28526927  0.78526927  0.27888266  1
  Ga  Ga3  1  0.49361339  0.28526927  0.27888266  1
  Ga  Ga4  1  0.78526927  0.99361339  0.27888266  1
  Ga  Ga5  1  0.50638661  0.71473073  0.72111734  1
  Ga  Ga6  1  0.21473073  0.00638661  0.72111734  1
  Ga  Ga7  1  0.00638661  0.50638661  0.72111734  1
  Ga  Ga8  1  0.71473073  0.21473073  0.72111734  1
  Ga  Ga9  1  0.99361339  0.49361339  0.27888266  1
  Pd  Pd10  1  0.25000000  0.25000000  0.50000000  1
  Pd  Pd11  1  0.75000000  0.75000000  0.50000000  1
