# generated using pymatgen
data_Rb3PbCl5
_symmetry_space_group_name_H-M   'P 1'
_cell_length_a   8.49335714
_cell_length_b   8.95980590
_cell_length_c   15.96359936
_cell_angle_alpha   90.00000000
_cell_angle_beta   90.00000000
_cell_angle_gamma   90.00000000
_symmetry_Int_Tables_number   1
_chemical_formula_structural   Rb3PbCl5
_chemical_formula_sum   'Rb12 Pb4 Cl20'
_cell_volume   1214.81125645
_cell_formula_units_Z   4
loop_
 _symmetry_equiv_pos_site_id
 _symmetry_equiv_pos_as_xyz
  1  'x, y, z'
loop_
 _atom_site_type_symbol
 _atom_site_label
 _atom_site_symmetry_multiplicity
 _atom_site_fract_x
 _atom_site_fract_y
 _atom_site_fract_z
 _atom_site_occupancy
  Cl  Cl0  1  0.12728452  0.38990196  0.87480765  1
  Cl  Cl1  1  0.62728452  0.11009804  0.12519235  1
  Cl  Cl2  1  0.37271548  0.88990196  0.62519235  1
  Cl  Cl3  1  0.87271548  0.61009804  0.37480765  1
  Cl  Cl4  1  0.87271548  0.61009804  0.12519235  1
  Cl  Cl5  1  0.37271548  0.88990196  0.87480765  1
  Cl  Cl6  1  0.62728452  0.11009804  0.37480765  1
  Cl  Cl7  1  0.12728452  0.38990196  0.62519235  1
  Cl  Cl8  1  0.17610837  0.95479641  0.11404927  1
  Cl  Cl9  1  0.67610837  0.54520359  0.88595073  1
  Cl  Cl10  1  0.32389163  0.45479641  0.38595073  1
  Cl  Cl11  1  0.82389163  0.04520359  0.61404927  1
  Cl  Cl12  1  0.82389163  0.04520359  0.88595073  1
  Cl  Cl13  1  0.32389163  0.45479641  0.11404927  1
  Cl  Cl14  1  0.67610837  0.54520359  0.61404927  1
  Cl  Cl15  1  0.17610837  0.95479641  0.38595073  1
  Cl  Cl16  1  0.02059817  0.27739675  0.25000000  1
  Cl  Cl17  1  0.52059817  0.22260325  0.75000000  1
  Cl  Cl18  1  0.47940183  0.77739675  0.25000000  1
  Cl  Cl19  1  0.97940183  0.72260325  0.75000000  1
  Rb  Rb20  1  0.96702588  0.26162577  0.04590027  1
  Rb  Rb21  1  0.46702588  0.23837423  0.95409973  1
  Rb  Rb22  1  0.53297412  0.76162577  0.45409973  1
  Rb  Rb23  1  0.03297412  0.73837423  0.54590027  1
  Rb  Rb24  1  0.03297412  0.73837423  0.95409973  1
  Rb  Rb25  1  0.53297412  0.76162577  0.04590027  1
  Rb  Rb26  1  0.46702588  0.23837423  0.54590027  1
  Rb  Rb27  1  0.96702588  0.26162577  0.45409973  1
  Rb  Rb28  1  0.13679641  0.07905673  0.75000000  1
  Rb  Rb29  1  0.63679641  0.42094327  0.25000000  1
  Rb  Rb30  1  0.36320359  0.57905673  0.75000000  1
  Rb  Rb31  1  0.86320359  0.92094327  0.25000000  1
  Pb  Pb32  1  0.63914766  0.93944385  0.75000000  1
  Pb  Pb33  1  0.13914766  0.56055615  0.25000000  1
  Pb  Pb34  1  0.86085234  0.43944385  0.75000000  1
  Pb  Pb35  1  0.36085234  0.06055615  0.25000000  1
