# generated using pymatgen
data_S2I2O11
_symmetry_space_group_name_H-M   'P 1'
_cell_length_a   9.32091499
_cell_length_b   9.35935187
_cell_length_c   10.66138438
_cell_angle_alpha   90.00000000
_cell_angle_beta   90.00000000
_cell_angle_gamma   94.54715873
_symmetry_Int_Tables_number   1
_chemical_formula_structural   S2I2O11
_chemical_formula_sum   'S8 I8 O44'
_cell_volume   927.14741185
_cell_formula_units_Z   4
loop_
 _symmetry_equiv_pos_site_id
 _symmetry_equiv_pos_as_xyz
  1  'x, y, z'
loop_
 _atom_site_type_symbol
 _atom_site_label
 _atom_site_symmetry_multiplicity
 _atom_site_fract_x
 _atom_site_fract_y
 _atom_site_fract_z
 _atom_site_occupancy
  O  O0  1  0.82160179  0.41980208  0.66061390  1
  O  O1  1  0.67839821  0.58019792  0.16061390  1
  O  O2  1  0.17839821  0.58019792  0.33938610  1
  O  O3  1  0.32160179  0.41980208  0.83938610  1
  O  O4  1  0.61296200  0.29172310  0.82834204  1
  O  O5  1  0.88703800  0.70827690  0.32834204  1
  O  O6  1  0.38703800  0.70827690  0.17165796  1
  O  O7  1  0.11296200  0.29172310  0.67165796  1
  O  O8  1  0.82259098  0.08332206  0.78706421  1
  O  O9  1  0.67740902  0.91667794  0.28706421  1
  O  O10  1  0.17740902  0.91667794  0.21293579  1
  O  O11  1  0.32259098  0.08332206  0.71293579  1
  O  O12  1  0.61712467  0.17577367  0.61655639  1
  O  O13  1  0.88287533  0.82422633  0.11655639  1
  O  O14  1  0.65521059  0.80449069  0.90419986  1
  O  O15  1  0.38287533  0.82422633  0.38344361  1
  O  O16  1  0.10606725  0.89168479  0.85294659  1
  O  O17  1  0.39393275  0.10831521  0.35294659  1
  O  O18  1  0.89393275  0.10831521  0.14705341  1
  O  O19  1  0.60606725  0.89168479  0.64705341  1
  O  O20  1  0.33638751  0.89136679  0.96810535  1
  O  O21  1  0.16361249  0.10863321  0.46810535  1
  O  O22  1  0.66361249  0.10863321  0.03189465  1
  O  O23  1  0.83638751  0.89136679  0.53189465  1
  O  O24  1  0.10567017  0.57966046  0.70528354  1
  O  O25  1  0.39432983  0.42033954  0.20528354  1
  O  O26  1  0.89432983  0.42033954  0.29471646  1
  O  O27  1  0.60567017  0.57966046  0.79471646  1
  O  O28  1  0.30846679  0.75116848  0.78020718  1
  O  O29  1  0.19153321  0.24883152  0.28020718  1
  O  O30  1  0.69153321  0.24883152  0.21979282  1
  O  O31  1  0.80846679  0.75116848  0.71979282  1
  O  O32  1  0.33340854  0.62154491  0.58718265  1
  O  O33  1  0.16659146  0.37845509  0.08718265  1
  O  O34  1  0.66659146  0.37845509  0.41281735  1
  O  O35  1  0.83340854  0.62154491  0.91281735  1
  O  O36  1  0.15826121  0.67945588  0.96753219  1
  O  O37  1  0.34173879  0.32054412  0.46753219  1
  O  O38  1  0.84173879  0.32054412  0.03246781  1
  O  O39  1  0.65826121  0.67945588  0.53246781  1
  O  O40  1  0.15521059  0.80449069  0.59580014  1
  O  O41  1  0.34478941  0.19550931  0.09580014  1
  O  O42  1  0.84478941  0.19550931  0.40419986  1
  O  O43  1  0.11712467  0.17577367  0.88344361  1
  S  S44  1  0.71968586  0.68643607  0.84626931  1
  S  S45  1  0.78031414  0.31356393  0.34626931  1
  S  S46  1  0.28031414  0.31356393  0.15373069  1
  S  S47  1  0.21968586  0.68643607  0.65373069  1
  S  S48  1  0.72235684  0.80506891  0.59520042  1
  S  S49  1  0.77764316  0.19493109  0.09520042  1
  S  S50  1  0.27764316  0.19493109  0.40479958  1
  S  S51  1  0.22235684  0.80506891  0.90479958  1
  I  I52  1  0.63285747  0.08251734  0.77804040  1
  I  I53  1  0.86714253  0.91748266  0.27804040  1
  I  I54  1  0.36714253  0.91748266  0.22195960  1
  I  I55  1  0.13285747  0.08251734  0.72195960  1
  I  I56  1  0.63281315  0.38840751  0.66711177  1
  I  I57  1  0.86718685  0.61159249  0.16711177  1
  I  I58  1  0.36718685  0.61159249  0.33288823  1
  I  I59  1  0.13281315  0.38840751  0.83288823  1
