# generated using pymatgen
data_Hg2SeO3
_symmetry_space_group_name_H-M   'P 1'
_cell_length_a   5.28005248
_cell_length_b   8.99567832
_cell_length_c   10.62063177
_cell_angle_alpha   102.91976002
_cell_angle_beta   90.00000000
_cell_angle_gamma   90.00000000
_symmetry_Int_Tables_number   1
_chemical_formula_structural   Hg2SeO3
_chemical_formula_sum   'Hg8 Se4 O12'
_cell_volume   491.68437575
_cell_formula_units_Z   4
loop_
 _symmetry_equiv_pos_site_id
 _symmetry_equiv_pos_as_xyz
  1  'x, y, z'
loop_
 _atom_site_type_symbol
 _atom_site_label
 _atom_site_symmetry_multiplicity
 _atom_site_fract_x
 _atom_site_fract_y
 _atom_site_fract_z
 _atom_site_occupancy
  O  O0  1  0.15861807  0.32057045  0.70088134  1
  O  O1  1  0.65861807  0.17942955  0.79911866  1
  O  O2  1  0.84138193  0.67942955  0.29911866  1
  O  O3  1  0.34138193  0.82057045  0.20088134  1
  O  O4  1  0.57547226  0.47771738  0.65024890  1
  O  O5  1  0.07547226  0.02228262  0.84975110  1
  O  O6  1  0.42452774  0.52228262  0.34975110  1
  O  O7  1  0.34589880  0.12999225  0.24076025  1
  O  O8  1  0.15410120  0.62999225  0.74076025  1
  O  O9  1  0.65410120  0.87000775  0.75923975  1
  O  O10  1  0.84589880  0.37000775  0.25923975  1
  O  O11  1  0.92452774  0.97771738  0.15024890  1
  Se  Se12  1  0.25246390  0.97087996  0.12961776  1
  Se  Se13  1  0.74753610  0.02912004  0.87038224  1
  Se  Se14  1  0.75246390  0.52912004  0.37038224  1
  Se  Se15  1  0.24753610  0.47087996  0.62961776  1
  Hg  Hg16  1  0.29653549  0.38231475  0.15729264  1
  Hg  Hg17  1  0.20346451  0.88231475  0.65729264  1
  Hg  Hg18  1  0.70346451  0.61768525  0.84270736  1
  Hg  Hg19  1  0.79653549  0.11768525  0.34270736  1
  Hg  Hg20  1  0.76083466  0.67074674  0.09359430  1
  Hg  Hg21  1  0.26083466  0.82925326  0.40640570  1
  Hg  Hg22  1  0.23916534  0.32925326  0.90640570  1
  Hg  Hg23  1  0.73916534  0.17074674  0.59359430  1
