# generated using pymatgen
data_Zn(AsO2)2
_symmetry_space_group_name_H-M   'P 1'
_cell_length_a   4.65106053
_cell_length_b   5.11833538
_cell_length_c   18.36893839
_cell_angle_alpha   90.00000000
_cell_angle_beta   90.26902759
_cell_angle_gamma   90.00000000
_symmetry_Int_Tables_number   1
_chemical_formula_structural   Zn(AsO2)2
_chemical_formula_sum   'Zn4 As8 O16'
_cell_volume   437.28038928
_cell_formula_units_Z   4
loop_
 _symmetry_equiv_pos_site_id
 _symmetry_equiv_pos_as_xyz
  1  'x, y, z'
loop_
 _atom_site_type_symbol
 _atom_site_label
 _atom_site_symmetry_multiplicity
 _atom_site_fract_x
 _atom_site_fract_y
 _atom_site_fract_z
 _atom_site_occupancy
  O  O0  1  0.50542143  0.76045875  0.30625422  1
  O  O1  1  0.49457857  0.26045875  0.19374578  1
  O  O2  1  0.49457857  0.23954125  0.69374578  1
  O  O3  1  0.50542143  0.73954125  0.80625422  1
  O  O4  1  0.00303455  0.26591979  0.30446421  1
  O  O5  1  0.99696545  0.76591979  0.19553579  1
  O  O6  1  0.99696545  0.73408021  0.69553579  1
  O  O7  1  0.00303455  0.23408021  0.80446421  1
  O  O8  1  0.10652612  0.63139423  0.41265430  1
  O  O9  1  0.89347388  0.13139423  0.08734570  1
  O  O10  1  0.89347388  0.36860577  0.58734570  1
  O  O11  1  0.10652612  0.86860577  0.91265430  1
  O  O12  1  0.60835294  0.11831739  0.90804253  1
  O  O13  1  0.39164706  0.61831739  0.59195747  1
  O  O14  1  0.39164706  0.88168261  0.09195747  1
  O  O15  1  0.60835294  0.38168261  0.40804253  1
  Zn  Zn16  1  0.25339084  0.01049406  0.25214488  1
  Zn  Zn17  1  0.74660916  0.51049406  0.24785512  1
  Zn  Zn18  1  0.74660916  0.98950594  0.74785512  1
  Zn  Zn19  1  0.25339084  0.48950594  0.75214488  1
  As  As20  1  0.48576719  0.72416929  0.40361696  1
  As  As21  1  0.51423281  0.22416929  0.09638304  1
  As  As22  1  0.51423281  0.27583071  0.59638304  1
  As  As23  1  0.48576719  0.77583071  0.90361696  1
  As  As24  1  0.98853696  0.28878603  0.40179122  1
  As  As25  1  0.01146304  0.78878603  0.09820878  1
  As  As26  1  0.01146304  0.71121397  0.59820878  1
  As  As27  1  0.98853696  0.21121397  0.90179122  1
