# generated using pymatgen
data_Hf(Te4Cl3)2
_symmetry_space_group_name_H-M   'P 1'
_cell_length_a   7.32327239
_cell_length_b   9.00442779
_cell_length_c   16.99776136
_cell_angle_alpha   103.94775092
_cell_angle_beta   100.10607074
_cell_angle_gamma   93.66373416
_symmetry_Int_Tables_number   1
_chemical_formula_structural   Hf(Te4Cl3)2
_chemical_formula_sum   'Hf2 Te16 Cl12'
_cell_volume   1064.30326152
_cell_formula_units_Z   2
loop_
 _symmetry_equiv_pos_site_id
 _symmetry_equiv_pos_as_xyz
  1  'x, y, z'
loop_
 _atom_site_type_symbol
 _atom_site_label
 _atom_site_symmetry_multiplicity
 _atom_site_fract_x
 _atom_site_fract_y
 _atom_site_fract_z
 _atom_site_occupancy
  Cl  Cl0  1  0.90427827  0.11352443  0.63076458  1
  Cl  Cl1  1  0.09572173  0.88647557  0.36923542  1
  Cl  Cl2  1  0.67573814  0.98415612  0.42454310  1
  Cl  Cl3  1  0.32426186  0.01584388  0.57545690  1
  Cl  Cl4  1  0.93093995  0.73748033  0.51779936  1
  Cl  Cl5  1  0.06906005  0.26251967  0.48220064  1
  Cl  Cl6  1  -0.00487084  0.93853649  0.85158536  1
  Cl  Cl7  1  1.00487084  0.06146351  0.14841464  1
  Cl  Cl8  1  0.69803019  0.10629479  0.97608863  1
  Cl  Cl9  1  0.30196981  0.89370521  0.02391137  1
  Cl  Cl10  1  0.83502980  0.74125554  0.98466532  1
  Cl  Cl11  1  0.16497020  0.25874446  0.01533468  1
  Te  Te12  1  0.54065708  0.71314565  0.59839581  1
  Te  Te13  1  0.23503751  0.66632031  0.67033757  1
  Te  Te14  1  0.76496249  0.33367969  0.32966243  1
  Te  Te15  1  0.20988646  0.44793144  0.22186910  1
  Te  Te16  1  0.54889633  0.27614522  0.17391093  1
  Te  Te17  1  0.45110367  0.72385478  0.82608907  1
  Te  Te18  1  0.64672386  0.42797316  0.60908176  1
  Te  Te19  1  0.35327614  0.57202684  0.39091824  1
  Te  Te20  1  0.79011354  0.55206856  0.77813090  1
  Te  Te21  1  0.71486839  0.49988705  0.11146784  1
  Te  Te22  1  0.71497467  0.29646596  0.83701255  1
  Te  Te23  1  0.28502533  0.70353404  0.16298745  1
  Te  Te24  1  0.34129057  0.25120591  0.76838729  1
  Te  Te25  1  0.65870943  0.74879409  0.23161271  1
  Te  Te26  1  0.28513161  0.50011295  0.88853216  1
  Te  Te27  1  0.45934292  0.28685435  0.40160419  1
  Hf  Hf28  1  0.00000000  0.00000000  0.50000000  1
  Hf  Hf29  1  0.00000000  0.00000000  0.00000000  1
