# generated using pymatgen
data_Li11Ge6
_symmetry_space_group_name_H-M   'P 1'
_cell_length_a   4.31922668
_cell_length_b   10.62123939
_cell_length_c   12.62266340
_cell_angle_alpha   90.00000000
_cell_angle_beta   99.85120855
_cell_angle_gamma   90.00000000
_symmetry_Int_Tables_number   1
_chemical_formula_structural   Li11Ge6
_chemical_formula_sum   'Li22 Ge12'
_cell_volume   570.53331682
_cell_formula_units_Z   2
loop_
 _symmetry_equiv_pos_site_id
 _symmetry_equiv_pos_as_xyz
  1  'x, y, z'
loop_
 _atom_site_type_symbol
 _atom_site_label
 _atom_site_symmetry_multiplicity
 _atom_site_fract_x
 _atom_site_fract_y
 _atom_site_fract_z
 _atom_site_occupancy
  Li  Li0  1  0.17984574  0.11974819  0.35969149  1
  Li  Li1  1  0.82015426  0.88025181  0.64030851  1
  Li  Li2  1  0.82015426  0.61974819  0.64030851  1
  Li  Li3  1  0.17984574  0.38025181  0.35969149  1
  Li  Li4  1  0.90946363  -0.00070644  0.81892726  1
  Li  Li5  1  0.09053637  1.00070644  0.18107274  1
  Li  Li6  1  0.09053637  0.49929356  0.18107274  1
  Li  Li7  1  0.90946363  0.50070644  0.81892726  1
  Li  Li8  1  0.14330296  0.75000000  0.28660592  1
  Li  Li9  1  0.85669704  0.25000000  0.71339408  1
  Li  Li10  1  0.02587306  0.75000000  0.05174611  1
  Li  Li11  1  0.97412694  0.25000000  0.94825389  1
  Li  Li12  1  0.63945534  0.25000000  0.27891068  1
  Li  Li13  1  0.36054466  0.75000000  0.72108932  1
  Li  Li14  1  0.53500042  0.11259488  0.07000085  1
  Li  Li15  1  0.46499958  0.88740512  0.92999915  1
  Li  Li16  1  0.46499958  0.61259488  0.92999915  1
  Li  Li17  1  0.53500042  0.38740512  0.07000085  1
  Li  Li18  1  0.75826922  0.39442033  0.51653844  1
  Li  Li19  1  0.24173078  0.60557967  0.48346156  1
  Li  Li20  1  0.24173078  0.89442033  0.48346156  1
  Li  Li21  1  0.75826922  0.10557967  0.51653844  1
  Ge  Ge22  1  0.91927123  0.75000000  0.83854245  1
  Ge  Ge23  1  0.08072877  0.25000000  0.16145755  1
  Ge  Ge24  1  0.72842702  0.75000000  0.45685404  1
  Ge  Ge25  1  0.27157298  0.25000000  0.54314596  1
  Ge  Ge26  1  0.32885059  0.44796851  0.65770118  1
  Ge  Ge27  1  0.67114941  0.55203149  0.34229882  1
  Ge  Ge28  1  0.67114941  0.94796851  0.34229882  1
  Ge  Ge29  1  0.32885059  0.05203149  0.65770118  1
  Ge  Ge30  1  0.42449863  0.36601654  0.84899727  1
  Ge  Ge31  1  0.57550137  0.63398346  0.15100273  1
  Ge  Ge32  1  0.57550137  0.86601654  0.15100273  1
  Ge  Ge33  1  0.42449863  0.13398346  0.84899727  1
