# generated using pymatgen
data_Ga9Rh2
_symmetry_space_group_name_H-M   'P 1'
_cell_length_a   6.46152672
_cell_length_b   6.50160896
_cell_length_c   8.91719184
_cell_angle_alpha   93.07046866
_cell_angle_beta   90.00000000
_cell_angle_gamma   90.00000000
_symmetry_Int_Tables_number   1
_chemical_formula_structural   Ga9Rh2
_chemical_formula_sum   'Ga18 Rh4'
_cell_volume   374.07629104
_cell_formula_units_Z   2
loop_
 _symmetry_equiv_pos_site_id
 _symmetry_equiv_pos_as_xyz
  1  'x, y, z'
loop_
 _atom_site_type_symbol
 _atom_site_label
 _atom_site_symmetry_multiplicity
 _atom_site_fract_x
 _atom_site_fract_y
 _atom_site_fract_z
 _atom_site_occupancy
  Ga  Ga0  1  0.76130421  0.03298851  0.53085305  1
  Ga  Ga1  1  0.23869579  0.03298851  0.03085305  1
  Ga  Ga2  1  0.63452289  0.80136003  0.95641283  1
  Ga  Ga3  1  0.36547711  0.80136003  0.45641283  1
  Ga  Ga4  1  0.76073081  0.39911819  0.76766090  1
  Ga  Ga5  1  0.23926919  0.39911819  0.26766090  1
  Ga  Ga6  1  0.74007315  0.59984615  0.22602722  1
  Ga  Ga7  1  0.25992685  0.59984615  0.72602722  1
  Ga  Ga8  1  0.55265218  0.40188558  0.49181252  1
  Ga  Ga9  1  0.44734782  0.40188558  0.99181252  1
  Ga  Ga10  1  0.94552430  0.61335835  0.50197457  1
  Ga  Ga11  1  0.05447570  0.61335835  0.00197457  1
  Ga  Ga12  1  0.45227836  0.09070777  0.73280146  1
  Ga  Ga13  1  0.54772164  0.09070777  0.23280146  1
  Ga  Ga14  1  0.02785061  0.89379068  0.28348717  1
  Ga  Ga15  1  0.97214939  0.89379068  0.78348717  1
  Ga  Ga16  1  0.15672392  0.21806422  0.53916751  1
  Ga  Ga17  1  0.84327608  0.21806422  0.03916751  1
  Rh  Rh18  1  0.62326150  0.73919854  0.66871342  1
  Rh  Rh19  1  0.37673850  0.73919854  0.16871342  1
  Rh  Rh20  1  0.87919546  0.25959199  0.33159936  1
  Rh  Rh21  1  0.12080454  0.25959199  0.83159936  1
