# generated using pymatgen
data_TaBiO4
_symmetry_space_group_name_H-M   'P 1'
_cell_length_a   5.05025164
_cell_length_b   5.73732320
_cell_length_c   11.88860305
_cell_angle_alpha   90.00000000
_cell_angle_beta   90.00000000
_cell_angle_gamma   90.00000000
_symmetry_Int_Tables_number   1
_chemical_formula_structural   TaBiO4
_chemical_formula_sum   'Ta4 Bi4 O16'
_cell_volume   344.47139243
_cell_formula_units_Z   4
loop_
 _symmetry_equiv_pos_site_id
 _symmetry_equiv_pos_as_xyz
  1  'x, y, z'
loop_
 _atom_site_type_symbol
 _atom_site_label
 _atom_site_symmetry_multiplicity
 _atom_site_fract_x
 _atom_site_fract_y
 _atom_site_fract_z
 _atom_site_occupancy
  O  O0  1  0.09097421  0.08343597  0.59766664  1
  O  O1  1  0.09097421  0.41656403  0.40233336  1
  O  O2  1  0.40902579  0.08343597  0.90233336  1
  O  O3  1  0.40902579  0.41656403  0.09766664  1
  O  O4  1  0.90902579  0.91656403  0.40233336  1
  O  O5  1  0.90902579  0.58343597  0.59766664  1
  O  O6  1  0.59097421  0.91656403  0.09766664  1
  O  O7  1  0.59097421  0.58343597  0.90233336  1
  O  O8  1  0.50583569  0.14550932  0.30379728  1
  O  O9  1  0.50583569  0.35449068  0.69620272  1
  O  O10  1  0.99416431  0.14550932  0.19620272  1
  O  O11  1  0.99416431  0.35449068  0.80379728  1
  O  O12  1  0.49416431  0.85449068  0.69620272  1
  O  O13  1  0.49416431  0.64550932  0.30379728  1
  O  O14  1  0.00583569  0.85449068  0.80379728  1
  O  O15  1  0.00583569  0.64550932  0.19620272  1
  Ta  Ta16  1  0.75000000  0.86403873  0.25000000  1
  Ta  Ta17  1  0.75000000  0.63596127  0.75000000  1
  Ta  Ta18  1  0.25000000  0.13596127  0.75000000  1
  Ta  Ta19  1  0.25000000  0.36403873  0.25000000  1
  Bi  Bi20  1  0.21945772  0.75000000  0.50000000  1
  Bi  Bi21  1  0.28054228  0.75000000  0.00000000  1
  Bi  Bi22  1  0.78054228  0.25000000  0.50000000  1
  Bi  Bi23  1  0.71945772  0.25000000  0.00000000  1
