# generated using pymatgen
data_Ga9Ir2
_symmetry_space_group_name_H-M   'P 1'
_cell_length_a   6.45253535
_cell_length_b   6.51341891
_cell_length_c   8.92349536
_cell_angle_alpha   93.22366863
_cell_angle_beta   90.00000000
_cell_angle_gamma   90.00000000
_symmetry_Int_Tables_number   1
_chemical_formula_structural   Ga9Ir2
_chemical_formula_sum   'Ga18 Ir4'
_cell_volume   374.44379796
_cell_formula_units_Z   2
loop_
 _symmetry_equiv_pos_site_id
 _symmetry_equiv_pos_as_xyz
  1  'x, y, z'
loop_
 _atom_site_type_symbol
 _atom_site_label
 _atom_site_symmetry_multiplicity
 _atom_site_fract_x
 _atom_site_fract_y
 _atom_site_fract_z
 _atom_site_occupancy
  Ga  Ga0  1  0.74063224  0.96957189  0.47192824  1
  Ga  Ga1  1  0.25936776  0.96957189  0.97192824  1
  Ga  Ga2  1  0.65934327  0.78516092  0.96200463  1
  Ga  Ga3  1  0.34065673  0.78516092  0.46200463  1
  Ga  Ga4  1  0.76053613  0.40034415  0.77297095  1
  Ga  Ga5  1  0.23946387  0.40034415  0.27297095  1
  Ga  Ga6  1  0.73830939  0.60249730  0.23426372  1
  Ga  Ga7  1  0.26169061  0.60249730  0.73426372  1
  Ga  Ga8  1  0.55363798  0.38785181  0.50003439  1
  Ga  Ga9  1  0.44636202  0.38785181  0.00003439  1
  Ga  Ga10  1  0.94866562  0.59964520  0.50775434  1
  Ga  Ga11  1  0.05133438  0.59964520  0.00775434  1
  Ga  Ga12  1  0.47498399  0.10798017  0.71922942  1
  Ga  Ga13  1  0.52501601  0.10798017  0.21922942  1
  Ga  Ga14  1  0.04279857  0.90720228  0.26776498  1
  Ga  Ga15  1  0.95720143  0.90720228  0.76776498  1
  Ga  Ga16  1  0.13928492  0.19938241  0.54403256  1
  Ga  Ga17  1  0.86071508  0.19938241  0.04403256  1
  Ir  Ir18  1  0.62199927  0.74078239  0.66880901  1
  Ir  Ir19  1  0.37800073  0.74078239  0.16880901  1
  Ir  Ir20  1  0.87623039  0.26243148  0.33283775  1
  Ir  Ir21  1  0.12376961  0.26243148  0.83283775  1
