# generated using pymatgen
data_Mn(PbO2)2
_symmetry_space_group_name_H-M   'P 1'
_cell_length_a   5.24550138
_cell_length_b   13.08537885
_cell_length_c   13.08537885
_cell_angle_alpha   90.00000000
_cell_angle_beta   90.00000000
_cell_angle_gamma   90.00000000
_symmetry_Int_Tables_number   1
_chemical_formula_structural   Mn(PbO2)2
_chemical_formula_sum   'Mn8 Pb16 O32'
_cell_volume   898.17219732
_cell_formula_units_Z   8
loop_
 _symmetry_equiv_pos_site_id
 _symmetry_equiv_pos_as_xyz
  1  'x, y, z'
loop_
 _atom_site_type_symbol
 _atom_site_label
 _atom_site_symmetry_multiplicity
 _atom_site_fract_x
 _atom_site_fract_y
 _atom_site_fract_z
 _atom_site_occupancy
  O  O0  1  0.09991944  0.05793656  0.77351317  1
  O  O1  1  0.09991944  0.94206344  0.22648683  1
  O  O2  1  0.90008056  0.22648683  0.05793656  1
  O  O3  1  0.90008056  0.77351317  0.94206344  1
  O  O4  1  0.59991944  0.72648683  0.44206344  1
  O  O5  1  0.40008056  0.44206344  0.27351317  1
  O  O6  1  0.40008056  0.55793656  0.72648683  1
  O  O7  1  0.59991944  0.27351317  0.55793656  1
  O  O8  1  0.92690369  0.25651303  0.82394800  1
  O  O9  1  0.92690369  0.74348697  0.17605200  1
  O  O10  1  0.07309631  0.17605200  0.25651303  1
  O  O11  1  0.07309631  0.82394800  0.74348697  1
  O  O12  1  0.42690369  0.67605200  0.24348697  1
  O  O13  1  0.57309631  0.24348697  0.32394800  1
  O  O14  1  0.57309631  0.75651303  0.67605200  1
  O  O15  1  0.42690369  0.32394800  0.75651303  1
  O  O16  1  0.93329850  0.64126747  0.77966107  1
  O  O17  1  0.93329850  0.35873253  0.22033893  1
  O  O18  1  0.06670150  0.22033893  0.64126747  1
  O  O19  1  0.06670150  0.77966107  0.35873253  1
  O  O20  1  0.43329850  0.72033893  0.85873253  1
  O  O21  1  0.56670150  0.85873253  0.27966107  1
  O  O22  1  0.56670150  0.14126747  0.72033893  1
  O  O23  1  0.43329850  0.27966107  0.14126747  1
  O  O24  1  0.15488738  0.31485477  0.41254355  1
  O  O25  1  0.84511262  0.41254355  0.68514523  1
  O  O26  1  0.84511262  0.58745645  0.31485477  1
  O  O27  1  0.15488738  0.68514523  0.58745645  1
  O  O28  1  0.34511262  0.81485477  0.08745645  1
  O  O29  1  0.34511262  0.18514523  0.91254355  1
  O  O30  1  0.65488738  0.08745645  0.18514523  1
  O  O31  1  0.65488738  0.91254355  0.81485477  1
  Mn  Mn32  1  0.76065007  0.77103640  0.80619016  1
  Mn  Mn33  1  0.76065007  0.22896360  0.19380984  1
  Mn  Mn34  1  0.23934993  0.19380984  0.77103640  1
  Mn  Mn35  1  0.23934993  0.80619016  0.22896360  1
  Mn  Mn36  1  0.26065007  0.69380984  0.72896360  1
  Mn  Mn37  1  0.73934993  0.72896360  0.30619016  1
  Mn  Mn38  1  0.73934993  0.27103640  0.69380984  1
  Mn  Mn39  1  0.26065007  0.30619016  0.27103640  1
  Pb  Pb40  1  0.29353455  0.82738464  0.50577079  1
  Pb  Pb41  1  0.29353455  0.17261536  0.49422921  1
  Pb  Pb42  1  0.70646545  0.49422921  0.82738464  1
  Pb  Pb43  1  0.70646545  0.50577079  0.17261536  1
  Pb  Pb44  1  0.79353455  0.99422921  0.67261536  1
  Pb  Pb45  1  0.20646545  0.67261536  0.00577079  1
  Pb  Pb46  1  0.20646545  0.32738464  0.99422921  1
  Pb  Pb47  1  0.79353455  0.00577079  0.32738464  1
  Pb  Pb48  1  0.74333827  0.62338185  0.57957240  1
  Pb  Pb49  1  0.74333827  0.37661815  0.42042760  1
  Pb  Pb50  1  0.25666173  0.42042760  0.62338185  1
  Pb  Pb51  1  0.25666173  0.57957240  0.37661815  1
  Pb  Pb52  1  0.24333827  0.92042760  0.87661815  1
  Pb  Pb53  1  0.75666173  0.87661815  0.07957240  1
  Pb  Pb54  1  0.75666173  0.12338185  0.92042760  1
  Pb  Pb55  1  0.24333827  0.07957240  0.12338185  1
