# generated using pymatgen
data_C3N4
_symmetry_space_group_name_H-M   'P 1'
_cell_length_a   4.71579047
_cell_length_b   4.71599568
_cell_length_c   10.18895915
_cell_angle_alpha   90.00023450
_cell_angle_beta   90.00319399
_cell_angle_gamma   120.00633945
_symmetry_Int_Tables_number   1
_chemical_formula_structural   C3N4
_chemical_formula_sum   'C9 N12'
_cell_volume   196.22783150
_cell_formula_units_Z   3
loop_
 _symmetry_equiv_pos_site_id
 _symmetry_equiv_pos_as_xyz
  1  'x, y, z'
loop_
 _atom_site_type_symbol
 _atom_site_label
 _atom_site_symmetry_multiplicity
 _atom_site_fract_x
 _atom_site_fract_y
 _atom_site_fract_z
 _atom_site_occupancy
  C  C0  1  0.17041615  0.30517705  0.32184046  1
  C  C1  1  0.64171830  0.77773017  0.33297746  1
  C  C2  1  0.17139951  0.77966686  0.34502444  1
  C  C3  1  0.88738693  0.72479328  0.67835055  1
  C  C4  1  0.36185666  0.19822252  0.65518329  1
  C  C5  1  0.88926823  0.19697897  0.66632505  1
  C  C6  1  0.46909047  0.02518213  0.99973339  1
  C  C7  1  0.94126790  0.49551982  0.01178045  1
  C  C8  1  0.46791991  0.49663255  0.98850928  1
  N  N9  1  0.20272491  0.35887576  0.62696444  1
  N  N10  1  0.72717858  0.88479530  0.70556245  1
  N  N11  1  0.20832454  0.87760573  0.66706302  1
  N  N12  1  0.78828256  0.66373962  0.00039886  1
  N  N13  1  0.30710895  0.17681382  0.96031287  1
  N  N14  1  0.78115777  0.17534344  0.03892818  1
  N  N15  1  0.49155946  0.93987065  0.37218513  1
  N  N16  1  0.00322703  0.45876068  0.33370939  1
  N  N17  1  0.49008021  0.46430331  0.29359291  1
  N  N18  1  0.99636473  0.95503668  0.33380380  1
  N  N19  1  0.71201764  0.37439447  0.66720733  1
  N  N20  1  0.29165057  0.67055717  0.00054823  1
