# generated using pymatgen
data_Ga5Rh3
_symmetry_space_group_name_H-M   'P 1'
_cell_length_a   5.03021651
_cell_length_b   6.73405249
_cell_length_c   7.99228802
_cell_angle_alpha   100.93681069
_cell_angle_beta   104.73406011
_cell_angle_gamma   101.40113065
_symmetry_Int_Tables_number   1
_chemical_formula_structural   Ga5Rh3
_chemical_formula_sum   'Ga10 Rh6'
_cell_volume   248.29901841
_cell_formula_units_Z   2
loop_
 _symmetry_equiv_pos_site_id
 _symmetry_equiv_pos_as_xyz
  1  'x, y, z'
loop_
 _atom_site_type_symbol
 _atom_site_label
 _atom_site_symmetry_multiplicity
 _atom_site_fract_x
 _atom_site_fract_y
 _atom_site_fract_z
 _atom_site_occupancy
  Ga  Ga0  1  0.77696311  0.54699541  0.53959962  1
  Ga  Ga1  1  0.22303689  0.45300459  0.46040038  1
  Ga  Ga2  1  0.91357068  0.17800573  0.04556916  1
  Ga  Ga3  1  0.08642932  0.82199427  0.95443084  1
  Ga  Ga4  1  0.55134675  0.14285636  0.27413630  1
  Ga  Ga5  1  0.44865325  0.85714364  0.72586370  1
  Ga  Ga6  1  0.68061810  0.47359864  0.87212165  1
  Ga  Ga7  1  0.31938190  0.52640136  0.12787835  1
  Ga  Ga8  1  0.04114659  0.90623421  0.34644625  1
  Ga  Ga9  1  0.95885341  0.09376579  0.65355375  1
  Rh  Rh10  1  0.84786526  0.51377546  0.22438355  1
  Rh  Rh11  1  0.15213474  0.48622454  0.77561645  1
  Rh  Rh12  1  0.63519519  0.82698395  0.04978329  1
  Rh  Rh13  1  0.36480481  0.17301605  0.95021671  1
  Rh  Rh14  1  0.54434660  0.80480638  0.42178871  1
  Rh  Rh15  1  0.45565340  0.19519362  0.57821129  1
