# generated using pymatgen
data_MnP2O7
_symmetry_space_group_name_H-M   'P 1'
_cell_length_a   4.99224553
_cell_length_b   6.65000796
_cell_length_c   8.18796368
_cell_angle_alpha   68.46674124
_cell_angle_beta   88.52234885
_cell_angle_gamma   88.48834872
_symmetry_Int_Tables_number   1
_chemical_formula_structural   MnP2O7
_chemical_formula_sum   'Mn2 P4 O14'
_cell_volume   252.72966069
_cell_formula_units_Z   2
loop_
 _symmetry_equiv_pos_site_id
 _symmetry_equiv_pos_as_xyz
  1  'x, y, z'
loop_
 _atom_site_type_symbol
 _atom_site_label
 _atom_site_symmetry_multiplicity
 _atom_site_fract_x
 _atom_site_fract_y
 _atom_site_fract_z
 _atom_site_occupancy
  O  O0  1  0.56653559  0.52221305  0.32047267  1
  O  O1  1  0.95131611  0.05013443  0.22504616  1
  O  O2  1  0.04868326  0.94986571  0.77495399  1
  O  O3  1  0.08752818  0.64914270  0.23311713  1
  O  O4  1  0.17480616  0.28745220  0.48762384  1
  O  O5  1  0.28481967  0.33804695  0.17396215  1
  O  O6  1  0.30625401  0.13671734  0.97505120  1
  O  O7  1  0.43346378  0.47778710  0.67952749  1
  O  O8  1  0.82519320  0.71254794  0.51237509  1
  O  O9  1  0.55909353  0.05614720  0.70822650  1
  O  O10  1  0.91247320  0.35085744  0.76688176  1
  O  O11  1  0.69374536  0.86328281  0.02494895  1
  O  O12  1  0.71518175  0.66195157  0.82603846  1
  O  O13  1  0.44090785  0.94385295  0.29177362  1
  P  P14  1  0.27635521  0.45525516  0.31425499  1
  P  P15  1  0.72364617  0.54474499  0.68574513  1
  P  P16  1  0.24384790  0.10414515  0.16486335  1
  P  P17  1  0.75615148  0.89585500  0.83513681  1
  Mn  Mn18  1  0.75916918  0.78709561  0.26712025  1
  Mn  Mn19  1  0.24083019  0.21290454  0.73287991  1
