# generated using pymatgen
data_Ta3SBr7
_symmetry_space_group_name_H-M   'P 1'
_cell_length_a   7.16399057
_cell_length_b   7.16422515
_cell_length_c   7.83172454
_cell_angle_alpha   76.24677108
_cell_angle_beta   62.78247645
_cell_angle_gamma   60.00108309
_symmetry_Int_Tables_number   1
_chemical_formula_structural   Ta3SBr7
_chemical_formula_sum   'Ta3 S1 Br7'
_cell_volume   309.54497873
_cell_formula_units_Z   1
loop_
 _symmetry_equiv_pos_site_id
 _symmetry_equiv_pos_as_xyz
  1  'x, y, z'
loop_
 _atom_site_type_symbol
 _atom_site_label
 _atom_site_symmetry_multiplicity
 _atom_site_fract_x
 _atom_site_fract_y
 _atom_site_fract_z
 _atom_site_occupancy
  S  S0  1  0.63680377  0.58994813  0.13644434  1
  Br  Br1  1  0.72715427  0.41537840  0.63327821  1
  Br  Br2  1  0.22418912  0.41537840  0.63327821  1
  Br  Br3  1  0.74807306  0.91734205  0.58651182  1
  Br  Br4  1  0.11558295  0.58664976  0.18218434  1
  Br  Br5  1  0.22405746  0.91828306  0.63360203  1
  Br  Br6  1  0.61101709  0.09079154  0.18247522  1
  Br  Br7  1  0.11571616  0.09079154  0.18247522  1
  Ta  Ta8  1  0.24525340  0.72040453  0.38708113  1
  Ta  Ta9  1  0.64726093  0.72040453  0.38708113  1
  Ta  Ta10  1  0.64729180  0.31842806  0.38698834  1
