# generated using pymatgen
data_Sc5NCl8
_symmetry_space_group_name_H-M   'P 1'
_cell_length_a   3.51803703
_cell_length_b   9.23198260
_cell_length_c   9.57547501
_cell_angle_alpha   80.33471388
_cell_angle_beta   79.41462810
_cell_angle_gamma   79.01597503
_symmetry_Int_Tables_number   1
_chemical_formula_structural   Sc5NCl8
_chemical_formula_sum   'Sc5 N1 Cl8'
_cell_volume   297.24441245
_cell_formula_units_Z   1
loop_
 _symmetry_equiv_pos_site_id
 _symmetry_equiv_pos_as_xyz
  1  'x, y, z'
loop_
 _atom_site_type_symbol
 _atom_site_label
 _atom_site_symmetry_multiplicity
 _atom_site_fract_x
 _atom_site_fract_y
 _atom_site_fract_z
 _atom_site_occupancy
  N  N0  1  0.00000000  0.50000000  0.50000000  1
  Cl  Cl1  1  0.02814296  0.18076481  0.76294927  1
  Cl  Cl2  1  0.97185704  0.81923519  0.23705073  1
  Cl  Cl3  1  0.33135818  0.50634345  0.83094019  1
  Cl  Cl4  1  0.66864182  0.49365655  0.16905981  1
  Cl  Cl5  1  0.69640862  0.17033301  0.43684975  1
  Cl  Cl6  1  0.30359138  0.82966699  0.56315025  1
  Cl  Cl7  1  0.36985663  0.15743512  0.10285162  1
  Cl  Cl8  1  0.63014337  0.84256488  0.89714838  1
  Sc  Sc9  1  0.84517744  0.64274228  0.66690284  1
  Sc  Sc10  1  0.15482256  0.35725772  0.33309716  1
  Sc  Sc11  1  0.48867959  0.63349754  0.38914327  1
  Sc  Sc12  1  0.51132041  0.36650246  0.61085673  1
  Sc  Sc13  1  0.00000000  0.00000000  0.00000000  1
