# generated using pymatgen
data_Th3B2C3
_symmetry_space_group_name_H-M   'P 1'
_cell_length_a   3.72628294
_cell_length_b   3.79453864
_cell_length_c   9.24489589
_cell_angle_alpha   90.00000000
_cell_angle_beta   99.99599401
_cell_angle_gamma   90.00000000
_symmetry_Int_Tables_number   1
_chemical_formula_structural   Th3B2C3
_chemical_formula_sum   'Th3 B2 C3'
_cell_volume   128.73411289
_cell_formula_units_Z   1
loop_
 _symmetry_equiv_pos_site_id
 _symmetry_equiv_pos_as_xyz
  1  'x, y, z'
loop_
 _atom_site_type_symbol
 _atom_site_label
 _atom_site_symmetry_multiplicity
 _atom_site_fract_x
 _atom_site_fract_y
 _atom_site_fract_z
 _atom_site_occupancy
  B  B0  1  0.85531395  0.00000000  0.55907344  1
  B  B1  1  0.14468605  0.00000000  0.44092656  1
  C  C2  1  0.50000000  0.50000000  0.00000000  1
  C  C3  1  0.88132035  0.00000000  0.72414250  1
  C  C4  1  0.11867965  0.00000000  0.27585750  1
  Th  Th5  1  0.00000000  0.00000000  0.00000000  1
  Th  Th6  1  0.37613227  0.50000000  0.69707646  1
  Th  Th7  1  0.62386773  0.50000000  0.30292354  1
