# generated using pymatgen
data_Sr(La2Se3)4
_symmetry_space_group_name_H-M   'P 1'
_cell_length_a   23.71228416
_cell_length_b   9.12462876
_cell_length_c   9.12462911
_cell_angle_alpha   90.02302137
_cell_angle_beta   54.75847599
_cell_angle_gamma   54.75847441
_symmetry_Int_Tables_number   1
_chemical_formula_structural   Sr(La2Se3)4
_chemical_formula_sum   'Sr2 La16 Se24'
_cell_volume   1140.66649484
_cell_formula_units_Z   2
loop_
 _symmetry_equiv_pos_site_id
 _symmetry_equiv_pos_as_xyz
  1  'x, y, z'
loop_
 _atom_site_type_symbol
 _atom_site_label
 _atom_site_symmetry_multiplicity
 _atom_site_fract_x
 _atom_site_fract_y
 _atom_site_fract_z
 _atom_site_occupancy
  Sr  Sr0  1  0.49992872  0.75005113  0.87489912  1
  Sr  Sr1  1  0.99992872  0.37489912  0.25005113  1
  La  La2  1  0.99996536  0.12667619  0.74976650  1
  La  La3  1  0.08333316  0.62337062  0.37546402  1
  La  La4  1  0.16671345  0.24942471  0.62417425  1
  La  La5  1  0.33358992  0.37473618  0.24954872  1
  La  La6  1  0.24986968  0.87544690  0.12516454  1
  La  La7  1  0.16647178  0.75164025  0.87477409  1
  La  La8  1  0.33306500  0.12517163  0.75164179  1
  La  La9  1  0.41647585  0.62582148  0.37428330  1
  La  La10  1  0.49996536  0.24976650  0.62667619  1
  La  La11  1  0.66647178  0.37477409  0.25164025  1
  La  La12  1  0.58333316  0.87546402  0.12337062  1
  La  La13  1  0.66671345  0.12417425  0.74942471  1
  La  La14  1  0.74986968  0.62516454  0.37544690  1
  La  La15  1  0.83306500  0.25164179  0.62517163  1
  La  La16  1  0.91647585  0.87428330  0.12582148  1
  La  La17  1  0.83358992  0.74954872  0.87473618  1
  Se  Se18  1  0.05086303  0.99489302  0.35096680  1
  Se  Se19  1  0.11846380  0.50089517  0.99612830  1
  Se  Se20  1  0.05027249  0.35006918  0.50321684  1
  Se  Se21  1  0.28037737  0.15559201  0.15427342  1
  Se  Se22  1  0.28396063  0.49927329  0.99837077  1
  Se  Se23  1  0.11624823  0.65087549  0.64959226  1
  Se  Se24  1  0.21929189  0.99553420  0.84530002  1
  Se  Se25  1  0.38212325  0.00248683  0.35575342  1
  Se  Se26  1  0.21671219  0.84910699  0.50031394  1
  Se  Se27  1  0.44892886  0.49800721  0.00184157  1
  Se  Se28  1  0.38333178  0.35071141  0.50034350  1
  Se  Se29  1  0.61624823  0.14959226  0.15087549  1
  Se  Se30  1  0.61846380  0.49612830  0.00089517  1
  Se  Se31  1  0.45001357  0.64808465  0.64631427  1
  Se  Se32  1  0.55027249  0.00321684  0.85006918  1
  Se  Se33  1  0.71671219  0.00031394  0.34910699  1
  Se  Se34  1  0.55086303  0.85096680  0.49489302  1
  Se  Se35  1  0.78396063  0.49837077  0.99927329  1
  Se  Se36  1  0.71929189  0.34530002  0.49553420  1
  Se  Se37  1  0.95001357  0.14631427  0.14808465  1
  Se  Se38  1  0.94892886  0.50184157  0.99800721  1
  Se  Se39  1  0.88333178  0.00034350  0.85071141  1
  Se  Se40  1  0.78037737  0.65427342  0.65559201  1
  Se  Se41  1  0.88212325  0.85575342  0.50248683  1
