# generated using pymatgen
data_Li2Si2O5
_symmetry_space_group_name_H-M   'P 1'
_cell_length_a   4.85949221
_cell_length_b   5.76013521
_cell_length_c   14.82371437
_cell_angle_alpha   90.00000000
_cell_angle_beta   90.00000000
_cell_angle_gamma   90.00000000
_symmetry_Int_Tables_number   1
_chemical_formula_structural   Li2Si2O5
_chemical_formula_sum   'Li8 Si8 O20'
_cell_volume   414.93551309
_cell_formula_units_Z   4
loop_
 _symmetry_equiv_pos_site_id
 _symmetry_equiv_pos_as_xyz
  1  'x, y, z'
loop_
 _atom_site_type_symbol
 _atom_site_label
 _atom_site_symmetry_multiplicity
 _atom_site_fract_x
 _atom_site_fract_y
 _atom_site_fract_z
 _atom_site_occupancy
  Li  Li0  1  0.69410263  0.40230952  0.55154504  1
  Li  Li1  1  0.69410263  0.59769048  0.94845496  1
  Li  Li2  1  0.80589737  0.90230952  0.44845496  1
  Li  Li3  1  0.80589737  0.09769048  0.05154504  1
  Li  Li4  1  0.30589737  0.59769048  0.44845496  1
  Li  Li5  1  0.30589737  0.40230952  0.05154504  1
  Li  Li6  1  0.19410263  0.09769048  0.55154504  1
  Li  Li7  1  0.19410263  0.90230952  0.94845496  1
  O  O8  1  0.63910207  0.84790565  0.13896785  1
  O  O9  1  0.36089793  0.15209435  0.86103215  1
  O  O10  1  0.36089793  0.84790565  0.63896785  1
  O  O11  1  0.13910207  0.65209435  0.13896785  1
  O  O12  1  0.13910207  0.34790565  0.36103215  1
  O  O13  1  0.24290370  0.00000000  0.25000000  1
  O  O14  1  0.63910207  0.15209435  0.36103215  1
  O  O15  1  0.86089793  0.34790565  0.86103215  1
  O  O16  1  0.75709630  0.00000000  0.75000000  1
  O  O17  1  0.74290370  0.50000000  0.25000000  1
  O  O18  1  0.71124950  0.57518586  0.43128466  1
  O  O19  1  0.25709630  0.50000000  0.75000000  1
  O  O20  1  0.78875050  0.07518586  0.56871534  1
  O  O21  1  0.78875050  0.92481414  0.93128466  1
  O  O22  1  0.28875050  0.57518586  0.93128466  1
  O  O23  1  0.71124950  0.42481414  0.06871534  1
  O  O24  1  0.21124950  0.92481414  0.43128466  1
  O  O25  1  0.21124950  0.07518586  0.06871534  1
  O  O26  1  0.28875050  0.42481414  0.56871534  1
  O  O27  1  0.86089793  0.65209435  0.63896785  1
  Si  Si28  1  0.69557052  0.90559334  0.64850831  1
  Si  Si29  1  0.19557052  0.40559334  0.85149169  1
  Si  Si30  1  0.19557052  0.59440666  0.64850831  1
  Si  Si31  1  0.30442948  0.90559334  0.14850831  1
  Si  Si32  1  0.30442948  0.09440666  0.35149169  1
  Si  Si33  1  0.80442948  0.59440666  0.14850831  1
  Si  Si34  1  0.80442948  0.40559334  0.35149169  1
  Si  Si35  1  0.69557052  0.09440666  0.85149169  1
