# generated using pymatgen
data_NaTh2F9
_symmetry_space_group_name_H-M   'P 1'
_cell_length_a   7.63024671
_cell_length_b   7.63024670
_cell_length_c   7.63024670
_cell_angle_alpha   108.96255821
_cell_angle_beta   108.96255818
_cell_angle_gamma   110.49340666
_symmetry_Int_Tables_number   1
_chemical_formula_structural   NaTh2F9
_chemical_formula_sum   'Na2 Th4 F18'
_cell_volume   341.89279830
_cell_formula_units_Z   2
loop_
 _symmetry_equiv_pos_site_id
 _symmetry_equiv_pos_as_xyz
  1  'x, y, z'
loop_
 _atom_site_type_symbol
 _atom_site_label
 _atom_site_symmetry_multiplicity
 _atom_site_fract_x
 _atom_site_fract_y
 _atom_site_fract_z
 _atom_site_occupancy
  F  F0  1  0.33753709  0.33753709  0.57646513  1
  F  F1  1  0.66246291  0.23892804  0.00000000  1
  F  F2  1  0.23892804  0.66246291  0.00000000  1
  F  F3  1  0.76107196  0.76107196  0.42353487  1
  F  F4  1  0.35312006  0.60445162  0.35417180  1
  F  F5  1  0.25027983  0.99894826  0.64582820  1
  F  F6  1  0.00000000  0.23907695  0.23907695  1
  F  F7  1  0.76092305  0.00000000  0.76092305  1
  F  F8  1  0.23907695  0.00000000  0.23907695  1
  F  F9  1  0.00000000  0.76092305  0.76092305  1
  F  F10  1  0.22513287  0.22513287  0.00000000  1
  F  F11  1  0.77486713  0.77486713  0.00000000  1
  F  F12  1  0.99894826  0.25027983  0.64582820  1
  F  F13  1  0.74972017  0.39554838  0.74866844  1
  F  F14  1  0.64687994  0.00105174  0.25133156  1
  F  F15  1  0.60445162  0.35312006  0.35417180  1
  F  F16  1  0.39554838  0.74972017  0.74866844  1
  F  F17  1  0.00105174  0.64687994  0.25133156  1
  Na  Na18  1  0.00000000  0.50000000  0.50000000  1
  Na  Na19  1  0.50000000  0.00000000  0.50000000  1
  Th  Th20  1  0.62136788  0.62136788  0.62997332  1
  Th  Th21  1  0.37863212  0.00860544  0.00000000  1
  Th  Th22  1  0.00860544  0.37863212  0.00000000  1
  Th  Th23  1  0.99139456  0.99139456  0.37002668  1
