# generated using pymatgen
data_MnP2O7
_symmetry_space_group_name_H-M   'P 1'
_cell_length_a   4.78066137
_cell_length_b   6.91681682
_cell_length_c   7.87548871
_cell_angle_alpha   90.00000000
_cell_angle_beta   90.00000000
_cell_angle_gamma   106.35468045
_symmetry_Int_Tables_number   1
_chemical_formula_structural   MnP2O7
_chemical_formula_sum   'Mn2 P4 O14'
_cell_volume   249.88114945
_cell_formula_units_Z   2
loop_
 _symmetry_equiv_pos_site_id
 _symmetry_equiv_pos_as_xyz
  1  'x, y, z'
loop_
 _atom_site_type_symbol
 _atom_site_label
 _atom_site_symmetry_multiplicity
 _atom_site_fract_x
 _atom_site_fract_y
 _atom_site_fract_z
 _atom_site_occupancy
  O  O0  1  0.41735460  0.09120653  0.93282047  1
  O  O1  1  0.95292854  0.16211626  0.82206529  1
  O  O2  1  0.04707220  0.83788367  0.32206566  1
  O  O3  1  0.12986056  0.90581945  0.67516312  1
  O  O4  1  0.15434779  0.46349526  0.05272743  1
  O  O5  1  0.27713024  0.51452839  0.37066344  1
  O  O6  1  0.41070956  0.63010828  0.69044882  1
  O  O7  1  0.58264405  0.90879342  0.43282084  1
  O  O8  1  0.84565085  0.53650469  0.55272706  1
  O  O9  1  0.41717775  0.26439625  0.64393219  1
  O  O10  1  0.87013809  0.09418050  0.17516349  1
  O  O11  1  0.58929118  0.36989165  0.19044919  1
  O  O12  1  0.72287050  0.48547154  0.87066435  1
  O  O13  1  0.58282299  0.73560368  0.14393128  1
  P  P14  1  0.22796087  0.10107408  0.77603428  1
  P  P15  1  0.77203987  0.89892584  0.27603465  1
  P  P16  1  0.39025410  0.50997493  0.18839786  1
  P  P17  1  0.60974455  0.49002502  0.68839877  1
  Mn  Mn18  1  0.78076446  0.27179769  0.00847117  1
  Mn  Mn19  1  0.21923419  0.72820226  0.50847080  1
