# generated using pymatgen
data_CaGe2O5
_symmetry_space_group_name_H-M   'P 1'
_cell_length_a   5.56154150
_cell_length_b   5.56154150
_cell_length_c   6.98504291
_cell_angle_alpha   103.87327749
_cell_angle_beta   103.87327751
_cell_angle_gamma   106.31915755
_symmetry_Int_Tables_number   1
_chemical_formula_structural   CaGe2O5
_chemical_formula_sum   'Ca2 Ge4 O10'
_cell_volume   190.04675120
_cell_formula_units_Z   2
loop_
 _symmetry_equiv_pos_site_id
 _symmetry_equiv_pos_as_xyz
  1  'x, y, z'
loop_
 _atom_site_type_symbol
 _atom_site_label
 _atom_site_symmetry_multiplicity
 _atom_site_fract_x
 _atom_site_fract_y
 _atom_site_fract_z
 _atom_site_occupancy
  O  O0  1  0.69184120  0.09805772  0.89856134  1
  O  O1  1  0.90194228  0.30815880  0.60143866  1
  O  O2  1  0.30815880  0.90194228  0.10143866  1
  O  O3  1  0.09805772  0.69184120  0.39856134  1
  O  O4  1  0.24911867  0.36567641  0.07481285  1
  O  O5  1  0.63432359  0.75088133  0.42518715  1
  O  O6  1  0.07010421  0.92989579  0.75000000  1
  O  O7  1  0.92989579  0.07010421  0.25000000  1
  O  O8  1  0.36567641  0.24911867  0.57481285  1
  O  O9  1  0.75088133  0.63432359  0.92518715  1
  Ca  Ca10  1  0.32851758  0.67148242  0.75000000  1
  Ca  Ca11  1  0.67148242  0.32851758  0.25000000  1
  Ge  Ge12  1  0.31544610  0.68455390  0.25000000  1
  Ge  Ge13  1  0.68455390  0.31544610  0.75000000  1
  Ge  Ge14  1  0.00000000  0.00000000  0.00000000  1
  Ge  Ge15  1  0.00000000  0.00000000  0.50000000  1
