# generated using pymatgen
data_Nb2SnO6
_symmetry_space_group_name_H-M   'P 1'
_cell_length_a   4.96116979
_cell_length_b   5.70721637
_cell_length_c   9.05274797
_cell_angle_alpha   91.99763537
_cell_angle_beta   105.90329798
_cell_angle_gamma   89.99999994
_symmetry_Int_Tables_number   1
_chemical_formula_structural   Nb2SnO6
_chemical_formula_sum   'Nb4 Sn2 O12'
_cell_volume   246.35112186
_cell_formula_units_Z   2
loop_
 _symmetry_equiv_pos_site_id
 _symmetry_equiv_pos_as_xyz
  1  'x, y, z'
loop_
 _atom_site_type_symbol
 _atom_site_label
 _atom_site_symmetry_multiplicity
 _atom_site_fract_x
 _atom_site_fract_y
 _atom_site_fract_z
 _atom_site_occupancy
  O  O0  1  0.72394983  0.14718085  0.56097384  1
  O  O1  1  0.16297599  0.35281915  0.43902616  1
  O  O2  1  0.27605017  0.85281915  0.43902616  1
  O  O3  1  0.83702401  0.64718085  0.56097384  1
  O  O4  1  0.60879690  0.41903787  0.28584245  1
  O  O5  1  0.32295445  0.08096213  0.71415755  1
  O  O6  1  0.99117171  0.59270352  0.14582087  1
  O  O7  1  0.84535083  0.90729648  0.85417913  1
  O  O8  1  0.00882829  0.40729648  0.85417913  1
  O  O9  1  0.15464917  0.09270352  0.14582087  1
  O  O10  1  0.67704555  0.91903787  0.28584245  1
  O  O11  1  0.39120310  0.58096213  0.71415755  1
  Nb  Nb12  1  0.41197878  0.17390375  0.34056888  1
  Nb  Nb13  1  0.07140989  0.32609625  0.65943112  1
  Nb  Nb14  1  0.58802122  0.82609625  0.65943112  1
  Nb  Nb15  1  0.92859011  0.67390375  0.34056888  1
  Sn  Sn16  1  0.77475416  0.25000000  0.00000000  1
  Sn  Sn17  1  0.22524584  0.75000000  0.00000000  1
