# generated using pymatgen
data_MgSiO3
_symmetry_space_group_name_H-M   'P 1'
_cell_length_a   5.23783598
_cell_length_b   8.94333999
_cell_length_c   9.47282438
_cell_angle_alpha   90.00000000
_cell_angle_beta   102.98018081
_cell_angle_gamma   90.00000000
_symmetry_Int_Tables_number   1
_chemical_formula_structural   MgSiO3
_chemical_formula_sum   'Mg8 Si8 O24'
_cell_volume   432.40400690
_cell_formula_units_Z   8
loop_
 _symmetry_equiv_pos_site_id
 _symmetry_equiv_pos_as_xyz
  1  'x, y, z'
loop_
 _atom_site_type_symbol
 _atom_site_label
 _atom_site_symmetry_multiplicity
 _atom_site_fract_x
 _atom_site_fract_y
 _atom_site_fract_z
 _atom_site_occupancy
  O  O0  1  0.64511326  0.80409410  0.60351377  1
  O  O1  1  0.85488674  0.30409410  0.39648623  1
  O  O2  1  0.35488674  0.19590590  0.39648623  1
  O  O3  1  0.14511326  0.69590590  0.60351377  1
  O  O4  1  0.74585180  0.51762995  0.63474366  1
  O  O5  1  0.75414820  0.01762995  0.36525634  1
  O  O6  1  0.25414820  0.48237005  0.36525634  1
  O  O7  1  0.24585180  0.98237005  0.63474366  1
  O  O8  1  0.74809101  0.65960966  0.37463456  1
  O  O9  1  0.75190899  0.15960966  0.62536544  1
  O  O10  1  0.25190899  0.34039034  0.62536544  1
  O  O11  1  0.24809101  0.84039034  0.37463456  1
  O  O12  1  0.98937148  0.21919878  0.10585102  1
  O  O13  1  0.51062852  0.71919878  0.89414898  1
  O  O14  1  0.01062852  0.78080122  0.89414898  1
  O  O15  1  0.48937148  0.28080122  0.10585102  1
  O  O16  1  0.68313095  0.33932201  0.86702117  1
  O  O17  1  0.81686905  0.83932201  0.13297883  1
  O  O18  1  0.31686905  0.66067799  0.13297883  1
  O  O19  1  0.18313095  0.16067799  0.86702117  1
  O  O20  1  0.79999838  0.49924519  0.12383606  1
  O  O21  1  0.70000162  0.99924519  0.87616394  1
  O  O22  1  0.20000162  0.50075481  0.87616394  1
  O  O23  1  0.29999838  0.00075481  0.12383606  1
  Mg  Mg24  1  0.03155210  0.65226095  0.25101238  1
  Mg  Mg25  1  0.46844790  0.15226095  0.74898762  1
  Mg  Mg26  1  0.96844790  0.34773905  0.74898762  1
  Mg  Mg27  1  0.53155210  0.84773905  0.25101238  1
  Mg  Mg28  1  0.03810982  0.01127292  0.25429457  1
  Mg  Mg29  1  0.46189018  0.51127292  0.74570543  1
  Mg  Mg30  1  0.96189018  0.98872708  0.74570543  1
  Mg  Mg31  1  0.53810982  0.48872708  0.25429457  1
  Si  Si32  1  0.74808835  0.34038397  0.04366714  1
  Si  Si33  1  0.75191165  0.84038397  0.95633286  1
  Si  Si34  1  0.25191165  0.65961603  0.95633286  1
  Si  Si35  1  0.24808835  0.15961603  0.04366714  1
  Si  Si36  1  0.31943004  0.83719178  0.55205502  1
  Si  Si37  1  0.18056996  0.33719178  0.44794498  1
  Si  Si38  1  0.68056996  0.16280822  0.44794498  1
  Si  Si39  1  0.81943004  0.66280822  0.55205502  1
