# generated using pymatgen
data_Ho6Se11
_symmetry_space_group_name_H-M   'P 1'
_cell_length_a   11.54307932
_cell_length_b   11.58570347
_cell_length_c   12.02935944
_cell_angle_alpha   89.92294181
_cell_angle_beta   90.22118658
_cell_angle_gamma   91.76037252
_symmetry_Int_Tables_number   1
_chemical_formula_structural   Ho6Se11
_chemical_formula_sum   'Ho24 Se44'
_cell_volume   1607.97026144
_cell_formula_units_Z   4
loop_
 _symmetry_equiv_pos_site_id
 _symmetry_equiv_pos_as_xyz
  1  'x, y, z'
loop_
 _atom_site_type_symbol
 _atom_site_label
 _atom_site_symmetry_multiplicity
 _atom_site_fract_x
 _atom_site_fract_y
 _atom_site_fract_z
 _atom_site_occupancy
  Ho  Ho0  1  0.00739367  0.24861567  0.50100837  1
  Ho  Ho1  1  0.13980556  0.85962118  0.66673394  1
  Ho  Ho2  1  0.14072858  0.86125438  0.33653214  1
  Ho  Ho3  1  0.15541891  0.84359321  0.99927732  1
  Ho  Ho4  1  0.24051563  0.51206016  0.49983686  1
  Ho  Ho5  1  0.24690393  0.49650507  0.83018363  1
  Ho  Ho6  1  0.25572829  0.49869769  0.17093247  1
  Ho  Ho7  1  0.38793113  0.11882505  0.33254646  1
  Ho  Ho8  1  0.38582126  0.11919557  0.66864785  1
  Ho  Ho9  1  0.38772019  0.10625843  0.99921285  1
  Ho  Ho10  1  0.48439460  0.77490801  0.50401949  1
  Ho  Ho11  1  0.49618609  0.75816487  0.16495950  1
  Ho  Ho12  1  0.50298356  0.75184569  0.82802195  1
  Ho  Ho13  1  0.62673097  0.37155593  0.00099950  1
  Ho  Ho14  1  0.65287034  0.34118445  0.32883406  1
  Ho  Ho15  1  0.64786504  0.35407096  0.66474918  1
  Ho  Ho16  1  0.75029854  0.99131977  0.50098721  1
  Ho  Ho17  1  0.74093292  0.01229983  0.83712963  1
  Ho  Ho18  1  0.74081295  0.00763774  0.16334955  1
  Ho  Ho19  1  0.89496593  0.60881128  0.33179551  1
  Ho  Ho20  1  0.88047165  0.61513006  0.66312418  1
  Ho  Ho21  1  0.89258626  0.61211882  -0.00014148  1
  Ho  Ho22  1  0.98729003  0.26194169  0.83752106  1
  Ho  Ho23  1  0.99133240  0.26040798  0.16280804  1
  Se  Se24  1  0.00495869  0.99278425  0.50427251  1
  Se  Se25  1  0.06052526  0.68773757  0.50031371  1
  Se  Se26  1  0.07173048  0.68505432  0.16703099  1
  Se  Se27  1  0.06749297  0.68467160  0.83299582  1
  Se  Se28  1  0.07026918  0.43136406  0.00077042  1
  Se  Se29  1  0.07424595  0.42971695  0.33250800  1
  Se  Se30  1  0.06733036  0.43183591  0.66586822  1
  Se  Se31  1  0.06709487  0.08117695  0.00149415  1
  Se  Se32  1  0.12232309  0.11303541  0.69592089  1
  Se  Se33  1  0.12606352  0.11474481  0.30894497  1
  Se  Se34  1  0.24590520  0.23259106  0.16191058  1
  Se  Se35  1  0.23857131  0.22729365  0.84043013  1
  Se  Se36  1  0.27010129  0.26134252  0.49849453  1
  Se  Se37  1  0.30972061  0.94665196  0.50131121  1
  Se  Se38  1  0.31561340  0.93087899  0.83366144  1
  Se  Se39  1  0.31302234  0.93314336  0.16584690  1
  Se  Se40  1  0.31925502  0.68221935  0.66451842  1
  Se  Se41  1  0.32505120  0.68418586  0.33767590  1
  Se  Se42  1  0.33000009  0.67000204  0.99891055  1
  Se  Se43  1  0.37043565  0.36026114  0.00375310  1
  Se  Se44  1  0.40868042  0.39937536  0.34939940  1
  Se  Se45  1  0.39177448  0.38264129  0.65115179  1
  Se  Se46  1  0.52494977  0.51178720  0.20622661  1
  Se  Se47  1  0.50620611  0.49682704  0.81071129  1
  Se  Se48  1  0.56754149  0.93219346  0.33132194  1
  Se  Se49  1  0.56927718  0.93419173  0.66848683  1
  Se  Se50  1  0.57002600  0.93068277  0.99866875  1
  Se  Se51  1  0.56118460  0.18560353  0.16507087  1
  Se  Se52  1  0.56058760  0.18877235  0.83330623  1
  Se  Se53  1  0.57124716  0.18139432  0.49962485  1
  Se  Se54  1  0.61959170  0.60887363  0.62718007  1
  Se  Se55  1  0.63578448  0.62669356  0.00373429  1
  Se  Se56  1  0.72683821  0.71957730  0.47688491  1
  Se  Se57  1  0.76188822  0.74825784  0.17033195  1
  Se  Se58  1  0.76718485  0.75708913  0.83689000  1
  Se  Se59  1  0.81503510  0.43904611  0.16776240  1
  Se  Se60  1  0.81164653  0.44196304  0.83186100  1
  Se  Se61  1  0.80496210  0.19553691  0.00033563  1
  Se  Se62  1  0.81587431  0.43050588  0.49453022  1
  Se  Se63  1  0.82859925  0.16972775  0.33009920  1
  Se  Se64  1  0.82413876  0.17599853  0.66813174  1
  Se  Se65  1  0.88218455  0.87277341  0.68920940  1
  Se  Se66  1  0.88109904  0.86860616  0.31396707  1
  Se  Se67  1  0.91414921  0.92811646  0.00121182  1
