# generated using pymatgen
data_Li3Fe2(PO4)3
_symmetry_space_group_name_H-M   'P 1'
_cell_length_a   8.50317050
_cell_length_b   8.75609334
_cell_length_c   12.09302795
_cell_angle_alpha   90.00000000
_cell_angle_beta   89.48003917
_cell_angle_gamma   90.00000000
_symmetry_Int_Tables_number   1
_chemical_formula_structural   Li3Fe2(PO4)3
_chemical_formula_sum   'Li12 Fe8 P12 O48'
_cell_volume   900.34393338
_cell_formula_units_Z   4
loop_
 _symmetry_equiv_pos_site_id
 _symmetry_equiv_pos_as_xyz
  1  'x, y, z'
loop_
 _atom_site_type_symbol
 _atom_site_label
 _atom_site_symmetry_multiplicity
 _atom_site_fract_x
 _atom_site_fract_y
 _atom_site_fract_z
 _atom_site_occupancy
  Li  Li0  1  0.06494196  0.51041842  0.65573297  1
  Li  Li1  1  0.93505804  0.48958058  0.34426603  1
  Li  Li2  1  0.91869170  0.91521468  0.69094394  1
  Li  Li3  1  0.81773343  0.21937576  0.17833147  1
  Li  Li4  1  0.68226657  0.71937476  0.32166753  1
  Li  Li5  1  0.58130930  0.41521468  0.80905606  1
  Li  Li6  1  0.56494296  0.98958158  0.15573297  1
  Li  Li7  1  0.43505804  0.01041842  0.84426603  1
  Li  Li8  1  0.41869170  0.58478532  0.19094294  1
  Li  Li9  1  0.08130830  0.08478632  0.30905706  1
  Li  Li10  1  0.18226657  0.78062424  0.82166753  1
  Li  Li11  1  0.31773343  0.28062424  0.67833147  1
  O  O12  1  0.18662363  0.17745203  0.56360344  1
  O  O13  1  0.87302760  0.00689627  0.24700882  1
  O  O14  1  0.87764169  0.79619591  0.83073255  1
  O  O15  1  0.90331326  0.63776815  0.58321020  1
  O  O16  1  0.93821738  0.42138741  0.18639088  1
  O  O17  1  0.94291705  0.33282985  0.59840023  1
  O  O18  1  0.94623960  0.10967987  0.89742392  1
  O  O19  1  0.94808100  0.12740797  0.44334474  1
  O  O20  1  0.05191900  0.87259203  0.55665526  1
  O  O21  1  0.05375940  0.89032013  0.10257608  1
  O  O22  1  0.05708295  0.66716915  0.40159977  1
  O  O23  1  0.06178262  0.57861359  0.81360812  1
  O  O24  1  0.09668674  0.36223085  0.41678980  1
  O  O25  1  0.12235831  0.20380409  0.16926745  1
  O  O26  1  0.12697340  0.99310273  0.75299218  1
  O  O27  1  0.13901714  0.41625008  0.02948245  1
  O  O28  1  0.17175842  0.26865828  0.81225655  1
  O  O29  1  0.86098286  0.58375092  0.97051855  1
  O  O30  1  0.22668756  0.47149342  0.22515420  1
  O  O31  1  0.23539893  0.04728775  0.93752113  1
  O  O32  1  0.26460107  0.54728875  0.56247887  1
  O  O33  1  0.27331244  0.97149442  0.27484580  1
  O  O34  1  0.31337637  0.67745303  0.93639656  1
  O  O35  1  0.32824158  0.76865728  0.68774345  1
  O  O36  1  0.36098286  0.91624908  0.47051755  1
  O  O37  1  0.37764169  0.70380409  0.33073255  1
  O  O38  1  0.37302660  0.49310273  0.74700782  1
  O  O39  1  0.40331326  0.86223185  0.08321020  1
  O  O40  1  0.43821738  0.07861259  0.68639088  1
  O  O41  1  0.44291705  0.16717015  0.09840023  1
  O  O42  1  0.44624060  0.39032113  0.39742392  1
  O  O43  1  0.44808100  0.37259203  0.94334374  1
  O  O44  1  0.55191800  0.62740797  0.05665526  1
  O  O45  1  0.55375940  0.60967987  0.60257608  1
  O  O46  1  0.55708295  0.83283085  0.90159977  1
  O  O47  1  0.56178262  0.92138641  0.31360812  1
  O  O48  1  0.59668674  0.13776915  0.91678980  1
  O  O49  1  0.62697340  0.50689627  0.25299118  1
  O  O50  1  0.62235931  0.29619491  0.66926745  1
  O  O51  1  0.63901714  0.08375092  0.52948245  1
  O  O52  1  0.82824158  0.73134272  0.18774245  1
  O  O53  1  0.68662363  0.32254797  0.06360344  1
  O  O54  1  0.72668756  0.02850658  0.72515420  1
  O  O55  1  0.73539893  0.45271225  0.43752013  1
  O  O56  1  0.76460107  0.95271125  0.06247987  1
  O  O57  1  0.77331244  0.52850658  0.77484580  1
  O  O58  1  0.81337737  0.82254797  0.43639656  1
  O  O59  1  0.67175742  0.23134272  0.31225655  1
  P  P60  1  0.38753779  0.88028716  0.34833031  1
  P  P61  1  0.38556702  0.60927896  0.64844246  1
  P  P62  1  0.45964353  0.74927284  0.99155938  1
  P  P63  1  0.54035647  0.25072616  0.00844162  1
  P  P64  1  0.61443198  0.39072104  0.35155754  1
  P  P65  1  0.61246121  0.11971284  0.65166969  1
  P  P66  1  0.88556802  0.89072104  0.14844246  1
  P  P67  1  0.88753779  0.61971284  0.84833031  1
  P  P68  1  0.04035647  0.24927284  0.50844162  1
  P  P69  1  0.11246221  0.38028716  0.15166969  1
  P  P70  1  0.11443298  0.10927896  0.85155754  1
  P  P71  1  0.95964353  0.75072616  0.49155938  1
  Fe  Fe72  1  0.75788118  0.97498073  0.89650202  1
  Fe  Fe73  1  0.75621649  0.53712715  0.10626438  1
  Fe  Fe74  1  0.74378351  0.03712615  0.39373562  1
  Fe  Fe75  1  0.74211882  0.47498073  0.60349898  1
  Fe  Fe76  1  0.25788118  0.52501927  0.39650202  1
  Fe  Fe77  1  0.25621649  0.96287285  0.60626438  1
  Fe  Fe78  1  0.24378351  0.46287285  0.89373562  1
  Fe  Fe79  1  0.24211882  0.02501927  0.10349798  1
