# generated using pymatgen
data_RbSb3Se5
_symmetry_space_group_name_H-M   'P 1'
_cell_length_a   8.88770968
_cell_length_b   9.86153710
_cell_length_c   13.40075826
_cell_angle_alpha   90.00000000
_cell_angle_beta   90.00000000
_cell_angle_gamma   97.16262951
_symmetry_Int_Tables_number   1
_chemical_formula_structural   RbSb3Se5
_chemical_formula_sum   'Rb4 Sb12 Se20'
_cell_volume   1165.36352597
_cell_formula_units_Z   4
loop_
 _symmetry_equiv_pos_site_id
 _symmetry_equiv_pos_as_xyz
  1  'x, y, z'
loop_
 _atom_site_type_symbol
 _atom_site_label
 _atom_site_symmetry_multiplicity
 _atom_site_fract_x
 _atom_site_fract_y
 _atom_site_fract_z
 _atom_site_occupancy
  Se  Se0  1  0.14261948  0.96434474  0.18894701  1
  Se  Se1  1  0.35738052  0.53565526  0.68894701  1
  Se  Se2  1  0.85738052  0.03565526  0.81105299  1
  Se  Se3  1  0.64261948  0.46434474  0.31105299  1
  Se  Se4  1  0.27379964  0.09858219  0.91421054  1
  Se  Se5  1  0.22620036  0.40141781  0.41421054  1
  Se  Se6  1  0.72620036  0.90141781  0.08578946  1
  Se  Se7  1  0.77379964  0.59858219  0.58578946  1
  Se  Se8  1  0.24585719  0.35584617  0.12155548  1
  Se  Se9  1  0.25414281  0.14415383  0.62155548  1
  Se  Se10  1  0.75414281  0.64415383  0.87844452  1
  Se  Se11  1  0.74585719  0.85584617  0.37844452  1
  Se  Se12  1  0.04798123  0.40505251  0.85533070  1
  Se  Se13  1  0.45201877  0.09494749  0.35533070  1
  Se  Se14  1  0.95201877  0.59494749  0.14466930  1
  Se  Se15  1  0.54798123  0.90505251  0.64466930  1
  Se  Se16  1  0.81224318  0.21392557  0.51820245  1
  Se  Se17  1  0.68775682  0.28607443  0.01820245  1
  Se  Se18  1  0.18775682  0.78607443  0.48179755  1
  Se  Se19  1  0.31224318  0.71392557  0.98179755  1
  Rb  Rb20  1  0.37498321  0.69761716  0.24833256  1
  Rb  Rb21  1  0.12501679  0.80238284  0.74833256  1
  Rb  Rb22  1  0.62501679  0.30238284  0.75166744  1
  Rb  Rb23  1  0.87498321  0.19761716  0.25166744  1
  Sb  Sb24  1  0.99209568  0.17826963  0.95892349  1
  Sb  Sb25  1  0.50790432  0.32173037  0.45892349  1
  Sb  Sb26  1  0.00790432  0.82173037  0.04107651  1
  Sb  Sb27  1  0.49209568  0.67826963  0.54107651  1
  Sb  Sb28  1  0.31871191  0.45993047  0.94017737  1
  Sb  Sb29  1  0.18128809  0.04006953  0.44017737  1
  Sb  Sb30  1  0.68128809  0.54006953  0.05982263  1
  Sb  Sb31  1  0.81871191  0.95993047  0.55982263  1
  Sb  Sb32  1  0.87673809  0.63042137  0.40225287  1
  Sb  Sb33  1  0.62326191  0.86957863  0.90225287  1
  Sb  Sb34  1  0.12326191  0.36957863  0.59774713  1
  Sb  Sb35  1  0.37673809  0.13042137  0.09774713  1
