# generated using pymatgen
data_NaCe5S8
_symmetry_space_group_name_H-M   'P 1'
_cell_length_a   7.40560553
_cell_length_b   7.40560589
_cell_length_c   7.40560542
_cell_angle_alpha   109.55125319
_cell_angle_beta   109.31127119
_cell_angle_gamma   109.55125365
_symmetry_Int_Tables_number   1
_chemical_formula_structural   NaCe5S8
_chemical_formula_sum   'Na1 Ce5 S8'
_cell_volume   312.64920132
_cell_formula_units_Z   1
loop_
 _symmetry_equiv_pos_site_id
 _symmetry_equiv_pos_as_xyz
  1  'x, y, z'
loop_
 _atom_site_type_symbol
 _atom_site_label
 _atom_site_symmetry_multiplicity
 _atom_site_fract_x
 _atom_site_fract_y
 _atom_site_fract_z
 _atom_site_occupancy
  Ce  Ce0  1  0.24365461  0.62795900  0.37413351  1
  Ce  Ce1  1  0.37500000  0.25000000  0.62500000  1
  Ce  Ce2  1  0.62586649  0.36952110  0.25382549  1
  Ce  Ce3  1  0.74617451  0.87204100  0.11569561  1
  Ce  Ce4  1  0.88430439  0.13047890  0.75634539  1
  Na  Na5  1  0.12500000  0.75000000  0.87500000  1
  S  S6  1  0.15105413  0.15192519  0.15485385  1
  S  S7  1  0.35829868  0.49269710  0.00519424  1
  S  S8  1  0.63439842  0.64689556  0.64170132  1
  S  S9  1  0.50087105  0.00379971  0.84894587  1
  S  S10  1  0.51249714  0.00730290  0.36560158  1
  S  S11  1  0.99480576  0.85310444  0.48750286  1
  S  S12  1  0.84514615  0.49620029  0.99707134  1
  S  S13  1  0.00292866  0.34807481  0.49912895  1
