# generated using pymatgen
data_Ca2B2O5
_symmetry_space_group_name_H-M   'P 1'
_cell_length_a   5.21980597
_cell_length_b   7.27516429
_cell_length_c   11.64361347
_cell_angle_alpha   92.48237103
_cell_angle_beta   90.00000000
_cell_angle_gamma   90.00000000
_symmetry_Int_Tables_number   1
_chemical_formula_structural   Ca2B2O5
_chemical_formula_sum   'Ca8 B8 O20'
_cell_volume   441.75066242
_cell_formula_units_Z   4
loop_
 _symmetry_equiv_pos_site_id
 _symmetry_equiv_pos_as_xyz
  1  'x, y, z'
loop_
 _atom_site_type_symbol
 _atom_site_label
 _atom_site_symmetry_multiplicity
 _atom_site_fract_x
 _atom_site_fract_y
 _atom_site_fract_z
 _atom_site_occupancy
  B  B0  1  0.43713813  0.33550047  0.91120821  1
  B  B1  1  0.93713813  0.66449953  0.58879179  1
  B  B2  1  0.56286187  0.66449953  0.08879179  1
  B  B3  1  0.06286187  0.33550047  0.41120821  1
  B  B4  1  0.57771864  0.15558892  0.09598328  1
  B  B5  1  0.07771864  0.84441108  0.40401672  1
  B  B6  1  0.42228136  0.84441108  0.90401672  1
  B  B7  1  0.92228136  0.15558892  0.59598328  1
  O  O8  1  0.90728867  0.22557601  0.48420001  1
  O  O9  1  0.40728867  0.77442399  0.01579999  1
  O  O10  1  0.09271133  0.77442399  0.51579999  1
  O  O11  1  0.59271133  0.22557601  0.98420001  1
  O  O12  1  0.17928167  0.35580769  0.92908965  1
  O  O13  1  0.67928167  0.64419231  0.57091035  1
  O  O14  1  0.82071833  0.64419231  0.07091035  1
  O  O15  1  0.32071833  0.35580769  0.42908965  1
  O  O16  1  0.58010282  0.40649368  0.82506120  1
  O  O17  1  0.08010282  0.59350632  0.67493880  1
  O  O18  1  0.41989718  0.59350632  0.17493880  1
  O  O19  1  0.91989718  0.40649368  0.32506120  1
  O  O20  1  0.19252119  0.89014037  0.85687169  1
  O  O21  1  0.69252119  0.10985963  0.64312831  1
  O  O22  1  0.80747881  0.10985963  0.14312831  1
  O  O23  1  0.30747881  0.89014037  0.35687169  1
  O  O24  1  0.14402207  0.14686481  0.65720502  1
  O  O25  1  0.64402207  0.85313519  0.84279498  1
  O  O26  1  0.85597793  0.85313519  0.34279498  1
  O  O27  1  0.35597793  0.14686481  0.15720502  1
  Ca  Ca28  1  0.56668051  0.61733721  0.36628284  1
  Ca  Ca29  1  0.06668051  0.38266279  0.13371716  1
  Ca  Ca30  1  0.43331949  0.38266279  0.63371716  1
  Ca  Ca31  1  0.93331949  0.61733721  0.86628284  1
  Ca  Ca32  1  0.60089317  0.12252276  0.33479974  1
  Ca  Ca33  1  0.10089317  0.87747724  0.16520026  1
  Ca  Ca34  1  0.39910683  0.87747724  0.66520026  1
  Ca  Ca35  1  0.89910683  0.12252276  0.83479974  1
