# generated using pymatgen
data_Mg(GaO2)2
_symmetry_space_group_name_H-M   'P 1'
_cell_length_a   5.93022983
_cell_length_b   5.98066263
_cell_length_c   35.61380859
_cell_angle_alpha   59.74873205
_cell_angle_beta   59.72458332
_cell_angle_gamma   59.71827492
_symmetry_Int_Tables_number   1
_chemical_formula_structural   Mg(GaO2)2
_chemical_formula_sum   'Mg12 Ga24 O48'
_cell_volume   887.68362618
_cell_formula_units_Z   12
loop_
 _symmetry_equiv_pos_site_id
 _symmetry_equiv_pos_as_xyz
  1  'x, y, z'
loop_
 _atom_site_type_symbol
 _atom_site_label
 _atom_site_symmetry_multiplicity
 _atom_site_fract_x
 _atom_site_fract_y
 _atom_site_fract_z
 _atom_site_occupancy
  Ga  Ga0  1  0.26491808  0.24415445  0.04112917  1
  Ga  Ga1  1  0.26548231  0.24398665  0.20775706  1
  Ga  Ga2  1  0.62952970  0.62908832  0.01871528  1
  Ga  Ga3  1  0.98635078  0.00733749  0.33316204  1
  Ga  Ga4  1  0.62958548  0.11534998  0.10443904  1
  Ga  Ga5  1  0.62958548  0.62843230  0.10443904  1
  Ga  Ga6  1  0.62516226  0.11839930  0.27196734  1
  Ga  Ga7  1  0.62977165  0.62827654  0.18561255  1
  Ga  Ga8  1  0.25980304  0.23931186  0.37692887  1
  Ga  Ga9  1  0.98936924  0.00990619  0.49846973  1
  Ga  Ga10  1  0.62516226  0.62463240  0.27196734  1
  Ga  Ga11  1  0.25990137  0.23980380  0.54341551  1
  Ga  Ga12  1  0.99011209  0.01012062  0.66494145  1
  Ga  Ga13  1  0.62414164  0.12454258  0.43780967  1
  Ga  Ga14  1  0.62414164  0.62445778  0.43780967  1
  Ga  Ga15  1  0.99191876  0.01157581  0.83082127  1
  Ga  Ga16  1  0.26034607  0.24013953  0.70989548  1
  Ga  Ga17  1  0.62500923  0.12497259  0.60415969  1
  Ga  Ga18  1  0.62500923  0.62506206  0.60415969  1
  Ga  Ga19  1  0.62550079  0.12487903  0.77069415  1
  Ga  Ga20  1  0.26068274  0.24042397  0.87641155  1
  Ga  Ga21  1  0.62550079  0.62545326  0.77069415  1
  Ga  Ga22  1  0.62842456  0.12169498  0.93693916  1
  Ga  Ga23  1  0.62842456  0.62824549  0.93693916  1
  Mg  Mg24  1  0.99095922  0.00710118  0.99913974  1
  Mg  Mg25  1  0.98569246  0.00280564  0.16811638  1
  Mg  Mg26  1  0.12019427  0.62681138  0.10436416  1
  Mg  Mg27  1  0.12161190  0.62407450  0.27170618  1
  Mg  Mg28  1  0.12464115  0.62452793  0.43771717  1
  Mg  Mg29  1  0.62480722  0.62399357  0.35453461  1
  Mg  Mg30  1  0.12497504  0.62504612  0.60415579  1
  Mg  Mg31  1  0.62501199  0.62486042  0.52087753  1
  Mg  Mg32  1  0.12508306  0.62534678  0.77070356  1
  Mg  Mg33  1  0.62515548  0.62505905  0.68745440  1
  Mg  Mg34  1  0.12385136  0.62743498  0.93687978  1
  Mg  Mg35  1  0.62538543  0.62464809  0.85422006  1
  O  O36  1  0.39024426  0.37932778  0.06307294  1
  O  O37  1  0.39071555  0.37813665  0.14216819  1
  O  O38  1  0.39024426  0.85199233  0.06307294  1
  O  O39  1  0.85950928  0.38027926  0.06332237  1
  O  O40  1  0.39759553  0.86768696  0.14450542  1
  O  O41  1  0.39024589  0.37977888  0.22974597  1
  O  O42  1  0.85375269  0.87187359  0.06708336  1
  O  O43  1  0.39083390  0.37584458  0.30957949  1
  O  O44  1  0.85386864  0.40577099  0.14504839  1
  O  O45  1  0.39024589  0.85149743  0.22974597  1
  O  O46  1  0.85939537  0.38074324  0.22985269  1
  O  O47  1  0.85386864  0.87007203  0.14504839  1
  O  O48  1  0.38702970  0.37215909  0.39787778  1
  O  O49  1  0.38255181  0.87488320  0.31127997  1
  O  O50  1  0.84679746  0.86681492  0.23659578  1
  O  O51  1  0.38764375  0.37584531  0.47677794  1
  O  O52  1  0.86407038  0.39129899  0.31124396  1
  O  O53  1  0.38702970  0.85354450  0.39787778  1
  O  O54  1  0.86407038  0.87716489  0.31124396  1
  O  O55  1  0.86082053  0.37562952  0.39798674  1
  O  O56  1  0.38708419  0.37208203  0.56454192  1
  O  O57  1  0.38873653  0.87404504  0.47719556  1
  O  O58  1  0.85979181  0.87244298  0.39922004  1
  O  O59  1  0.38781283  0.37597533  0.64337242  1
  O  O60  1  0.86250455  0.39597432  0.47728231  1
  O  O61  1  0.38708419  0.85358426  0.56454192  1
  O  O62  1  0.86250455  0.87782726  0.47728231  1
  O  O63  1  0.86031876  0.37586259  0.56465968  1
  O  O64  1  0.38979910  0.87411357  0.64366263  1
  O  O65  1  0.38729468  0.37213525  0.73113312  1
  O  O66  1  0.86198146  0.87400289  0.56500213  1
  O  O67  1  0.38788793  0.37614104  0.80997167  1
  O  O68  1  0.86285641  0.39649526  0.64377814  1
  O  O69  1  0.38729468  0.85376936  0.73113312  1
  O  O70  1  0.86285641  0.87798147  0.64377814  1
  O  O71  1  0.86057036  0.37594117  0.73125755  1
  O  O72  1  0.39145206  0.87416172  0.81003708  1
  O  O73  1  0.38684151  0.37098945  0.89799060  1
  O  O74  1  0.86284711  0.87450798  0.73135649  1
  O  O75  1  0.38795329  0.37800986  0.97600483  1
  O  O76  1  0.86288917  0.39786068  0.81020005  1
  O  O77  1  0.38684151  0.85422546  0.89799060  1
  O  O78  1  0.86288917  0.87804786  0.81020005  1
  O  O79  1  0.86128745  0.37444566  0.89830354  1
  O  O80  1  0.40499211  0.86732806  0.97672530  1
  O  O81  1  0.85313581  0.41181450  0.97738794  1
  O  O82  1  0.86762058  0.87721215  0.89632552  1
  O  O83  1  0.85313581  0.87072202  0.97738794  1
