# generated using pymatgen
data_La11V4O26
_symmetry_space_group_name_H-M   'P 1'
_cell_length_a   7.11665573
_cell_length_b   10.29284119
_cell_length_c   10.36712903
_cell_angle_alpha   89.97396463
_cell_angle_beta   71.41691957
_cell_angle_gamma   69.75205678
_symmetry_Int_Tables_number   1
_chemical_formula_structural   La11V4O26
_chemical_formula_sum   'La11 V4 O26'
_cell_volume   670.15346915
_cell_formula_units_Z   1
loop_
 _symmetry_equiv_pos_site_id
 _symmetry_equiv_pos_as_xyz
  1  'x, y, z'
loop_
 _atom_site_type_symbol
 _atom_site_label
 _atom_site_symmetry_multiplicity
 _atom_site_fract_x
 _atom_site_fract_y
 _atom_site_fract_z
 _atom_site_occupancy
  O  O0  1  0.50546437  0.63137163  0.67621794  1
  O  O1  1  0.49458090  0.36861589  0.32371958  1
  O  O2  1  0.34085650  0.26367264  0.06263959  1
  O  O3  1  0.65913364  0.73632188  0.93729474  1
  O  O4  1  0.06999184  0.60572054  0.91314415  1
  O  O5  1  0.93001700  0.39429408  0.08684371  1
  O  O6  1  0.50937090  0.31554332  0.60089353  1
  O  O7  1  0.49073681  0.68442498  0.39904274  1
  O  O8  1  0.92065287  0.84860286  0.75204891  1
  O  O9  1  0.07933200  0.15146533  0.24794496  1
  O  O10  1  0.19861028  0.26666191  0.50168588  1
  O  O11  1  0.80149275  0.73328912  0.49828276  1
  O  O12  1  0.96308917  0.27351247  0.83253597  1
  O  O13  1  0.03685752  0.72648810  0.16754170  1
  O  O14  1  0.02204148  0.46145427  0.30919384  1
  O  O15  1  0.78197261  0.08157410  0.01087083  1
  O  O16  1  0.21792307  0.91853458  0.98918914  1
  O  O17  1  0.60665953  0.09214678  0.40543834  1
  O  O18  1  0.39340405  0.90787114  0.59453531  1
  O  O19  1  0.05837362  0.89249719  0.38400482  1
  O  O20  1  0.97799773  0.53850706  0.69077224  1
  O  O21  1  0.52538205  0.42011232  0.86742607  1
  O  O22  1  0.47464396  0.57980704  0.13261931  1
  O  O23  1  0.57742287  0.90629341  0.19879484  1
  O  O24  1  0.42253548  0.09377264  0.80118823  1
  O  O25  1  0.94163631  0.10752171  0.61594312  1
  V  V26  1  0.08303048  0.31737976  0.19488704  1
  V  V27  1  0.91692145  0.68260630  0.80510104  1
  V  V28  1  0.54833898  0.72822138  0.54239224  1
  V  V29  1  0.45164572  0.27177373  0.45763887  1
  La  La30  1  0.18380842  0.63870977  0.33904615  1
  La  La31  1  0.73621618  0.98509925  0.59494661  1
  La  La32  1  0.81609813  0.36114494  0.66090982  1
  La  La33  1  0.26377632  0.01495001  0.40494007  1
  La  La34  1  0.90639848  0.97004423  0.19215627  1
  La  La35  1  0.09364116  0.02999982  0.80786568  1
  La  La36  1  0.64986643  0.33117323  0.04665921  1
  La  La37  1  0.35007080  0.66882064  0.95337702  1
  La  La38  1  0.75246530  0.65716943  0.15708519  1
  La  La39  1  0.24763479  0.34268983  0.84309394  1
  La  La40  1  0.49990405  0.00014070  0.00008363  1
