# generated using pymatgen
data_Ca12Al14O33
_symmetry_space_group_name_H-M   'P 1'
_cell_length_a   10.46679236
_cell_length_b   10.46679184
_cell_length_c   10.46604203
_cell_angle_alpha   109.23618381
_cell_angle_beta   109.23926915
_cell_angle_gamma   109.94210461
_symmetry_Int_Tables_number   1
_chemical_formula_structural   Ca12Al14O33
_chemical_formula_sum   'Ca12 Al14 O33'
_cell_volume   882.57263202
_cell_formula_units_Z   1
loop_
 _symmetry_equiv_pos_site_id
 _symmetry_equiv_pos_as_xyz
  1  'x, y, z'
loop_
 _atom_site_type_symbol
 _atom_site_label
 _atom_site_symmetry_multiplicity
 _atom_site_fract_x
 _atom_site_fract_y
 _atom_site_fract_z
 _atom_site_occupancy
  Al  Al0  1  0.12554049  0.87554049  0.25000000  1
  Al  Al1  1  0.37562846  0.62562846  0.75000000  1
  Al  Al2  1  0.25158119  0.12541719  0.87422326  1
  Al  Al3  1  0.03772657  0.03609801  0.03697406  1
  Al  Al4  1  0.50155254  0.99889535  0.96384671  1
  Al  Al5  1  0.53504864  0.53770583  0.53615329  1
  Al  Al6  1  0.62369324  0.74917604  0.37367577  1
  Al  Al7  1  0.46340367  0.49964295  0.99728841  1
  Al  Al8  1  0.49912394  0.00075251  0.46302594  1
  Al  Al9  1  0.75119393  0.37735793  0.62577674  1
  Al  Al10  1  0.00051779  0.96330255  0.49831555  1
  Al  Al11  1  0.00235454  0.46611526  0.50271159  1
  Al  Al12  1  0.87550027  0.25001747  0.12632423  1
  Al  Al13  1  0.96498700  0.50220224  0.00168445  1
  Ca  Ca14  1  0.05421128  0.30421128  0.75000000  1
  Ca  Ca15  1  0.25210390  0.86065339  0.61463011  1
  Ca  Ca16  1  0.14055443  0.25511454  0.39103402  1
  Ca  Ca17  1  0.24497807  0.38387149  0.13098565  1
  Ca  Ca18  1  0.36408052  0.74952041  0.10896598  1
  Ca  Ca19  1  0.69922608  0.94922608  0.75000000  1
  Ca  Ca20  1  0.74602328  0.63747379  0.88536989  1
  Ca  Ca21  1  0.61687309  0.24891160  0.86170453  1
  Ca  Ca22  1  0.38945064  0.13945064  0.25000000  1
  Ca  Ca23  1  0.88720707  0.75516856  0.63829547  1
  Ca  Ca24  1  0.86179745  0.61179745  0.25000000  1
  Ca  Ca25  1  0.75288584  0.11399242  0.36901435  1
  O  O26  1  0.10158748  0.97779224  0.68282932  1
  O  O27  1  0.09182356  0.88193375  0.40481744  1
  O  O28  1  0.19000236  0.48622440  0.58336282  1
  O  O29  1  0.39438470  0.81115083  0.79642378  1
  O  O30  1  0.29154308  0.31382844  0.90644847  1
  O  O31  1  0.40286158  0.60663954  0.91663718  1
  O  O32  1  0.31422928  0.90950313  0.29048634  1
  O  O33  1  0.02272763  0.20581165  0.12328355  1
  O  O34  1  0.13815174  0.51251219  0.01399814  1
  O  O35  1  0.11901679  0.02374294  0.20951366  1
  O  O36  1  0.51472705  0.59796092  0.70357622  1
  O  O37  1  0.41179986  0.09767205  0.89074574  1
  O  O38  1  0.37156995  0.37062172  0.36509220  1
  O  O39  1  0.20908743  0.11432457  0.02106071  1
  O  O40  1  0.58252810  0.89944408  0.37671645  1
  O  O41  1  0.61668217  0.70971531  0.52253050  1
  O  O42  1  0.47977224  0.58915110  0.18570227  1
  O  O43  1  0.48969705  0.00326123  0.62635688  1
  O  O44  1  0.87690435  0.86334018  0.87364312  1
  O  O45  1  0.70692631  0.52105412  0.60925426  1
  O  O46  1  0.68718481  0.09415167  0.97746950  1
  O  O47  1  0.59326386  0.18802671  0.47893929  1
  O  O48  1  0.79496292  0.41875816  0.81717068  1
  O  O49  1  0.81305442  0.79199507  0.40485009  1
  O  O50  1  0.50552952  0.00647775  0.13490780  1
  O  O51  1  0.63056224  0.49590893  0.00107810  1
  O  O52  1  0.90737997  0.38509460  0.59355153  1
  O  O53  1  0.87674065  0.12674065  0.75000000  1
  O  O54  1  0.99483083  0.62948414  0.49892190  1
  O  O55  1  0.90344884  0.29406997  0.31429773  1
  O  O56  1  0.88714498  0.40820433  0.09514991  1
  O  O57  1  0.97711630  0.68700612  0.09518256  1
  O  O58  1  0.99851405  0.12415359  0.48600186  1
