# generated using pymatgen
data_Sr17(Ta5S21)2
_symmetry_space_group_name_H-M   'P 1'
_cell_length_a   12.37961764
_cell_length_b   12.33476244
_cell_length_c   12.34249348
_cell_angle_alpha   96.77326675
_cell_angle_beta   96.66362017
_cell_angle_gamma   96.32255654
_symmetry_Int_Tables_number   1
_chemical_formula_structural   Sr17(Ta5S21)2
_chemical_formula_sum   'Sr17 Ta10 S42'
_cell_volume   1844.19313234
_cell_formula_units_Z   1
loop_
 _symmetry_equiv_pos_site_id
 _symmetry_equiv_pos_as_xyz
  1  'x, y, z'
loop_
 _atom_site_type_symbol
 _atom_site_label
 _atom_site_symmetry_multiplicity
 _atom_site_fract_x
 _atom_site_fract_y
 _atom_site_fract_z
 _atom_site_occupancy
  S  S0  1  0.03929727  0.81646678  0.89476932  1
  S  S1  1  0.05232132  0.52634220  0.94071751  1
  S  S2  1  0.00524623  0.33945556  0.67547435  1
  S  S3  1  0.12609273  0.99184471  0.21195514  1
  S  S4  1  0.17319355  0.84034756  0.50690439  1
  S  S5  1  0.13348824  0.66182007  0.23615988  1
  S  S6  1  0.20059284  0.60633391  0.71401681  1
  S  S7  1  0.20803849  0.13007301  0.99056049  1
  S  S8  1  0.17052967  0.24574968  0.37493926  1
  S  S9  1  0.31551411  0.90039341  0.80020212  1
  S  S10  1  0.27849148  0.38031664  0.86082435  1
  S  S11  1  0.23717269  0.12983271  0.65677825  1
  S  S12  1  0.24474756  0.37525415  0.17070765  1
  S  S13  1  0.30960805  0.52071708  0.44436695  1
  S  S14  1  0.38063433  0.86195627  0.28052385  1
  S  S15  1  0.34032757  0.67560195  0.00583229  1
  S  S16  1  0.46507404  0.97968307  0.57701159  1
  S  S17  1  0.38364030  0.16553822  0.24593457  1
  S  S18  1  0.43636302  0.29196719  0.51780205  1
  S  S19  1  0.50734916  0.58992831  0.72709784  1
  S  S20  1  0.50599358  0.17206848  0.84225696  1
  S  S21  1  0.57241092  0.46447949  0.97810145  1
  S  S22  1  0.52357909  0.94340930  0.05185949  1
  S  S23  1  0.58994085  0.72696794  0.50563328  1
  S  S24  1  0.51617690  0.43719495  0.29050195  1
  S  S25  1  0.64942253  0.85804986  0.78324119  1
  S  S26  1  0.60380856  0.71464314  0.20026455  1
  S  S27  1  0.65863516  0.23886427  0.13037962  1
  S  S28  1  0.72593909  0.50496605  0.58788458  1
  S  S29  1  0.78401474  0.64928275  0.85633229  1
  S  S30  1  0.71307874  0.19834110  0.60571520  1
  S  S31  1  0.67365927  0.00573603  0.34120774  1
  S  S32  1  0.79763922  0.31632888  0.89806909  1
  S  S33  1  0.85700370  0.78218588  0.64949198  1
  S  S34  1  0.81519237  0.89290668  0.03889290  1
  S  S35  1  0.83747168  0.50878634  0.16895195  1
  S  S36  1  0.90012608  0.79563539  0.31620243  1
  S  S37  1  0.86235704  0.27660467  0.38307655  1
  S  S38  1  0.89328361  0.03757712  0.81534231  1
  S  S39  1  0.98328515  0.57330239  0.46487222  1
  S  S40  1  0.94319367  0.04938290  0.52436557  1
  S  S41  1  0.98078209  0.20299222  0.12267794  1
  Sr  Sr42  1  0.07811956  0.94254780  0.70258777  1
  Sr  Sr43  1  0.04224913  0.27638404  0.91148975  1
  Sr  Sr44  1  0.23157196  0.37380363  0.60590734  1
  Sr  Sr45  1  0.27191238  0.91496866  0.04886891  1
  Sr  Sr46  1  0.28713160  0.05245598  0.41798998  1
  Sr  Sr47  1  0.37338820  0.73964733  0.60430480  1
  Sr  Sr48  1  0.36834316  0.61111908  0.23818187  1
  Sr  Sr49  1  0.42017824  0.28423583  0.05515720  1
  Sr  Sr50  1  0.58508511  0.71628453  0.95371405  1
  Sr  Sr51  1  0.60254207  0.37233502  0.73776542  1
  Sr  Sr52  1  0.71720040  0.95257263  0.58418201  1
  Sr  Sr53  1  0.61211774  0.24031553  0.37348161  1
  Sr  Sr54  1  0.70542966  0.07910781  0.94451964  1
  Sr  Sr55  1  0.74448573  0.60269036  0.37247175  1
  Sr  Sr56  1  0.95368911  0.58203232  0.71139912  1
  Sr  Sr57  1  0.90850372  0.04128727  0.27485272  1
  Sr  Sr58  1  0.94605376  0.70228565  0.08114947  1
  Ta  Ta59  1  0.05000198  0.71751932  0.38421564  1
  Ta  Ta60  1  0.22169644  0.54989011  0.88450510  1
  Ta  Ta61  1  0.15910068  0.17706719  0.17140278  1
  Ta  Ta62  1  0.35292153  0.35502067  0.35369875  1
  Ta  Ta63  1  0.38402564  0.04814592  0.72269827  1
  Ta  Ta64  1  0.54826882  0.88549335  0.22153309  1
  Ta  Ta65  1  0.66825300  0.66810983  0.66748491  1
  Ta  Ta66  1  0.85699755  0.85474880  0.85656199  1
  Ta  Ta67  1  0.72090899  0.38659094  0.04742984  1
  Ta  Ta68  1  0.88380717  0.21931209  0.54954635  1
