# generated using pymatgen
data_Sm2Co7B3
_symmetry_space_group_name_H-M   'P 1'
_cell_length_a   5.07112405
_cell_length_b   5.07153933
_cell_length_c   12.66290649
_cell_angle_alpha   89.99992644
_cell_angle_beta   90.00014714
_cell_angle_gamma   119.99728841
_symmetry_Int_Tables_number   1
_chemical_formula_structural   Sm2Co7B3
_chemical_formula_sum   'Sm4 Co14 B6'
_cell_volume   282.04599035
_cell_formula_units_Z   2
loop_
 _symmetry_equiv_pos_site_id
 _symmetry_equiv_pos_as_xyz
  1  'x, y, z'
loop_
 _atom_site_type_symbol
 _atom_site_label
 _atom_site_symmetry_multiplicity
 _atom_site_fract_x
 _atom_site_fract_y
 _atom_site_fract_z
 _atom_site_occupancy
  Sm  Sm0  1  0.99998751  1.00000000  -0.00005364  1
  Sm  Sm1  1  0.99999368  0.00000000  0.49989702  1
  Sm  Sm2  1  0.99998785  -0.00000000  0.26061580  1
  Sm  Sm3  1  0.99999588  1.00000000  0.73960202  1
  Co  Co4  1  0.33303637  0.66609827  -0.00004961  1
  Co  Co5  1  0.66693809  0.33390173  -0.00004961  1
  Co  Co6  1  0.49998703  -0.00000000  0.15531979  1
  Co  Co7  1  0.49998638  0.50000012  0.15549045  1
  Co  Co8  1  0.99998627  0.49999988  0.15549045  1
  Co  Co9  1  0.49999426  0.00000000  0.84468619  1
  Co  Co10  1  0.49999550  0.49999935  0.84448620  1
  Co  Co11  1  0.99999616  0.50000065  0.84448620  1
  Co  Co12  1  0.49999156  1.00000000  0.38487501  1
  Co  Co13  1  0.49999169  0.50000002  0.38484019  1
  Co  Co14  1  0.99999167  0.49999998  0.38484019  1
  Co  Co15  1  0.49999526  0.00000000  0.61511476  1
  Co  Co16  1  0.49999521  0.49999998  0.61516261  1
  Co  Co17  1  0.99999523  0.50000002  0.61516261  1
  B  B18  1  0.33329003  0.66659420  0.49993051  1
  B  B19  1  0.66669583  0.33340580  0.49993051  1
  B  B20  1  0.33332426  0.66667279  0.26830553  1
  B  B21  1  0.66665147  0.33332721  0.26830553  1
  B  B22  1  0.66666257  0.33333235  0.73180565  1
  B  B23  1  0.33333022  0.66666765  0.73180565  1
