# generated using pymatgen
data_MoP2O7
_symmetry_space_group_name_H-M   'P 1'
_cell_length_a   7.45584858
_cell_length_b   8.29899477
_cell_length_c   9.79352005
_cell_angle_alpha   90.00000000
_cell_angle_beta   111.33660183
_cell_angle_gamma   90.00000000
_symmetry_Int_Tables_number   1
_chemical_formula_structural   MoP2O7
_chemical_formula_sum   'Mo4 P8 O28'
_cell_volume   564.44953915
_cell_formula_units_Z   4
loop_
 _symmetry_equiv_pos_site_id
 _symmetry_equiv_pos_as_xyz
  1  'x, y, z'
loop_
 _atom_site_type_symbol
 _atom_site_label
 _atom_site_symmetry_multiplicity
 _atom_site_fract_x
 _atom_site_fract_y
 _atom_site_fract_z
 _atom_site_occupancy
  Mo  Mo0  1  0.73232043  0.99417419  0.74778723  1
  Mo  Mo1  1  0.26767957  0.00582581  0.25221277  1
  Mo  Mo2  1  0.73232043  0.50582581  0.24778723  1
  Mo  Mo3  1  0.26767957  0.49417419  0.75221277  1
  P  P4  1  0.32280495  0.70991543  0.04728042  1
  P  P5  1  0.67719505  0.29008457  0.95271958  1
  P  P6  1  0.32280495  0.79008457  0.54728042  1
  P  P7  1  0.92960384  0.74077761  0.54796167  1
  P  P8  1  0.67719505  0.20991543  0.45271958  1
  P  P9  1  0.07039616  0.24077761  0.95203833  1
  P  P10  1  0.92960384  0.75922239  0.04796167  1
  P  P11  1  0.07039616  0.25922239  0.45203833  1
  O  O12  1  0.81455354  0.85818093  0.60031747  1
  O  O13  1  0.81613813  0.69318681  0.38807000  1
  O  O14  1  0.46200452  0.58697238  0.14853149  1
  O  O15  1  0.00102153  0.59169773  0.64614068  1
  O  O16  1  0.11533710  0.84085675  0.54865697  1
  O  O17  1  0.18386187  0.30681319  0.61193000  1
  O  O18  1  0.53799548  0.08697238  0.35146851  1
  O  O19  1  0.11533710  0.65914325  0.04865697  1
  O  O20  1  0.53799548  0.41302762  0.85146851  1
  O  O21  1  0.18544646  0.35818093  0.89968253  1
  O  O22  1  0.81613813  0.80681319  0.88807000  1
  O  O23  1  0.68636361  0.30836768  0.11126106  1
  O  O24  1  0.36369878  0.61783586  0.60411719  1
  O  O25  1  0.18386187  0.19318681  0.11193000  1
  O  O26  1  0.99897847  0.09169773  0.85385932  1
  O  O27  1  0.18544646  0.14181907  0.39968253  1
  O  O28  1  0.88466290  0.34085675  0.95134303  1
  O  O29  1  0.46200452  0.91302762  0.64853149  1
  O  O30  1  0.88466290  0.15914325  0.45134303  1
  O  O31  1  0.31363639  0.80836768  0.38873894  1
  O  O32  1  0.63630122  0.11783586  0.89588281  1
  O  O33  1  0.00102153  0.90830227  0.14614068  1
  O  O34  1  0.63630122  0.38216414  0.39588281  1
  O  O35  1  0.36369878  0.88216414  0.10411719  1
  O  O36  1  0.81455354  0.64181907  0.10031747  1
  O  O37  1  0.99897847  0.40830227  0.35385932  1
  O  O38  1  0.68636361  0.19163232  0.61126106  1
  O  O39  1  0.31363639  0.69163232  0.88873894  1
