# generated using pymatgen
data_Na2SO4
_symmetry_space_group_name_H-M   'P 1'
_cell_length_a   5.34119859
_cell_length_b   7.06587240
_cell_length_c   9.66644000
_cell_angle_alpha   90.00000000
_cell_angle_beta   90.00000000
_cell_angle_gamma   90.00000000
_symmetry_Int_Tables_number   1
_chemical_formula_structural   Na2SO4
_chemical_formula_sum   'Na8 S4 O16'
_cell_volume   364.81364665
_cell_formula_units_Z   4
loop_
 _symmetry_equiv_pos_site_id
 _symmetry_equiv_pos_as_xyz
  1  'x, y, z'
loop_
 _atom_site_type_symbol
 _atom_site_label
 _atom_site_symmetry_multiplicity
 _atom_site_fract_x
 _atom_site_fract_y
 _atom_site_fract_z
 _atom_site_occupancy
  Na  Na0  1  0.00000000  0.00000000  0.50000000  1
  Na  Na1  1  0.50000000  0.00000000  0.00000000  1
  Na  Na2  1  0.00000000  0.50000000  0.50000000  1
  Na  Na3  1  0.50000000  0.50000000  0.00000000  1
  Na  Na4  1  0.02235505  0.75000000  0.85059442  1
  Na  Na5  1  0.52235505  0.25000000  0.64940558  1
  Na  Na6  1  0.97764495  0.25000000  0.14940558  1
  Na  Na7  1  0.47764495  0.75000000  0.35059442  1
  S  S8  1  0.98269887  0.75000000  0.17723260  1
  S  S9  1  0.48269887  0.25000000  0.32276740  1
  S  S10  1  0.01730113  0.25000000  0.82276740  1
  S  S11  1  0.51730113  0.75000000  0.67723260  1
  O  O12  1  0.96058089  0.75000000  0.33216256  1
  O  O13  1  0.46058089  0.25000000  0.16783744  1
  O  O14  1  0.03941911  0.25000000  0.66783744  1
  O  O15  1  0.53941911  0.75000000  0.83216256  1
  O  O16  1  0.25260212  0.75000000  0.13497743  1
  O  O17  1  0.75260212  0.25000000  0.36502257  1
  O  O18  1  0.74739788  0.25000000  0.86502257  1
  O  O19  1  0.24739788  0.75000000  0.63497743  1
  O  O20  1  0.85795310  0.92202884  0.12140462  1
  O  O21  1  0.35795310  0.07797116  0.37859538  1
  O  O22  1  0.14204690  0.42202884  0.87859538  1
  O  O23  1  0.64204690  0.57797116  0.62140462  1
  O  O24  1  0.14204690  0.07797116  0.87859538  1
  O  O25  1  0.64204690  0.92202884  0.62140462  1
  O  O26  1  0.85795310  0.57797116  0.12140462  1
  O  O27  1  0.35795310  0.42202884  0.37859538  1
