# generated using pymatgen
data_MoPO5
_symmetry_space_group_name_H-M   'P 1'
_cell_length_a   7.19402759
_cell_length_b   7.58169738
_cell_length_c   7.91994369
_cell_angle_alpha   90.38596992
_cell_angle_beta   89.96575918
_cell_angle_gamma   118.25888468
_symmetry_Int_Tables_number   1
_chemical_formula_structural   MoPO5
_chemical_formula_sum   'Mo4 P4 O20'
_cell_volume   380.48256028
_cell_formula_units_Z   4
loop_
 _symmetry_equiv_pos_site_id
 _symmetry_equiv_pos_as_xyz
  1  'x, y, z'
loop_
 _atom_site_type_symbol
 _atom_site_label
 _atom_site_symmetry_multiplicity
 _atom_site_fract_x
 _atom_site_fract_y
 _atom_site_fract_z
 _atom_site_occupancy
  O  O0  1  0.44176638  0.35965629  0.28124643  1
  O  O1  1  0.92644783  0.35194152  0.76552124  1
  O  O2  1  0.76483343  0.25177186  0.32074501  1
  O  O3  1  0.73096690  0.40114624  0.01506741  1
  O  O4  1  0.16891148  0.87802542  0.98542411  1
  O  O5  1  0.07355217  0.64805848  0.23447876  1
  O  O6  1  0.23516757  0.74822814  0.67925399  1
  O  O7  1  0.26903410  0.59885376  0.98493359  1
  O  O8  1  0.06436282  0.11201169  0.29371927  1
  O  O9  1  0.20935043  0.38978535  0.50997019  1
  O  O10  1  0.44892820  0.89063870  0.18803123  1
  O  O11  1  0.93563818  0.88798831  0.70628173  1
  O  O12  1  0.68436345  0.88489715  0.47796874  1
  O  O13  1  0.55823262  0.64034371  0.71875257  1
  O  O14  1  0.83108952  0.12197458  0.01457489  1
  O  O15  1  0.31563755  0.11510285  0.52203126  1
  O  O16  1  0.74220574  0.74038551  0.17565002  1
  O  O17  1  0.55107280  0.10936130  0.81196977  1
  O  O18  1  0.79064957  0.61021465  0.49003081  1
  O  O19  1  0.25779526  0.25961449  0.82434998  1
  P  P20  1  0.24105736  0.75314286  0.09627657  1
  P  P21  1  0.25722517  0.24355063  0.40379304  1
  P  P22  1  0.74277483  0.75644937  0.59620696  1
  P  P23  1  0.75894164  0.24685714  0.90372343  1
  Mo  Mo24  1  0.75862987  0.47267951  0.26497392  1
  Mo  Mo25  1  0.75468531  0.96970217  0.23349814  1
  Mo  Mo26  1  0.24531569  0.03029783  0.76650186  1
  Mo  Mo27  1  0.24137013  0.52732049  0.73502508  1
