# generated using pymatgen
data_Ca12Al14O33
_symmetry_space_group_name_H-M   'P 1'
_cell_length_a   10.46896329
_cell_length_b   10.44952116
_cell_length_c   10.47198095
_cell_angle_alpha   109.29707270
_cell_angle_beta   109.21847657
_cell_angle_gamma   109.91832193
_symmetry_Int_Tables_number   1
_chemical_formula_structural   Ca12Al14O33
_chemical_formula_sum   'Ca12 Al14 O33'
_cell_volume   881.62530342
_cell_formula_units_Z   1
loop_
 _symmetry_equiv_pos_site_id
 _symmetry_equiv_pos_as_xyz
  1  'x, y, z'
loop_
 _atom_site_type_symbol
 _atom_site_label
 _atom_site_symmetry_multiplicity
 _atom_site_fract_x
 _atom_site_fract_y
 _atom_site_fract_z
 _atom_site_occupancy
  Al  Al0  1  0.12225435  0.87426954  0.24821342  1
  Al  Al1  1  0.37343386  0.62344667  0.74853896  1
  Al  Al2  1  0.25144006  0.12328459  0.87437899  1
  Al  Al3  1  0.49561190  0.99972462  0.46051117  1
  Al  Al4  1  0.03527469  0.03547773  0.03730649  1
  Al  Al5  1  0.53492843  0.53489176  0.53602524  1
  Al  Al6  1  0.50278314  0.99756214  0.96374000  1
  Al  Al7  1  0.62348164  0.75019797  0.37506810  1
  Al  Al8  1  0.46113584  0.49846476  0.99644974  1
  Al  Al9  1  0.75042336  0.37608785  0.62454266  1
  Al  Al10  1  0.99988137  0.96279708  0.49973368  1
  Al  Al11  1  -0.00069358  0.46396466  0.50241424  1
  Al  Al12  1  0.87459059  0.24981778  0.12666594  1
  Al  Al13  1  0.96312064  0.50074693  0.00173575  1
  Ca  Ca14  1  0.04735977  0.29096908  0.74650009  1
  Ca  Ca15  1  0.24930357  0.85552891  0.61135701  1
  Ca  Ca16  1  0.14096098  0.25555003  0.39189351  1
  Ca  Ca17  1  0.24924711  0.38440012  0.13499642  1
  Ca  Ca18  1  0.36076283  0.74578426  0.10732148  1
  Ca  Ca19  1  0.69481716  0.94320947  0.74674358  1
  Ca  Ca20  1  0.74353326  0.63498496  0.88408875  1
  Ca  Ca21  1  0.61226857  0.24925183  0.86299606  1
  Ca  Ca22  1  0.38775284  0.13625908  0.24682735  1
  Ca  Ca23  1  0.88707968  0.76779294  0.64453611  1
  Ca  Ca24  1  0.85956519  0.61101330  0.25181571  1
  Ca  Ca25  1  0.75132216  0.10975380  0.36596766  1
  O  O26  1  0.10882350  0.97531019  0.68118404  1
  O  O27  1  0.99043362  0.62696184  0.49851744  1
  O  O28  1  0.08749471  0.87719414  0.40144922  1
  O  O29  1  1.00111320  0.12424159  0.48533690  1
  O  O30  1  0.18818229  0.48697478  0.58107286  1
  O  O31  1  0.39586772  0.81063865  0.79503588  1
  O  O32  1  0.29006342  0.31206353  0.90745326  1
  O  O33  1  0.39905666  0.60404629  0.91466689  1
  O  O34  1  0.02278799  0.20790144  0.12155133  1
  O  O35  1  0.31086653  0.90771898  0.28794667  1
  O  O36  1  0.13297236  0.50336546  0.01162917  1
  O  O37  1  0.11727129  0.02436036  0.21021742  1
  O  O38  1  0.51112246  0.59264736  0.70143354  1
  O  O39  1  0.41483358  0.09997285  0.89685574  1
  O  O40  1  0.37284062  0.36735042  0.36417140  1
  O  O41  1  0.20542942  0.10928106  0.01853090  1
  O  O42  1  0.57839236  0.89757805  0.37450662  1
  O  O43  1  0.61157541  0.70602244  0.52024978  1
  O  O44  1  0.47978759  0.58962066  0.18570907  1
  O  O45  1  0.87183386  0.86198476  0.87755202  1
  O  O46  1  0.49016202  0.00461265  0.62606325  1
  O  O47  1  0.70943999  0.52324863  0.61361195  1
  O  O48  1  0.68773839  0.09285739  0.97556244  1
  O  O49  1  0.59138597  0.18708603  0.47655257  1
  O  O50  1  0.79391171  0.40951547  0.81429323  1
  O  O51  1  0.81172440  0.79124593  0.40434068  1
  O  O52  1  0.50615630  0.00271537  0.13376158  1
  O  O53  1  0.62797774  0.49465207  0.99929371  1
  O  O54  1  0.90573149  0.37924892  0.59256773  1
  O  O55  1  0.88081085  0.08076243  0.72115374  1
  O  O56  1  0.90140300  0.29173340  0.31343466  1
  O  O57  1  0.88382946  0.40729349  0.09471282  1
  O  O58  1  0.97530069  0.68562152  0.09111338  1
