# generated using pymatgen
data_Ba3SnP3
_symmetry_space_group_name_H-M   'P 1'
_cell_length_a   8.70391315
_cell_length_b   8.92463193
_cell_length_c   12.86928009
_cell_angle_alpha   90.00000000
_cell_angle_beta   90.00000000
_cell_angle_gamma   114.26993277
_symmetry_Int_Tables_number   1
_chemical_formula_structural   Ba3SnP3
_chemical_formula_sum   'Ba12 Sn4 P12'
_cell_volume   911.32342275
_cell_formula_units_Z   4
loop_
 _symmetry_equiv_pos_site_id
 _symmetry_equiv_pos_as_xyz
  1  'x, y, z'
loop_
 _atom_site_type_symbol
 _atom_site_label
 _atom_site_symmetry_multiplicity
 _atom_site_fract_x
 _atom_site_fract_y
 _atom_site_fract_z
 _atom_site_occupancy
  Ba  Ba0  1  0.20105952  0.73051799  0.06937146  1
  Ba  Ba1  1  0.29894048  0.26948201  0.56937146  1
  Ba  Ba2  1  0.79894048  0.26948201  0.93062854  1
  Ba  Ba3  1  0.70105952  0.73051799  0.43062854  1
  Ba  Ba4  1  0.67799692  0.05761847  0.20628826  1
  Ba  Ba5  1  0.82200308  0.94238153  0.70628826  1
  Ba  Ba6  1  0.32200308  0.94238153  0.79371174  1
  Ba  Ba7  1  0.17799692  0.05761847  0.29371174  1
  Ba  Ba8  1  0.00804957  0.50171269  0.66558021  1
  Ba  Ba9  1  0.49195043  0.49828731  0.16558021  1
  Ba  Ba10  1  0.99195043  0.49828731  0.33441979  1
  Ba  Ba11  1  0.50804957  0.50171269  0.83441979  1
  Sn  Sn12  1  0.13860093  0.16563803  0.99374975  1
  Sn  Sn13  1  0.36139907  0.83436197  0.49374975  1
  Sn  Sn14  1  0.86139907  0.83436197  0.00625025  1
  Sn  Sn15  1  0.63860093  0.16563803  0.50625025  1
  P  P16  1  0.87542849  0.75577723  0.19701962  1
  P  P17  1  0.62457151  0.24422277  0.69701962  1
  P  P18  1  0.12457151  0.24422277  0.80298038  1
  P  P19  1  0.37542849  0.75577723  0.30298038  1
  P  P20  1  0.58061460  0.84154062  0.96914288  1
  P  P21  1  0.91938540  0.15845938  0.46914288  1
  P  P22  1  0.41938540  0.15845938  0.03085712  1
  P  P23  1  0.08061460  0.84154062  0.53085712  1
  P  P24  1  0.56651927  0.33289225  0.36771249  1
  P  P25  1  0.93348073  0.66710775  0.86771249  1
  P  P26  1  0.43348073  0.66710775  0.63228751  1
  P  P27  1  0.06651927  0.33289225  0.13228751  1
