# generated using pymatgen
data_Ba2Mg3F10
_symmetry_space_group_name_H-M   'P 1'
_cell_length_a   6.03268002
_cell_length_b   7.92772049
_cell_length_c   9.84540909
_cell_angle_alpha   110.88980637
_cell_angle_beta   107.84061882
_cell_angle_gamma   90.00000199
_symmetry_Int_Tables_number   1
_chemical_formula_structural   Ba2Mg3F10
_chemical_formula_sum   'Ba4 Mg6 F20'
_cell_volume   415.58455439
_cell_formula_units_Z   2
loop_
 _symmetry_equiv_pos_site_id
 _symmetry_equiv_pos_as_xyz
  1  'x, y, z'
loop_
 _atom_site_type_symbol
 _atom_site_label
 _atom_site_symmetry_multiplicity
 _atom_site_fract_x
 _atom_site_fract_y
 _atom_site_fract_z
 _atom_site_occupancy
  Ba  Ba0  1  0.71624147  0.31520073  0.43248294  1
  Ba  Ba1  1  0.28375853  0.68479927  0.56751706  1
  Ba  Ba2  1  0.61371249  0.71907066  0.22742497  1
  Ba  Ba3  1  0.38628751  0.28092934  0.77257503  1
  Mg  Mg4  1  0.92576524  0.54588866  0.85153048  1
  Mg  Mg5  1  0.07423476  0.45411134  0.14846952  1
  Mg  Mg6  1  0.82291503  0.98570003  0.64583006  1
  Mg  Mg7  1  0.17708497  0.01429997  0.35416994  1
  Mg  Mg8  1  0.25396579  1.00000000  1.00000000  1
  Mg  Mg9  1  0.74603421  0.00000000  0.00000000  1
  F  F10  1  0.14213206  0.97527945  0.77844079  1
  F  F11  1  0.36369127  0.02472055  0.22155921  1
  F  F12  1  0.85786794  0.02472055  0.22155921  1
  F  F13  1  0.63630873  0.97527945  0.77844079  1
  F  F14  1  0.08960499  0.52535867  0.70311909  1
  F  F15  1  0.38648590  0.47464133  0.29688091  1
  F  F16  1  0.91039501  0.47464133  0.29688091  1
  F  F17  1  0.61351410  0.52535867  0.70311909  1
  F  F18  1  0.97761381  0.81819642  0.95522763  1
  F  F19  1  0.02238619  0.18180358  0.04477237  1
  F  F20  1  0.86564458  0.25650606  0.73128916  1
  F  F21  1  0.13435542  0.74349394  0.26871084  1
  F  F22  1  0.76365504  0.72200415  0.52731008  1
  F  F23  1  0.23634496  0.27799585  0.47268992  1
  F  F24  1  0.48289889  0.82076738  0.96579779  1
  F  F25  1  0.51710111  0.17923262  0.03420221  1
  F  F26  1  0.21878438  0.50000000  1.00000000  1
  F  F27  1  0.78121562  0.50000000  0.00000000  1
  F  F28  1  0.00000000  0.00000000  0.50000000  1
  F  F29  1  0.50000000  0.00000000  0.50000000  1
