# generated using pymatgen
data_Li4Mn3Cl10
_symmetry_space_group_name_H-M   'P 1'
_cell_length_a   7.45668988
_cell_length_b   7.45668988
_cell_length_c   37.31604213
_cell_angle_alpha   60.07411757
_cell_angle_beta   60.07411759
_cell_angle_gamma   60.53251037
_symmetry_Int_Tables_number   1
_chemical_formula_structural   Li4Mn3Cl10
_chemical_formula_sum   'Li16 Mn12 Cl40'
_cell_volume   1474.61849609
_cell_formula_units_Z   4
loop_
 _symmetry_equiv_pos_site_id
 _symmetry_equiv_pos_as_xyz
  1  'x, y, z'
loop_
 _atom_site_type_symbol
 _atom_site_label
 _atom_site_symmetry_multiplicity
 _atom_site_fract_x
 _atom_site_fract_y
 _atom_site_fract_z
 _atom_site_occupancy
  Cl  Cl0  1  0.25297637  0.25297637  0.05107571  1
  Cl  Cl1  1  0.25458707  0.72509311  0.05074410  1
  Cl  Cl2  1  0.25324967  0.25324967  0.14496910  1
  Cl  Cl3  1  0.72509311  0.25458707  0.05074410  1
  Cl  Cl4  1  0.25231714  0.25231714  0.25229597  1
  Cl  Cl5  1  0.27769454  0.74143548  0.14896312  1
  Cl  Cl6  1  0.25148710  0.25148710  0.34753803  1
  Cl  Cl7  1  0.25173267  0.71823808  0.25195532  1
  Cl  Cl8  1  0.74143548  0.27769454  0.14896312  1
  Cl  Cl9  1  0.74377474  0.74377474  0.05537736  1
  Cl  Cl10  1  0.71823808  0.25173267  0.25195532  1
  Cl  Cl11  1  0.74501586  0.74501586  0.14877748  1
  Cl  Cl12  1  0.25277889  0.25277889  0.45222274  1
  Cl  Cl13  1  0.27669006  0.74867255  0.34733506  1
  Cl  Cl14  1  0.25183161  0.72329220  0.45254865  1
  Cl  Cl15  1  0.74443417  0.74443417  0.25392922  1
  Cl  Cl16  1  0.25290080  0.25290080  0.54679812  1
  Cl  Cl17  1  0.74867255  0.27669006  0.34733506  1
  Cl  Cl18  1  0.72329220  0.25183161  0.45254865  1
  Cl  Cl19  1  0.74822624  0.74822624  0.34721560  1
  Cl  Cl20  1  0.25242918  0.25242918  0.65223039  1
  Cl  Cl21  1  0.27654332  0.74820748  0.54759749  1
  Cl  Cl22  1  0.74740918  0.74740918  0.45320021  1
  Cl  Cl23  1  0.25370677  0.25370677  0.74643740  1
  Cl  Cl24  1  0.25187007  0.72389968  0.65251550  1
  Cl  Cl25  1  0.74820748  0.27654332  0.54759749  1
  Cl  Cl26  1  0.72389968  0.25187007  0.65251550  1
  Cl  Cl27  1  0.74707297  0.74707297  0.54798655  1
  Cl  Cl28  1  0.25242720  0.25242720  0.85130302  1
  Cl  Cl29  1  0.27573172  0.74783507  0.74780972  1
  Cl  Cl30  1  0.74783507  0.27573172  0.74780972  1
  Cl  Cl31  1  0.74687307  0.74687307  0.65334760  1
  Cl  Cl32  1  0.25516300  0.25516300  0.94399684  1
  Cl  Cl33  1  0.25444706  0.72864298  0.85157094  1
  Cl  Cl34  1  0.72864298  0.25444706  0.85157094  1
  Cl  Cl35  1  0.74718559  0.74718559  0.74805668  1
  Cl  Cl36  1  0.27690554  0.74226005  0.94885477  1
  Cl  Cl37  1  0.74226005  0.27690554  0.94885477  1
  Cl  Cl38  1  0.74666267  0.74666267  0.85454739  1
  Cl  Cl39  1  0.74537801  0.74537801  0.94888472  1
  Li  Li40  1  0.49517869  0.49517869  0.09907825  1
  Li  Li41  1  0.11371012  0.11371012  0.42741883  1
  Li  Li42  1  0.49881682  0.49881682  0.29984291  1
  Li  Li43  1  0.88230205  0.88230205  0.17520891  1
  Li  Li44  1  0.11418134  0.11418134  0.62710347  1
  Li  Li45  1  0.50055557  0.50055557  0.39992757  1
  Li  Li46  1  0.50015923  0.50015923  0.49994827  1
  Li  Li47  1  0.88626637  0.88626637  0.37238314  1
  Li  Li48  1  0.11648212  0.11648212  0.82565657  1
  Li  Li49  1  0.50001261  0.50001261  0.59990052  1
  Li  Li50  1  0.50032315  0.50032315  0.69977049  1
  Li  Li51  1  0.88596876  0.88596876  0.57282935  1
  Li  Li52  1  0.50226941  0.50226941  0.79880488  1
  Li  Li53  1  0.49657908  0.49657908  0.89924736  1
  Li  Li54  1  0.88510148  0.88510148  0.77330309  1
  Li  Li55  1  0.88067629  0.88067629  0.97650618  1
  Mn  Mn56  1  0.49520540  0.49520540  0.00291617  1
  Mn  Mn57  1  0.00096474  0.49687472  0.30015780  1
  Mn  Mn58  1  0.49361833  0.49361833  0.20351503  1
  Mn  Mn59  1  0.49510024  0.01248653  0.09928399  1
  Mn  Mn60  1  0.01248653  0.49510024  0.09928399  1
  Mn  Mn61  1  -0.00005313  0.50005324  0.50004853  1
  Mn  Mn62  1  0.50005324  -0.00005313  0.50004853  1
  Mn  Mn63  1  0.49687472  0.00096474  0.30015780  1
  Mn  Mn64  1  0.00016057  0.50042898  0.69986072  1
  Mn  Mn65  1  0.50042898  0.00016057  0.69986072  1
  Mn  Mn66  1  0.01137160  0.49812671  0.89897874  1
  Mn  Mn67  1  0.49812671  0.01137160  0.89897874  1
