# generated using pymatgen
data_Fe2P2H9NO11
_symmetry_space_group_name_H-M   'P 1'
_cell_length_a   9.80683696
_cell_length_b   9.93411210
_cell_length_c   10.04642307
_cell_angle_alpha   103.47299515
_cell_angle_beta   90.00000000
_cell_angle_gamma   90.00000000
_symmetry_Int_Tables_number   1
_chemical_formula_structural   Fe2P2H9NO11
_chemical_formula_sum   'Fe8 P8 H36 N4 O44'
_cell_volume   951.80960245
_cell_formula_units_Z   4
loop_
 _symmetry_equiv_pos_site_id
 _symmetry_equiv_pos_as_xyz
  1  'x, y, z'
loop_
 _atom_site_type_symbol
 _atom_site_label
 _atom_site_symmetry_multiplicity
 _atom_site_fract_x
 _atom_site_fract_y
 _atom_site_fract_z
 _atom_site_occupancy
  H  H0  1  0.64798660  0.72713271  0.89816057  1
  H  H1  1  0.14798660  0.77286729  0.60183943  1
  H  H2  1  0.35201340  0.27286729  0.10183943  1
  H  H3  1  0.85201340  0.22713271  0.39816057  1
  H  H4  1  0.58470244  0.72405809  0.04197169  1
  H  H5  1  0.08470244  0.77594191  0.45802831  1
  H  H6  1  0.41529756  0.27594191  0.95802831  1
  H  H7  1  0.91529756  0.22405809  0.54197169  1
  H  H8  1  0.77691605  0.49869890  0.66907542  1
  H  H9  1  0.27691605  0.00130110  0.83092458  1
  H  H10  1  0.22308395  0.50130110  0.33092458  1
  H  H11  1  0.72308395  0.99869890  0.16907542  1
  H  H12  1  0.73114485  0.50661917  0.50642243  1
  H  H13  1  0.23114485  0.99338083  0.99357757  1
  H  H14  1  0.26885515  0.49338083  0.49357757  1
  H  H15  1  0.76885515  0.00661917  0.00642243  1
  H  H16  1  0.52746508  0.60151643  0.18673291  1
  H  H17  1  0.02746508  0.89848357  0.31326709  1
  H  H18  1  0.47253492  0.39848357  0.81326709  1
  H  H19  1  0.97253492  0.10151643  0.68673291  1
  H  H20  1  0.52105903  0.55530111  0.88673474  1
  H  H21  1  0.02105903  0.94469889  0.61326526  1
  H  H22  1  0.47894097  0.44469889  0.11326526  1
  H  H23  1  0.97894097  0.05530111  0.38673474  1
  H  H24  1  0.63987920  0.40529659  0.58853346  1
  H  H25  1  0.13987920  0.09470341  0.91146654  1
  H  H26  1  0.36012080  0.59470341  0.41146654  1
  H  H27  1  0.86012080  0.90529659  0.08853346  1
  H  H28  1  0.63658100  0.58225092  0.64207419  1
  H  H29  1  0.13658100  0.91774908  0.85792581  1
  H  H30  1  0.36341900  0.41774908  0.35792581  1
  H  H31  1  0.86341900  0.08225092  0.14207419  1
  H  H32  1  0.70429356  0.06240660  0.52804605  1
  H  H33  1  0.20429356  0.43759340  0.97195395  1
  H  H34  1  0.29570644  0.93759340  0.47195395  1
  H  H35  1  0.79570644  0.56240660  0.02804605  1
  N  N36  1  0.69570828  0.49598464  0.60146485  1
  N  N37  1  0.19570828  0.00401536  0.89853515  1
  N  N38  1  0.30429172  0.50401536  0.39853515  1
  N  N39  1  0.80429172  0.99598464  0.10146485  1
  O  O40  1  0.63827447  0.66925990  0.96488157  1
  O  O41  1  0.13827447  0.83074010  0.53511843  1
  O  O42  1  0.36172553  0.33074010  0.03511843  1
  O  O43  1  0.86172553  0.16925990  0.46488157  1
  O  O44  1  0.52655476  0.23827278  0.51373885  1
  O  O45  1  0.02655476  0.26172722  0.98626115  1
  O  O46  1  0.47344524  0.76172722  0.48626115  1
  O  O47  1  0.97344524  0.73827278  0.01373885  1
  O  O48  1  0.55228409  0.50246231  0.16929612  1
  O  O49  1  0.05228409  0.99753769  0.33070388  1
  O  O50  1  0.44771591  0.49753769  0.83070388  1
  O  O51  1  0.94771591  0.00246231  0.66929612  1
  O  O52  1  0.71413964  0.78877632  0.30760918  1
  O  O53  1  0.21413964  0.71122368  0.19239082  1
  O  O54  1  0.28586036  0.21122368  0.69239082  1
  O  O55  1  0.78586036  0.28877632  0.80760918  1
  O  O56  1  0.66836219  0.26294284  0.02779550  1
  O  O57  1  0.16836219  0.23705716  0.47220450  1
  O  O58  1  0.33163781  0.73705716  0.97220450  1
  O  O59  1  0.83163781  0.76294284  0.52779550  1
  O  O60  1  0.59953387  0.78131732  0.71109637  1
  O  O61  1  0.09953387  0.71868268  0.78890363  1
  O  O62  1  0.40046613  0.21868268  0.28890363  1
  O  O63  1  0.90046613  0.28131732  0.21109637  1
  O  O64  1  0.71829879  0.05202820  0.84622870  1
  O  O65  1  0.21829879  0.44797180  0.65377130  1
  O  O66  1  0.28170121  0.94797180  0.15377130  1
  O  O67  1  0.78170121  0.55202820  0.34622870  1
  O  O68  1  0.64132629  0.99895888  0.56038227  1
  O  O69  1  0.14132629  0.50104112  0.93961773  1
  O  O70  1  0.35867371  0.00104112  0.43961773  1
  O  O71  1  0.85867371  0.49895888  0.06038227  1
  O  O72  1  0.53799316  0.22376727  0.80661405  1
  O  O73  1  0.03799316  0.27623273  0.69338595  1
  O  O74  1  0.46200684  0.77623273  0.19338595  1
  O  O75  1  0.96200684  0.72376727  0.30661405  1
  O  O76  1  0.64425539  0.30472123  0.31982792  1
  O  O77  1  0.14425539  0.19527877  0.18017208  1
  O  O78  1  0.35574461  0.69527877  0.68017208  1
  O  O79  1  0.85574461  0.80472123  0.81982792  1
  O  O80  1  0.59351324  0.05067206  0.30157180  1
  O  O81  1  0.09351324  0.44932794  0.19842820  1
  O  O82  1  0.40648676  0.94932794  0.69842820  1
  O  O83  1  0.90648676  0.55067206  0.80157180  1
  P  P84  1  0.68064039  0.20742357  0.87234270  1
  P  P85  1  0.18064039  0.29257643  0.62765730  1
  P  P86  1  0.31935961  0.79257643  0.12765730  1
  P  P87  1  0.81935961  0.70742357  0.37234270  1
  P  P88  1  0.04155232  0.29789880  0.14581021  1
  P  P89  1  0.54155232  0.20210120  0.35418979  1
  P  P90  1  0.95844768  0.70210120  0.85418979  1
  P  P91  1  0.45844768  0.79789880  0.64581021  1
  Fe  Fe92  1  0.73505037  0.39742725  0.18948474  1
  Fe  Fe93  1  0.23505037  0.10257275  0.31051526  1
  Fe  Fe94  1  0.26494963  0.60257275  0.81051526  1
  Fe  Fe95  1  0.76494963  0.89742725  0.68948474  1
  Fe  Fe96  1  0.95670391  0.38463887  0.87081680  1
  Fe  Fe97  1  0.45670391  0.11536113  0.62918320  1
  Fe  Fe98  1  0.04329609  0.61536113  0.12918320  1
  Fe  Fe99  1  0.54329609  0.88463887  0.37081680  1
