# generated using pymatgen
data_Ge4PbO9
_symmetry_space_group_name_H-M   'P 1'
_cell_length_a   11.55887027
_cell_length_b   11.55887017
_cell_length_c   4.82870594
_cell_angle_alpha   90.00000000
_cell_angle_beta   90.00000000
_cell_angle_gamma   120.00000030
_symmetry_Int_Tables_number   1
_chemical_formula_structural   Ge4PbO9
_chemical_formula_sum   'Ge12 Pb3 O27'
_cell_volume   558.71735818
_cell_formula_units_Z   3
loop_
 _symmetry_equiv_pos_site_id
 _symmetry_equiv_pos_as_xyz
  1  'x, y, z'
loop_
 _atom_site_type_symbol
 _atom_site_label
 _atom_site_symmetry_multiplicity
 _atom_site_fract_x
 _atom_site_fract_y
 _atom_site_fract_z
 _atom_site_occupancy
  Pb  Pb0  1  0.67388838  0.00000000  0.00000000  1
  Pb  Pb1  1  0.00000000  0.67388838  0.00000000  1
  Pb  Pb2  1  0.32611162  0.32611162  0.00000000  1
  Ge  Ge3  1  0.14917664  0.49058644  0.39837743  1
  Ge  Ge4  1  0.50941356  0.65859020  0.39837743  1
  Ge  Ge5  1  0.34140980  0.85082336  0.39837743  1
  Ge  Ge6  1  0.65859020  0.50941356  0.60162257  1
  Ge  Ge7  1  0.85082336  0.34140980  0.60162257  1
  Ge  Ge8  1  0.49058644  0.14917664  0.60162257  1
  Ge  Ge9  1  0.18029931  0.00000000  0.50000000  1
  Ge  Ge10  1  1.00000000  0.18029931  0.50000000  1
  Ge  Ge11  1  0.81970069  0.81970069  0.50000000  1
  Ge  Ge12  1  0.33333300  0.66666700  0.88838262  1
  Ge  Ge13  1  0.66666700  0.33333300  0.11161738  1
  Ge  Ge14  1  0.00000000  0.00000000  0.00000000  1
  O  O15  1  0.09375174  0.15435851  0.76228796  1
  O  O16  1  0.84564149  0.93939323  0.76228796  1
  O  O17  1  0.06060677  0.90624826  0.76228796  1
  O  O18  1  0.93939323  0.84564149  0.23771204  1
  O  O19  1  0.90624826  0.06060677  0.23771204  1
  O  O20  1  0.15435851  0.09375174  0.23771204  1
  O  O21  1  0.10860441  0.32488208  0.29299944  1
  O  O22  1  0.67511792  0.78372233  0.29299944  1
  O  O23  1  0.21627767  0.89139559  0.29299944  1
  O  O24  1  0.78372233  0.67511792  0.70700056  1
  O  O25  1  0.89139559  0.21627767  0.70700056  1
  O  O26  1  0.32488208  0.10860441  0.70700056  1
  O  O27  1  0.26215738  0.51125987  0.66592207  1
  O  O28  1  0.48874013  0.75089751  0.66592207  1
  O  O29  1  0.24910249  0.73784262  0.66592207  1
  O  O30  1  0.75089751  0.48874013  0.33407793  1
  O  O31  1  0.73784262  0.24910249  0.33407793  1
  O  O32  1  0.51125987  0.26215738  0.33407793  1
  O  O33  1  0.17952549  0.60064245  0.11782705  1
  O  O34  1  0.39935755  0.57888304  0.11782705  1
  O  O35  1  0.42111696  0.82047451  0.11782705  1
  O  O36  1  0.57888304  0.39935755  0.88217295  1
  O  O37  1  0.82047451  0.42111696  0.88217295  1
  O  O38  1  0.60064245  0.17952549  0.88217295  1
  O  O39  1  0.48823950  0.00000000  0.50000000  1
  O  O40  1  1.00000000  0.48823950  0.50000000  1
  O  O41  1  0.51176050  0.51176050  0.50000000  1
