# generated using pymatgen
data_Ba5Sr2Nd8(CuO5)5
_symmetry_space_group_name_H-M   'P 1'
_cell_length_a   5.84597021
_cell_length_b   6.79262658
_cell_length_c   33.95873122
_cell_angle_alpha   90.00000000
_cell_angle_beta   90.00000000
_cell_angle_gamma   90.00000000
_symmetry_Int_Tables_number   1
_chemical_formula_structural   Ba5Sr2Nd8(CuO5)5
_chemical_formula_sum   'Ba10 Sr4 Nd16 Cu10 O50'
_cell_volume   1348.48398725
_cell_formula_units_Z   2
loop_
 _symmetry_equiv_pos_site_id
 _symmetry_equiv_pos_as_xyz
  1  'x, y, z'
loop_
 _atom_site_type_symbol
 _atom_site_label
 _atom_site_symmetry_multiplicity
 _atom_site_fract_x
 _atom_site_fract_y
 _atom_site_fract_z
 _atom_site_occupancy
  Ba  Ba0  1  0.50000000  0.50310766  0.10142666  1
  Ba  Ba1  1  0.50000000  0.50000000  0.30000000  1
  Ba  Ba2  1  0.50000000  0.49689234  0.49857334  1
  Ba  Ba3  1  0.50000000  0.50219186  0.69981524  1
  Ba  Ba4  1  0.50000000  0.49780814  0.90018476  1
  Ba  Ba5  1  0.50000000  0.00310766  0.99857334  1
  Ba  Ba6  1  0.50000000  0.00219186  0.40018476  1
  Ba  Ba7  1  0.50000000  0.99689234  0.60142666  1
  Ba  Ba8  1  0.50000000  0.99780814  0.19981524  1
  Ba  Ba9  1  0.50000000  0.00000000  0.80000000  1
  Cu  Cu10  1  0.50000000  0.00445652  0.09882416  1
  Cu  Cu11  1  0.50000000  0.50445652  0.00117584  1
  Cu  Cu12  1  0.50000000  0.00000000  0.30000000  1
  Cu  Cu13  1  0.50000000  0.49573669  0.20096522  1
  Cu  Cu14  1  0.50000000  0.99554348  0.50117584  1
  Cu  Cu15  1  0.50000000  0.49554348  0.59882416  1
  Cu  Cu16  1  0.50000000  0.00426331  0.70096522  1
  Cu  Cu17  1  0.50000000  0.50426331  0.39903478  1
  Cu  Cu18  1  0.50000000  0.50000000  0.80000000  1
  Cu  Cu19  1  0.50000000  0.99573669  0.89903478  1
  Nd  Nd20  1  0.00000000  0.32589514  0.03437274  1
  Nd  Nd21  1  0.00000000  0.17634447  0.13550144  1
  Nd  Nd22  1  0.00000000  0.82589514  0.06562726  1
  Nd  Nd23  1  0.00000000  0.32923615  0.23458045  1
  Nd  Nd24  1  0.00000000  0.17380702  0.33512467  1
  Nd  Nd25  1  0.00000000  0.82619298  0.26487533  1
  Nd  Nd26  1  0.00000000  0.67076385  0.36541955  1
  Nd  Nd27  1  0.00000000  0.82365553  0.46449856  1
  Nd  Nd28  1  0.00000000  0.32365553  0.63550144  1
  Nd  Nd29  1  0.00000000  0.67410486  0.56562726  1
  Nd  Nd30  1  0.00000000  0.17076385  0.73458045  1
  Nd  Nd31  1  0.00000000  0.32619298  0.83512467  1
  Nd  Nd32  1  0.00000000  0.67380702  0.76487533  1
  Nd  Nd33  1  0.00000000  0.82923615  0.86541955  1
  Nd  Nd34  1  0.00000000  0.67634447  0.96449856  1
  Nd  Nd35  1  0.00000000  0.17410486  0.53437274  1
  O  O36  1  0.00000000  0.99204372  0.00227215  1
  O  O37  1  0.00000000  0.00847623  0.20125066  1
  O  O38  1  0.00000000  0.99152377  0.39874934  1
  O  O39  1  0.00000000  0.50000000  0.30000000  1
  O  O40  1  0.00000000  0.50795628  0.50227215  1
  O  O41  1  0.00000000  0.00795628  0.59772785  1
  O  O42  1  0.00000000  0.00000000  0.80000000  1
  O  O43  1  0.00000000  0.49152377  0.70125066  1
  O  O44  1  0.00000000  0.50847623  0.89874934  1
  O  O45  1  0.26337154  0.87130567  0.12545027  1
  O  O46  1  0.26241302  0.63873436  0.02798238  1
  O  O47  1  0.25782065  0.86255155  0.32701233  1
  O  O48  1  0.26241302  0.86126564  0.52798238  1
  O  O49  1  0.26470666  0.64591155  0.42672169  1
  O  O50  1  0.26470666  0.85408845  0.92672169  1
  O  O51  1  0.26470666  0.35408845  0.17327831  1
  O  O52  1  0.26347596  0.63189400  0.22935544  1
  O  O53  1  0.26347596  0.86810600  0.72935544  1
  O  O54  1  0.26337154  0.62869433  0.62545027  1
  O  O55  1  0.26347596  0.36810600  0.37064456  1
  O  O56  1  0.25782065  0.63744845  0.82701233  1
  O  O57  1  0.25782065  0.13744845  0.27298767  1
  O  O58  1  0.26241302  0.36126564  0.57201762  1
  O  O59  1  0.26241302  0.13873436  0.07201762  1
  O  O60  1  0.25782065  0.36255155  0.77298767  1
  O  O61  1  0.26337154  0.12869433  0.47454973  1
  O  O62  1  0.26470666  0.14591155  0.67327831  1
  O  O63  1  0.26337154  0.37130567  0.97454973  1
  O  O64  1  0.26347596  0.13189400  0.87064456  1
  O  O65  1  0.73529334  0.35408845  0.17327831  1
  O  O66  1  0.73662846  0.87130567  0.12545027  1
  O  O67  1  0.73758698  0.13873436  0.07201762  1
  O  O68  1  0.73652404  0.36810600  0.37064456  1
  O  O69  1  0.73758698  0.36126564  0.57201762  1
  O  O70  1  0.73758698  0.63873436  0.02798238  1
  O  O71  1  0.73652404  0.63189400  0.22935544  1
  O  O72  1  0.74217935  0.86255155  0.32701233  1
  O  O73  1  0.73758698  0.86126564  0.52798238  1
  O  O74  1  0.73652404  0.86810600  0.72935544  1
  O  O75  1  0.74217935  0.13744845  0.27298767  1
  O  O76  1  0.73662846  0.12869433  0.47454973  1
  O  O77  1  0.73529334  0.14591155  0.67327831  1
  O  O78  1  0.74217935  0.36255155  0.77298767  1
  O  O79  1  0.73662846  0.37130567  0.97454973  1
  O  O80  1  0.73529334  0.64591155  0.42672169  1
  O  O81  1  0.73662846  0.62869433  0.62545027  1
  O  O82  1  0.73529334  0.85408845  0.92672169  1
  O  O83  1  0.73652404  0.13189400  0.87064456  1
  O  O84  1  0.74217935  0.63744845  0.82701233  1
  O  O85  1  0.00000000  0.49204372  0.09772785  1
  Sr  Sr86  1  0.00000000  0.67381885  0.16566406  1
  Sr  Sr87  1  0.00000000  0.32618115  0.43433594  1
  Sr  Sr88  1  0.00000000  0.82618115  0.66566406  1
  Sr  Sr89  1  0.00000000  0.17381885  0.93433594  1
