# generated using pymatgen
data_Pr2SiTeO4
_symmetry_space_group_name_H-M   'P 1'
_cell_length_a   6.52553208
_cell_length_b   8.83588150
_cell_length_c   10.01812445
_cell_angle_alpha   85.19682288
_cell_angle_beta   90.00000000
_cell_angle_gamma   90.00000000
_symmetry_Int_Tables_number   1
_chemical_formula_structural   Pr2SiTeO4
_chemical_formula_sum   'Pr8 Si4 Te4 O16'
_cell_volume   575.60479375
_cell_formula_units_Z   4
loop_
 _symmetry_equiv_pos_site_id
 _symmetry_equiv_pos_as_xyz
  1  'x, y, z'
loop_
 _atom_site_type_symbol
 _atom_site_label
 _atom_site_symmetry_multiplicity
 _atom_site_fract_x
 _atom_site_fract_y
 _atom_site_fract_z
 _atom_site_occupancy
  Pr  Pr0  1  0.69533868  0.33464520  0.15260665  1
  Pr  Pr1  1  0.19533868  0.16535480  0.84739335  1
  Pr  Pr2  1  0.30466132  0.66535480  0.84739335  1
  Pr  Pr3  1  0.80466132  0.83464520  0.15260665  1
  Pr  Pr4  1  0.15209935  0.19403282  0.39490563  1
  Pr  Pr5  1  0.65209935  0.30596718  0.60509437  1
  Pr  Pr6  1  0.84790065  0.80596718  0.60509437  1
  Pr  Pr7  1  0.34790065  0.69403282  0.39490563  1
  Te  Te8  1  0.21288907  0.38422236  0.09389301  1
  Te  Te9  1  0.71288907  0.11577764  0.90610699  1
  Te  Te10  1  0.78711093  0.61577764  0.90610699  1
  Te  Te11  1  0.28711093  0.88422236  0.09389301  1
  Si  Si12  1  0.69026616  0.05653819  0.37383659  1
  Si  Si13  1  0.19026616  0.44346181  0.62616341  1
  Si  Si14  1  0.30973384  0.94346181  0.62616341  1
  Si  Si15  1  0.80973384  0.55653819  0.37383659  1
  O  O16  1  0.30647628  0.42163949  0.48285180  1
  O  O17  1  0.80647628  0.07836051  0.51714820  1
  O  O18  1  0.69352372  0.57836051  0.51714820  1
  O  O19  1  0.19352372  0.92163949  0.48285180  1
  O  O20  1  0.86672523  0.37614683  0.37387348  1
  O  O21  1  0.36672523  0.12385317  0.62612652  1
  O  O22  1  0.13327477  0.62385317  0.62612652  1
  O  O23  1  0.63327477  0.87614683  0.37387348  1
  O  O24  1  0.51032227  0.18282534  0.34442805  1
  O  O25  1  0.01032227  0.31717466  0.65557195  1
  O  O26  1  0.48967773  0.81717466  0.65557195  1
  O  O27  1  0.98967773  0.68282534  0.34442805  1
  O  O28  1  0.85872332  0.09017022  0.25097159  1
  O  O29  1  0.35872332  0.40982978  0.74902841  1
  O  O30  1  0.14127668  0.90982978  0.74902841  1
  O  O31  1  0.64127668  0.59017022  0.25097159  1
