# generated using pymatgen
data_Sr3NiRhO6
_symmetry_space_group_name_H-M   'P 1'
_cell_length_a   6.72448870
_cell_length_b   6.72448795
_cell_length_c   6.72448867
_cell_angle_alpha   92.15806510
_cell_angle_beta   92.15806502
_cell_angle_gamma   92.15806718
_symmetry_Int_Tables_number   1
_chemical_formula_structural   Sr3NiRhO6
_chemical_formula_sum   'Sr6 Ni2 Rh2 O12'
_cell_volume   303.40919869
_cell_formula_units_Z   2
loop_
 _symmetry_equiv_pos_site_id
 _symmetry_equiv_pos_as_xyz
  1  'x, y, z'
loop_
 _atom_site_type_symbol
 _atom_site_label
 _atom_site_symmetry_multiplicity
 _atom_site_fract_x
 _atom_site_fract_y
 _atom_site_fract_z
 _atom_site_occupancy
  Rh  Rh0  1  0.00000000  0.00000000  0.00000000  1
  Rh  Rh1  1  0.50000000  0.50000000  0.50000000  1
  Sr  Sr2  1  0.61513177  0.88486823  0.25000000  1
  Sr  Sr3  1  0.25000000  0.61513177  0.88486823  1
  Sr  Sr4  1  0.88486823  0.25000000  0.61513177  1
  Sr  Sr5  1  0.38486823  0.11513177  0.75000000  1
  Sr  Sr6  1  0.75000000  0.38486823  0.11513177  1
  Sr  Sr7  1  0.11513177  0.75000000  0.38486823  1
  Ni  Ni8  1  0.25000000  0.25000000  0.25000000  1
  Ni  Ni9  1  0.75000000  0.75000000  0.75000000  1
  O  O10  1  0.28819589  0.96377776  0.08938271  1
  O  O11  1  0.08938271  0.28819589  0.96377776  1
  O  O12  1  0.96377776  0.08938271  0.28819589  1
  O  O13  1  0.53622224  0.21180411  0.41061729  1
  O  O14  1  0.41061729  0.53622224  0.21180411  1
  O  O15  1  0.21180411  0.41061729  0.53622224  1
  O  O16  1  0.71180411  0.03622224  0.91061729  1
  O  O17  1  0.91061729  0.71180411  0.03622224  1
  O  O18  1  0.03622224  0.91061729  0.71180411  1
  O  O19  1  0.46377776  0.78819589  0.58938271  1
  O  O20  1  0.58938271  0.46377776  0.78819589  1
  O  O21  1  0.78819589  0.58938271  0.46377776  1
