# generated using pymatgen
data_Rb2V4O9
_symmetry_space_group_name_H-M   'P 1'
_cell_length_a   5.78066336
_cell_length_b   5.78066336
_cell_length_c   15.24357084
_cell_angle_alpha   90.00000000
_cell_angle_beta   90.00000000
_cell_angle_gamma   90.00000000
_symmetry_Int_Tables_number   1
_chemical_formula_structural   Rb2V4O9
_chemical_formula_sum   'Rb4 V8 O18'
_cell_volume   509.38021319
_cell_formula_units_Z   2
loop_
 _symmetry_equiv_pos_site_id
 _symmetry_equiv_pos_as_xyz
  1  'x, y, z'
loop_
 _atom_site_type_symbol
 _atom_site_label
 _atom_site_symmetry_multiplicity
 _atom_site_fract_x
 _atom_site_fract_y
 _atom_site_fract_z
 _atom_site_occupancy
  Rb  Rb0  1  0.26521031  0.24398675  0.50000000  1
  Rb  Rb1  1  0.75601325  0.26521031  0.00000000  1
  Rb  Rb2  1  0.24398675  0.73478969  0.00000000  1
  Rb  Rb3  1  0.73478969  0.75601325  0.50000000  1
  V  V4  1  0.28676164  0.14886573  0.20042849  1
  V  V5  1  0.85113427  0.28676164  0.70042849  1
  V  V6  1  0.14886573  0.71323836  0.70042849  1
  V  V7  1  0.71323836  0.85113427  0.20042849  1
  V  V8  1  0.71323836  0.85113427  0.79957151  1
  V  V9  1  0.14886573  0.71323836  0.29957151  1
  V  V10  1  0.85113427  0.28676164  0.29957151  1
  V  V11  1  0.28676164  0.14886573  0.79957151  1
  O  O12  1  0.00000000  0.00000000  0.25000000  1
  O  O13  1  0.00000000  0.00000000  0.75000000  1
  O  O14  1  0.22788315  0.22984141  0.09758709  1
  O  O15  1  0.77015859  0.22788315  0.59758709  1
  O  O16  1  0.22984141  0.77211685  0.59758709  1
  O  O17  1  0.77211685  0.77015859  0.09758709  1
  O  O18  1  0.77211685  0.77015859  0.90241291  1
  O  O19  1  0.22984141  0.77211685  0.40241291  1
  O  O20  1  0.77015859  0.22788315  0.40241291  1
  O  O21  1  0.22788315  0.22984141  0.90241291  1
  O  O22  1  0.18278442  0.37837216  0.28682388  1
  O  O23  1  0.62162784  0.18278442  0.78682388  1
  O  O24  1  0.37837216  0.81721558  0.78682388  1
  O  O25  1  0.81721558  0.62162784  0.28682388  1
  O  O26  1  0.81721558  0.62162784  0.71317612  1
  O  O27  1  0.37837216  0.81721558  0.21317612  1
  O  O28  1  0.62162784  0.18278442  0.21317612  1
  O  O29  1  0.18278442  0.37837216  0.71317612  1
