# generated using pymatgen
data_Er3Si3O10F
_symmetry_space_group_name_H-M   'P 1'
_cell_length_a   7.34041164
_cell_length_b   10.40298030
_cell_length_c   11.17641994
_cell_angle_alpha   90.00000000
_cell_angle_beta   90.00000000
_cell_angle_gamma   97.31783333
_symmetry_Int_Tables_number   1
_chemical_formula_structural   Er3Si3O10F
_chemical_formula_sum   'Er12 Si12 O40 F4'
_cell_volume   846.50401446
_cell_formula_units_Z   4
loop_
 _symmetry_equiv_pos_site_id
 _symmetry_equiv_pos_as_xyz
  1  'x, y, z'
loop_
 _atom_site_type_symbol
 _atom_site_label
 _atom_site_symmetry_multiplicity
 _atom_site_fract_x
 _atom_site_fract_y
 _atom_site_fract_z
 _atom_site_occupancy
  Er  Er0  1  0.69809191  0.50304696  0.59823112  1
  Er  Er1  1  0.80190809  0.99695304  0.09823112  1
  Er  Er2  1  0.30190809  0.49695304  0.40176888  1
  Er  Er3  1  0.19809191  0.00304696  0.90176888  1
  Er  Er4  1  0.59377408  0.18897519  0.72931406  1
  Er  Er5  1  0.90622592  0.31102481  0.22931406  1
  Er  Er6  1  0.40622592  0.81102481  0.27068594  1
  Er  Er7  1  0.09377408  0.68897519  0.77068594  1
  Er  Er8  1  0.73739219  0.48221508  0.96864365  1
  Er  Er9  1  0.76260781  0.01778492  0.46864365  1
  Er  Er10  1  0.26260781  0.51778492  0.03135635  1
  Er  Er11  1  0.23739219  0.98221508  0.53135635  1
  F  F12  1  0.80322965  0.55986333  0.78519013  1
  F  F13  1  0.69677035  0.94013667  0.28519013  1
  F  F14  1  0.19677035  0.44013667  0.21480987  1
  F  F15  1  0.30322965  0.05986333  0.71480987  1
  Si  Si16  1  0.97486340  0.25921927  0.91406623  1
  Si  Si17  1  0.52513660  0.24078073  0.41406623  1
  Si  Si18  1  0.02513660  0.74078073  0.08593377  1
  Si  Si19  1  0.47486340  0.75921927  0.58593377  1
  Si  Si20  1  0.76811068  0.89020440  0.75559062  1
  Si  Si21  1  0.73188932  0.60979560  0.25559062  1
  Si  Si22  1  0.23188932  0.10979560  0.24440938  1
  Si  Si23  1  0.26811068  0.39020440  0.74440938  1
  Si  Si24  1  0.50572098  0.79141199  0.96351248  1
  Si  Si25  1  0.99427902  0.70858801  0.46351248  1
  Si  Si26  1  0.49427902  0.20858801  0.03648752  1
  Si  Si27  1  0.00572098  0.29141199  0.53648752  1
  O  O28  1  0.98676792  0.63680543  0.97448046  1
  O  O29  1  0.51323208  0.86319457  0.47448046  1
  O  O30  1  0.01323208  0.36319457  0.02551954  1
  O  O31  1  0.48676792  0.13680543  0.52551954  1
  O  O32  1  0.95864037  0.10681422  0.94962899  1
  O  O33  1  0.54135963  0.39318578  0.44962899  1
  O  O34  1  0.04135963  0.89318578  0.05037101  1
  O  O35  1  0.45864037  0.60681422  0.55037101  1
  O  O36  1  0.78854876  0.30325359  0.85700663  1
  O  O37  1  0.71145124  0.19674641  0.35700663  1
  O  O38  1  0.21145124  0.69674641  0.14299337  1
  O  O39  1  0.28854876  0.80325359  0.64299337  1
  O  O40  1  0.65528628  0.76881905  0.67806939  1
  O  O41  1  0.84471372  0.73118095  0.17806939  1
  O  O42  1  0.34471372  0.23118095  0.32193061  1
  O  O43  1  0.15528628  0.26881905  0.82193061  1
  O  O44  1  0.73108017  0.01876915  0.68073000  1
  O  O45  1  0.76891983  0.48123085  0.18073000  1
  O  O46  1  0.26891983  0.98123085  0.31927000  1
  O  O47  1  0.23108017  0.51876915  0.81927000  1
  O  O48  1  0.98595510  0.87978098  0.77358269  1
  O  O49  1  0.51404490  0.62021902  0.27358269  1
  O  O50  1  0.01404490  0.12021902  0.22641731  1
  O  O51  1  0.48595510  0.37978098  0.72641731  1
  O  O52  1  0.68235163  0.87761210  0.89290197  1
  O  O53  1  0.81764837  0.62238790  0.39290197  1
  O  O54  1  0.31764837  0.12238790  0.10709803  1
  O  O55  1  0.18235163  0.37761210  0.60709803  1
  O  O56  1  0.81325210  0.30873057  0.60507159  1
  O  O57  1  0.68674790  0.19126943  0.10507159  1
  O  O58  1  0.18674790  0.69126943  0.39492841  1
  O  O59  1  0.31325210  0.80873057  0.89492841  1
  O  O60  1  0.53402810  0.63728252  0.97882422  1
  O  O61  1  0.96597190  0.86271748  0.47882422  1
  O  O62  1  0.46597190  0.36271748  0.02117578  1
  O  O63  1  0.03402810  0.13728252  0.52117578  1
  O  O64  1  0.97375274  0.62867397  0.59064485  1
  O  O65  1  0.52624726  0.87132603  0.09064485  1
  O  O66  1  0.02624726  0.37132603  0.40935515  1
  O  O67  1  0.47375274  0.12867397  0.90935515  1
