# generated using pymatgen
data_CoH12(BrO3)2
_symmetry_space_group_name_H-M   'P 1'
_cell_length_a   6.58466940
_cell_length_b   6.58467043
_cell_length_c   7.01165626
_cell_angle_alpha   116.46114242
_cell_angle_beta   96.91856756
_cell_angle_gamma   113.40605394
_symmetry_Int_Tables_number   1
_chemical_formula_structural   CoH12(BrO3)2
_chemical_formula_sum   'Co1 H12 Br2 O6'
_cell_volume   232.81942107
_cell_formula_units_Z   1
loop_
 _symmetry_equiv_pos_site_id
 _symmetry_equiv_pos_as_xyz
  1  'x, y, z'
loop_
 _atom_site_type_symbol
 _atom_site_label
 _atom_site_symmetry_multiplicity
 _atom_site_fract_x
 _atom_site_fract_y
 _atom_site_fract_z
 _atom_site_occupancy
  Co  Co0  1  0.00000000  0.00000000  0.00000000  1
  Br  Br1  1  0.28414214  0.87205001  0.15619215  1
  Br  Br2  1  0.71585786  0.12794999  0.84380785  1
  O  O3  1  0.24138525  0.40029219  0.24057185  1
  O  O4  1  0.15972034  0.00081340  0.75942815  1
  O  O5  1  0.75861475  0.59970781  0.75942815  1
  O  O6  1  0.84027966  0.99918660  0.24057185  1
  O  O7  1  0.28935216  0.41470637  0.70405853  1
  O  O8  1  0.71064784  0.58529363  0.29594147  1
  H  H9  1  0.41309394  0.46052617  0.26508533  1
  H  H10  1  0.19544084  0.14800861  0.73491467  1
  H  H11  1  0.58690606  0.53947383  0.73491467  1
  H  H12  1  0.80455916  0.85199139  0.26508533  1
  H  H13  1  0.21245331  0.52276300  0.21276547  1
  H  H14  1  0.30999753  0.99968784  0.78723453  1
  H  H15  1  0.78754669  0.47723700  0.78723453  1
  H  H16  1  0.69000247  0.00031216  0.21276547  1
  H  H17  1  0.26996681  0.55354302  0.82350984  1
  H  H18  1  0.73003319  0.44645698  0.17649016  1
  H  H19  1  0.19222960  0.36292366  0.55515326  1
  H  H20  1  0.80777040  0.63707634  0.44484674  1
