# generated using pymatgen
data_Yb2PbAu2
_symmetry_space_group_name_H-M   'P 1'
_cell_length_a   7.31990025
_cell_length_b   8.18857859
_cell_length_c   8.18857859
_cell_angle_alpha   90.00000000
_cell_angle_beta   90.00000000
_cell_angle_gamma   90.00000000
_symmetry_Int_Tables_number   1
_chemical_formula_structural   Yb2PbAu2
_chemical_formula_sum   'Yb8 Pb4 Au8'
_cell_volume   490.81994894
_cell_formula_units_Z   4
loop_
 _symmetry_equiv_pos_site_id
 _symmetry_equiv_pos_as_xyz
  1  'x, y, z'
loop_
 _atom_site_type_symbol
 _atom_site_label
 _atom_site_symmetry_multiplicity
 _atom_site_fract_x
 _atom_site_fract_y
 _atom_site_fract_z
 _atom_site_occupancy
  Yb  Yb0  1  0.00000000  0.32080062  0.67919938  1
  Yb  Yb1  1  0.50000000  0.82080062  0.82080062  1
  Yb  Yb2  1  0.50000000  0.17919938  0.17919938  1
  Yb  Yb3  1  0.00000000  0.67919938  0.32080062  1
  Yb  Yb4  1  0.00000000  0.16508285  0.16508285  1
  Yb  Yb5  1  0.50000000  0.33491715  0.66508285  1
  Yb  Yb6  1  0.50000000  0.66508285  0.33491715  1
  Yb  Yb7  1  0.00000000  0.83491715  0.83491715  1
  Au  Au8  1  0.23606933  0.37588032  0.37588032  1
  Au  Au9  1  0.73606933  0.12411968  0.87588032  1
  Au  Au10  1  0.73606933  0.87588032  0.12411968  1
  Au  Au11  1  0.23606933  0.62411968  0.62411968  1
  Au  Au12  1  0.26393067  0.87588032  0.12411968  1
  Au  Au13  1  0.26393067  0.12411968  0.87588032  1
  Au  Au14  1  0.76393067  0.37588032  0.37588032  1
  Au  Au15  1  0.76393067  0.62411968  0.62411968  1
  Pb  Pb16  1  0.25000000  0.00000000  0.50000000  1
  Pb  Pb17  1  0.75000000  0.00000000  0.50000000  1
  Pb  Pb18  1  0.25000000  0.50000000  0.00000000  1
  Pb  Pb19  1  0.75000000  0.50000000  0.00000000  1
