# generated using pymatgen
data_CoNiH24(SO10)2
_symmetry_space_group_name_H-M   'P 1'
_cell_length_a   6.20838141
_cell_length_b   6.20838145
_cell_length_c   24.60047935
_cell_angle_alpha   81.68854029
_cell_angle_beta   81.68854023
_cell_angle_gamma   71.03555104
_symmetry_Int_Tables_number   1
_chemical_formula_structural   CoNiH24(SO10)2
_chemical_formula_sum   'Co2 Ni2 H48 S4 O40'
_cell_volume   882.47749376
_cell_formula_units_Z   2
loop_
 _symmetry_equiv_pos_site_id
 _symmetry_equiv_pos_as_xyz
  1  'x, y, z'
loop_
 _atom_site_type_symbol
 _atom_site_label
 _atom_site_symmetry_multiplicity
 _atom_site_fract_x
 _atom_site_fract_y
 _atom_site_fract_z
 _atom_site_occupancy
  Co  Co0  1  0.00000000  0.00000000  0.50000000  1
  Co  Co1  1  0.00000000  0.00000000  0.00000000  1
  Ni  Ni2  1  0.94885258  0.05114742  0.75000000  1
  Ni  Ni3  1  0.05114742  0.94885258  0.25000000  1
  S  S4  1  0.58172333  0.67679771  0.62392472  1
  S  S5  1  0.32320229  0.41827667  0.87607528  1
  S  S6  1  0.41827667  0.32320229  0.37607528  1
  S  S7  1  0.67679771  0.58172333  0.12392472  1
  O  O8  1  0.45884518  0.56984447  0.67080459  1
  O  O9  1  0.43015553  0.54115482  0.82919541  1
  O  O10  1  0.54115482  0.43015553  0.32919541  1
  O  O11  1  0.56984447  0.45884518  0.17080459  1
  O  O12  1  0.82614267  0.62323164  0.63454794  1
  O  O13  1  0.37676836  0.17385733  0.86545206  1
  O  O14  1  0.17385733  0.37676836  0.36545206  1
  O  O15  1  0.62323164  0.82614267  0.13454794  1
  O  O16  1  0.46954614  0.93078866  0.61717220  1
  O  O17  1  0.06921134  0.53045386  0.88282780  1
  O  O18  1  0.53045386  0.06921134  0.38282780  1
  O  O19  1  0.93078866  0.46954614  0.11717220  1
  O  O20  1  0.57661256  0.58524485  0.57103161  1
  O  O21  1  0.41475515  0.42338744  0.92896839  1
  O  O22  1  0.42338744  0.41475515  0.42896839  1
  O  O23  1  0.58524485  0.57661256  0.07103161  1
  O  O24  1  0.24494345  0.13615358  0.52016014  1
  O  O25  1  0.86384642  0.75505655  0.97983986  1
  O  O26  1  0.75505655  0.86384642  0.47983986  1
  O  O27  1  0.13615358  0.24494345  0.02016014  1
  O  O28  1  0.13725739  0.67467689  0.54440399  1
  O  O29  1  0.32532311  0.86274261  0.95559601  1
  O  O30  1  0.86274261  0.32532311  0.45559601  1
  O  O31  1  0.67467689  0.13725739  0.04440399  1
  O  O32  1  0.20025135  0.86999323  0.42987827  1
  O  O33  1  0.13000677  0.79974865  0.07012173  1
  O  O34  1  0.79974865  0.13000677  0.57012173  1
  O  O35  1  0.86999323  0.20025135  0.92987827  1
  O  O36  1  0.09891579  0.19783516  0.68036854  1
  O  O37  1  0.80216484  0.90108421  0.81963146  1
  O  O38  1  0.90108421  0.80216484  0.31963146  1
  O  O39  1  0.19783516  0.09891579  0.18036854  1
  O  O40  1  0.63984614  0.12880195  0.71707150  1
  O  O41  1  0.87119805  0.36015386  0.78292850  1
  O  O42  1  0.36015386  0.87119805  0.28292850  1
  O  O43  1  0.12880195  0.63984614  0.21707150  1
  O  O44  1  0.03182913  0.72810783  0.71889571  1
  O  O45  1  0.27189217  0.96817087  0.78110429  1
  O  O46  1  0.96817087  0.27189217  0.28110429  1
  O  O47  1  0.72810783  0.03182913  0.21889571  1
  H  H48  1  0.34288880  0.06651353  0.55010600  1
  H  H49  1  0.93348647  0.65711120  0.94989400  1
  H  H50  1  0.65711120  0.93348647  0.44989400  1
  H  H51  1  0.06651353  0.34288880  0.05010600  1
  H  H52  1  0.30137560  0.25241568  0.49671210  1
  H  H53  1  0.74758432  0.69862440  0.00328790  1
  H  H54  1  0.69862440  0.74758432  0.50328790  1
  H  H55  1  0.25241568  0.30137560  0.99671210  1
  H  H56  1  0.29237161  0.63962152  0.55604056  1
  H  H57  1  0.36037848  0.70762839  0.94395944  1
  H  H58  1  0.70762839  0.36037848  0.44395944  1
  H  H59  1  0.63962152  0.29237161  0.05604056  1
  H  H60  1  0.03502122  0.64553791  0.57740351  1
  H  H61  1  0.35446209  0.96497878  0.92259649  1
  H  H62  1  0.96497878  0.35446209  0.42259649  1
  H  H63  1  0.64553791  0.03502122  0.07740351  1
  H  H64  1  0.31572505  0.93835297  0.40952786  1
  H  H65  1  0.06164703  0.68427495  0.09047214  1
  H  H66  1  0.68427495  0.06164703  0.59047214  1
  H  H67  1  0.93835297  0.31572505  0.90952786  1
  H  H68  1  0.27171913  0.70122698  0.43203289  1
  H  H69  1  0.29877302  0.72828087  0.06796711  1
  H  H70  1  0.72828087  0.29877302  0.56796711  1
  H  H71  1  0.70122698  0.27171913  0.93203289  1
  H  H72  1  0.22081270  0.09915918  0.65610493  1
  H  H73  1  0.90084082  0.77918730  0.84389507  1
  H  H74  1  0.77918730  0.90084082  0.34389507  1
  H  H75  1  0.09915918  0.22081270  0.15610493  1
  H  H76  1  0.99997987  0.32484918  0.65755971  1
  H  H77  1  0.67515082  0.00002013  0.84244029  1
  H  H78  1  0.00002013  0.67515082  0.34244029  1
  H  H79  1  0.32484918  0.99997987  0.15755971  1
  H  H80  1  0.56786600  0.28732843  0.70058328  1
  H  H81  1  0.71267157  0.43213400  0.79941672  1
  H  H82  1  0.43213400  0.71267157  0.29941672  1
  H  H83  1  0.28732843  0.56786600  0.20058328  1
  H  H84  1  0.51714673  0.07084266  0.73712555  1
  H  H85  1  0.92915734  0.48285327  0.76287445  1
  H  H86  1  0.48285327  0.92915734  0.26287445  1
  H  H87  1  0.07084266  0.51714673  0.23712555  1
  H  H88  1  0.19293087  0.66984967  0.70135185  1
  H  H89  1  0.33015033  0.80706913  0.79864815  1
  H  H90  1  0.80706913  0.33015033  0.29864815  1
  H  H91  1  0.66984967  0.19293087  0.20135185  1
  H  H92  1  0.93557617  0.73554380  0.68949922  1
  H  H93  1  0.26445620  0.06442383  0.81050078  1
  H  H94  1  0.06442383  0.26445620  0.31050078  1
  H  H95  1  0.73554380  0.93557617  0.18949922  1
