# generated using pymatgen
data_K3Cr(HO)6
_symmetry_space_group_name_H-M   'P 1'
_cell_length_a   7.33470412
_cell_length_b   7.33470310
_cell_length_c   7.33470312
_cell_angle_alpha   95.98466222
_cell_angle_beta   95.98466139
_cell_angle_gamma   95.98465628
_symmetry_Int_Tables_number   1
_chemical_formula_structural   K3Cr(HO)6
_chemical_formula_sum   'K6 Cr2 H12 O12'
_cell_volume   387.64898524
_cell_formula_units_Z   2
loop_
 _symmetry_equiv_pos_site_id
 _symmetry_equiv_pos_as_xyz
  1  'x, y, z'
loop_
 _atom_site_type_symbol
 _atom_site_label
 _atom_site_symmetry_multiplicity
 _atom_site_fract_x
 _atom_site_fract_y
 _atom_site_fract_z
 _atom_site_occupancy
  Cr  Cr0  1  0.00000000  0.00000000  0.00000000  1
  Cr  Cr1  1  0.50000000  0.50000000  0.50000000  1
  K  K2  1  0.63091311  0.86908689  0.25000000  1
  K  K3  1  0.25000000  0.63091311  0.86908689  1
  K  K4  1  0.86908689  0.25000000  0.63091311  1
  K  K5  1  0.36908689  0.13091311  0.75000000  1
  K  K6  1  0.75000000  0.36908689  0.13091311  1
  K  K7  1  0.13091311  0.75000000  0.36908689  1
  O  O8  1  0.40296645  0.54162563  0.23662855  1
  O  O9  1  0.23662855  0.40296645  0.54162563  1
  O  O10  1  0.54162563  0.23662855  0.40296646  1
  O  O11  1  0.95837437  0.09703354  0.26337145  1
  O  O12  1  0.26337145  0.95837437  0.09703355  1
  O  O13  1  0.09703355  0.26337145  0.95837437  1
  O  O14  1  0.59703355  0.45837437  0.76337145  1
  O  O15  1  0.76337145  0.59703355  0.45837437  1
  O  O16  1  0.45837437  0.76337145  0.59703354  1
  O  O17  1  0.04162563  0.90296646  0.73662855  1
  O  O18  1  0.73662855  0.04162563  0.90296645  1
  O  O19  1  0.90296645  0.73662855  0.04162563  1
  H  H20  1  0.61990940  0.58209864  0.82984323  1
  H  H21  1  0.82984323  0.61990940  0.58209864  1
  H  H22  1  0.58209864  0.82984323  0.61990940  1
  H  H23  1  0.91790136  0.88009060  0.67015677  1
  H  H24  1  0.67015677  0.91790136  0.88009060  1
  H  H25  1  0.88009060  0.67015677  0.91790136  1
  H  H26  1  0.38009060  0.41790136  0.17015677  1
  H  H27  1  0.17015677  0.38009060  0.41790136  1
  H  H28  1  0.41790136  0.17015677  0.38009060  1
  H  H29  1  0.08209864  0.11990940  0.32984323  1
  H  H30  1  0.32984323  0.08209864  0.11990940  1
  H  H31  1  0.11990940  0.32984323  0.08209864  1
