# generated using pymatgen
data_Li2ZrF6
_symmetry_space_group_name_H-M   'P 1'
_cell_length_a   5.03586436
_cell_length_b   7.55354352
_cell_length_c   11.15265347
_cell_angle_alpha   107.02428775
_cell_angle_beta   90.00000000
_cell_angle_gamma   90.00000000
_symmetry_Int_Tables_number   1
_chemical_formula_structural   Li2ZrF6
_chemical_formula_sum   'Li8 Zr4 F24'
_cell_volume   405.64203845
_cell_formula_units_Z   4
loop_
 _symmetry_equiv_pos_site_id
 _symmetry_equiv_pos_as_xyz
  1  'x, y, z'
loop_
 _atom_site_type_symbol
 _atom_site_label
 _atom_site_symmetry_multiplicity
 _atom_site_fract_x
 _atom_site_fract_y
 _atom_site_fract_z
 _atom_site_occupancy
  Zr  Zr0  1  0.48729207  0.74611742  0.99903075  1
  Zr  Zr1  1  0.98729207  0.25388258  0.50096925  1
  Zr  Zr2  1  0.51270793  0.25388258  0.00096925  1
  Zr  Zr3  1  0.01270793  0.74611742  0.49903075  1
  F  F4  1  0.81083453  0.54470746  0.57038036  1
  F  F5  1  0.31083453  0.45529254  0.92961964  1
  F  F6  1  0.18916547  0.45529254  0.42961964  1
  F  F7  1  0.68916547  0.54470746  0.07038036  1
  F  F8  1  0.64204625  0.89626947  0.17279911  1
  F  F9  1  0.14204625  0.10373053  0.32720089  1
  F  F10  1  0.35795375  0.10373053  0.82720089  1
  F  F11  1  0.85795375  0.89626947  0.67279911  1
  F  F12  1  0.77676117  0.95227687  0.45360664  1
  F  F13  1  0.27676117  0.04772313  0.04639336  1
  F  F14  1  0.22323883  0.04772313  0.54639336  1
  F  F15  1  0.72323883  0.95227687  0.95360664  1
  F  F16  1  0.78254940  0.59997031  0.34400494  1
  F  F17  1  0.28254940  0.40002969  0.15599506  1
  F  F18  1  0.21745060  0.40002969  0.65599506  1
  F  F19  1  0.71745060  0.59997031  0.84400494  1
  F  F20  1  0.35001724  0.75473885  0.60297528  1
  F  F21  1  0.85001724  0.24526115  0.89702472  1
  F  F22  1  0.64998276  0.24526115  0.39702472  1
  F  F23  1  0.14998276  0.75473885  0.10297528  1
  F  F24  1  0.25148676  0.75110344  0.35071025  1
  F  F25  1  0.75148676  0.24889656  0.14928975  1
  F  F26  1  0.74851324  0.24889656  0.64928975  1
  F  F27  1  0.24851324  0.75110344  0.85071025  1
  Li  Li28  1  0.49304918  0.58964485  0.69320028  1
  Li  Li29  1  0.99304918  0.41035515  0.80679972  1
  Li  Li30  1  0.50695082  0.41035515  0.30679972  1
  Li  Li31  1  0.00695082  0.58964485  0.19320028  1
  Li  Li32  1  0.02627081  0.96163146  0.83683204  1
  Li  Li33  1  0.52627081  0.03836854  0.66316796  1
  Li  Li34  1  0.97372919  0.03836854  0.16316796  1
  Li  Li35  1  0.47372919  0.96163146  0.33683204  1
