# generated using pymatgen
data_KAl2P2H5O11
_symmetry_space_group_name_H-M   'P 1'
_cell_length_a   9.58815313
_cell_length_b   9.58943676
_cell_length_c   9.61899563
_cell_angle_alpha   90.00000000
_cell_angle_beta   103.31656225
_cell_angle_gamma   90.00000000
_symmetry_Int_Tables_number   1
_chemical_formula_structural   KAl2P2H5O11
_chemical_formula_sum   'K4 Al8 P8 H20 O44'
_cell_volume   860.63848911
_cell_formula_units_Z   4
loop_
 _symmetry_equiv_pos_site_id
 _symmetry_equiv_pos_as_xyz
  1  'x, y, z'
loop_
 _atom_site_type_symbol
 _atom_site_label
 _atom_site_symmetry_multiplicity
 _atom_site_fract_x
 _atom_site_fract_y
 _atom_site_fract_z
 _atom_site_occupancy
  K  K0  1  0.52169082  0.20338382  0.90197390  1
  K  K1  1  0.97830918  0.70338382  0.59802610  1
  K  K2  1  0.47830918  0.79661618  0.09802610  1
  K  K3  1  0.02169082  0.29661618  0.40197390  1
  Al  Al4  1  0.38989333  0.54360266  0.37152021  1
  Al  Al5  1  0.11010667  0.04360266  0.12847979  1
  Al  Al6  1  0.61010667  0.45639734  0.62847979  1
  Al  Al7  1  0.88989333  0.95639734  0.87152021  1
  Al  Al8  1  0.60175403  0.22523109  0.30986968  1
  Al  Al9  1  0.89824597  0.72523109  0.19013032  1
  Al  Al10  1  0.39824597  0.77476891  0.69013032  1
  Al  Al11  1  0.10175403  0.27476891  0.80986968  1
  P  P12  1  0.79640735  0.02714181  0.14793541  1
  P  P13  1  0.70359265  0.52714181  0.35206459  1
  P  P14  1  0.20359265  0.97285819  0.85206459  1
  P  P15  1  0.29640735  0.47285819  0.64793541  1
  P  P16  1  0.79093169  0.18565751  0.63247601  1
  P  P17  1  0.70906831  0.68565751  0.86752399  1
  P  P18  1  0.20906831  0.81434249  0.36752399  1
  P  P19  1  0.29093169  0.31434249  0.13247601  1
  O  O20  1  0.94974429  0.08685243  0.20311590  1
  O  O21  1  0.55025571  0.58685243  0.29688410  1
  O  O22  1  0.05025571  0.91314757  0.79688410  1
  O  O23  1  0.44974429  0.41314757  0.70311590  1
  O  O24  1  0.68208584  0.12212691  0.18400838  1
  O  O25  1  0.81791416  0.62212691  0.31599162  1
  O  O26  1  0.31791416  0.87787309  0.81599162  1
  O  O27  1  0.18208584  0.37787309  0.68400838  1
  O  O28  1  0.76071188  0.01106156  0.98228188  1
  O  O29  1  0.73928812  0.51106156  0.51771812  1
  O  O30  1  0.23928812  0.98893844  0.01771812  1
  O  O31  1  0.26071188  0.48893844  0.48228188  1
  O  O32  1  0.71233401  0.38118283  0.28234834  1
  O  O33  1  0.78766599  0.88118283  0.21765166  1
  O  O34  1  0.28766599  0.61881717  0.71765166  1
  O  O35  1  0.21233401  0.11881717  0.78234834  1
  O  O36  1  0.94900414  0.22994376  0.66207110  1
  O  O37  1  0.55099586  0.72994376  0.83792890  1
  O  O38  1  0.05099586  0.77005624  0.33792890  1
  O  O39  1  0.44900414  0.27005624  0.16207110  1
  O  O40  1  0.77998624  0.03923131  0.70240223  1
  O  O41  1  0.72001376  0.53923131  0.79759777  1
  O  O42  1  0.22001376  0.96076869  0.29759777  1
  O  O43  1  0.27998624  0.46076869  0.20240223  1
  O  O44  1  0.69759465  0.28809094  0.69543187  1
  O  O45  1  0.80240535  0.78809094  0.80456813  1
  O  O46  1  0.30240535  0.71190906  0.30456813  1
  O  O47  1  0.19759465  0.21190906  0.19543187  1
  O  O48  1  0.73723376  0.17042789  0.47022774  1
  O  O49  1  0.76276624  0.67042789  0.02977226  1
  O  O50  1  0.26276624  0.82957211  0.52977226  1
  O  O51  1  0.23723376  0.32957211  0.97022774  1
  O  O52  1  0.49853890  0.36359259  0.44396166  1
  O  O53  1  0.00146110  0.86359259  0.05603834  1
  O  O54  1  0.50146110  0.63640741  0.55603834  1
  O  O55  1  0.99853890  0.13640741  0.94396166  1
  O  O56  1  0.49532535  0.06162966  0.34753899  1
  O  O57  1  0.00467465  0.56162966  0.15246101  1
  O  O58  1  0.50467465  0.93837034  0.65246101  1
  O  O59  1  0.99532535  0.43837034  0.84753899  1
  O  O60  1  0.31916386  0.13910726  0.54306083  1
  O  O61  1  0.18083614  0.63910726  0.95693917  1
  O  O62  1  0.68083614  0.86089274  0.45693917  1
  O  O63  1  0.81916386  0.36089274  0.04306083  1
  H  H64  1  0.43176907  0.30021265  0.47702573  1
  H  H65  1  0.06823093  0.80021265  0.02297427  1
  H  H66  1  0.56823093  0.69978735  0.52297427  1
  H  H67  1  0.93176907  0.19978735  0.97702573  1
  H  H68  1  0.55511633  0.98054215  0.39404607  1
  H  H69  1  0.94488367  0.48054215  0.10595393  1
  H  H70  1  0.44488367  0.01945785  0.60595393  1
  H  H71  1  0.05511633  0.51945785  0.89404607  1
  H  H72  1  0.39347425  0.03348431  0.31417976  1
  H  H73  1  0.10652575  0.53348431  0.18582024  1
  H  H74  1  0.60652575  0.96651569  0.68582024  1
  H  H75  1  0.89347425  0.46651569  0.81417976  1
  H  H76  1  0.26786255  0.07942113  0.46422816  1
  H  H77  1  0.23213745  0.57942113  0.03577184  1
  H  H78  1  0.73213745  0.92057887  0.53577184  1
  H  H79  1  0.76786255  0.42057887  0.96422816  1
  H  H80  1  0.26744765  0.13247951  0.62177338  1
  H  H81  1  0.23255235  0.63247951  0.87822662  1
  H  H82  1  0.73255235  0.86752049  0.37822662  1
  H  H83  1  0.76744765  0.36752049  0.12177338  1
