# generated using pymatgen
data_Ba14Na17CaN6
_symmetry_space_group_name_H-M   'P 1'
_cell_length_a   11.17379603
_cell_length_b   12.04399352
_cell_length_c   13.72688480
_cell_angle_alpha   66.68601435
_cell_angle_beta   67.61054621
_cell_angle_gamma   78.80058796
_symmetry_Int_Tables_number   1
_chemical_formula_structural   Ba14Na17CaN6
_chemical_formula_sum   'Ba14 Na17 Ca1 N6'
_cell_volume   1566.54494043
_cell_formula_units_Z   1
loop_
 _symmetry_equiv_pos_site_id
 _symmetry_equiv_pos_as_xyz
  1  'x, y, z'
loop_
 _atom_site_type_symbol
 _atom_site_label
 _atom_site_symmetry_multiplicity
 _atom_site_fract_x
 _atom_site_fract_y
 _atom_site_fract_z
 _atom_site_occupancy
  Ba  Ba0  1  0.36922758  0.77910990  0.44566263  1
  Ba  Ba1  1  0.63077242  0.22089010  0.55433737  1
  Ba  Ba2  1  0.27638777  0.30901520  0.69651790  1
  Ba  Ba3  1  0.72361223  0.69098480  0.30348210  1
  Ba  Ba4  1  0.26263450  0.52082559  0.40571154  1
  Ba  Ba5  1  0.73736550  0.47917441  0.59428846  1
  Ba  Ba6  1  0.38476935  0.56886769  0.73358386  1
  Ba  Ba7  1  0.61523065  0.43113231  0.26641614  1
  Ba  Ba8  1  0.34192613  0.16245816  0.45656657  1
  Ba  Ba9  1  0.65807387  0.83754184  0.54343343  1
  Ba  Ba10  1  0.47629829  0.78870919  0.11932021  1
  Ba  Ba11  1  0.52370171  0.21129081  0.88067979  1
  Ba  Ba12  1  0.03016050  0.61820679  0.67768440  1
  Ba  Ba13  1  0.96983950  0.38179321  0.32231560  1
  Ca  Ca14  1  0.50000000  0.50000000  0.50000000  1
  Na  Na15  1  0.00000000  0.00000000  0.50000000  1
  Na  Na16  1  0.23658347  0.09581677  0.20904559  1
  Na  Na17  1  0.76341653  0.90418323  0.79095441  1
  Na  Na18  1  0.63057643  0.59885903  0.89460057  1
  Na  Na19  1  0.36942357  0.40114097  0.10539943  1
  Na  Na20  1  0.04035607  0.81550014  0.31115750  1
  Na  Na21  1  0.95964393  0.18449986  0.68884250  1
  Na  Na22  1  0.13611252  0.89264503  0.75418876  1
  Na  Na23  1  0.86388748  0.10735497  0.24581124  1
  Na  Na24  1  0.58713641  0.08617555  0.18679973  1
  Na  Na25  1  0.41286359  0.91382445  0.81320027  1
  Na  Na26  1  0.90480739  0.64508091  0.98446311  1
  Na  Na27  1  0.09519261  0.35491909  0.01553689  1
  Na  Na28  1  0.85215139  0.97163349  0.99162568  1
  Na  Na29  1  0.14784861  0.02836651  0.00837432  1
  Na  Na30  1  0.16906949  0.68937624  0.05595520  1
  Na  Na31  1  0.83093051  0.31062376  0.94404480  1
  N  N32  1  0.48818935  0.64195703  0.30688838  1
  N  N33  1  0.51181065  0.35804297  0.69311162  1
  N  N34  1  0.42640626  0.32714225  0.47603914  1
  N  N35  1  0.57359374  0.67285775  0.52396086  1
  N  N36  1  0.73660000  0.44108618  0.40672643  1
  N  N37  1  0.26340000  0.55891382  0.59327357  1
