# generated using pymatgen
data_MnVSbO6
_symmetry_space_group_name_H-M   'P 1'
_cell_length_a   4.73605726
_cell_length_b   5.03374961
_cell_length_c   17.45611012
_cell_angle_alpha   90.00000000
_cell_angle_beta   90.00000000
_cell_angle_gamma   90.00000000
_symmetry_Int_Tables_number   1
_chemical_formula_structural   MnVSbO6
_chemical_formula_sum   'Mn4 V4 Sb4 O24'
_cell_volume   416.15587146
_cell_formula_units_Z   4
loop_
 _symmetry_equiv_pos_site_id
 _symmetry_equiv_pos_as_xyz
  1  'x, y, z'
loop_
 _atom_site_type_symbol
 _atom_site_label
 _atom_site_symmetry_multiplicity
 _atom_site_fract_x
 _atom_site_fract_y
 _atom_site_fract_z
 _atom_site_occupancy
  Mn  Mn0  1  0.50000000  0.25000000  0.94164815  1
  Mn  Mn1  1  0.50000000  0.75000000  0.05835185  1
  Mn  Mn2  1  0.00000000  0.75000000  0.55835185  1
  Mn  Mn3  1  0.00000000  0.25000000  0.44164815  1
  V  V4  1  0.00000000  0.25000000  0.10260010  1
  V  V5  1  0.50000000  0.75000000  0.39739990  1
  V  V6  1  0.00000000  0.75000000  0.89739990  1
  V  V7  1  0.50000000  0.25000000  0.60260010  1
  Sb  Sb8  1  0.00000000  0.75000000  0.21895079  1
  Sb  Sb9  1  0.00000000  0.25000000  0.78104921  1
  Sb  Sb10  1  0.50000000  0.25000000  0.28104921  1
  Sb  Sb11  1  0.50000000  0.75000000  0.71895079  1
  O  O12  1  0.24424982  0.42437893  0.20473425  1
  O  O13  1  0.74424982  0.07562107  0.70473425  1
  O  O14  1  0.79626835  0.55766048  0.13360555  1
  O  O15  1  0.70373165  0.05766048  0.36639445  1
  O  O16  1  0.75575018  0.57562107  0.79526575  1
  O  O17  1  0.20373165  0.94233952  0.13360555  1
  O  O18  1  0.70373165  0.55766048  0.63360555  1
  O  O19  1  0.29626835  0.94233952  0.63360555  1
  O  O20  1  0.74926735  0.61219688  0.95678681  1
  O  O21  1  0.75073265  0.11219688  0.54321319  1
  O  O22  1  0.25073265  0.38780312  0.04321319  1
  O  O23  1  0.25073265  0.88780312  0.95678681  1
  O  O24  1  0.75073265  0.61219688  0.45678681  1
  O  O25  1  0.20373165  0.44233952  0.86639445  1
  O  O26  1  0.29626835  0.44233952  0.36639445  1
  O  O27  1  0.74926735  0.11219688  0.04321319  1
  O  O28  1  0.25575018  0.92437893  0.29526575  1
  O  O29  1  0.24424982  0.92437893  0.79526575  1
  O  O30  1  0.24926735  0.88780312  0.45678681  1
  O  O31  1  0.79626835  0.05766048  0.86639445  1
  O  O32  1  0.24926735  0.38780312  0.54321319  1
  O  O33  1  0.75575018  0.07562107  0.20473425  1
  O  O34  1  0.74424982  0.57562107  0.29526575  1
  O  O35  1  0.25575018  0.42437893  0.70473425  1
