# generated using pymatgen
data_Li2BeSiO4
_symmetry_space_group_name_H-M   'P 1'
_cell_length_a   4.91562051
_cell_length_b   4.91562050
_cell_length_c   6.18091965
_cell_angle_alpha   90.00000000
_cell_angle_beta   90.00000000
_cell_angle_gamma   90.51835753
_symmetry_Int_Tables_number   1
_chemical_formula_structural   Li2BeSiO4
_chemical_formula_sum   'Li4 Be2 Si2 O8'
_cell_volume   149.34545807
_cell_formula_units_Z   2
loop_
 _symmetry_equiv_pos_site_id
 _symmetry_equiv_pos_as_xyz
  1  'x, y, z'
loop_
 _atom_site_type_symbol
 _atom_site_label
 _atom_site_symmetry_multiplicity
 _atom_site_fract_x
 _atom_site_fract_y
 _atom_site_fract_z
 _atom_site_occupancy
  Li  Li0  1  0.68329981  0.68329981  0.00000000  1
  Li  Li1  1  0.80198009  0.19801991  0.75000000  1
  Li  Li2  1  0.31670019  0.31670019  0.50000000  1
  Li  Li3  1  0.19801991  0.80198009  0.25000000  1
  Be  Be4  1  0.68171259  0.68171259  0.50000000  1
  Be  Be5  1  0.31828741  0.31828741  0.00000000  1
  Si  Si6  1  0.18086982  0.81913018  0.75000000  1
  Si  Si7  1  0.81913018  0.18086982  0.25000000  1
  O  O8  1  0.71764662  0.34704471  0.46549679  1
  O  O9  1  0.65295529  0.28235338  0.03450321  1
  O  O10  1  0.15110553  0.22189060  0.21768700  1
  O  O11  1  0.84889447  0.77810940  0.71768700  1
  O  O12  1  0.77810940  0.84889447  0.28231300  1
  O  O13  1  0.28235338  0.65295529  0.96549679  1
  O  O14  1  0.22189060  0.15110553  0.78231300  1
  O  O15  1  0.34704471  0.71764662  0.53450321  1
