# generated using pymatgen
data_K2CuP2O7
_symmetry_space_group_name_H-M   'P 1'
_cell_length_a   5.30928913
_cell_length_b   9.81976320
_cell_length_c   14.65153464
_cell_angle_alpha   90.00000000
_cell_angle_beta   90.00000000
_cell_angle_gamma   90.00000000
_symmetry_Int_Tables_number   1
_chemical_formula_structural   K2CuP2O7
_chemical_formula_sum   'K8 Cu4 P8 O28'
_cell_volume   763.87185348
_cell_formula_units_Z   4
loop_
 _symmetry_equiv_pos_site_id
 _symmetry_equiv_pos_as_xyz
  1  'x, y, z'
loop_
 _atom_site_type_symbol
 _atom_site_label
 _atom_site_symmetry_multiplicity
 _atom_site_fract_x
 _atom_site_fract_y
 _atom_site_fract_z
 _atom_site_occupancy
  K  K0  1  0.75000000  0.37383360  0.30260309  1
  K  K1  1  0.25000000  0.62616640  0.69739691  1
  K  K2  1  0.75000000  0.62824370  0.08938623  1
  K  K3  1  0.75000000  0.87175630  0.58938623  1
  K  K4  1  0.75000000  0.12616640  0.80260309  1
  K  K5  1  0.25000000  0.87383360  0.19739691  1
  K  K6  1  0.25000000  0.37175630  0.91061377  1
  K  K7  1  0.25000000  0.12824370  0.41061377  1
  Cu  Cu8  1  0.25000000  0.24711062  0.16881195  1
  Cu  Cu9  1  0.25000000  0.25288938  0.66881195  1
  Cu  Cu10  1  0.75000000  0.75288938  0.83118805  1
  Cu  Cu11  1  0.75000000  0.74711062  0.33118805  1
  P  P12  1  0.25000000  0.72731449  0.94542233  1
  P  P13  1  0.25000000  0.77268551  0.44542233  1
  P  P14  1  0.75000000  0.07147620  0.19432863  1
  P  P15  1  0.25000000  0.57147620  0.30567137  1
  P  P16  1  0.75000000  0.22731449  0.55457767  1
  P  P17  1  0.75000000  0.27268551  0.05457767  1
  P  P18  1  0.25000000  0.92852380  0.80567137  1
  P  P19  1  0.75000000  0.42852380  0.69432863  1
  O  O20  1  0.75000000  0.58241624  0.69859812  1
  O  O21  1  0.25000000  0.72500859  0.04815249  1
  O  O22  1  0.51148116  0.16060020  0.59675556  1
  O  O23  1  0.25000000  0.88796705  0.91411411  1
  O  O24  1  0.25000000  0.08241624  0.80140188  1
  O  O25  1  0.99188888  0.13643162  0.23501870  1
  O  O26  1  0.50811112  0.13643162  0.23501870  1
  O  O27  1  0.00811112  0.63643162  0.26498130  1
  O  O28  1  0.98851884  0.33939980  0.09675556  1
  O  O29  1  0.25000000  0.77499141  0.54815249  1
  O  O30  1  0.50811112  0.36356838  0.73501870  1
  O  O31  1  0.75000000  0.91758376  0.19859812  1
  O  O32  1  0.99188888  0.36356838  0.73501870  1
  O  O33  1  0.51148116  0.33939980  0.09675556  1
  O  O34  1  0.75000000  0.22500859  0.45184751  1
  O  O35  1  0.48851884  0.83939980  0.40324444  1
  O  O36  1  0.75000000  0.27499141  0.95184751  1
  O  O37  1  0.25000000  0.41758376  0.30140188  1
  O  O38  1  0.25000000  0.61203295  0.41411411  1
  O  O39  1  0.01148116  0.83939980  0.40324444  1
  O  O40  1  0.98851884  0.16060020  0.59675556  1
  O  O41  1  0.75000000  0.38796705  0.58588589  1
  O  O42  1  0.00811112  0.86356838  0.76498130  1
  O  O43  1  0.48851884  0.66060020  0.90324444  1
  O  O44  1  0.49188888  0.63643162  0.26498130  1
  O  O45  1  0.01148116  0.66060020  0.90324444  1
  O  O46  1  0.49188888  0.86356838  0.76498130  1
  O  O47  1  0.75000000  0.11203295  0.08588589  1
