# generated using pymatgen
data_AlAs(H2O3)2
_symmetry_space_group_name_H-M   'P 1'
_cell_length_a   8.89890096
_cell_length_b   9.88089543
_cell_length_c   10.26400139
_cell_angle_alpha   90.00000000
_cell_angle_beta   90.00000000
_cell_angle_gamma   90.00000000
_symmetry_Int_Tables_number   1
_chemical_formula_structural   AlAs(H2O3)2
_chemical_formula_sum   'Al8 As8 H32 O48'
_cell_volume   902.50450549
_cell_formula_units_Z   8
loop_
 _symmetry_equiv_pos_site_id
 _symmetry_equiv_pos_as_xyz
  1  'x, y, z'
loop_
 _atom_site_type_symbol
 _atom_site_label
 _atom_site_symmetry_multiplicity
 _atom_site_fract_x
 _atom_site_fract_y
 _atom_site_fract_z
 _atom_site_occupancy
  Al  Al0  1  0.14782833  0.18220717  0.12718748  1
  Al  Al1  1  0.64782833  0.31779283  0.87281252  1
  Al  Al2  1  0.85217167  0.68220717  0.37281252  1
  Al  Al3  1  0.35217167  0.81779283  0.62718748  1
  Al  Al4  1  0.85217167  0.81779283  0.87281252  1
  Al  Al5  1  0.35217167  0.68220717  0.12718748  1
  Al  Al6  1  0.14782833  0.31779283  0.62718748  1
  Al  Al7  1  0.64782833  0.18220717  0.37281252  1
  As  As8  1  0.03485388  0.86288182  0.15018974  1
  As  As9  1  0.53485388  0.63711818  0.84981026  1
  As  As10  1  0.96514612  0.36288182  0.34981026  1
  As  As11  1  0.46514612  0.13711818  0.65018974  1
  As  As12  1  0.96514612  0.13711818  0.84981026  1
  As  As13  1  0.46514612  0.36288182  0.15018974  1
  As  As14  1  0.03485388  0.63711818  0.65018974  1
  As  As15  1  0.53485388  0.86288182  0.34981026  1
  O  O16  1  0.00661203  0.03479110  0.14080568  1
  O  O17  1  0.50661203  0.46520890  0.85919432  1
  O  O18  1  0.99338797  0.53479110  0.35919432  1
  O  O19  1  0.49338797  0.96520890  0.64080568  1
  O  O20  1  0.99338797  0.96520890  0.85919432  1
  O  O21  1  0.49338797  0.53479110  0.14080568  1
  O  O22  1  0.00661203  0.46520890  0.64080568  1
  O  O23  1  0.50661203  0.03479110  0.35919432  1
  O  O24  1  -0.00043110  0.80062947  0.30254853  1
  O  O25  1  0.49956890  0.69937053  0.69745147  1
  O  O26  1  1.00043110  0.30062947  0.19745147  1
  O  O27  1  0.50043110  0.19937053  0.80254853  1
  O  O28  1  1.00043110  0.19937053  0.69745147  1
  O  O29  1  0.50043110  0.30062947  0.30254853  1
  O  O30  1  -0.00043110  0.69937053  0.80254853  1
  O  O31  1  0.49956890  0.80062947  0.19745147  1
  O  O32  1  0.21983688  0.83391682  0.10901526  1
  O  O33  1  0.71983688  0.66608318  0.89098474  1
  O  O34  1  0.78016312  0.33391682  0.39098474  1
  O  O35  1  0.28016312  0.16608318  0.60901526  1
  O  O36  1  0.78016312  0.16608318  0.89098474  1
  O  O37  1  0.28016312  0.33391682  0.10901526  1
  O  O38  1  0.21983688  0.66608318  0.60901526  1
  O  O39  1  0.71983688  0.83391682  0.39098474  1
  O  O40  1  0.91596676  0.77919555  0.04450972  1
  O  O41  1  0.41596676  0.72080445  0.95549028  1
  O  O42  1  0.08403324  0.27919555  0.45549028  1
  O  O43  1  0.58403324  0.22080445  0.54450972  1
  O  O44  1  0.08403324  0.22080445  0.95549028  1
  O  O45  1  0.58403324  0.27919555  0.04450972  1
  O  O46  1  0.91596676  0.72080445  0.54450972  1
  O  O47  1  0.41596676  0.77919555  0.45549028  1
  O  O48  1  0.22505776  0.12493714  0.29387424  1
  O  O49  1  0.72505776  0.37506286  0.70612576  1
  O  O50  1  0.77494224  0.62493714  0.20612576  1
  O  O51  1  0.27494224  0.87506286  0.79387424  1
  O  O52  1  0.77494224  0.87506286  0.70612576  1
  O  O53  1  0.27494224  0.62493714  0.29387424  1
  O  O54  1  0.22505776  0.37506286  0.79387424  1
  O  O55  1  0.72505776  0.12493714  0.20612576  1
  O  O56  1  0.31308343  0.07166314  0.05767287  1
  O  O57  1  0.81308343  0.42833686  0.94232713  1
  O  O58  1  0.68691657  0.57166314  0.44232713  1
  O  O59  1  0.18691657  0.92833686  0.55767287  1
  O  O60  1  0.68691657  0.92833686  0.94232713  1
  O  O61  1  0.18691657  0.57166314  0.05767287  1
  O  O62  1  0.31308343  0.42833686  0.55767287  1
  O  O63  1  0.81308343  0.07166314  0.44232713  1
  H  H64  1  0.18266203  0.17988196  0.36850008  1
  H  H65  1  0.68266203  0.32011804  0.63149992  1
  H  H66  1  0.81733797  0.67988196  0.13149992  1
  H  H67  1  0.31733797  0.82011804  0.86850008  1
  H  H68  1  0.81733797  0.82011804  0.63149992  1
  H  H69  1  0.31733797  0.67988196  0.36850008  1
  H  H70  1  0.18266203  0.32011804  0.86850008  1
  H  H71  1  0.68266203  0.17988196  0.13149992  1
  H  H72  1  0.33297778  0.10359643  0.31017704  1
  H  H73  1  0.83297778  0.39640357  0.68982296  1
  H  H74  1  0.66702222  0.60359643  0.18982296  1
  H  H75  1  0.16702222  0.89640357  0.81017704  1
  H  H76  1  0.66702222  0.89640357  0.68982296  1
  H  H77  1  0.16702222  0.60359643  0.31017704  1
  H  H78  1  0.33297778  0.39640357  0.81017704  1
  H  H79  1  0.83297778  0.10359643  0.18982296  1
  H  H80  1  0.35759354  0.09468915  0.97343314  1
  H  H81  1  0.85759354  0.40531085  0.02656686  1
  H  H82  1  0.64240646  0.59468915  0.52656686  1
  H  H83  1  0.14240646  0.90531085  0.47343314  1
  H  H84  1  0.64240646  0.90531085  0.02656686  1
  H  H85  1  0.14240646  0.59468915  0.97343314  1
  H  H86  1  0.35759354  0.40531085  0.47343314  1
  H  H87  1  0.85759354  0.09468915  0.52656686  1
  H  H88  1  0.29246196  0.97067075  0.06563906  1
  H  H89  1  0.79246196  0.52932925  0.93436094  1
  H  H90  1  0.70753804  0.47067075  0.43436094  1
  H  H91  1  0.20753804  0.02932925  0.56563906  1
  H  H92  1  0.70753804  0.02932925  0.93436094  1
  H  H93  1  0.20753804  0.47067075  0.06563906  1
  H  H94  1  0.29246196  0.52932925  0.56563906  1
  H  H95  1  0.79246196  0.97067075  0.43436094  1
