# generated using pymatgen
data_Na2NiH12(SO7)2
_symmetry_space_group_name_H-M   'P 1'
_cell_length_a   5.94470009
_cell_length_b   8.75750430
_cell_length_c   12.19463323
_cell_angle_alpha   90.00000000
_cell_angle_beta   90.00000000
_cell_angle_gamma   104.05358294
_symmetry_Int_Tables_number   1
_chemical_formula_structural   Na2NiH12(SO7)2
_chemical_formula_sum   'Na4 Ni2 H24 S4 O28'
_cell_volume   615.85958241
_cell_formula_units_Z   2
loop_
 _symmetry_equiv_pos_site_id
 _symmetry_equiv_pos_as_xyz
  1  'x, y, z'
loop_
 _atom_site_type_symbol
 _atom_site_label
 _atom_site_symmetry_multiplicity
 _atom_site_fract_x
 _atom_site_fract_y
 _atom_site_fract_z
 _atom_site_occupancy
  Ni  Ni0  1  0.50000000  0.00000000  0.00000000  1
  Ni  Ni1  1  0.50000000  0.50000000  0.50000000  1
  O  O2  1  0.54693829  0.82919397  0.87967876  1
  O  O3  1  0.45306171  0.67080603  0.37967876  1
  O  O4  1  0.45306171  0.17080603  0.12032124  1
  O  O5  1  0.54693829  0.32919397  0.62032124  1
  O  O6  1  0.32901093  0.82524384  0.10849382  1
  O  O7  1  0.67098907  0.67475616  0.60849382  1
  O  O8  1  0.67098907  0.17475616  0.89150618  1
  O  O9  1  0.32901093  0.32524384  0.39150618  1
  O  O10  1  0.19459194  0.00541612  0.93122949  1
  O  O11  1  0.80540806  0.49458388  0.43122949  1
  O  O12  1  0.80540806  0.99458388  0.06877051  1
  O  O13  1  0.19459194  0.50541612  0.56877051  1
  S  S14  1  0.77513935  0.58199584  0.14286202  1
  S  S15  1  0.22486065  0.91800416  0.64286202  1
  S  S16  1  0.22486065  0.41800416  0.85713798  1
  S  S17  1  0.77513935  0.08199584  0.35713798  1
  O  O18  1  0.80429085  0.42405373  0.11096781  1
  O  O19  1  0.19570915  0.07594627  0.61096781  1
  O  O20  1  0.19570915  0.57594627  0.88903219  1
  O  O21  1  0.80429085  0.92405373  0.38903219  1
  O  O22  1  0.86431239  0.69674103  0.05243469  1
  O  O23  1  0.13568761  0.80325897  0.55243469  1
  O  O24  1  0.13568761  0.30325897  0.94756531  1
  O  O25  1  0.86431239  0.19674103  0.44756531  1
  O  O26  1  0.52330935  0.57436998  0.16372590  1
  O  O27  1  0.47669065  0.92563002  0.66372590  1
  O  O28  1  0.47669065  0.42563002  0.83627410  1
  O  O29  1  0.52330935  0.07436998  0.33627410  1
  O  O30  1  0.91456316  0.63661581  0.24333726  1
  O  O31  1  0.08543684  0.86338419  0.74333726  1
  O  O32  1  0.08543684  0.36338419  0.75666274  1
  O  O33  1  0.91456316  0.13661581  0.25666274  1
  Na  Na34  1  0.83733860  0.66044263  0.85536409  1
  Na  Na35  1  0.16266140  0.83955737  0.35536409  1
  Na  Na36  1  0.16266140  0.33955737  0.14463591  1
  Na  Na37  1  0.83733860  0.16044263  0.64463591  1
  H  H38  1  0.41410046  0.73336274  0.88552988  1
  H  H39  1  0.58589954  0.76663726  0.38552988  1
  H  H40  1  0.58589954  0.26663726  0.11447012  1
  H  H41  1  0.41410046  0.23336274  0.61447012  1
  H  H42  1  0.15909112  0.11005860  0.93677904  1
  H  H43  1  0.84090888  0.38994140  0.43677904  1
  H  H44  1  0.84090888  0.88994140  0.06322096  1
  H  H45  1  0.15909112  0.61005860  0.56322096  1
  H  H46  1  0.52780948  0.87264924  0.80603365  1
  H  H47  1  0.47219052  0.62735076  0.30603365  1
  H  H48  1  0.47219052  0.12735076  0.19396635  1
  H  H49  1  0.52780948  0.37264924  0.69396635  1
  H  H50  1  0.16238132  0.96532565  0.85465233  1
  H  H51  1  0.83761868  0.53467435  0.35465233  1
  H  H52  1  0.83761868  0.03467435  0.14534767  1
  H  H53  1  0.16238132  0.46532565  0.64534767  1
  H  H54  1  0.40484907  0.73790218  0.12235546  1
  H  H55  1  0.59515093  0.76209782  0.62235546  1
  H  H56  1  0.59515093  0.26209782  0.87764454  1
  H  H57  1  0.40484907  0.23790218  0.37764454  1
  H  H58  1  0.16893471  0.77589769  0.08364755  1
  H  H59  1  0.83106529  0.72410231  0.58364755  1
  H  H60  1  0.83106529  0.22410231  0.91635245  1
  H  H61  1  0.16893471  0.27589769  0.41635245  1
