# generated using pymatgen
data_La3Si2Cl3O7
_symmetry_space_group_name_H-M   'P 1'
_cell_length_a   5.41138954
_cell_length_b   7.97231568
_cell_length_c   12.24198524
_cell_angle_alpha   90.00000000
_cell_angle_beta   90.00000000
_cell_angle_gamma   108.91280781
_symmetry_Int_Tables_number   1
_chemical_formula_structural   La3Si2Cl3O7
_chemical_formula_sum   'La6 Si4 Cl6 O14'
_cell_volume   499.62275220
_cell_formula_units_Z   2
loop_
 _symmetry_equiv_pos_site_id
 _symmetry_equiv_pos_as_xyz
  1  'x, y, z'
loop_
 _atom_site_type_symbol
 _atom_site_label
 _atom_site_symmetry_multiplicity
 _atom_site_fract_x
 _atom_site_fract_y
 _atom_site_fract_z
 _atom_site_occupancy
  La  La0  1  0.02287656  0.42119379  0.50563617  1
  La  La1  1  0.97712344  0.57880621  0.00563617  1
  La  La2  1  0.43818210  0.30005108  0.25198584  1
  La  La3  1  0.28706537  0.97047562  0.53066258  1
  La  La4  1  0.56181790  0.69994892  0.75198584  1
  La  La5  1  0.71293463  0.02952438  0.03066258  1
  Si  Si6  1  0.21616116  0.93520873  0.84331025  1
  Si  Si7  1  0.60831783  0.68327449  0.45552209  1
  Si  Si8  1  0.78383884  0.06479127  0.34331025  1
  Si  Si9  1  0.39168217  0.31672551  0.95552209  1
  Cl  Cl10  1  0.16090495  0.94049334  0.12980214  1
  Cl  Cl11  1  0.98607398  0.50571983  0.25345142  1
  Cl  Cl12  1  0.83909505  0.05950666  0.62980214  1
  Cl  Cl13  1  0.01392602  0.49428017  0.75345142  1
  Cl  Cl14  1  0.54354692  0.66455951  0.12396962  1
  Cl  Cl15  1  0.45645308  0.33544049  0.62396962  1
  O  O16  1  0.89962367  0.69091598  0.49631601  1
  O  O17  1  0.55801517  0.49806545  0.89315465  1
  O  O18  1  0.44198483  0.50193455  0.39315465  1
  O  O19  1  0.10037633  0.30908402  0.99631601  1
  O  O20  1  0.73139686  0.09662862  0.21605324  1
  O  O21  1  0.58850264  0.30397195  0.05696512  1
  O  O22  1  0.09052389  0.12745610  0.38170130  1
  O  O23  1  0.37967635  0.13885783  0.88277623  1
  O  O24  1  0.64157849  0.18975984  0.41059335  1
  O  O25  1  0.90947611  0.87254390  0.88170130  1
  O  O26  1  0.35842151  0.81024016  0.91059335  1
  O  O27  1  0.41149736  0.69602805  0.55696512  1
  O  O28  1  0.62032365  0.86114217  0.38277623  1
  O  O29  1  0.26860314  0.90337138  0.71605324  1
