# generated using pymatgen
data_Na4Nb9(P2O13)3
_symmetry_space_group_name_H-M   'P 1'
_cell_length_a   5.50569305
_cell_length_b   14.69566259
_cell_length_c   20.20459405
_cell_angle_alpha   90.00000000
_cell_angle_beta   90.00000000
_cell_angle_gamma   90.00000000
_symmetry_Int_Tables_number   1
_chemical_formula_structural   Na4Nb9(P2O13)3
_chemical_formula_sum   'Na8 Nb18 P12 O78'
_cell_volume   1634.74981292
_cell_formula_units_Z   2
loop_
 _symmetry_equiv_pos_site_id
 _symmetry_equiv_pos_as_xyz
  1  'x, y, z'
loop_
 _atom_site_type_symbol
 _atom_site_label
 _atom_site_symmetry_multiplicity
 _atom_site_fract_x
 _atom_site_fract_y
 _atom_site_fract_z
 _atom_site_occupancy
  Na  Na0  1  0.74809721  0.20334546  0.37726434  1
  Na  Na1  1  0.24566322  0.28675606  0.55884742  1
  Na  Na2  1  0.24566322  0.71324394  0.44115258  1
  Na  Na3  1  0.25190279  0.70334546  0.12273566  1
  Na  Na4  1  0.25190279  0.29665454  0.87726434  1
  Na  Na5  1  0.75433678  0.78675606  0.94115258  1
  Na  Na6  1  0.74809721  0.79665454  0.62273566  1
  Na  Na7  1  0.75433678  0.21324394  0.05884742  1
  Nb  Nb8  1  0.76372635  0.40066432  0.61624349  1
  Nb  Nb9  1  0.25627746  0.88844546  0.22286641  1
  Nb  Nb10  1  0.74861043  0.59612833  0.06431118  1
  Nb  Nb11  1  0.24502315  0.52065120  0.83089396  1
  Nb  Nb12  1  0.25138957  0.09612833  0.43568882  1
  Nb  Nb13  1  0.74372254  0.38844546  0.27713359  1
  Nb  Nb14  1  0.73590378  0.00000000  0.00000000  1
  Nb  Nb15  1  0.24502315  0.47934880  0.16910604  1
  Nb  Nb16  1  0.75497685  0.97934880  0.33089396  1
  Nb  Nb17  1  0.26409622  0.50000000  0.50000000  1
  Nb  Nb18  1  0.23627365  0.09933568  0.11624349  1
  Nb  Nb19  1  0.76372635  0.59933568  0.38375651  1
  Nb  Nb20  1  0.74372254  0.61155454  0.72286641  1
  Nb  Nb21  1  0.74861043  0.40387167  0.93568882  1
  Nb  Nb22  1  0.25138957  0.90387167  0.56431118  1
  Nb  Nb23  1  0.23627365  0.90066432  0.88375651  1
  Nb  Nb24  1  0.25627746  0.11155454  0.77713359  1
  Nb  Nb25  1  0.75497685  0.02065120  0.66910604  1
  P  P26  1  0.25590686  0.67846732  0.96242513  1
  P  P27  1  0.23984539  0.67129281  0.61577029  1
  P  P28  1  0.76015461  0.82870719  0.11577029  1
  P  P29  1  0.73317974  0.16481234  0.21589475  1
  P  P30  1  0.26682026  0.33518766  0.71589475  1
  P  P31  1  0.23984539  0.32870719  0.38422971  1
  P  P32  1  0.74409314  0.17846732  0.53757487  1
  P  P33  1  0.74409314  0.82153268  0.46242513  1
  P  P34  1  0.73317974  0.83518766  0.78410525  1
  P  P35  1  0.76015461  0.17129281  0.88422971  1
  P  P36  1  0.25590686  0.32153268  0.03757487  1
  P  P37  1  0.26682026  0.66481234  0.28410525  1
  O  O38  1  0.48464911  0.16720028  0.51029805  1
  O  O39  1  0.96086200  0.83184050  0.82806580  1
  O  O40  1  0.48654172  0.94905787  0.93917206  1
  O  O41  1  0.25948424  0.37426269  0.45405827  1
  O  O42  1  0.73251164  0.75241876  0.73637459  1
  O  O43  1  0.72940986  0.07845112  0.26056419  1
  O  O44  1  0.96086200  0.16815950  0.17193420  1
  O  O45  1  0.51535089  0.33279972  0.01029805  1
  O  O46  1  0.27059014  0.57845112  0.23943581  1
  O  O47  1  0.24009514  0.99307317  0.81765292  1
  O  O48  1  0.26748836  0.25241876  0.76362541  1
  O  O49  1  0.98301184  0.94998680  0.93806225  1
  O  O50  1  0.27059014  0.42154888  0.76056419  1
  O  O51  1  0.97874953  0.90878120  0.27717885  1
  O  O52  1  0.49165868  0.33042308  0.67084913  1
  O  O53  1  0.77211206  0.72296121  0.43624341  1
  O  O54  1  0.47152715  0.44373204  0.89066811  1
  O  O55  1  0.01863945  0.15748774  0.85738942  1
  O  O56  1  0.71391551  0.72488606  0.10706227  1
  O  O57  1  0.94134318  0.16558037  0.48430309  1
  O  O58  1  0.21289939  0.61064509  0.90466958  1
  O  O59  1  0.22788794  0.77703879  0.93624341  1
  O  O60  1  0.78710061  0.88935491  0.40466958  1
  O  O61  1  0.44233406  0.36553083  0.33984899  1
  O  O62  1  0.49165868  0.66957692  0.32915087  1
  O  O63  1  0.78710061  0.11064509  0.59533042  1
  O  O64  1  0.97874953  0.09121880  0.72282115  1
  O  O65  1  0.52704430  0.58282219  0.79289620  1
  O  O66  1  0.94134318  0.83441963  0.51569691  1
  O  O67  1  0.77860561  0.50000000  0.00000000  1
  O  O68  1  0.01698816  0.55001320  0.43806225  1
  O  O69  1  0.22788794  0.22296121  0.06375659  1
  O  O70  1  0.97618547  0.55538198  0.12709285  1
  O  O71  1  0.26748836  0.74758124  0.23637459  1
  O  O72  1  0.75990486  0.49307317  0.68234708  1
  O  O73  1  0.48464911  0.83279972  0.48970195  1
  O  O74  1  0.55766594  0.13446917  0.83984899  1
  O  O75  1  0.74051576  0.12573731  0.95405827  1
  O  O76  1  0.47152715  0.55626796  0.10933189  1
  O  O77  1  0.98136055  0.34251226  0.35738942  1
  O  O78  1  0.52704430  0.41717781  0.20710380  1
  O  O79  1  0.52847285  0.05626796  0.39066811  1
  O  O80  1  0.55766594  0.86553083  0.16015101  1
  O  O81  1  0.71391551  0.27511394  0.89293773  1
  O  O82  1  0.50834132  0.16957692  0.17084913  1
  O  O83  1  0.47295570  0.91717781  0.29289620  1
  O  O84  1  0.44233406  0.63446917  0.66015101  1
  O  O85  1  0.50834132  0.83042308  0.82915087  1
  O  O86  1  0.02125047  0.40878120  0.22282115  1
  O  O87  1  0.03913800  0.33184050  0.67193420  1
  O  O88  1  0.02381453  0.94461802  0.62709285  1
  O  O89  1  0.05865682  0.66558037  0.01569691  1
  O  O90  1  0.51345828  0.55094213  0.43917206  1
  O  O91  1  0.73251164  0.24758124  0.26362541  1
  O  O92  1  0.51535089  0.66720028  0.98970195  1
  O  O93  1  0.98301184  0.05001320  0.06193775  1
  O  O94  1  0.01863945  0.84251226  0.14261058  1
  O  O95  1  0.75990486  0.50692683  0.31765292  1
  O  O96  1  0.02125047  0.59121880  0.77717885  1
  O  O97  1  0.22139439  0.00000000  0.50000000  1
  O  O98  1  0.24009514  0.00692683  0.18234708  1
  O  O99  1  0.97618547  0.44461802  0.87290715  1
  O  O100  1  0.48654172  0.05094213  0.06082794  1
  O  O101  1  0.28608449  0.22488606  0.39293773  1
  O  O102  1  0.74051576  0.87426269  0.04594173  1
  O  O103  1  0.21289939  0.38935491  0.09533042  1
  O  O104  1  0.02381453  0.05538198  0.37290715  1
  O  O105  1  0.98136055  0.65748774  0.64261058  1
  O  O106  1  0.01698816  0.44998680  0.56193775  1
  O  O107  1  0.25948424  0.62573731  0.54594173  1
  O  O108  1  0.28608449  0.77511394  0.60706227  1
  O  O109  1  0.03913800  0.66815950  0.32806580  1
  O  O110  1  0.52847285  0.94373204  0.60933189  1
  O  O111  1  0.77211206  0.27703879  0.56375659  1
  O  O112  1  0.51345828  0.44905787  0.56082794  1
  O  O113  1  0.05865682  0.33441963  0.98430309  1
  O  O114  1  0.47295570  0.08282219  0.70710380  1
  O  O115  1  0.72940986  0.92154888  0.73943581  1
