# generated using pymatgen
data_CsFeF3
_symmetry_space_group_name_H-M   'P 1'
_cell_length_a   6.30087326
_cell_length_b   6.30087332
_cell_length_c   14.84748199
_cell_angle_alpha   90.00000000
_cell_angle_beta   90.00000000
_cell_angle_gamma   119.99999434
_symmetry_Int_Tables_number   1
_chemical_formula_structural   CsFeF3
_chemical_formula_sum   'Cs6 Fe6 F18'
_cell_volume   510.48731586
_cell_formula_units_Z   6
loop_
 _symmetry_equiv_pos_site_id
 _symmetry_equiv_pos_as_xyz
  1  'x, y, z'
loop_
 _atom_site_type_symbol
 _atom_site_label
 _atom_site_symmetry_multiplicity
 _atom_site_fract_x
 _atom_site_fract_y
 _atom_site_fract_z
 _atom_site_occupancy
  Cs  Cs0  1  0.00000000  0.00000000  0.25000000  1
  Cs  Cs1  1  0.00000000  0.00000000  0.75000000  1
  Cs  Cs2  1  0.33333300  0.66666700  0.09535466  1
  Cs  Cs3  1  0.66666700  0.33333300  0.59535466  1
  Cs  Cs4  1  0.66666700  0.33333300  0.90464534  1
  Cs  Cs5  1  0.33333300  0.66666700  0.40464534  1
  Fe  Fe6  1  0.00000000  0.00000000  0.00000000  1
  Fe  Fe7  1  0.33333300  0.66666700  0.65296419  1
  Fe  Fe8  1  0.66666700  0.33333300  0.15296419  1
  Fe  Fe9  1  0.66666700  0.33333300  0.34703581  1
  Fe  Fe10  1  0.33333300  0.66666700  0.84703581  1
  Fe  Fe11  1  0.00000000  0.00000000  0.50000000  1
  F  F12  1  0.33191607  0.16595803  0.07892769  1
  F  F13  1  0.83404197  0.16595803  0.42107231  1
  F  F14  1  0.83404197  0.66808393  0.42107231  1
  F  F15  1  0.33191607  0.16595803  0.42107231  1
  F  F16  1  0.66808393  0.83404197  0.92107231  1
  F  F17  1  0.16595803  0.33191607  0.57892769  1
  F  F18  1  0.52208837  0.04417575  0.25000000  1
  F  F19  1  0.47791163  0.52208837  0.75000000  1
  F  F20  1  0.04417575  0.52208837  0.75000000  1
  F  F21  1  0.95582425  0.47791163  0.25000000  1
  F  F22  1  0.52208837  0.47791163  0.25000000  1
  F  F23  1  0.47791163  0.95582425  0.75000000  1
  F  F24  1  0.83404197  0.66808393  0.07892769  1
  F  F25  1  0.16595803  0.83404197  0.57892769  1
  F  F26  1  0.66808393  0.83404197  0.57892769  1
  F  F27  1  0.16595803  0.33191607  0.92107231  1
  F  F28  1  0.83404197  0.16595803  0.07892769  1
  F  F29  1  0.16595803  0.83404197  0.92107231  1
