# generated using pymatgen
data_KV3P4O17
_symmetry_space_group_name_H-M   'P 1'
_cell_length_a   7.98087321
_cell_length_b   10.13357400
_cell_length_c   16.63049466
_cell_angle_alpha   90.00000000
_cell_angle_beta   90.00000000
_cell_angle_gamma   90.00000000
_symmetry_Int_Tables_number   1
_chemical_formula_structural   KV3P4O17
_chemical_formula_sum   'K4 V12 P16 O68'
_cell_volume   1344.98741828
_cell_formula_units_Z   4
loop_
 _symmetry_equiv_pos_site_id
 _symmetry_equiv_pos_as_xyz
  1  'x, y, z'
loop_
 _atom_site_type_symbol
 _atom_site_label
 _atom_site_symmetry_multiplicity
 _atom_site_fract_x
 _atom_site_fract_y
 _atom_site_fract_z
 _atom_site_occupancy
  K  K0  1  0.99474570  0.55020646  0.82115247  1
  K  K1  1  0.50525430  0.44979354  0.32115247  1
  K  K2  1  0.00525430  0.05020646  0.67884753  1
  K  K3  1  0.49474570  0.94979354  0.17884753  1
  V  V4  1  0.20923337  0.74805573  0.99357606  1
  V  V5  1  0.71341917  0.81578688  0.34777369  1
  V  V6  1  0.78658083  0.18421312  0.84777369  1
  V  V7  1  0.28658083  0.31578688  0.15222631  1
  V  V8  1  0.21341917  0.68421312  0.65222631  1
  V  V9  1  0.70923337  0.75194427  0.00642394  1
  V  V10  1  0.79076663  0.24805573  0.50642394  1
  V  V11  1  0.29076663  0.25194427  0.49357606  1
  V  V12  1  0.71247493  0.68261068  0.65321019  1
  V  V13  1  0.21247493  0.81738932  0.34678981  1
  V  V14  1  0.28752507  0.18261068  0.84678981  1
  V  V15  1  0.78752507  0.31738932  0.15321019  1
  P  P16  1  0.30916477  0.36701189  0.68556870  1
  P  P17  1  0.19083523  0.63298811  0.18556870  1
  P  P18  1  0.69083523  0.86701189  0.81443130  1
  P  P19  1  0.80916477  0.13298811  0.31443130  1
  P  P20  1  0.30523270  0.93471932  0.53441422  1
  P  P21  1  0.80523270  0.56528068  0.46558578  1
  P  P22  1  0.69476730  0.43471932  0.96558578  1
  P  P23  1  0.19476730  0.06528068  0.03441422  1
  P  P24  1  0.30944492  0.86616496  0.81550373  1
  P  P25  1  0.80944492  0.63383504  0.18449627  1
  P  P26  1  0.69055508  0.36616496  0.68449627  1
  P  P27  1  0.19055508  0.13383504  0.31550373  1
  P  P28  1  0.30786702  0.43324692  0.96704935  1
  P  P29  1  0.80786702  0.06675308  0.03295065  1
  P  P30  1  0.69213298  0.93324692  0.53295065  1
  P  P31  1  0.19213298  0.56675308  0.46704935  1
  O  O32  1  0.50171011  0.40175582  0.97715104  1
  O  O33  1  0.00171011  0.09824418  0.02284896  1
  O  O34  1  0.49828989  0.90175582  0.52284896  1
  O  O35  1  0.99828989  0.59824418  0.47715104  1
  O  O36  1  0.50051210  0.38032550  0.71265174  1
  O  O37  1  0.00051210  0.11967450  0.28734826  1
  O  O38  1  0.49948790  0.88032550  0.78734826  1
  O  O39  1  0.99948790  0.61967450  0.21265174  1
  O  O40  1  0.24649405  0.87022216  0.61229196  1
  O  O41  1  0.74649405  0.62977784  0.38770804  1
  O  O42  1  0.75350595  0.37022216  0.88770804  1
  O  O43  1  0.25350595  0.12977784  0.11229196  1
  O  O44  1  0.22843763  0.75623756  0.76724829  1
  O  O45  1  0.72843763  0.74376244  0.23275171  1
  O  O46  1  0.77156237  0.25623756  0.73275171  1
  O  O47  1  0.27156237  0.24376244  0.26724829  1
  O  O48  1  0.27424821  0.61229349  0.54431745  1
  O  O49  1  0.77424821  0.88770651  0.45568255  1
  O  O50  1  0.72575179  0.11229349  0.95568255  1
  O  O51  1  0.22575179  0.38770651  0.04431745  1
  O  O52  1  0.22993695  0.50070945  0.70117400  1
  O  O53  1  0.72993695  0.99929055  0.29882600  1
  O  O54  1  0.77006305  0.00070945  0.79882600  1
  O  O55  1  0.27006305  0.49929055  0.20117400  1
  O  O56  1  0.01771990  0.74213523  0.96046012  1
  O  O57  1  0.31750203  0.82949252  0.90594347  1
  O  O58  1  0.68249797  0.32949252  0.59405653  1
  O  O59  1  0.18249797  0.17050748  0.40594347  1
  O  O60  1  0.29076330  0.58345734  0.95271321  1
  O  O61  1  0.79076330  0.91654266  0.04728779  1
  O  O62  1  0.70923670  0.08345734  0.54728679  1
  O  O63  1  0.20923670  0.41654266  0.45271321  1
  O  O64  1  0.99451422  0.31810137  0.16217582  1
  O  O65  1  0.49451422  0.18189863  0.83782418  1
  O  O66  1  0.00548578  0.81810137  0.33782418  1
  O  O67  1  0.50548578  0.68189863  0.66217582  1
  O  O68  1  0.73216764  0.24386466  0.26487847  1
  O  O69  1  0.23216764  0.25613534  0.73512153  1
  O  O70  1  0.26783236  0.74386466  0.23512153  1
  O  O71  1  0.76783236  0.75613534  0.76487847  1
  O  O72  1  0.49425388  0.31678963  0.14793388  1
  O  O73  1  0.99425388  0.18321037  0.85206612  1
  O  O74  1  0.50574612  0.81678963  0.35206612  1
  O  O75  1  0.00574612  0.68321037  0.64793388  1
  O  O76  1  0.74545751  0.13470544  0.10913977  1
  O  O77  1  0.24545751  0.36529456  0.89086023  1
  O  O78  1  0.25454249  0.63470544  0.39086023  1
  O  O79  1  0.75454249  0.86529456  0.60913977  1
  O  O80  1  0.72977800  0.49888984  0.19776947  1
  O  O81  1  0.22977800  0.00111016  0.80223053  1
  O  O82  1  0.27022200  0.99888984  0.30223053  1
  O  O83  1  0.77022200  0.50111016  0.69776947  1
  O  O84  1  0.78096046  0.38858493  0.04103393  1
  O  O85  1  0.28096046  0.11141507  0.95896607  1
  O  O86  1  0.21903954  0.88858493  0.45896607  1
  O  O87  1  0.71903954  0.61141507  0.54103393  1
  O  O88  1  0.30905468  0.33081931  0.59543566  1
  O  O89  1  0.80905468  0.16918069  0.40456434  1
  O  O90  1  0.69094532  0.83081931  0.90456434  1
  O  O91  1  0.19094532  0.66918069  0.09543566  1
  O  O92  1  0.28769068  0.08574747  0.54804360  1
  O  O93  1  0.78769068  0.41425253  0.45195640  1
  O  O94  1  0.71230932  0.58574747  0.95195640  1
  O  O95  1  0.21230932  0.91425253  0.04804360  1
  O  O96  1  0.48228010  0.25786477  0.46046012  1
  O  O97  1  0.98228010  0.24213523  0.53953988  1
  O  O98  1  0.51771990  0.75786477  0.03953988  1
  O  O99  1  0.81750203  0.67050748  0.09405653  1
