# generated using pymatgen
data_GdCuSe2ClO6
_symmetry_space_group_name_H-M   'P 1'
_cell_length_a   7.12605685
_cell_length_b   9.40420230
_cell_length_c   12.12856660
_cell_angle_alpha   70.45944574
_cell_angle_beta   72.76638021
_cell_angle_gamma   70.39211790
_symmetry_Int_Tables_number   1
_chemical_formula_structural   GdCuSe2ClO6
_chemical_formula_sum   'Gd4 Cu4 Se8 Cl4 O24'
_cell_volume   705.89015458
_cell_formula_units_Z   4
loop_
 _symmetry_equiv_pos_site_id
 _symmetry_equiv_pos_as_xyz
  1  'x, y, z'
loop_
 _atom_site_type_symbol
 _atom_site_label
 _atom_site_symmetry_multiplicity
 _atom_site_fract_x
 _atom_site_fract_y
 _atom_site_fract_z
 _atom_site_occupancy
  Gd  Gd0  1  0.76665601  0.38856496  0.57020439  1
  Gd  Gd1  1  0.23334399  0.61143504  0.42979561  1
  Gd  Gd2  1  0.25019313  0.91329399  0.08553341  1
  Gd  Gd3  1  0.74980687  0.08670601  0.91446659  1
  Cu  Cu4  1  0.57824217  0.62135785  0.84156096  1
  Cu  Cu5  1  0.92371193  0.85518285  0.65159293  1
  Cu  Cu6  1  0.42175783  0.37864215  0.15843904  1
  Cu  Cu7  1  0.07628807  0.14481715  0.34840707  1
  Se  Se8  1  0.53040538  0.92784581  0.25284239  1
  Se  Se9  1  0.91769971  0.25913770  0.09836792  1
  Se  Se10  1  0.44039369  0.73316949  0.59461369  1
  Se  Se11  1  0.55960631  0.26683051  0.40538631  1
  Se  Se12  1  0.03147203  0.40613902  0.74916104  1
  Se  Se13  1  0.46959462  0.07215419  0.74715761  1
  Se  Se14  1  0.96852797  0.59386098  0.25083896  1
  Se  Se15  1  0.08230029  0.74086230  0.90163208  1
  Cl  Cl16  1  0.56281873  0.64737857  0.02948333  1
  Cl  Cl17  1  0.10237444  0.12624311  0.53761573  1
  Cl  Cl18  1  0.43718127  0.35262143  0.97051667  1
  Cl  Cl19  1  0.89762556  0.87375689  0.46238427  1
  O  O20  1  0.98599727  0.14448586  0.99855788  1
  O  O21  1  0.63474288  0.18465437  0.72440736  1
  O  O22  1  0.19743427  0.70677514  0.61935782  1
  O  O23  1  0.11136847  0.71995180  0.23550350  1
  O  O24  1  0.45851318  0.35797954  0.52156554  1
  O  O25  1  0.62828021  0.92070072  0.68777875  1
  O  O26  1  0.01400273  0.85551414  0.00144212  1
  O  O27  1  0.06849242  0.11457469  0.19516095  1
  O  O28  1  0.93150758  0.88542531  0.80483905  1
  O  O29  1  0.31603591  0.77375289  0.82555209  1
  O  O30  1  0.80256573  0.29322486  0.38064218  1
  O  O31  1  0.68396409  0.22624711  0.17444791  1
  O  O32  1  0.43709631  0.42894221  0.30426638  1
  O  O33  1  0.12974544  0.46462669  0.16995301  1
  O  O34  1  0.87025456  0.53537331  0.83004699  1
  O  O35  1  0.00959951  0.49766739  0.60169382  1
  O  O36  1  0.54148682  0.64202046  0.47843446  1
  O  O37  1  0.54123297  0.99162401  0.09889857  1
  O  O38  1  0.45876703  0.00837599  0.90110143  1
  O  O39  1  0.88863153  0.28004820  0.76449650  1
  O  O40  1  0.36525712  0.81534563  0.27559264  1
  O  O41  1  0.37171979  0.07929928  0.31222125  1
  O  O42  1  0.56290369  0.57105779  0.69573362  1
  O  O43  1  0.99040049  0.50233261  0.39830618  1
