# generated using pymatgen
data_CaGe2O5
_symmetry_space_group_name_H-M   'P 1'
_cell_length_a   5.50424149
_cell_length_b   5.60274412
_cell_length_c   6.97046478
_cell_angle_alpha   105.12625138
_cell_angle_beta   102.27663197
_cell_angle_gamma   106.60630593
_symmetry_Int_Tables_number   1
_chemical_formula_structural   CaGe2O5
_chemical_formula_sum   'Ca2 Ge4 O10'
_cell_volume   189.03159965
_cell_formula_units_Z   2
loop_
 _symmetry_equiv_pos_site_id
 _symmetry_equiv_pos_as_xyz
  1  'x, y, z'
loop_
 _atom_site_type_symbol
 _atom_site_label
 _atom_site_symmetry_multiplicity
 _atom_site_fract_x
 _atom_site_fract_y
 _atom_site_fract_z
 _atom_site_occupancy
  Ca  Ca0  1  0.65896036  0.31358835  0.26811842  1
  Ca  Ca1  1  0.33539281  0.67211859  0.73401967  1
  Ge  Ge2  1  0.30948182  0.67430648  0.24404905  1
  Ge  Ge3  1  0.99885744  0.99307277  0.50091373  1
  Ge  Ge4  1  0.68708795  0.31168716  0.75790003  1
  Ge  Ge5  1  0.99707036  0.99297381  0.00093214  1
  O  O6  1  0.92829791  0.06523963  0.25501245  1
  O  O7  1  0.37676705  0.22954323  0.56544278  1
  O  O8  1  0.06736130  0.92149102  0.74725104  1
  O  O9  1  0.62152272  0.75455167  0.43348107  1
  O  O10  1  0.29895602  0.88154667  0.09141595  1
  O  O11  1  0.69487191  0.10387567  0.91025668  1
  O  O12  1  0.25661636  0.35139957  0.08107026  1
  O  O13  1  0.91959326  0.30852353  0.61595325  1
  O  O14  1  0.07921017  0.67792942  0.38802735  1
  O  O15  1  0.73695257  0.63415242  0.92015614  1
