# generated using pymatgen
data_Sr3Mg(SiO4)2
_symmetry_space_group_name_H-M   'P 1'
_cell_length_a   5.51139603
_cell_length_b   5.52594155
_cell_length_c   14.03528137
_cell_angle_alpha   89.22144194
_cell_angle_beta   90.00000000
_cell_angle_gamma   119.91295893
_symmetry_Int_Tables_number   1
_chemical_formula_structural   Sr3Mg(SiO4)2
_chemical_formula_sum   'Sr6 Mg2 Si4 O16'
_cell_volume   370.46444723
_cell_formula_units_Z   2
loop_
 _symmetry_equiv_pos_site_id
 _symmetry_equiv_pos_as_xyz
  1  'x, y, z'
loop_
 _atom_site_type_symbol
 _atom_site_label
 _atom_site_symmetry_multiplicity
 _atom_site_fract_x
 _atom_site_fract_y
 _atom_site_fract_z
 _atom_site_occupancy
  Sr  Sr0  1  0.93079343  0.00000000  0.50000000  1
  Sr  Sr1  1  0.04240383  1.00000000  -0.00000000  1
  Sr  Sr2  1  0.67301043  0.34068712  0.16177009  1
  Sr  Sr3  1  0.33232332  0.65931288  0.83822991  1
  Sr  Sr4  1  0.29894232  0.65279597  0.33813112  1
  Sr  Sr5  1  0.64614634  0.34720403  0.66186888  1
  Mg  Mg6  1  0.98562781  0.99624877  0.25000475  1
  Mg  Mg7  1  0.98937904  0.00375123  0.74999525  1
  Si  Si8  1  0.63470846  0.31828143  0.38457614  1
  Si  Si9  1  0.31642703  0.68171857  0.61542386  1
  Si  Si10  1  0.33687607  0.67564074  0.11534879  1
  Si  Si11  1  0.66123532  0.32435926  0.88465121  1
  O  O12  1  0.76933678  0.15030896  0.32634280  1
  O  O13  1  0.61902782  0.84969104  0.67365720  1
  O  O14  1  0.14236227  0.36931671  0.66756930  1
  O  O15  1  0.77304556  0.63068329  0.33243070  1
  O  O16  1  0.72728331  0.33675001  0.49508997  1
  O  O17  1  0.39053330  0.66324999  0.50491003  1
  O  O18  1  0.19798888  0.36159013  0.16642927  1
  O  O19  1  0.83639874  0.63840987  0.83357073  1
  O  O20  1  0.24448886  0.66101367  0.00497466  1
  O  O21  1  0.58347518  0.33898633  0.99502534  1
  O  O22  1  0.67681562  0.84121472  0.13660241  1
  O  O23  1  0.83560090  0.15878528  0.86339759  1
  O  O24  1  0.20284303  0.84240995  0.17457498  1
  O  O25  1  0.36043308  0.15759005  0.82542502  1
  O  O26  1  0.29473725  0.15298123  0.36331973  1
  O  O27  1  0.14175702  0.84701877  0.63668027  1
