# generated using pymatgen
data_Na8(CuO2)5
_symmetry_space_group_name_H-M   'P 1'
_cell_length_a   5.72652058
_cell_length_b   8.19449886
_cell_length_c   8.19449827
_cell_angle_alpha   118.52800844
_cell_angle_beta   101.00127952
_cell_angle_gamma   101.00127563
_symmetry_Int_Tables_number   1
_chemical_formula_structural   Na8(CuO2)5
_chemical_formula_sum   'Na8 Cu5 O10'
_cell_volume   313.41173102
_cell_formula_units_Z   1
loop_
 _symmetry_equiv_pos_site_id
 _symmetry_equiv_pos_as_xyz
  1  'x, y, z'
loop_
 _atom_site_type_symbol
 _atom_site_label
 _atom_site_symmetry_multiplicity
 _atom_site_fract_x
 _atom_site_fract_y
 _atom_site_fract_z
 _atom_site_occupancy
  Na  Na0  1  0.40157178  0.26279524  0.53993126  1
  Na  Na1  1  0.36645887  0.73716921  0.95846533  1
  Na  Na2  1  0.09064390  0.51926674  0.51926674  1
  Na  Na3  1  0.14056295  0.85238117  0.29527577  1
  Na  Na4  1  0.40157178  0.53993126  0.26279524  1
  Na  Na5  1  0.36645887  0.95846533  0.73716921  1
  Na  Na6  1  0.14056295  0.29527577  0.85238117  1
  Na  Na7  1  0.14690714  0.08947212  0.08947212  1
  Cu  Cu8  1  0.75088698  0.01898256  0.41712977  1
  Cu  Cu9  1  0.77930327  0.62799103  0.82769563  1
  Cu  Cu10  1  0.77930327  0.82769563  0.62799103  1
  Cu  Cu11  1  0.72272079  0.19841854  0.19841854  1
  Cu  Cu12  1  0.75088698  0.41712977  0.01898256  1
  O  O13  1  0.52782655  0.47878981  0.87544005  1
  O  O14  1  0.53026290  0.66321134  0.66321134  1
  O  O15  1  0.98154528  0.16050845  0.35807922  1
  O  O16  1  0.98154528  0.35807922  0.16050845  1
  O  O17  1  0.00566922  0.57098469  0.98489659  1
  O  O18  1  0.52782655  0.87544005  0.47878981  1
  O  O19  1  0.02684734  0.78159691  0.78159691  1
  O  O20  1  0.49008407  0.04592477  0.25978379  1
  O  O21  1  0.00566922  0.98489659  0.57098469  1
  O  O22  1  0.49008407  0.25978379  0.04592477  1
