# generated using pymatgen
data_Cs3ZnI4NO3
_symmetry_space_group_name_H-M   'P 1'
_cell_length_a   10.36779286
_cell_length_b   11.83910586
_cell_length_c   14.63894040
_cell_angle_alpha   90.00000000
_cell_angle_beta   90.00000000
_cell_angle_gamma   90.00000000
_symmetry_Int_Tables_number   1
_chemical_formula_structural   Cs3ZnI4NO3
_chemical_formula_sum   'Cs12 Zn4 I16 N4 O12'
_cell_volume   1796.86255405
_cell_formula_units_Z   4
loop_
 _symmetry_equiv_pos_site_id
 _symmetry_equiv_pos_as_xyz
  1  'x, y, z'
loop_
 _atom_site_type_symbol
 _atom_site_label
 _atom_site_symmetry_multiplicity
 _atom_site_fract_x
 _atom_site_fract_y
 _atom_site_fract_z
 _atom_site_occupancy
  Cs  Cs0  1  0.59965987  0.01221104  0.68098199  1
  Cs  Cs1  1  0.90034013  0.51221104  0.18098199  1
  Cs  Cs2  1  0.59965987  0.48778896  0.68098199  1
  Cs  Cs3  1  0.90034013  0.98778896  0.18098199  1
  Cs  Cs4  1  0.42600062  0.75000000  0.05389647  1
  Cs  Cs5  1  0.57399938  0.25000000  0.94610353  1
  Cs  Cs6  1  0.07399938  0.25000000  0.55389647  1
  Cs  Cs7  1  0.92600062  0.75000000  0.44610353  1
  Cs  Cs8  1  0.40034013  0.98778896  0.31901801  1
  Cs  Cs9  1  0.09965987  0.01221104  0.81901801  1
  Cs  Cs10  1  0.09965987  0.48778896  0.81901801  1
  Cs  Cs11  1  0.40034013  0.51221104  0.31901801  1
  Zn  Zn12  1  0.32485250  0.75000000  0.59903327  1
  Zn  Zn13  1  0.67514750  0.25000000  0.40096673  1
  Zn  Zn14  1  0.82485250  0.75000000  0.90096673  1
  Zn  Zn15  1  0.17514750  0.25000000  0.09903327  1
  I  I16  1  0.80106832  0.06340571  0.44365042  1
  I  I17  1  0.46019057  0.25000000  0.50019490  1
  I  I18  1  0.96019057  0.25000000  0.99980510  1
  I  I19  1  0.19893168  0.56340571  0.55634958  1
  I  I20  1  0.37496420  0.75000000  0.77557534  1
  I  I21  1  0.03980943  0.75000000  0.00019490  1
  I  I22  1  0.53980943  0.75000000  0.49980510  1
  I  I23  1  0.30106832  0.06340571  0.05634958  1
  I  I24  1  0.69893168  0.93659429  0.94365042  1
  I  I25  1  0.80106832  0.43659429  0.44365042  1
  I  I26  1  0.62503580  0.25000000  0.22442466  1
  I  I27  1  0.69893168  0.56340571  0.94365042  1
  I  I28  1  0.87496420  0.75000000  0.72442466  1
  I  I29  1  0.30106832  0.43659429  0.05634958  1
  I  I30  1  0.19893168  0.93659429  0.55634958  1
  I  I31  1  0.12503580  0.25000000  0.27557534  1
  N  N32  1  0.17669568  0.75000000  0.27203376  1
  N  N33  1  0.67669568  0.75000000  0.22796624  1
  N  N34  1  0.32330432  0.25000000  0.77203376  1
  N  N35  1  0.82330432  0.25000000  0.72796624  1
  O  O36  1  0.38060293  0.34310026  0.78644399  1
  O  O37  1  0.11939707  0.65689974  0.28644399  1
  O  O38  1  0.61939707  0.84310026  0.21355601  1
  O  O39  1  0.70659831  0.25000000  0.75525460  1
  O  O40  1  0.20659831  0.25000000  0.74474540  1
  O  O41  1  0.88060293  0.15689974  0.71355601  1
  O  O42  1  0.79340169  0.75000000  0.25525460  1
  O  O43  1  0.29340169  0.75000000  0.24474540  1
  O  O44  1  0.61939707  0.65689974  0.21355601  1
  O  O45  1  0.11939707  0.84310026  0.28644399  1
  O  O46  1  0.88060293  0.34310026  0.71355601  1
  O  O47  1  0.38060293  0.15689974  0.78644399  1
