# generated using pymatgen
data_Li2Ca4Si4O13
_symmetry_space_group_name_H-M   'P 1'
_cell_length_a   7.22243899
_cell_length_b   8.31926872
_cell_length_c   10.58558751
_cell_angle_alpha   70.68684466
_cell_angle_beta   89.89775783
_cell_angle_gamma   77.80873794
_symmetry_Int_Tables_number   1
_chemical_formula_structural   Li2Ca4Si4O13
_chemical_formula_sum   'Li4 Ca8 Si8 O26'
_cell_volume   585.11053728
_cell_formula_units_Z   2
loop_
 _symmetry_equiv_pos_site_id
 _symmetry_equiv_pos_as_xyz
  1  'x, y, z'
loop_
 _atom_site_type_symbol
 _atom_site_label
 _atom_site_symmetry_multiplicity
 _atom_site_fract_x
 _atom_site_fract_y
 _atom_site_fract_z
 _atom_site_occupancy
  Li  Li0  1  0.74925084  0.40818359  0.59094390  1
  Li  Li1  1  0.22821762  0.57853805  0.88670347  1
  Li  Li2  1  0.25074916  0.59181641  0.40905610  1
  Li  Li3  1  0.77178238  0.42146195  0.11329653  1
  Ca  Ca4  1  0.07581225  0.21111837  0.40165799  1
  Ca  Ca5  1  0.08331756  0.19539645  0.00276111  1
  Ca  Ca6  1  0.92418775  0.78888163  0.59834201  1
  Ca  Ca7  1  0.57070683  0.20696106  0.39328472  1
  Ca  Ca8  1  0.91668244  0.80460355  0.99723889  1
  Ca  Ca9  1  0.56958641  0.19759177  0.00544019  1
  Ca  Ca10  1  0.42929317  0.79303894  0.60671528  1
  Ca  Ca11  1  0.43041359  0.80240823  0.99455981  1
  Si  Si12  1  0.63760284  0.09307665  0.71944244  1
  Si  Si13  1  0.73294891  0.57396080  0.82173076  1
  Si  Si14  1  0.28337477  0.38282212  0.69642632  1
  Si  Si15  1  0.71662523  0.61717788  0.30357368  1
  Si  Si16  1  0.26705109  0.42603920  0.17826924  1
  Si  Si17  1  0.07509623  0.08368642  0.72191604  1
  Si  Si18  1  0.92490377  0.91631358  0.27808396  1
  Si  Si19  1  0.36239716  0.90692335  0.28055756  1
  O  O20  1  0.77292876  0.41244717  0.39871903  1
  O  O21  1  0.14059723  0.27239057  0.65317688  1
  O  O22  1  0.28432918  0.35133021  0.85675099  1
  O  O23  1  0.84185566  0.15737201  0.69811604  1
  O  O24  1  0.27160306  0.40970174  0.33936473  1
  O  O25  1  0.37981399  0.00971271  0.38416502  1
  O  O26  1  0.13403339  0.99110212  0.88075883  1
  O  O27  1  0.71567082  0.64866979  0.14324901  1
  O  O28  1  0.38188483  0.99739789  0.12215618  1
  O  O29  1  0.51126708  0.66604487  0.84069285  1
  O  O30  1  0.09780630  0.32230505  0.16423331  1
  O  O31  1  0.22707124  0.58755283  0.60128097  1
  O  O32  1  0.86596661  0.00889788  0.11924117  1
  O  O33  1  0.85940277  0.72760943  0.34682312  1
  O  O34  1  0.48873292  0.33395513  0.15930715  1
  O  O35  1  0.61811517  0.00260211  0.87784382  1
  O  O36  1  0.86439650  0.03345551  0.37378009  1
  O  O37  1  0.49631620  0.29419230  0.65671695  1
  O  O38  1  0.62018601  0.99028729  0.61583498  1
  O  O39  1  0.78644651  0.37595821  0.93372811  1
  O  O40  1  0.50368380  0.70580770  0.34328305  1
  O  O41  1  0.13560350  0.96654449  0.62621991  1
  O  O42  1  0.72839694  0.59029826  0.66063527  1
  O  O43  1  0.15814434  0.84262799  0.30188396  1
  O  O44  1  0.21355349  0.62404179  0.06627189  1
  O  O45  1  0.90219370  0.67769495  0.83576669  1
