# generated using pymatgen
data_Si(PbO2)2
_symmetry_space_group_name_H-M   'P 1'
_cell_length_a   7.31826284
_cell_length_b   7.31826296
_cell_length_c   19.80970493
_cell_angle_alpha   83.96042882
_cell_angle_beta   83.96042864
_cell_angle_gamma   64.30339360
_symmetry_Int_Tables_number   1
_chemical_formula_structural   Si(PbO2)2
_chemical_formula_sum   'Si8 Pb16 O32'
_cell_volume   948.61183625
_cell_formula_units_Z   8
loop_
 _symmetry_equiv_pos_site_id
 _symmetry_equiv_pos_as_xyz
  1  'x, y, z'
loop_
 _atom_site_type_symbol
 _atom_site_label
 _atom_site_symmetry_multiplicity
 _atom_site_fract_x
 _atom_site_fract_y
 _atom_site_fract_z
 _atom_site_occupancy
  Si  Si0  1  0.53205782  0.45862641  0.58086748  1
  Si  Si1  1  0.95624019  0.03498576  0.58077431  1
  Si  Si2  1  0.70538289  0.28593629  0.08072229  1
  Si  Si3  1  0.28984629  0.71765955  0.91933068  1
  Si  Si4  1  0.54137359  0.46794218  0.41913252  1
  Si  Si5  1  0.71406371  0.29461711  0.91927771  1
  Si  Si6  1  0.28234045  0.71015371  0.08066932  1
  Si  Si7  1  0.96501424  0.04375981  0.41922569  1
  Pb  Pb8  1  0.37004502  0.87587983  0.25359728  1
  Pb  Pb9  1  0.62200795  0.62897086  0.74887718  1
  Pb  Pb10  1  0.37102914  0.37799205  0.25112282  1
  Pb  Pb11  1  0.76554601  0.77085944  0.09164741  1
  Pb  Pb12  1  0.48226146  0.98510405  0.40837492  1
  Pb  Pb13  1  0.61995132  0.13016438  0.75212560  1
  Pb  Pb14  1  0.22914056  0.23445399  0.90835259  1
  Pb  Pb15  1  0.11891657  0.12607688  0.75272274  1
  Pb  Pb16  1  0.87392312  0.88108343  0.24727726  1
  Pb  Pb17  1  0.77237792  0.77159429  0.90819997  1
  Pb  Pb18  1  0.01803101  0.52544960  0.40802259  1
  Pb  Pb19  1  0.47455040  0.98196899  0.59197741  1
  Pb  Pb20  1  0.86983562  0.38004868  0.24787440  1
  Pb  Pb21  1  0.22840571  0.22762208  0.09180003  1
  Pb  Pb22  1  0.12412017  0.62995498  0.74640272  1
  Pb  Pb23  1  0.01489595  0.51773854  0.59162508  1
  O  O24  1  0.20909518  0.21626926  0.20526295  1
  O  O25  1  0.50688511  0.51076036  0.91694995  1
  O  O26  1  0.95810899  0.46534150  0.70395504  1
  O  O27  1  0.03389140  0.53895115  0.29467143  1
  O  O28  1  0.33569935  0.87964402  0.11102040  1
  O  O29  1  0.14885073  0.08229915  0.37536725  1
  O  O30  1  0.91770085  0.85114927  0.62463275  1
  O  O31  1  0.91280108  0.87391815  0.38852029  1
  O  O32  1  0.87584626  0.33622106  0.11217485  1
  O  O33  1  0.37061916  0.41780255  0.38775579  1
  O  O34  1  0.70983668  0.71547735  0.20387996  1
  O  O35  1  0.58152433  0.65129560  0.37551906  1
  O  O36  1  0.28452265  0.29016332  0.79612004  1
  O  O37  1  0.47806143  0.52193857  0.50000000  1
  O  O38  1  0.12608185  0.08719892  0.61147971  1
  O  O39  1  0.89670424  0.33523667  0.87538511  1
  O  O40  1  0.34870440  0.41847567  0.62448094  1
  O  O41  1  0.09904307  0.67194999  0.12507695  1
  O  O42  1  0.48923964  0.49311489  0.08305005  1
  O  O43  1  0.73945999  0.24230097  0.58359159  1
  O  O44  1  0.53465850  0.04189101  0.29604496  1
  O  O45  1  0.76978835  0.23021165  0.00000000  1
  O  O46  1  0.12035598  0.66430065  0.88897960  1
  O  O47  1  0.32805001  0.90095693  0.87492305  1
  O  O48  1  0.22662746  0.77337254  1.00000000  1
  O  O49  1  0.66377894  0.12415374  0.88782515  1
  O  O50  1  0.78373074  0.79090482  0.79473705  1
  O  O51  1  0.01926785  0.98073215  0.50000000  1
  O  O52  1  0.75769903  0.26054001  0.41640841  1
  O  O53  1  0.46104885  0.96610860  0.70532857  1
  O  O54  1  0.66476333  0.10329576  0.12461489  1
  O  O55  1  0.58219745  0.62938084  0.61224421  1
