# generated using pymatgen
data_LiUBO5
_symmetry_space_group_name_H-M   'P 1'
_cell_length_a   5.90077871
_cell_length_b   6.87387648
_cell_length_c   10.69218318
_cell_angle_alpha   90.00000000
_cell_angle_beta   90.00000000
_cell_angle_gamma   104.94178766
_symmetry_Int_Tables_number   1
_chemical_formula_structural   LiUBO5
_chemical_formula_sum   'Li4 U4 B4 O20'
_cell_volume   419.02430157
_cell_formula_units_Z   4
loop_
 _symmetry_equiv_pos_site_id
 _symmetry_equiv_pos_as_xyz
  1  'x, y, z'
loop_
 _atom_site_type_symbol
 _atom_site_label
 _atom_site_symmetry_multiplicity
 _atom_site_fract_x
 _atom_site_fract_y
 _atom_site_fract_z
 _atom_site_occupancy
  Li  Li0  1  0.55168504  0.12405192  0.27096866  1
  Li  Li1  1  0.44831496  0.37594808  0.77096866  1
  Li  Li2  1  0.55168504  0.62405192  0.22903134  1
  Li  Li3  1  0.44831496  0.87594808  0.72903134  1
  U  U4  1  0.90058707  0.72888431  0.93423275  1
  U  U5  1  0.09941293  0.27111569  0.06576725  1
  U  U6  1  0.90058707  0.22888431  0.56576725  1
  U  U7  1  0.09941293  0.77111569  0.43423275  1
  B  B8  1  0.21569767  0.29846374  0.35242599  1
  B  B9  1  0.78430233  0.70153626  0.64757401  1
  B  B10  1  0.78430233  0.20153626  0.85242599  1
  B  B11  1  0.21569767  0.79846374  0.14757401  1
  O  O12  1  0.86144304  0.38739007  0.91047394  1
  O  O13  1  0.85061060  0.21337384  0.17554742  1
  O  O14  1  0.34522437  0.82771889  0.25641844  1
  O  O15  1  0.14979059  0.95173320  0.08525188  1
  O  O16  1  0.13855696  0.11260993  0.41047394  1
  O  O17  1  0.65477563  0.17228111  0.74358156  1
  O  O18  1  0.33665604  0.32056401  0.94990645  1
  O  O19  1  0.14979059  0.45173320  0.41474812  1
  O  O20  1  0.85020941  0.04826680  0.91474812  1
  O  O21  1  0.13855696  0.61260993  0.08952606  1
  O  O22  1  0.86144304  0.88739007  0.58952606  1
  O  O23  1  0.85061060  0.71337384  0.32445258  1
  O  O24  1  0.85020941  0.54826680  0.58525188  1
  O  O25  1  0.65477563  0.67228111  0.75641844  1
  O  O26  1  0.34522437  0.32771889  0.24358156  1
  O  O27  1  0.14938940  0.28662616  0.67554742  1
  O  O28  1  0.66334396  0.17943599  0.44990645  1
  O  O29  1  0.33665604  0.82056401  0.55009355  1
  O  O30  1  0.66334396  0.67943599  0.05009355  1
  O  O31  1  0.14938940  0.78662616  0.82445258  1
