# generated using pymatgen
data_Sr2Sc2B4O11
_symmetry_space_group_name_H-M   'P 1'
_cell_length_a   5.12904210
_cell_length_b   6.35125615
_cell_length_c   7.37256951
_cell_angle_alpha   78.25607047
_cell_angle_beta   89.18349183
_cell_angle_gamma   75.61743865
_symmetry_Int_Tables_number   1
_chemical_formula_structural   Sr2Sc2B4O11
_chemical_formula_sum   'Sr2 Sc2 B4 O11'
_cell_volume   227.60381521
_cell_formula_units_Z   1
loop_
 _symmetry_equiv_pos_site_id
 _symmetry_equiv_pos_as_xyz
  1  'x, y, z'
loop_
 _atom_site_type_symbol
 _atom_site_label
 _atom_site_symmetry_multiplicity
 _atom_site_fract_x
 _atom_site_fract_y
 _atom_site_fract_z
 _atom_site_occupancy
  Sr  Sr0  1  0.77719005  0.80548429  0.83672276  1
  Sr  Sr1  1  0.22280995  0.19451571  0.16327724  1
  Sc  Sc2  1  0.81410182  0.71806581  0.35353850  1
  Sc  Sc3  1  0.18589818  0.28193419  0.64646150  1
  B  B4  1  0.27910713  0.78039902  0.60647789  1
  B  B5  1  0.64619933  0.34411439  0.89812349  1
  B  B6  1  0.35380067  0.65588561  0.10187651  1
  B  B7  1  0.72089287  0.21960098  0.39352211  1
  O  O8  1  0.11261448  0.64432569  0.57654220  1
  O  O9  1  0.09074125  0.65820285  0.13292945  1
  O  O10  1  0.45910961  0.25528021  0.44317848  1
  O  O11  1  0.54089039  0.74471979  0.55682152  1
  O  O12  1  0.50000000  0.50000000  0.00000000  1
  O  O13  1  0.49242997  0.79432519  0.15287772  1
  O  O14  1  0.88738552  0.35567431  0.42345780  1
  O  O15  1  0.17398110  0.94818088  0.70269301  1
  O  O16  1  0.90925875  0.34179715  0.86707055  1
  O  O17  1  0.82601890  0.05181912  0.29730699  1
  O  O18  1  0.50757003  0.20567481  0.84712228  1
