# generated using pymatgen
data_CeB2ClO4
_symmetry_space_group_name_H-M   'P 1'
_cell_length_a   4.25072879
_cell_length_b   6.65973065
_cell_length_c   8.20377061
_cell_angle_alpha   81.95340257
_cell_angle_beta   89.05973421
_cell_angle_gamma   72.41313833
_symmetry_Int_Tables_number   1
_chemical_formula_structural   CeB2ClO4
_chemical_formula_sum   'Ce2 B4 Cl2 O8'
_cell_volume   219.12127596
_cell_formula_units_Z   2
loop_
 _symmetry_equiv_pos_site_id
 _symmetry_equiv_pos_as_xyz
  1  'x, y, z'
loop_
 _atom_site_type_symbol
 _atom_site_label
 _atom_site_symmetry_multiplicity
 _atom_site_fract_x
 _atom_site_fract_y
 _atom_site_fract_z
 _atom_site_occupancy
  Ce  Ce0  1  0.79757224  0.96524944  0.77874854  1
  Ce  Ce1  1  0.20242776  0.03475056  0.22125146  1
  B  B2  1  0.56433132  0.56263044  0.80526775  1
  B  B3  1  0.16654162  0.34923062  0.85141087  1
  B  B4  1  0.43566868  0.43736956  0.19473225  1
  B  B5  1  0.83345838  0.65076938  0.14858913  1
  Cl  Cl6  1  0.85306188  0.80182312  0.45598015  1
  Cl  Cl7  1  0.14693812  0.19817688  0.54401985  1
  O  O8  1  0.09734545  0.46529005  0.17859458  1
  O  O9  1  0.47823190  0.37444407  0.81671288  1
  O  O10  1  0.15994889  0.15432455  0.92142026  1
  O  O11  1  0.52176810  0.62555593  0.18328712  1
  O  O12  1  0.36972948  0.76348205  0.79014619  1
  O  O13  1  0.63027052  0.23651795  0.20985381  1
  O  O14  1  0.84005111  0.84567545  0.07857974  1
  O  O15  1  0.90265455  0.53470995  0.82140542  1
