# generated using pymatgen
data_BiSeClO3
_symmetry_space_group_name_H-M   'P 1'
_cell_length_a   5.42971461
_cell_length_b   6.95272371
_cell_length_c   12.18242608
_cell_angle_alpha   90.00000000
_cell_angle_beta   90.00000000
_cell_angle_gamma   90.00000000
_symmetry_Int_Tables_number   1
_chemical_formula_structural   BiSeClO3
_chemical_formula_sum   'Bi4 Se4 Cl4 O12'
_cell_volume   459.90248877
_cell_formula_units_Z   4
loop_
 _symmetry_equiv_pos_site_id
 _symmetry_equiv_pos_as_xyz
  1  'x, y, z'
loop_
 _atom_site_type_symbol
 _atom_site_label
 _atom_site_symmetry_multiplicity
 _atom_site_fract_x
 _atom_site_fract_y
 _atom_site_fract_z
 _atom_site_occupancy
  Bi  Bi0  1  0.32095198  0.70624985  0.54664894  1
  Bi  Bi1  1  0.82095198  0.29375015  0.45335106  1
  Bi  Bi2  1  0.32095198  0.79375015  0.04664894  1
  Bi  Bi3  1  0.82095198  0.20624985  0.95335106  1
  Se  Se4  1  0.82247176  0.98180137  0.20847144  1
  Se  Se5  1  0.32247176  0.48180137  0.29152856  1
  Se  Se6  1  0.32247176  0.01819863  0.79152856  1
  Se  Se7  1  0.82247176  0.51819863  0.70847144  1
  Cl  Cl8  1  0.32495562  0.39230973  0.94604652  1
  Cl  Cl9  1  0.32495562  0.10769027  0.44604652  1
  Cl  Cl10  1  0.82495562  0.89230973  0.55395348  1
  Cl  Cl11  1  0.82495562  0.60769027  0.05395348  1
  O  O12  1  0.82158461  0.29870200  0.77322539  1
  O  O13  1  0.08673865  0.97216406  0.88651271  1
  O  O14  1  0.82158461  0.20129800  0.27322539  1
  O  O15  1  0.06189738  0.02820791  0.11553406  1
  O  O16  1  0.06189738  0.47179209  0.61553406  1
  O  O17  1  0.58673865  0.02783594  0.11348729  1
  O  O18  1  0.56189738  0.52820791  0.38446594  1
  O  O19  1  0.56189738  0.97179209  0.88446594  1
  O  O20  1  0.32158461  0.70129800  0.22677461  1
  O  O21  1  0.58673865  0.47216406  0.61348729  1
  O  O22  1  0.08673865  0.52783594  0.38651271  1
  O  O23  1  0.32158461  0.79870200  0.72677461  1
