# generated using pymatgen
data_NaCa3C2O7F3
_symmetry_space_group_name_H-M   'P 1'
_cell_length_a   6.76965348
_cell_length_b   6.76965439
_cell_length_c   15.33478038
_cell_angle_alpha   90.00000000
_cell_angle_beta   90.00000000
_cell_angle_gamma   120.00000026
_symmetry_Int_Tables_number   1
_chemical_formula_structural   NaCa3C2O7F3
_chemical_formula_sum   'Na3 Ca9 C6 O21 F9'
_cell_volume   608.61286392
_cell_formula_units_Z   3
loop_
 _symmetry_equiv_pos_site_id
 _symmetry_equiv_pos_as_xyz
  1  'x, y, z'
loop_
 _atom_site_type_symbol
 _atom_site_label
 _atom_site_symmetry_multiplicity
 _atom_site_fract_x
 _atom_site_fract_y
 _atom_site_fract_z
 _atom_site_occupancy
  Na  Na0  1  0.27698333  0.99959350  0.49847460  1
  Na  Na1  1  0.72261017  0.72301667  0.83180860  1
  Na  Na2  1  0.00040650  0.27738983  0.16514160  1
  Ca  Ca3  1  0.38162142  0.38175475  0.33240263  1
  Ca  Ca4  1  0.00013333  0.61837858  0.66573663  1
  Ca  Ca5  1  0.61824525  0.99986667  0.99906963  1
  Ca  Ca6  1  0.63327570  0.99920194  0.33587208  1
  Ca  Ca7  1  0.36592624  0.36672430  0.66920608  1
  Ca  Ca8  1  0.00079806  0.63407376  0.00253908  1
  Ca  Ca9  1  0.00007860  0.63239994  0.32707632  1
  Ca  Ca10  1  0.63232135  0.99992140  0.66041032  1
  Ca  Ca11  1  0.36760006  0.36767865  0.99374332  1
  C  C12  1  0.75884888  0.43439556  0.49989365  1
  C  C13  1  0.67554568  0.24115112  0.83322765  1
  C  C14  1  0.56560444  0.32445432  0.16656065  1
  C  C15  1  0.32551545  0.56658821  0.49930428  1
  C  C16  1  0.24107276  0.67448455  0.83263828  1
  C  C17  1  0.43341179  0.75892724  0.16597128  1
  O  O18  1  0.68436220  0.32841593  0.42560914  1
  O  O19  1  0.64405372  0.31563780  0.75894314  1
  O  O20  1  0.67158407  0.35594628  0.09227614  1
  O  O21  1  0.66585563  0.33022670  0.57253822  1
  O  O22  1  0.66437107  0.33414437  0.90587222  1
  O  O23  1  0.66977330  0.33562893  0.23920522  1
  O  O24  1  0.92527297  0.64162395  0.50072548  1
  O  O25  1  0.71635098  0.07472703  0.83405948  1
  O  O26  1  0.35837605  0.28364902  0.16739248  1
  O  O27  1  0.33242431  0.68366915  0.24063711  1
  O  O28  1  0.35124484  0.66757569  0.57397111  1
  O  O29  1  0.31633085  0.64875516  0.90730411  1
  O  O30  1  0.32538410  0.66658053  0.09358391  1
  O  O31  1  0.34119543  0.67461590  0.42691791  1
  O  O32  1  0.33341947  0.65880457  0.76025091  1
  O  O33  1  0.28559960  0.35953718  0.49620855  1
  O  O34  1  0.07393757  0.71440040  0.82954255  1
  O  O35  1  0.64046282  0.92606243  0.16287555  1
  O  O36  1  0.99937317  0.76870432  0.16279539  1
  O  O37  1  0.76933115  0.00062683  0.49612939  1
  O  O38  1  0.23129568  0.23066885  0.82946239  1
  F  F39  1  0.27471168  0.00514039  0.34983321  1
  F  F40  1  0.73042871  0.72528832  0.68316721  1
  F  F41  1  0.99485961  0.26957129  0.01650021  1
  F  F42  1  0.72429759  0.72271674  0.33142631  1
  F  F43  1  0.99841915  0.27570241  0.66476031  1
  F  F44  1  0.27728326  0.00158085  0.99809331  1
  F  F45  1  0.00603456  0.27531356  0.31414812  1
  F  F46  1  0.26927900  0.99396544  0.64748212  1
  F  F47  1  0.72468644  0.73072100  0.98081512  1
