# generated using pymatgen
data_In4(P2O7)3
_symmetry_space_group_name_H-M   'P 1'
_cell_length_a   9.90623248
_cell_length_b   13.46972317
_cell_length_c   13.65702945
_cell_angle_alpha   108.80759321
_cell_angle_beta   90.00000000
_cell_angle_gamma   90.00000000
_symmetry_Int_Tables_number   1
_chemical_formula_structural   In4(P2O7)3
_chemical_formula_sum   'In16 P24 O84'
_cell_volume   1725.01523171
_cell_formula_units_Z   4
loop_
 _symmetry_equiv_pos_site_id
 _symmetry_equiv_pos_as_xyz
  1  'x, y, z'
loop_
 _atom_site_type_symbol
 _atom_site_label
 _atom_site_symmetry_multiplicity
 _atom_site_fract_x
 _atom_site_fract_y
 _atom_site_fract_z
 _atom_site_occupancy
  In  In0  1  0.77268150  0.21998718  0.73236581  1
  In  In1  1  0.24340764  0.77816014  0.76623860  1
  In  In2  1  0.77937464  0.51822785  0.52001431  1
  In  In3  1  0.74047363  0.01966625  0.02271390  1
  In  In4  1  0.72731850  0.71998718  0.73236581  1
  In  In5  1  0.25952637  0.98033375  0.97728610  1
  In  In6  1  0.72062536  0.01822785  0.52001431  1
  In  In7  1  0.27268150  0.28001282  0.26763419  1
  In  In8  1  0.74340764  0.72183986  0.23376140  1
  In  In9  1  0.75659236  0.22183986  0.23376140  1
  In  In10  1  0.75952637  0.51966625  0.02271390  1
  In  In11  1  0.22062536  0.48177215  0.47998569  1
  In  In12  1  0.25659236  0.27816014  0.76623860  1
  In  In13  1  0.24047363  0.48033375  0.97728610  1
  In  In14  1  0.22731850  0.78001282  0.26763419  1
  In  In15  1  0.27937464  0.98177215  0.47998569  1
  P  P16  1  0.82607196  0.48902898  0.76561903  1
  P  P17  1  0.67392804  0.98902898  0.76561903  1
  P  P18  1  0.96990451  0.82552332  0.92456488  1
  P  P19  1  0.97991823  0.29782001  0.43393983  1
  P  P20  1  0.03101498  0.17047225  0.57746802  1
  P  P21  1  0.46990451  0.67447668  0.07543512  1
  P  P22  1  0.46898502  0.67047225  0.57746802  1
  P  P23  1  0.96898502  0.82952775  0.42253198  1
  P  P24  1  0.35816237  0.01668218  0.73895006  1
  P  P25  1  0.52008177  0.79782001  0.43393983  1
  P  P26  1  0.64183763  0.98331782  0.26104994  1
  P  P27  1  0.53101498  0.32952775  0.42253198  1
  P  P28  1  0.47991823  0.20217999  0.56606017  1
  P  P29  1  0.51698614  0.80486286  0.93424364  1
  P  P30  1  0.53009549  0.32552332  0.92456488  1
  P  P31  1  0.02008177  0.70217999  0.56606017  1
  P  P32  1  0.14183763  0.51668218  0.73895006  1
  P  P33  1  0.32607196  0.01097102  0.23438097  1
  P  P34  1  0.85816237  0.48331782  0.26104994  1
  P  P35  1  0.01698614  0.69513714  0.06575636  1
  P  P36  1  0.03009549  0.17447668  0.07543512  1
  P  P37  1  0.98301386  0.30486286  0.93424364  1
  P  P38  1  0.17392804  0.51097102  0.23438097  1
  P  P39  1  0.48301386  0.19513714  0.06575636  1
  O  O40  1  0.33888411  0.96085812  0.62335656  1
  O  O41  1  0.92294514  0.75248691  0.31999457  1
  O  O42  1  0.79030403  0.54644233  0.19645092  1
  O  O43  1  0.12364016  0.84856126  0.41557117  1
  O  O44  1  0.58459661  0.71930156  0.84731042  1
  O  O45  1  0.55201090  0.27487274  0.50901396  1
  O  O46  1  0.89349619  0.77491690  0.82580509  1
  O  O47  1  0.89587996  0.65687463  0.60715726  1
  O  O48  1  0.10650381  0.22508310  0.17419491  1
  O  O49  1  0.87635984  0.15143874  0.58442883  1
  O  O50  1  0.39349619  0.72508310  0.17419491  1
  O  O51  1  0.62364016  0.65143874  0.58442883  1
  O  O52  1  0.37635984  0.34856126  0.41557117  1
  O  O53  1  0.68887190  0.87118932  0.72107598  1
  O  O54  1  0.39672233  0.27751387  0.65111935  1
  O  O55  1  0.13261902  0.32377027  0.90956920  1
  O  O56  1  0.81112810  0.37118932  0.72107598  1
  O  O57  1  0.89672233  0.22248613  0.34888065  1
  O  O58  1  0.81045851  0.37017986  0.22289557  1
  O  O59  1  0.89108345  0.93090742  0.45745898  1
  O  O60  1  0.51648606  0.01966596  0.76700548  1
  O  O61  1  0.01648606  0.48033404  0.23299452  1
  O  O62  1  0.94798910  0.77487274  0.50901396  1
  O  O63  1  0.70969597  0.04644233  0.19645092  1
  O  O64  1  0.86738098  0.67622973  0.09043080  1
  O  O65  1  0.39210148  0.36441587  0.89589744  1
  O  O66  1  0.41540339  0.28069844  0.15268958  1
  O  O67  1  0.59859602  0.88581119  0.51083404  1
  O  O68  1  0.72751487  0.04099239  0.87485849  1
  O  O69  1  0.29030403  0.95355767  0.80354908  1
  O  O70  1  0.18887190  0.62881068  0.27892402  1
  O  O71  1  0.98892474  0.26765125  0.03342508  1
  O  O72  1  0.22751487  0.45900761  0.12514151  1
  O  O73  1  0.10891655  0.06909258  0.54254102  1
  O  O74  1  0.39801495  0.59040611  0.99034395  1
  O  O75  1  0.83888411  0.53914188  0.37664344  1
  O  O76  1  0.58808445  0.90930931  0.97176416  1
  O  O77  1  0.60650381  0.27491690  0.82580509  1
  O  O78  1  0.16111589  0.46085812  0.62335656  1
  O  O79  1  0.91540339  0.21930156  0.84731042  1
  O  O80  1  0.89210148  0.13558413  0.10410256  1
  O  O81  1  0.91191555  0.40930931  0.97176416  1
  O  O82  1  0.48892474  0.23234875  0.96657492  1
  O  O83  1  0.60412004  0.15687463  0.60715726  1
  O  O84  1  0.60789852  0.63558413  0.10410256  1
  O  O85  1  0.18954149  0.62982014  0.77710443  1
  O  O86  1  0.31045851  0.12982014  0.77710443  1
  O  O87  1  0.10198505  0.09040611  0.99034395  1
  O  O88  1  0.10412004  0.34312537  0.39284274  1
  O  O89  1  0.60198505  0.40959389  0.00965605  1
  O  O90  1  0.42294514  0.74751309  0.68000543  1
  O  O91  1  0.08459661  0.78069844  0.15268958  1
  O  O92  1  0.36738098  0.82377027  0.90956920  1
  O  O93  1  0.41191555  0.09069069  0.02823584  1
  O  O94  1  0.77248513  0.54099239  0.87485849  1
  O  O95  1  0.44798910  0.72512726  0.49098604  1
  O  O96  1  0.40140398  0.11418881  0.48916596  1
  O  O97  1  0.01107526  0.73234875  0.96657492  1
  O  O98  1  0.10789852  0.86441587  0.89589744  1
  O  O99  1  0.39587996  0.84312537  0.39284274  1
  O  O100  1  0.31112810  0.12881068  0.27892402  1
  O  O101  1  0.90140398  0.38581119  0.51083404  1
  O  O102  1  0.10327767  0.77751387  0.65111935  1
  O  O103  1  0.57705486  0.25248691  0.31999457  1
  O  O104  1  0.25604691  0.95646136  0.30661166  1
  O  O105  1  0.60327767  0.72248613  0.34888065  1
  O  O106  1  0.48351394  0.98033404  0.23299452  1
  O  O107  1  0.98351394  0.51966596  0.76700548  1
  O  O108  1  0.39108345  0.56909258  0.54254102  1
  O  O109  1  0.27248513  0.95900761  0.12514151  1
  O  O110  1  0.08808445  0.59069069  0.02823584  1
  O  O111  1  0.74395309  0.04353864  0.69338834  1
  O  O112  1  0.05201090  0.22512726  0.49098604  1
  O  O113  1  0.51107526  0.76765125  0.03342508  1
  O  O114  1  0.24395309  0.45646136  0.30661166  1
  O  O115  1  0.89801495  0.90959389  0.00965605  1
  O  O116  1  0.60891655  0.43090742  0.45745898  1
  O  O117  1  0.07705486  0.24751309  0.68000543  1
  O  O118  1  0.63261902  0.17622973  0.09043080  1
  O  O119  1  0.75604691  0.54353864  0.69338834  1
  O  O120  1  0.66111589  0.03914188  0.37664344  1
  O  O121  1  0.20969597  0.45355767  0.80354908  1
  O  O122  1  0.68954149  0.87017986  0.22289557  1
  O  O123  1  0.09859602  0.61418881  0.48916596  1
