# generated using pymatgen
data_NaBe2BO3F2
_symmetry_space_group_name_H-M   'P 1'
_cell_length_a   7.64204388
_cell_length_b   7.78453734
_cell_length_c   7.78453672
_cell_angle_alpha   68.53467591
_cell_angle_beta   70.89166211
_cell_angle_gamma   70.89165844
_symmetry_Int_Tables_number   1
_chemical_formula_structural   NaBe2BO3F2
_chemical_formula_sum   'Na4 Be8 B4 O12 F8'
_cell_volume   395.72599866
_cell_formula_units_Z   4
loop_
 _symmetry_equiv_pos_site_id
 _symmetry_equiv_pos_as_xyz
  1  'x, y, z'
loop_
 _atom_site_type_symbol
 _atom_site_label
 _atom_site_symmetry_multiplicity
 _atom_site_fract_x
 _atom_site_fract_y
 _atom_site_fract_z
 _atom_site_occupancy
  Na  Na0  1  0.00000000  0.18470029  0.81529971  1
  Na  Na1  1  0.50000000  0.33847936  0.66152064  1
  Na  Na2  1  1.00000000  0.59695432  0.40304568  1
  Na  Na3  1  0.50000000  0.74001304  0.25998696  1
  Be  Be4  1  0.80443791  0.35181022  0.20460176  1
  Be  Be5  1  0.80139691  0.91121267  0.70741521  1
  Be  Be6  1  0.29959705  0.64204597  0.99217872  1
  Be  Be7  1  0.69603665  0.56814172  0.86276125  1
  Be  Be8  1  0.19860309  0.29258479  0.08878733  1
  Be  Be9  1  0.30396335  0.13723875  0.43185828  1
  Be  Be10  1  0.19556209  0.79539824  0.64818978  1
  Be  Be11  1  0.70040295  0.00782128  0.35795403  1
  B  B12  1  0.52228816  0.30578788  0.12426284  1
  B  B13  1  0.98580850  0.60640213  0.93819723  1
  B  B14  1  0.01419150  0.06180277  0.39359787  1
  B  B15  1  0.47771184  0.87573716  0.69421212  1
  O  O16  1  0.86316273  0.97532697  0.46989102  1
  O  O17  1  0.50851404  0.48114688  0.98797267  1
  O  O18  1  0.13683727  0.53010898  0.02467303  1
  O  O19  1  0.16443241  0.99596537  0.48027799  1
  O  O20  1  0.63063220  0.80068305  0.77792146  1
  O  O21  1  0.49148596  0.01202733  0.51885312  1
  O  O22  1  0.36936780  0.22207854  0.19931695  1
  O  O23  1  0.31522253  0.80746808  0.78346100  1
  O  O24  1  0.01240813  0.21787377  0.23627907  1
  O  O25  1  0.83556759  0.51972201  0.00403463  1
  O  O26  1  0.68477747  0.21653900  0.19253192  1
  O  O27  1  0.98759187  0.76372093  0.78212623  1
  F  F28  1  0.19430409  0.30026127  0.52162967  1
  F  F29  1  0.80569591  0.47837033  0.69973873  1
  F  F30  1  0.25423069  0.22592991  0.90992558  1
  F  F31  1  0.69024229  0.44256517  0.36614311  1
  F  F32  1  0.74639116  0.84134162  0.27529110  1
  F  F33  1  0.25360884  0.72470890  0.15865838  1
  F  F34  1  0.30975771  0.63385689  0.55743483  1
  F  F35  1  0.74576931  0.09007442  0.77407009  1
