# generated using pymatgen
data_Ba3AlF9
_symmetry_space_group_name_H-M   'P 1'
_cell_length_a   5.65912214
_cell_length_b   10.23109246
_cell_length_c   15.07179483
_cell_angle_alpha   90.00000000
_cell_angle_beta   90.00000000
_cell_angle_gamma   90.00000000
_symmetry_Int_Tables_number   1
_chemical_formula_structural   Ba3AlF9
_chemical_formula_sum   'Ba12 Al4 F36'
_cell_volume   872.64187685
_cell_formula_units_Z   4
loop_
 _symmetry_equiv_pos_site_id
 _symmetry_equiv_pos_as_xyz
  1  'x, y, z'
loop_
 _atom_site_type_symbol
 _atom_site_label
 _atom_site_symmetry_multiplicity
 _atom_site_fract_x
 _atom_site_fract_y
 _atom_site_fract_z
 _atom_site_occupancy
  Ba  Ba0  1  0.25000000  0.33013603  0.95915288  1
  Ba  Ba1  1  0.75000000  0.76515687  0.31963284  1
  Ba  Ba2  1  0.75000000  0.66986397  0.04084712  1
  Ba  Ba3  1  0.25000000  0.94694214  0.10071468  1
  Ba  Ba4  1  0.25000000  0.44694214  0.39928532  1
  Ba  Ba5  1  0.75000000  0.26515687  0.18036716  1
  Ba  Ba6  1  0.25000000  0.23484313  0.68036716  1
  Ba  Ba7  1  0.25000000  0.73484313  0.81963284  1
  Ba  Ba8  1  0.75000000  0.16986397  0.45915288  1
  Ba  Ba9  1  0.25000000  0.83013603  0.54084712  1
  Ba  Ba10  1  0.75000000  0.05305786  0.89928532  1
  Ba  Ba11  1  0.75000000  0.55305786  0.60071468  1
  Al  Al12  1  0.25000000  0.02390256  0.33115392  1
  Al  Al13  1  0.25000000  0.52390256  0.16884608  1
  Al  Al14  1  0.75000000  0.47609744  0.83115392  1
  Al  Al15  1  0.75000000  0.97609744  0.66884608  1
  F  F16  1  0.48105043  0.45549454  0.09403296  1
  F  F17  1  0.51894957  0.54450546  0.90596704  1
  F  F18  1  0.02115018  0.58486171  0.24132575  1
  F  F19  1  0.25000000  0.67259500  0.10058647  1
  F  F20  1  0.75000000  0.32740500  0.89941353  1
  F  F21  1  0.49698852  0.35129878  0.54380102  1
  F  F22  1  0.25000000  0.64322377  0.65232356  1
  F  F23  1  0.01894957  0.45549454  0.09403296  1
  F  F24  1  0.99698852  0.14870122  0.04380102  1
  F  F25  1  0.75000000  0.85677623  0.15232356  1
  F  F26  1  0.49698852  0.85129878  0.95619898  1
  F  F27  1  0.75000000  0.35677623  0.34767644  1
  F  F28  1  0.97884982  0.41513829  0.75867425  1
  F  F29  1  0.02115018  0.08486171  0.25867425  1
  F  F30  1  0.52115018  0.91513829  0.74132575  1
  F  F31  1  0.97884982  0.91513829  0.74132575  1
  F  F32  1  0.48105043  0.95549454  0.40596704  1
  F  F33  1  0.51894957  0.04450546  0.59403296  1
  F  F34  1  0.00301148  0.85129878  0.95619898  1
  F  F35  1  0.25000000  0.14322377  0.84767644  1
  F  F36  1  0.00301148  0.35129878  0.54380102  1
  F  F37  1  0.75000000  0.13342801  0.72652512  1
  F  F38  1  0.75000000  0.82740500  0.60058647  1
  F  F39  1  0.25000000  0.36657199  0.22652512  1
  F  F40  1  0.47884982  0.58486171  0.24132575  1
  F  F41  1  0.98105043  0.54450546  0.90596704  1
  F  F42  1  0.98105043  0.04450546  0.59403296  1
  F  F43  1  0.25000000  0.86657199  0.27347488  1
  F  F44  1  0.50301148  0.64870122  0.45619898  1
  F  F45  1  0.50301148  0.14870122  0.04380102  1
  F  F46  1  0.47884982  0.08486171  0.25867425  1
  F  F47  1  0.25000000  0.17259500  0.39941353  1
  F  F48  1  0.01894957  0.95549454  0.40596704  1
  F  F49  1  0.99698852  0.64870122  0.45619898  1
  F  F50  1  0.52115018  0.41513829  0.75867425  1
  F  F51  1  0.75000000  0.63342801  0.77347488  1
