# generated using pymatgen
data_Ho2(Ni5B3)3
_symmetry_space_group_name_H-M   'P 1'
_cell_length_a   9.81824439
_cell_length_b   9.81824392
_cell_length_c   11.23353938
_cell_angle_alpha   90.00000000
_cell_angle_beta   90.00000000
_cell_angle_gamma   107.66972819
_symmetry_Int_Tables_number   1
_chemical_formula_structural   Ho2(Ni5B3)3
_chemical_formula_sum   'Ho8 Ni60 B36'
_cell_volume   1031.80121690
_cell_formula_units_Z   4
loop_
 _symmetry_equiv_pos_site_id
 _symmetry_equiv_pos_as_xyz
  1  'x, y, z'
loop_
 _atom_site_type_symbol
 _atom_site_label
 _atom_site_symmetry_multiplicity
 _atom_site_fract_x
 _atom_site_fract_y
 _atom_site_fract_z
 _atom_site_occupancy
  B  B0  1  0.13484810  0.86515190  0.00000000  1
  B  B1  1  0.36515190  0.63484810  0.50000000  1
  B  B2  1  0.86515190  0.13484810  0.00000000  1
  B  B3  1  0.63484810  0.36515190  0.50000000  1
  B  B4  1  0.04387461  0.04387461  0.17251322  1
  B  B5  1  0.45612539  0.45612539  0.67251322  1
  B  B6  1  0.54387461  0.54387461  0.32748678  1
  B  B7  1  0.95612539  0.95612539  0.82748678  1
  B  B8  1  0.44143297  0.44143297  0.19890648  1
  B  B9  1  0.05856703  0.05856703  0.69890648  1
  B  B10  1  0.94143297  0.94143297  0.30109352  1
  B  B11  1  0.55856703  0.55856703  0.80109352  1
  B  B12  1  0.37828643  0.12024313  0.24372863  1
  B  B13  1  0.12171357  0.37975687  0.74372863  1
  B  B14  1  0.62024313  0.87828643  0.25627137  1
  B  B15  1  0.87975687  0.62171357  0.75627137  1
  B  B16  1  0.62171357  0.87975687  0.75627137  1
  B  B17  1  0.87828643  0.62024313  0.25627137  1
  B  B18  1  0.37975687  0.12171357  0.74372863  1
  B  B19  1  0.12024313  0.37828643  0.24372863  1
  B  B20  1  0.20252564  0.90565342  0.44902620  1
  B  B21  1  0.29747436  0.59434658  0.94902620  1
  B  B22  1  0.40565342  0.70252564  0.05097380  1
  B  B23  1  0.09434658  0.79747436  0.55097380  1
  B  B24  1  0.79747436  0.09434658  0.55097380  1
  B  B25  1  0.70252564  0.40565342  0.05097380  1
  B  B26  1  0.59434658  0.29747436  0.94902620  1
  B  B27  1  0.90565342  0.20252564  0.44902620  1
  B  B28  1  0.44984213  0.04922370  0.09956120  1
  B  B29  1  0.05015787  0.45077630  0.59956120  1
  B  B30  1  0.54922370  0.94984213  0.40043880  1
  B  B31  1  0.95077630  0.55015787  0.90043880  1
  B  B32  1  0.55015787  0.95077630  0.90043880  1
  B  B33  1  0.94984213  0.54922370  0.40043880  1
  B  B34  1  0.45077630  0.05015787  0.59956120  1
  B  B35  1  0.04922370  0.44984213  0.09956120  1
  Ni  Ni36  1  0.00000000  0.00000000  0.00000000  1
  Ni  Ni37  1  0.50000000  0.50000000  0.50000000  1
  Ni  Ni38  1  0.50789665  0.31539013  0.33968760  1
  Ni  Ni39  1  0.99210335  0.18460987  0.83968760  1
  Ni  Ni40  1  0.81539013  0.00789665  0.16031240  1
  Ni  Ni41  1  0.68460987  0.49210335  0.66031240  1
  Ni  Ni42  1  0.49210335  0.68460987  0.66031240  1
  Ni  Ni43  1  0.00789665  0.81539013  0.16031240  1
  Ni  Ni44  1  0.18460987  0.99210335  0.83968760  1
  Ni  Ni45  1  0.31539013  0.50789665  0.33968760  1
  Ni  Ni46  1  0.50000000  0.50000000  0.00000000  1
  Ni  Ni47  1  0.00000000  0.00000000  0.50000000  1
  Ni  Ni48  1  0.56827476  0.06827476  0.25000000  1
  Ni  Ni49  1  0.93172524  0.43172524  0.75000000  1
  Ni  Ni50  1  0.43172524  0.93172524  0.75000000  1
  Ni  Ni51  1  0.06827476  0.56827476  0.25000000  1
  Ni  Ni52  1  0.26483981  0.26483981  0.21170236  1
  Ni  Ni53  1  0.23516019  0.23516019  0.71170236  1
  Ni  Ni54  1  0.76483981  0.76483981  0.28829764  1
  Ni  Ni55  1  0.73516019  0.73516019  0.78829764  1
  Ni  Ni56  1  0.66242929  0.13543264  0.02984696  1
  Ni  Ni57  1  0.83757071  0.36456736  0.52984696  1
  Ni  Ni58  1  0.63543264  0.16242929  0.47015304  1
  Ni  Ni59  1  0.86456736  0.33757071  0.97015304  1
  Ni  Ni60  1  0.33757071  0.86456736  0.97015304  1
  Ni  Ni61  1  0.16242929  0.63543264  0.47015304  1
  Ni  Ni62  1  0.36456736  0.83757071  0.52984696  1
  Ni  Ni63  1  0.13543264  0.66242929  0.02984696  1
  Ni  Ni64  1  0.16742897  0.00973501  0.30671706  1
  Ni  Ni65  1  0.33257103  0.49026499  0.80671706  1
  Ni  Ni66  1  0.50973501  0.66742897  0.19328294  1
  Ni  Ni67  1  0.99026499  0.83257103  0.69328294  1
  Ni  Ni68  1  0.83257103  0.99026499  0.69328294  1
  Ni  Ni69  1  0.66742897  0.50973501  0.19328294  1
  Ni  Ni70  1  0.49026499  0.33257103  0.80671706  1
  Ni  Ni71  1  0.00973501  0.16742897  0.30671706  1
  Ni  Ni72  1  0.39232703  0.05245912  0.41446283  1
  Ni  Ni73  1  0.10767297  0.44754088  0.91446283  1
  Ni  Ni74  1  0.55245912  0.89232703  0.08553717  1
  Ni  Ni75  1  0.94754088  0.60767297  0.58553717  1
  Ni  Ni76  1  0.60767297  0.94754088  0.58553717  1
  Ni  Ni77  1  0.89232703  0.55245912  0.08553717  1
  Ni  Ni78  1  0.44754088  0.10767297  0.91446283  1
  Ni  Ni79  1  0.05245912  0.39232703  0.41446283  1
  Ni  Ni80  1  0.50436923  0.27172999  0.11749433  1
  Ni  Ni81  1  0.99563077  0.22827001  0.61749433  1
  Ni  Ni82  1  0.77172999  0.00436923  0.38250567  1
  Ni  Ni83  1  0.72827001  0.49563077  0.88250567  1
  Ni  Ni84  1  0.49563077  0.72827001  0.88250567  1
  Ni  Ni85  1  0.00436923  0.77172999  0.38250567  1
  Ni  Ni86  1  0.22827001  0.99563077  0.61749433  1
  Ni  Ni87  1  0.27172999  0.50436923  0.11749433  1
  Ni  Ni88  1  0.24221830  0.02873031  0.09744548  1
  Ni  Ni89  1  0.25778170  0.47126969  0.59744548  1
  Ni  Ni90  1  0.52873031  0.74221830  0.40255452  1
  Ni  Ni91  1  0.97126969  0.75778170  0.90255452  1
  Ni  Ni92  1  0.75778170  0.97126969  0.90255452  1
  Ni  Ni93  1  0.74221830  0.52873031  0.40255452  1
  Ni  Ni94  1  0.47126969  0.25778170  0.59744548  1
  Ni  Ni95  1  0.02873031  0.24221830  0.09744548  1
  Ho  Ho96  1  0.30752337  0.80752337  0.25000000  1
  Ho  Ho97  1  0.19247663  0.69247663  0.75000000  1
  Ho  Ho98  1  0.69247663  0.19247663  0.75000000  1
  Ho  Ho99  1  0.80752337  0.30752337  0.25000000  1
  Ho  Ho100  1  0.23909463  0.23909463  0.45905279  1
  Ho  Ho101  1  0.26090537  0.26090537  0.95905279  1
  Ho  Ho102  1  0.73909463  0.73909463  0.04094721  1
  Ho  Ho103  1  0.76090537  0.76090537  0.54094721  1
