# generated using pymatgen
data_BaCuPClO4
_symmetry_space_group_name_H-M   'P 1'
_cell_length_a   7.38458671
_cell_length_b   7.99510307
_cell_length_c   8.81026045
_cell_angle_alpha   90.00000000
_cell_angle_beta   90.00000000
_cell_angle_gamma   90.00000000
_symmetry_Int_Tables_number   1
_chemical_formula_structural   BaCuPClO4
_chemical_formula_sum   'Ba4 Cu4 P4 Cl4 O16'
_cell_volume   520.16246293
_cell_formula_units_Z   4
loop_
 _symmetry_equiv_pos_site_id
 _symmetry_equiv_pos_as_xyz
  1  'x, y, z'
loop_
 _atom_site_type_symbol
 _atom_site_label
 _atom_site_symmetry_multiplicity
 _atom_site_fract_x
 _atom_site_fract_y
 _atom_site_fract_z
 _atom_site_occupancy
  Ba  Ba0  1  0.37373730  0.01760281  0.29756957  1
  Ba  Ba1  1  0.12626270  0.98239719  0.79756957  1
  Ba  Ba2  1  0.87373730  0.48239719  0.70243043  1
  Ba  Ba3  1  0.62626270  0.51760281  0.20243043  1
  Cu  Cu4  1  0.86479921  0.01543788  0.18247078  1
  Cu  Cu5  1  0.36479921  0.48456212  0.81752922  1
  Cu  Cu6  1  0.13520079  0.51543788  0.31752922  1
  Cu  Cu7  1  0.63520079  0.98456212  0.68247078  1
  P  P8  1  0.37322849  0.68375911  0.58124398  1
  P  P9  1  0.87322849  0.81624089  0.41875602  1
  P  P10  1  0.12677151  0.31624089  0.08124398  1
  P  P11  1  0.62677151  0.18375911  0.91875602  1
  Cl  Cl12  1  0.33027408  0.73824100  0.04150626  1
  Cl  Cl13  1  0.16972592  0.26175900  0.54150626  1
  Cl  Cl14  1  0.66972592  0.23824100  0.45849374  1
  Cl  Cl15  1  0.83027408  0.76175900  0.95849374  1
  O  O16  1  0.16298261  0.36030096  0.91258593  1
  O  O17  1  0.97530794  0.42295771  0.15538802  1
  O  O18  1  0.70678805  0.85026944  0.31298936  1
  O  O19  1  0.92175898  0.62601225  0.41470247  1
  O  O20  1  0.29321195  0.35026944  0.18701064  1
  O  O21  1  0.57824102  0.37398775  0.91470247  1
  O  O22  1  0.33701739  0.63969904  0.41258593  1
  O  O23  1  0.52469206  0.57704229  0.65538802  1
  O  O24  1  0.79321195  0.14973056  0.81298936  1
  O  O25  1  0.02469206  0.92295771  0.34461198  1
  O  O26  1  0.42175898  0.87398775  0.58529753  1
  O  O27  1  0.83701739  0.86030096  0.58741407  1
  O  O28  1  0.47530794  0.07704229  0.84461198  1
  O  O29  1  0.66298261  0.13969904  0.08741407  1
  O  O30  1  0.07824102  0.12601225  0.08529753  1
  O  O31  1  0.20678805  0.64973056  0.68701064  1
