# generated using pymatgen
data_Ba5B4(O5F)2
_symmetry_space_group_name_H-M   'P 1'
_cell_length_a   7.19900356
_cell_length_b   8.73350880
_cell_length_c   11.11509315
_cell_angle_alpha   94.97871476
_cell_angle_beta   108.89525940
_cell_angle_gamma   90.00000268
_symmetry_Int_Tables_number   1
_chemical_formula_structural   Ba5B4(O5F)2
_chemical_formula_sum   'Ba10 B8 O20 F4'
_cell_volume   658.38819917
_cell_formula_units_Z   2
loop_
 _symmetry_equiv_pos_site_id
 _symmetry_equiv_pos_as_xyz
  1  'x, y, z'
loop_
 _atom_site_type_symbol
 _atom_site_label
 _atom_site_symmetry_multiplicity
 _atom_site_fract_x
 _atom_site_fract_y
 _atom_site_fract_z
 _atom_site_occupancy
  Ba  Ba0  1  0.55501918  0.25000000  0.00000000  1
  Ba  Ba1  1  0.96891472  0.60813594  0.17070027  1
  Ba  Ba2  1  0.44498082  0.75000000  1.00000000  1
  Ba  Ba3  1  0.41267776  0.19453219  0.59910413  1
  Ba  Ba4  1  0.58732224  0.80546781  0.40089587  1
  Ba  Ba5  1  0.79821446  0.89186406  0.82929973  1
  Ba  Ba6  1  0.81357363  0.30546781  0.40089587  1
  Ba  Ba7  1  0.20178554  0.10813594  0.17070027  1
  Ba  Ba8  1  0.03108528  0.39186406  0.82929973  1
  Ba  Ba9  1  0.18642637  0.69453219  0.59910413  1
  B  B10  1  0.68066528  0.58338650  0.62436176  1
  B  B11  1  0.41244698  0.49442049  0.18812411  1
  B  B12  1  0.05630352  0.91661350  0.37563824  1
  B  B13  1  0.31933472  0.41661350  0.37563824  1
  B  B14  1  0.22432287  0.00557951  0.81187589  1
  B  B15  1  0.58755302  0.50557951  0.81187589  1
  B  B16  1  0.94369648  0.08338650  0.62436176  1
  B  B17  1  0.77567713  0.99442049  0.18812411  1
  O  O18  1  0.94800298  0.03368426  0.29942428  1
  O  O19  1  0.35142130  0.53368426  0.29942428  1
  O  O20  1  0.72393672  0.58061381  0.91707737  1
  O  O21  1  0.80685935  0.91938619  0.08292263  1
  O  O22  1  0.04863338  0.21461851  0.62531693  1
  O  O23  1  0.40457088  0.45795928  0.80744548  1
  O  O24  1  0.19314065  0.08061381  0.91707737  1
  O  O25  1  0.18896103  0.44341098  0.43954002  1
  O  O26  1  0.57668356  0.71461851  0.62531693  1
  O  O27  1  0.59542912  0.54204072  0.19255452  1
  O  O28  1  0.40287461  0.95795928  0.80744548  1
  O  O29  1  0.25057899  0.94341098  0.43954002  1
  O  O30  1  0.74942101  0.05658902  0.56045998  1
  O  O31  1  0.81103897  0.55658902  0.56045998  1
  O  O32  1  0.27606328  0.41938619  0.08292263  1
  O  O33  1  0.42331644  0.28538149  0.37468307  1
  O  O34  1  0.05199702  0.96631574  0.70057572  1
  O  O35  1  0.59712539  0.04204072  0.19255452  1
  O  O36  1  0.64857870  0.46631574  0.70057572  1
  O  O37  1  0.95136662  0.78538149  0.37468307  1
  F  F38  1  0.90469181  0.30548303  0.16010297  1
  F  F39  1  0.25541116  0.80548303  0.16010297  1
  F  F40  1  0.09530819  0.69451697  0.83989703  1
  F  F41  1  0.74458884  0.19451697  0.83989703  1
