# generated using pymatgen
data_Yb3Y
_symmetry_space_group_name_H-M   'P 1'
_cell_length_a   7.49585531
_cell_length_b   7.49585561
_cell_length_c   6.12295580
_cell_angle_alpha   90.00000000
_cell_angle_beta   90.00000000
_cell_angle_gamma   120.00000754
_symmetry_Int_Tables_number   1
_chemical_formula_structural   Yb3Y
_chemical_formula_sum   'Yb6 Y2'
_cell_volume   297.94364766
_cell_formula_units_Z   2
loop_
 _symmetry_equiv_pos_site_id
 _symmetry_equiv_pos_as_xyz
  1  'x, y, z'
loop_
 _atom_site_type_symbol
 _atom_site_label
 _atom_site_symmetry_multiplicity
 _atom_site_fract_x
 _atom_site_fract_y
 _atom_site_fract_z
 _atom_site_occupancy
  Yb  Yb0  1  0.17047548  0.34094996  0.24999900  1
  Yb  Yb1  1  0.65904904  0.82952452  0.24999900  1
  Yb  Yb2  1  0.17047548  0.82952452  0.24999900  1
  Yb  Yb3  1  0.82952452  0.65905004  0.75000000  1
  Yb  Yb4  1  0.34094996  0.17047448  0.75000000  1
  Yb  Yb5  1  0.82952352  0.17047448  0.75000000  1
  Y  Y6  1  0.33333400  0.66666800  0.75000000  1
  Y  Y7  1  0.66666700  0.33333300  0.24999900  1
