# generated using pymatgen
data_Ti3O
_symmetry_space_group_name_H-M   'P 1'
_cell_length_a   5.15630908
_cell_length_b   5.15630871
_cell_length_c   14.28434039
_cell_angle_alpha   90.00000000
_cell_angle_beta   90.00000000
_cell_angle_gamma   120.00000235
_symmetry_Int_Tables_number   1
_chemical_formula_structural   Ti3O
_chemical_formula_sum   'Ti18 O6'
_cell_volume   328.90362891
_cell_formula_units_Z   6
loop_
 _symmetry_equiv_pos_site_id
 _symmetry_equiv_pos_as_xyz
  1  'x, y, z'
loop_
 _atom_site_type_symbol
 _atom_site_label
 _atom_site_symmetry_multiplicity
 _atom_site_fract_x
 _atom_site_fract_y
 _atom_site_fract_z
 _atom_site_occupancy
  Ti  Ti0  1  0.66148409  0.66109864  0.25528600  1
  Ti  Ti1  1  0.66212946  0.66210027  0.92160183  1
  Ti  Ti2  1  0.66716095  0.99455829  0.41144198  1
  Ti  Ti3  1  0.66716095  0.67260266  0.58855802  1
  Ti  Ti4  1  0.33789973  0.33787054  0.07839817  1
  Ti  Ti5  1  0.66212946  0.00002919  0.07839817  1
  Ti  Ti6  1  0.33789973  0.00002919  0.92160183  1
  Ti  Ti7  1  0.99961455  0.66109864  0.74471400  1
  Ti  Ti8  1  0.00544171  0.67260266  0.41144198  1
  Ti  Ti9  1  0.99961455  0.33851591  0.25528600  1
  Ti  Ti10  1  0.33890136  0.00038545  0.25528600  1
  Ti  Ti11  1  0.00544171  0.33283905  0.58855802  1
  Ti  Ti12  1  0.66148409  0.00038545  0.74471400  1
  Ti  Ti13  1  0.99997081  0.33787054  0.92160183  1
  Ti  Ti14  1  0.99997081  0.66210027  0.07839817  1
  Ti  Ti15  1  0.33890136  0.33851591  0.74471400  1
  Ti  Ti16  1  0.32739734  0.99455829  0.58855802  1
  Ti  Ti17  1  0.32739734  0.33283905  0.41144198  1
  O  O18  1  0.33333300  0.66666700  0.16655004  1
  O  O19  1  0.66666700  0.33333300  0.83318645  1
  O  O20  1  0.66666700  0.33333300  0.16681355  1
  O  O21  1  0.33333300  0.66666700  0.83344996  1
  O  O22  1  0.00000000  0.00000000  0.50000000  1
  O  O23  1  0.33333300  0.66666700  0.50000000  1
