# generated using pymatgen
data_Pr6Ti2S7O6
_symmetry_space_group_name_H-M   'P 1'
_cell_length_a   3.93272478
_cell_length_b   12.14015158
_cell_length_c   16.68130856
_cell_angle_alpha   97.72665027
_cell_angle_beta   90.00000000
_cell_angle_gamma   90.00000000
_symmetry_Int_Tables_number   1
_chemical_formula_structural   Pr6Ti2S7O6
_chemical_formula_sum   'Pr12 Ti4 S14 O12'
_cell_volume   789.19933651
_cell_formula_units_Z   2
loop_
 _symmetry_equiv_pos_site_id
 _symmetry_equiv_pos_as_xyz
  1  'x, y, z'
loop_
 _atom_site_type_symbol
 _atom_site_label
 _atom_site_symmetry_multiplicity
 _atom_site_fract_x
 _atom_site_fract_y
 _atom_site_fract_z
 _atom_site_occupancy
  Pr  Pr0  1  0.75000000  0.59365299  0.11920567  1
  Pr  Pr1  1  0.25000000  0.06417678  0.89156975  1
  Pr  Pr2  1  0.25000000  0.40634701  0.88079433  1
  Pr  Pr3  1  0.25000000  0.71885408  0.87652446  1
  Pr  Pr4  1  0.75000000  0.97600483  0.37585032  1
  Pr  Pr5  1  0.25000000  0.47405457  0.29092147  1
  Pr  Pr6  1  0.25000000  0.67793227  0.52719452  1
  Pr  Pr7  1  0.75000000  0.28114592  0.12347554  1
  Pr  Pr8  1  0.75000000  0.32206773  0.47280548  1
  Pr  Pr9  1  0.75000000  0.93582322  0.10843025  1
  Pr  Pr10  1  0.75000000  0.52594543  0.70907853  1
  Pr  Pr11  1  0.25000000  0.02399517  0.62414968  1
  Ti  Ti12  1  0.25000000  0.77813516  0.23553762  1
  Ti  Ti13  1  0.75000000  0.79666804  0.68728324  1
  Ti  Ti14  1  0.25000000  0.20333196  0.31271676  1
  Ti  Ti15  1  0.75000000  0.22186484  0.76446238  1
  S  S16  1  0.25000000  0.79726439  0.37427273  1
  S  S17  1  0.75000000  0.55248595  0.42006803  1
  S  S18  1  0.75000000  0.88415832  0.53708451  1
  S  S19  1  0.25000000  0.99688493  0.24481047  1
  S  S20  1  0.25000000  0.44751405  0.57993197  1
  S  S21  1  0.75000000  0.90112975  0.93246717  1
  S  S22  1  0.25000000  0.42129415  0.05873681  1
  S  S23  1  0.25000000  0.09887025  0.06753283  1
  S  S24  1  0.75000000  0.23362889  0.92902025  1
  S  S25  1  0.75000000  0.20273561  0.62572727  1
  S  S26  1  0.75000000  0.00311507  0.75518953  1
  S  S27  1  0.25000000  0.11584168  0.46291549  1
  S  S28  1  0.75000000  0.57870585  0.94126319  1
  S  S29  1  0.25000000  0.76637111  0.07097975  1
  O  O30  1  0.25000000  0.81941004  0.67125385  1
  O  O31  1  0.75000000  0.37186495  0.78917195  1
  O  O32  1  0.25000000  0.20572205  0.78286796  1
  O  O33  1  0.25000000  0.54828049  0.78613121  1
  O  O34  1  0.75000000  0.66711906  0.61429131  1
  O  O35  1  0.75000000  0.45171951  0.21386879  1
  O  O36  1  0.25000000  0.33288094  0.38570869  1
  O  O37  1  0.75000000  0.72706828  0.77704666  1
  O  O38  1  0.25000000  0.27293172  0.22295334  1
  O  O39  1  0.25000000  0.62813505  0.21082805  1
  O  O40  1  0.75000000  0.18058996  0.32874615  1
  O  O41  1  0.75000000  0.79427795  0.21713204  1
