# generated using pymatgen
data_AsSe(IF2)3
_symmetry_space_group_name_H-M   'P 1'
_cell_length_a   8.69695221
_cell_length_b   10.47482862
_cell_length_c   12.79885887
_cell_angle_alpha   90.00000000
_cell_angle_beta   99.02901964
_cell_angle_gamma   90.00000000
_symmetry_Int_Tables_number   1
_chemical_formula_structural   AsSe(IF2)3
_chemical_formula_sum   'As4 Se4 I12 F24'
_cell_volume   1151.51683339
_cell_formula_units_Z   4
loop_
 _symmetry_equiv_pos_site_id
 _symmetry_equiv_pos_as_xyz
  1  'x, y, z'
loop_
 _atom_site_type_symbol
 _atom_site_label
 _atom_site_symmetry_multiplicity
 _atom_site_fract_x
 _atom_site_fract_y
 _atom_site_fract_z
 _atom_site_occupancy
  As  As0  1  0.19757660  0.72547710  0.56663918  1
  As  As1  1  0.19757660  0.77452290  0.06663918  1
  As  As2  1  0.80242340  0.22547710  0.93336082  1
  As  As3  1  0.80242340  0.27452290  0.43336082  1
  Se  Se4  1  0.79872059  0.81876694  0.80100954  1
  Se  Se5  1  0.20127941  0.31876694  0.69899046  1
  Se  Se6  1  0.79872059  0.68123306  0.30100954  1
  Se  Se7  1  0.20127941  0.18123306  0.19899046  1
  I  I8  1  0.20956808  0.40926580  0.26671745  1
  I  I9  1  0.26197650  0.04087845  0.36228677  1
  I  I10  1  0.44415596  0.17314624  0.11062271  1
  I  I11  1  0.44415596  0.32685376  0.61062271  1
  I  I12  1  0.79043192  0.59073420  0.73328255  1
  I  I13  1  0.73802350  0.54087845  0.13771323  1
  I  I14  1  0.55584404  0.82685376  0.88937729  1
  I  I15  1  0.79043192  0.90926580  0.23328255  1
  I  I16  1  0.55584404  0.67314624  0.38937729  1
  I  I17  1  0.26197650  0.45912155  0.86228677  1
  I  I18  1  0.73802350  0.95912155  0.63771323  1
  I  I19  1  0.20956808  0.09073420  0.76671745  1
  F  F20  1  0.84522208  0.28335905  0.81111291  1
  F  F21  1  0.27817080  0.62215981  0.04079133  1
  F  F22  1  0.61546840  0.17548705  0.87227525  1
  F  F23  1  0.15477792  0.71664095  0.18888709  1
  F  F24  1  0.24145767  0.66947624  0.44206283  1
  F  F25  1  0.98752495  0.22317888  0.49808067  1
  F  F26  1  0.27817080  0.87784019  0.54079133  1
  F  F27  1  0.75854233  0.33052376  0.55793717  1
  F  F28  1  0.75854233  0.16947624  0.05793717  1
  F  F29  1  0.72182920  0.37784019  0.95920867  1
  F  F30  1  0.88057046  0.07371605  0.90989261  1
  F  F31  1  0.15477792  0.78335905  0.68888709  1
  F  F32  1  0.11942954  0.92628395  0.09010739  1
  F  F33  1  0.61546840  0.32451295  0.37227525  1
  F  F34  1  0.01247505  0.72317888  0.00191933  1
  F  F35  1  0.38453160  0.82451295  0.12772475  1
  F  F36  1  0.84522208  0.21664095  0.31111291  1
  F  F37  1  0.01247505  0.77682112  0.50191933  1
  F  F38  1  0.98752495  0.27682112  0.99808067  1
  F  F39  1  0.24145767  0.83052376  0.94206283  1
  F  F40  1  0.72182920  0.12215981  0.45920867  1
  F  F41  1  0.11942954  0.57371605  0.59010739  1
  F  F42  1  0.88057046  0.42628395  0.40989261  1
  F  F43  1  0.38453160  0.67548705  0.62772475  1
