# generated using pymatgen
data_Ba2Zn(BO2)6
_symmetry_space_group_name_H-M   'P 1'
_cell_length_a   7.23302252
_cell_length_b   7.27401908
_cell_length_c   12.29310193
_cell_angle_alpha   96.03434876
_cell_angle_beta   94.39228387
_cell_angle_gamma   119.72552084
_symmetry_Int_Tables_number   1
_chemical_formula_structural   Ba2Zn(BO2)6
_chemical_formula_sum   'Ba4 Zn2 B12 O24'
_cell_volume   552.31903058
_cell_formula_units_Z   2
loop_
 _symmetry_equiv_pos_site_id
 _symmetry_equiv_pos_as_xyz
  1  'x, y, z'
loop_
 _atom_site_type_symbol
 _atom_site_label
 _atom_site_symmetry_multiplicity
 _atom_site_fract_x
 _atom_site_fract_y
 _atom_site_fract_z
 _atom_site_occupancy
  Ba  Ba0  1  0.34492014  0.68092370  0.04966734  1
  Ba  Ba1  1  0.26352240  0.58305103  0.71414430  1
  Ba  Ba2  1  0.65507986  0.31907630  0.95033266  1
  Ba  Ba3  1  0.73647760  0.41694897  0.28585570  1
  Zn  Zn4  1  0.88864345  0.85968052  0.58368258  1
  Zn  Zn5  1  0.11135655  0.14031948  0.41631742  1
  B  B6  1  0.74721538  0.42718235  0.62324826  1
  B  B7  1  0.24967547  0.07979048  0.12386057  1
  B  B8  1  0.37865705  0.95196878  0.36786336  1
  B  B9  1  0.36485450  0.17417905  0.61800542  1
  B  B10  1  0.62134295  0.04803122  0.63213664  1
  B  B11  1  0.25278462  0.57281765  0.37675174  1
  B  B12  1  0.99687451  0.21668707  0.13009040  1
  B  B13  1  0.13716989  0.17102057  0.87075011  1
  B  B14  1  0.86283011  0.82897943  0.12924989  1
  B  B15  1  0.75032453  0.92020952  0.87613943  1
  B  B16  1  0.00312549  0.78331293  0.86990960  1
  B  B17  1  0.63514550  0.82582095  0.38199458  1
  O  O18  1  0.16205297  0.13746660  0.59230852  1
  O  O19  1  0.41038148  0.01295263  0.63325265  1
  O  O20  1  0.21264260  0.74152317  0.36667201  1
  O  O21  1  0.46392460  0.61510551  0.37365042  1
  O  O22  1  0.44551079  0.10946843  0.11756694  1
  O  O23  1  0.78735740  0.25847683  0.63332799  1
  O  O24  1  0.03785020  0.62051441  0.87467718  1
  O  O25  1  0.83157023  0.00691668  0.13642750  1
  O  O26  1  0.58961852  0.98704737  0.36674735  1
  O  O27  1  0.55448921  0.89053157  0.88243306  1
  O  O28  1  0.83794703  0.86253340  0.40769148  1
  O  O29  1  0.16842977  0.99308332  0.86357250  1
  O  O30  1  0.69628170  0.63184229  0.12656827  1
  O  O31  1  0.91096485  0.61602864  0.60937881  1
  O  O32  1  0.20617100  0.24891101  0.12766551  1
  O  O33  1  0.07413254  0.87135317  0.12395811  1
  O  O34  1  0.30371830  0.36815771  0.87343173  1
  O  O35  1  0.35409022  0.12267736  0.37241153  1
  O  O36  1  0.92586746  0.12864683  0.87604189  1
  O  O37  1  0.08903515  0.38397136  0.39062119  1
  O  O38  1  0.96214980  0.37948559  0.12532282  1
  O  O39  1  0.53607540  0.38489449  0.62634958  1
  O  O40  1  0.79382900  0.75108899  0.87233449  1
  O  O41  1  0.64590978  0.87732264  0.62758847  1
