# generated using pymatgen
data_LaGaSe2O
_symmetry_space_group_name_H-M   'P 1'
_cell_length_a   5.99136817
_cell_length_b   6.01113089
_cell_length_c   12.44816869
_cell_angle_alpha   90.00000000
_cell_angle_beta   90.00000000
_cell_angle_gamma   90.00000000
_symmetry_Int_Tables_number   1
_chemical_formula_structural   LaGaSe2O
_chemical_formula_sum   'La4 Ga4 Se8 O4'
_cell_volume   448.31952914
_cell_formula_units_Z   4
loop_
 _symmetry_equiv_pos_site_id
 _symmetry_equiv_pos_as_xyz
  1  'x, y, z'
loop_
 _atom_site_type_symbol
 _atom_site_label
 _atom_site_symmetry_multiplicity
 _atom_site_fract_x
 _atom_site_fract_y
 _atom_site_fract_z
 _atom_site_occupancy
  La  La0  1  0.75608538  0.49725849  0.09418578  1
  La  La1  1  0.25608538  0.00274151  0.09418578  1
  La  La2  1  0.25608538  0.50274151  0.90581422  1
  La  La3  1  0.75608538  0.99725849  0.90581422  1
  Ga  Ga4  1  0.65782823  0.07714791  0.39794995  1
  Ga  Ga5  1  0.15782823  0.92285209  0.60205005  1
  Ga  Ga6  1  0.65782823  0.57714791  0.60205005  1
  Ga  Ga7  1  0.15782823  0.42285209  0.39794995  1
  Se  Se8  1  0.75292749  0.99365330  0.21935803  1
  Se  Se9  1  0.24989611  0.02356306  0.41448085  1
  Se  Se10  1  0.25292749  0.50634670  0.21935803  1
  Se  Se11  1  0.74989611  0.47643694  0.41448085  1
  Se  Se12  1  0.24989611  0.52356306  0.58551915  1
  Se  Se13  1  0.74989611  0.97643694  0.58551915  1
  Se  Se14  1  0.75292749  0.49365330  0.78064197  1
  Se  Se15  1  0.25292749  0.00634670  0.78064197  1
  O  O16  1  0.00256278  0.24964027  0.99866396  1
  O  O17  1  0.00256278  0.74964027  0.00133604  1
  O  O18  1  0.50256278  0.75035973  0.00133604  1
  O  O19  1  0.50256278  0.25035973  0.99866396  1
