# generated using pymatgen
data_B2H12C3(NO)6
_symmetry_space_group_name_H-M   'P 1'
_cell_length_a   3.82169384
_cell_length_b   14.11796746
_cell_length_c   20.01524507
_cell_angle_alpha   90.00000000
_cell_angle_beta   90.00000000
_cell_angle_gamma   89.64885877
_symmetry_Int_Tables_number   1
_chemical_formula_structural   B2H12C3(NO)6
_chemical_formula_sum   'B8 H48 C12 N24 O24'
_cell_volume   1079.89324642
_cell_formula_units_Z   4
loop_
 _symmetry_equiv_pos_site_id
 _symmetry_equiv_pos_as_xyz
  1  'x, y, z'
loop_
 _atom_site_type_symbol
 _atom_site_label
 _atom_site_symmetry_multiplicity
 _atom_site_fract_x
 _atom_site_fract_y
 _atom_site_fract_z
 _atom_site_occupancy
  B  B0  1  0.55360914  0.83255938  0.36766933  1
  B  B1  1  0.65886962  0.86200060  0.01013124  1
  B  B2  1  0.44639086  0.66744062  0.86766933  1
  B  B3  1  0.34113038  0.13799940  0.98986876  1
  B  B4  1  0.55360914  0.33255938  0.13233067  1
  B  B5  1  0.65886962  0.36200060  0.48986876  1
  B  B6  1  0.44639086  0.16744062  0.63233067  1
  B  B7  1  0.34113038  0.63799940  0.51013124  1
  H  H8  1  0.42906634  0.84400910  0.92011457  1
  H  H9  1  0.26099232  0.98234830  0.20526492  1
  H  H10  1  0.79460276  0.89591847  0.52487504  1
  H  H11  1  0.86259091  0.74573143  0.05916055  1
  H  H12  1  0.57093366  0.15599090  0.07988543  1
  H  H13  1  0.13720434  0.58031930  0.34241644  1
  H  H14  1  0.18531374  0.63679012  0.64642184  1
  H  H15  1  0.20539724  0.60408153  0.02487504  1
  H  H16  1  0.57093366  0.65599090  0.42011457  1
  H  H17  1  0.69990779  0.50284766  0.93316674  1
  H  H18  1  0.42906634  0.34400910  0.57988543  1
  H  H19  1  0.64751556  0.18591473  0.54024980  1
  H  H20  1  0.13740909  0.25426857  0.94083945  1
  H  H21  1  0.79030738  0.72371511  0.31896871  1
  H  H22  1  0.79030738  0.22371511  0.18103129  1
  H  H23  1  0.26099232  0.48234830  0.29473508  1
  H  H24  1  0.30009221  -0.00284766  0.43316674  1
  H  H25  1  0.65331608  0.98972846  0.05522686  1
  H  H26  1  0.18531374  0.13679012  0.85357816  1
  H  H27  1  0.64751556  0.68591473  0.95975020  1
  H  H28  1  0.54801174  0.04502815  0.68163906  1
  H  H29  1  0.73900768  0.01765170  0.79473508  1
  H  H30  1  0.54801174  0.54502815  0.81836094  1
  H  H31  1  0.65331608  0.48972846  0.44477314  1
  H  H32  1  0.86259091  0.24573143  0.44083945  1
  H  H33  1  0.34668392  0.51027154  0.55522686  1
  H  H34  1  0.20969262  0.27628489  0.68103129  1
  H  H35  1  0.34668392  0.01027154  0.94477314  1
  H  H36  1  0.22829805  0.14569720  0.76507653  1
  H  H37  1  0.69990779  1.00284766  0.56683326  1
  H  H38  1  0.20539724  0.10408153  0.47512496  1
  H  H39  1  0.22829805  0.64569720  0.73492347  1
  H  H40  1  0.79460276  0.39591847  0.97512496  1
  H  H41  1  0.73900768  0.51765170  0.70526492  1
  H  H42  1  0.45198826  0.45497185  0.18163906  1
  H  H43  1  0.13740909  0.75426857  0.55916055  1
  H  H44  1  0.35248444  0.31408527  0.04024980  1
  H  H45  1  0.77170195  0.85430280  0.23492347  1
  H  H46  1  0.13720434  0.08031930  0.15758356  1
  H  H47  1  0.35248444  0.81408527  0.45975020  1
  H  H48  1  0.45198826  0.95497185  0.31836094  1
  H  H49  1  0.77170195  0.35430280  0.26507653  1
  H  H50  1  0.81468626  0.86320988  0.14642184  1
  H  H51  1  0.81468626  0.36320988  0.35357816  1
  H  H52  1  0.30009221  0.49715234  0.06683326  1
  H  H53  1  0.86279566  0.91968070  0.84241644  1
  H  H54  1  0.86279566  0.41968070  0.65758356  1
  H  H55  1  0.20969262  0.77628489  0.81896871  1
  C  C56  1  0.03485085  0.26320160  0.81246799  1
  C  C57  1  0.96514915  0.73679840  0.18753201  1
  C  C58  1  0.12943648  0.60049396  0.24052871  1
  C  C59  1  0.83925989  0.39065955  0.87317522  1
  C  C60  1  0.87056352  0.89950604  0.74052871  1
  C  C61  1  0.03485085  0.76320160  0.68753201  1
  C  C62  1  0.16074011  0.10934045  0.37317522  1
  C  C63  1  0.12943648  0.10049396  0.25947129  1
  C  C64  1  0.16074011  0.60934045  0.12682478  1
  C  C65  1  0.96514915  0.23679840  0.31246799  1
  C  C66  1  0.83925989  0.89065955  0.62682478  1
  C  C67  1  0.87056352  0.39950604  0.75947129  1
  N  N68  1  0.22780809  0.55878578  0.18286079  1
  N  N69  1  0.22710078  0.06714551  0.43192289  1
  N  N70  1  0.14023800  0.67268451  0.69012454  1
  N  N71  1  0.77289922  0.43285449  0.93192289  1
  N  N72  1  -0.00543585  0.68859691  0.24594072  1
  N  N73  1  0.77219191  0.44121422  0.81713921  1
  N  N74  1  0.96627479  0.30116786  0.87330300  1
  N  N75  1  0.85976200  0.82731549  0.19012454  1
  N  N76  1  0.16801469  0.04953607  0.20287819  1
  N  N77  1  1.00543585  0.31140309  0.75405928  1
  N  N78  1  0.83198531  0.45046393  0.70287819  1
  N  N79  1  0.22710078  0.56714551  0.06807711  1
  N  N80  1  0.22780809  0.05878578  0.31713921  1
  N  N81  1  0.85976200  0.32731549  0.30987546  1
  N  N82  1  0.16801469  0.54953607  0.29712181  1
  N  N83  1  0.14023800  0.17268451  0.80987546  1
  N  N84  1  0.77289922  0.93285449  0.56807711  1
  N  N85  1  0.96627479  0.80116786  0.62669700  1
  N  N86  1  1.00543585  0.81140309  0.74594072  1
  N  N87  1  -0.00543585  0.18859691  0.25405928  1
  N  N88  1  0.83198531  0.95046393  0.79712181  1
  N  N89  1  0.77219191  0.94121422  0.68286079  1
  N  N90  1  0.03372521  0.69883214  0.12669700  1
  N  N91  1  0.03372521  0.19883214  0.37330300  1
  O  O92  1  0.58106721  0.39203440  0.18621941  1
  O  O93  1  0.59462057  0.63495849  0.92638817  1
  O  O94  1  0.74536873  0.26773154  0.48456567  1
  O  O95  1  0.26665217  0.57689789  0.56168286  1
  O  O96  1  0.40537943  0.36504151  0.07361183  1
  O  O97  1  0.25463127  0.73226846  0.51543433  1
  O  O98  1  0.26665217  0.07689789  0.93831714  1
  O  O99  1  0.50297071  0.10500651  0.04751884  1
  O  O100  1  0.67654063  0.24020287  0.13653982  1
  O  O101  1  0.40537943  0.86504151  0.42638817  1
  O  O102  1  0.41893279  0.10796560  0.68621941  1
  O  O103  1  0.49702929  0.89499349  0.95248116  1
  O  O104  1  0.67654063  0.74020287  0.36346018  1
  O  O105  1  0.58106721  0.89203440  0.31378059  1
  O  O106  1  0.32345937  0.75979713  0.86346018  1
  O  O107  1  0.59462057  0.13495849  0.57361183  1
  O  O108  1  0.50297071  0.60500651  0.45248116  1
  O  O109  1  0.32345937  0.25979713  0.63653982  1
  O  O110  1  0.73334783  0.92310211  0.06168286  1
  O  O111  1  0.74536873  0.76773154  0.01543433  1
  O  O112  1  0.73334783  0.42310211  0.43831714  1
  O  O113  1  0.25463127  0.23226846  0.98456567  1
  O  O114  1  0.49702929  0.39499349  0.54751884  1
  O  O115  1  0.41893279  0.60796560  0.81378059  1
