# generated using pymatgen
data_K2Zn2Si8O19
_symmetry_space_group_name_H-M   'P 1'
_cell_length_a   5.16451584
_cell_length_b   7.45424109
_cell_length_c   12.57837806
_cell_angle_alpha   106.12676379
_cell_angle_beta   90.00000000
_cell_angle_gamma   110.26817194
_symmetry_Int_Tables_number   1
_chemical_formula_structural   K2Zn2Si8O19
_chemical_formula_sum   'K2 Zn2 Si8 O19'
_cell_volume   433.88375158
_cell_formula_units_Z   1
loop_
 _symmetry_equiv_pos_site_id
 _symmetry_equiv_pos_as_xyz
  1  'x, y, z'
loop_
 _atom_site_type_symbol
 _atom_site_label
 _atom_site_symmetry_multiplicity
 _atom_site_fract_x
 _atom_site_fract_y
 _atom_site_fract_z
 _atom_site_occupancy
  K  K0  1  0.34469704  0.75391843  0.35130281  1
  K  K1  1  0.59077861  0.24608157  0.64869719  1
  Zn  Zn2  1  0.30418925  0.60092784  0.58869475  1
  Zn  Zn3  1  0.70326141  0.39907216  0.41130525  1
  Si  Si4  1  0.14669811  0.00469240  0.16734267  1
  Si  Si5  1  0.06893856  0.14599462  0.42462863  1
  Si  Si6  1  0.52889464  0.74816631  0.07327655  1
  Si  Si7  1  0.92294394  0.85400538  0.57537137  1
  Si  Si8  1  0.20463695  0.59202856  0.84051903  1
  Si  Si9  1  0.14200572  0.99530760  0.83265733  1
  Si  Si10  1  0.78072833  0.25183369  0.92672345  1
  Si  Si11  1  0.61260839  0.40797144  0.15948097  1
  O  O12  1  0.45357771  0.65031034  0.93957478  1
  O  O13  1  0.80326737  0.34968966  0.06042522  1
  O  O14  1  0.12217014  0.02673799  0.29910744  1
  O  O15  1  0.77793276  0.48919144  0.28107808  1
  O  O16  1  0.09543214  0.97326201  0.70089256  1
  O  O17  1  0.09417885  0.00000000  0.50000000  1
  O  O18  1  0.32394617  0.21470600  0.14544582  1
  O  O19  1  0.30132653  0.84433757  0.12594138  1
  O  O20  1  0.83869348  0.91938630  0.10061344  1
  O  O21  1  0.45698896  0.15566243  0.87405862  1
  O  O22  1  0.76870032  0.16595629  0.42842832  1
  O  O23  1  0.51178022  0.58222053  0.13656109  1
  O  O24  1  0.32743145  0.36253088  0.46648227  1
  O  O25  1  0.10924017  0.78529400  0.85455418  1
  O  O26  1  0.91930718  0.08061370  0.89938656  1
  O  O27  1  0.60274402  0.83404371  0.57157168  1
  O  O28  1  0.28874132  0.51080856  0.71892192  1
  O  O29  1  0.96490057  0.63746912  0.53351773  1
  O  O30  1  0.92955969  0.41777947  0.86343891  1
