# generated using pymatgen
data_Ge4PbO9
_symmetry_space_group_name_H-M   'P 1'
_cell_length_a   4.71793802
_cell_length_b   6.91453079
_cell_length_c   6.91453090
_cell_angle_alpha   114.48911460
_cell_angle_beta   103.29416344
_cell_angle_gamma   103.29415955
_symmetry_Int_Tables_number   1
_chemical_formula_structural   Ge4PbO9
_chemical_formula_sum   'Ge4 Pb1 O9'
_cell_volume   185.81402777
_cell_formula_units_Z   1
loop_
 _symmetry_equiv_pos_site_id
 _symmetry_equiv_pos_as_xyz
  1  'x, y, z'
loop_
 _atom_site_type_symbol
 _atom_site_label
 _atom_site_symmetry_multiplicity
 _atom_site_fract_x
 _atom_site_fract_y
 _atom_site_fract_z
 _atom_site_occupancy
  Ge  Ge0  1  0.50000000  0.48711209  0.51288791  1
  Ge  Ge1  1  0.68305713  0.48715913  0.07089781  1
  Ge  Ge2  1  1.00000000  0.30816098  0.69183902  1
  Ge  Ge3  1  0.31694287  0.92910219  0.51284087  1
  Pb  Pb4  1  0.00000000  0.00005970  0.99994030  1
  O  O5  1  0.60265032  0.09438840  0.46239296  1
  O  O6  1  0.39734968  0.53760704  0.90561160  1
  O  O7  1  0.84549758  0.28897524  0.92646594  1
  O  O8  1  0.86639458  0.55428614  0.71162783  1
  O  O9  1  0.15450242  0.07353406  0.71102476  1
  O  O10  1  0.13360542  0.28837217  0.44571386  1
  O  O11  1  0.51440189  0.37867600  0.22981469  1
  O  O12  1  0.00000000  0.75578155  0.24421845  1
  O  O13  1  0.48559811  0.77018531  0.62132400  1
