# generated using pymatgen
data_Al3Pb5F19
_symmetry_space_group_name_H-M   'P 1'
_cell_length_a   7.32981664
_cell_length_b   10.83475489
_cell_length_c   10.84609265
_cell_angle_alpha   83.98425708
_cell_angle_beta   70.61983420
_cell_angle_gamma   71.13587804
_symmetry_Int_Tables_number   1
_chemical_formula_structural   Al3Pb5F19
_chemical_formula_sum   'Al6 Pb10 F38'
_cell_volume   768.90785689
_cell_formula_units_Z   2
loop_
 _symmetry_equiv_pos_site_id
 _symmetry_equiv_pos_as_xyz
  1  'x, y, z'
loop_
 _atom_site_type_symbol
 _atom_site_label
 _atom_site_symmetry_multiplicity
 _atom_site_fract_x
 _atom_site_fract_y
 _atom_site_fract_z
 _atom_site_occupancy
  Al  Al0  1  0.24628016  0.99916431  0.00239076  1
  Al  Al1  1  0.67355143  0.48310635  0.17007750  1
  Al  Al2  1  0.83469802  0.83215884  0.48241497  1
  Al  Al3  1  0.32644857  0.51689365  0.82992250  1
  Al  Al4  1  0.75371984  0.00083569  0.99760924  1
  Al  Al5  1  0.16530198  0.16784116  0.51758503  1
  Pb  Pb6  1  0.76100660  0.46033434  0.52216687  1
  Pb  Pb7  1  0.72092739  0.72049920  0.83957312  1
  Pb  Pb8  1  0.07665538  0.67427849  0.15821536  1
  Pb  Pb9  1  0.24928991  0.84262746  0.67562828  1
  Pb  Pb10  1  0.75071009  0.15737254  0.32437172  1
  Pb  Pb11  1  0.43951969  0.84478482  0.27592233  1
  Pb  Pb12  1  0.27907261  0.27950080  0.16042688  1
  Pb  Pb13  1  0.92334462  0.32572151  0.84178464  1
  Pb  Pb14  1  0.56048031  0.15521518  0.72407767  1
  Pb  Pb15  1  0.23899340  0.53966566  0.47783313  1
  F  F16  1  0.40727110  0.71300158  0.45970054  1
  F  F17  1  0.06759549  0.83489851  0.35059036  1
  F  F18  1  0.75977498  0.61430805  0.19919393  1
  F  F19  1  0.90455700  0.65919718  0.43760209  1
  F  F20  1  0.27470454  0.48014015  0.00423032  1
  F  F21  1  0.69901781  0.16558309  0.93207550  1
  F  F22  1  0.79377960  0.83651889  0.06352324  1
  F  F23  1  0.63419307  0.06692485  0.16197928  1
  F  F24  1  0.24022502  0.38569195  0.80080607  1
  F  F25  1  0.72529546  0.51985985  0.99576968  1
  F  F26  1  0.20622040  0.16348111  0.93647676  1
  F  F27  1  0.76618372  0.00431656  0.52091552  1
  F  F28  1  0.09544300  0.34080282  0.56239791  1
  F  F29  1  0.59272890  0.28699842  0.54029946  1
  F  F30  1  0.36580693  0.93307515  0.83802072  1
  F  F31  1  0.12690650  0.46256501  0.29309907  1
  F  F32  1  0.61767534  0.44134535  0.34635726  1
  F  F33  1  0.07674972  0.63729597  0.85979387  1
  F  F34  1  0.38232466  0.55865465  0.65364274  1
  F  F35  1  0.98123938  0.77688800  0.59948028  1
  F  F36  1  0.23381628  0.99568344  0.47908448  1
  F  F37  1  0.61700398  0.80885180  0.61482816  1
  F  F38  1  0.87309350  0.53743499  0.70690093  1
  F  F39  1  0.00000000  0.00000000  0.00000000  1
  F  F40  1  0.42269893  0.64851458  0.84471950  1
  F  F41  1  0.92325028  0.36270403  0.14020613  1
  F  F42  1  0.85952875  0.93533027  0.83181695  1
  F  F43  1  0.93240451  0.16510149  0.64940964  1
  F  F44  1  0.41379001  0.60266994  0.21653407  1
  F  F45  1  0.30084409  0.12378311  0.63664567  1
  F  F46  1  0.69915591  0.87621689  0.36335433  1
  F  F47  1  0.58620999  0.39733006  0.78346593  1
  F  F48  1  0.38299602  0.19114820  0.38517184  1
  F  F49  1  0.50000000  0.00000000  0.00000000  1
  F  F50  1  0.57730107  0.35148542  0.15528050  1
  F  F51  1  0.14047125  0.06466973  0.16818305  1
  F  F52  1  0.30098219  0.83441691  0.06792450  1
  F  F53  1  0.01876062  0.22311200  0.40051972  1
