# generated using pymatgen
data_Tl2CuAsO4
_symmetry_space_group_name_H-M   'P 1'
_cell_length_a   5.48886786
_cell_length_b   8.82759012
_cell_length_c   12.38145211
_cell_angle_alpha   99.39696116
_cell_angle_beta   90.00000000
_cell_angle_gamma   90.00000000
_symmetry_Int_Tables_number   1
_chemical_formula_structural   Tl2CuAsO4
_chemical_formula_sum   'Tl8 Cu4 As4 O16'
_cell_volume   591.87389750
_cell_formula_units_Z   4
loop_
 _symmetry_equiv_pos_site_id
 _symmetry_equiv_pos_as_xyz
  1  'x, y, z'
loop_
 _atom_site_type_symbol
 _atom_site_label
 _atom_site_symmetry_multiplicity
 _atom_site_fract_x
 _atom_site_fract_y
 _atom_site_fract_z
 _atom_site_occupancy
  Tl  Tl0  1  0.72215727  0.68715467  0.85316115  1
  Tl  Tl1  1  0.22215727  0.31284533  0.64683885  1
  Tl  Tl2  1  0.75150607  0.98983783  0.11577197  1
  Tl  Tl3  1  0.74849393  0.98983783  0.61577197  1
  Tl  Tl4  1  0.24849393  0.01016217  0.88422803  1
  Tl  Tl5  1  0.27784273  0.31284533  0.14683885  1
  Tl  Tl6  1  0.77784273  0.68715467  0.35316115  1
  Tl  Tl7  1  0.25150607  0.01016217  0.38422803  1
  Cu  Cu8  1  0.19556340  0.48680391  0.42333184  1
  Cu  Cu9  1  0.30443660  0.48680391  0.92333184  1
  Cu  Cu10  1  0.80443660  0.51319609  0.57666816  1
  Cu  Cu11  1  0.69556340  0.51319609  0.07666816  1
  As  As12  1  0.74964659  0.28558976  0.87054387  1
  As  As13  1  0.75035341  0.28558976  0.37054387  1
  As  As14  1  0.24964659  0.71441024  0.62945613  1
  As  As15  1  0.25035341  0.71441024  0.12945613  1
  O  O16  1  0.89535963  0.41518500  0.80318017  1
  O  O17  1  0.43128608  0.29773950  0.85360574  1
  O  O18  1  0.18400413  0.67820317  0.98973165  1
  O  O19  1  0.10464037  0.58481500  0.19681983  1
  O  O20  1  0.93128608  0.70226050  0.64639426  1
  O  O21  1  0.33009270  0.90082840  0.68040780  1
  O  O22  1  0.68400413  0.32179683  0.51026835  1
  O  O23  1  0.06871392  0.29773950  0.35360574  1
  O  O24  1  0.83009270  0.09917160  0.81959220  1
  O  O25  1  0.81599587  0.32179683  0.01026835  1
  O  O26  1  0.39535963  0.58481500  0.69681983  1
  O  O27  1  0.16990730  0.90082840  0.18040780  1
  O  O28  1  0.60464037  0.41518500  0.30318017  1
  O  O29  1  0.66990730  0.09917160  0.31959220  1
  O  O30  1  0.31599587  0.67820317  0.48973165  1
  O  O31  1  0.56871392  0.70226050  0.14639426  1
