# generated using pymatgen
data_Rb4U5O17
_symmetry_space_group_name_H-M   'P 1'
_cell_length_a   7.09497179
_cell_length_b   14.58358835
_cell_length_c   18.86611233
_cell_angle_alpha   90.00000000
_cell_angle_beta   90.00000000
_cell_angle_gamma   90.00000000
_symmetry_Int_Tables_number   1
_chemical_formula_structural   Rb4U5O17
_chemical_formula_sum   'Rb16 U20 O68'
_cell_volume   1952.07943384
_cell_formula_units_Z   4
loop_
 _symmetry_equiv_pos_site_id
 _symmetry_equiv_pos_as_xyz
  1  'x, y, z'
loop_
 _atom_site_type_symbol
 _atom_site_label
 _atom_site_symmetry_multiplicity
 _atom_site_fract_x
 _atom_site_fract_y
 _atom_site_fract_z
 _atom_site_occupancy
  Rb  Rb0  1  0.76790778  0.52740417  0.05475812  1
  Rb  Rb1  1  0.20444911  0.05976196  0.31025707  1
  Rb  Rb2  1  0.70444911  0.44023804  0.81025707  1
  Rb  Rb3  1  0.76790778  0.97259583  0.94524188  1
  Rb  Rb4  1  0.26790778  0.52740417  0.44524188  1
  Rb  Rb5  1  0.79555089  0.94023804  0.68974293  1
  Rb  Rb6  1  0.29555089  0.55976196  0.18974293  1
  Rb  Rb7  1  0.70444911  0.05976196  0.18974293  1
  Rb  Rb8  1  0.29555089  0.94023804  0.81025707  1
  Rb  Rb9  1  0.79555089  0.55976196  0.31025707  1
  Rb  Rb10  1  0.73209222  0.02740417  0.44524188  1
  Rb  Rb11  1  0.73209222  0.47259583  0.55475812  1
  Rb  Rb12  1  0.23209222  0.02740417  0.05475812  1
  Rb  Rb13  1  0.23209222  0.47259583  0.94524188  1
  Rb  Rb14  1  0.20444911  0.44023804  0.68974293  1
  Rb  Rb15  1  0.26790778  0.97259583  0.55475812  1
  U  U16  1  0.02566143  0.81780155  0.18865298  1
  U  U17  1  0.07538563  0.70645609  0.60264069  1
  U  U18  1  0.62548810  0.75000000  0.50000000  1
  U  U19  1  0.52566143  0.68219845  0.68865298  1
  U  U20  1  0.92461437  0.20645609  0.60264069  1
  U  U21  1  0.02566143  0.68219845  0.81134702  1
  U  U22  1  0.42461437  0.29354391  0.10264069  1
  U  U23  1  0.97433857  0.18219845  0.81134702  1
  U  U24  1  0.42461437  0.20645609  0.89735931  1
  U  U25  1  0.57538563  0.70645609  0.89735931  1
  U  U26  1  0.57538563  0.79354391  0.10264069  1
  U  U27  1  0.37451190  0.25000000  0.50000000  1
  U  U28  1  0.12548810  0.75000000  0.00000000  1
  U  U29  1  0.47433857  0.31780155  0.31134702  1
  U  U30  1  0.52566143  0.81780155  0.31134702  1
  U  U31  1  0.87451190  0.25000000  0.00000000  1
  U  U32  1  0.47433857  0.18219845  0.68865298  1
  U  U33  1  0.97433857  0.31780155  0.18865298  1
  U  U34  1  0.07538563  0.79354391  0.39735931  1
  U  U35  1  0.92461437  0.29354391  0.39735931  1
  O  O36  1  0.29596048  0.33422765  0.20975647  1
  O  O37  1  0.56950915  0.91819843  0.07800560  1
  O  O38  1  0.99503873  0.30557831  0.78983732  1
  O  O39  1  0.49503873  0.30557831  0.71016268  1
  O  O40  1  0.12542987  0.62992841  0.03199759  1
  O  O41  1  0.61004183  0.29054229  0.42006190  1
  O  O42  1  0.37457013  0.12992841  0.46800241  1
  O  O43  1  0.45687419  0.44497355  0.32356495  1
  O  O44  1  0.38995817  0.70945771  0.57993810  1
  O  O45  1  0.58476564  0.67052015  0.12853465  1
  O  O46  1  0.26105573  0.79578176  0.11558609  1
  O  O47  1  0.43049085  0.41819843  0.07800560  1
  O  O48  1  0.54312581  0.94497355  0.32356495  1
  O  O49  1  0.88995817  0.70945771  0.92006190  1
  O  O50  1  0.03996243  0.25000000  0.50000000  1
  O  O51  1  0.91523436  0.32947985  0.62853465  1
  O  O52  1  0.95687419  0.05502645  0.82356495  1
  O  O53  1  0.20403952  0.83422765  0.29024353  1
  O  O54  1  0.38995817  0.79054229  0.42006190  1
  O  O55  1  0.61004183  0.20945771  0.57993810  1
  O  O56  1  0.87457013  0.37007159  0.96800241  1
  O  O57  1  0.37457013  0.37007159  0.53199759  1
  O  O58  1  0.06950915  0.58180157  0.57800560  1
  O  O59  1  0.53996243  0.25000000  0.00000000  1
  O  O60  1  0.76105573  0.70421824  0.61558609  1
  O  O61  1  0.11004183  0.29054229  0.07993810  1
  O  O62  1  0.23894427  0.20421824  0.61558609  1
  O  O63  1  0.20403952  0.66577235  0.70975647  1
  O  O64  1  0.49503873  0.19442169  0.28983732  1
  O  O65  1  0.56950915  0.58180157  0.92199440  1
  O  O66  1  0.54312581  0.55502645  0.67643505  1
  O  O67  1  0.23894427  0.29578176  0.38441391  1
  O  O68  1  0.79596048  0.16577235  0.70975647  1
  O  O69  1  0.93049085  0.08180157  0.57800560  1
  O  O70  1  0.95687419  0.44497355  0.17643505  1
  O  O71  1  0.08476564  0.67052015  0.37146535  1
  O  O72  1  0.26105573  0.70421824  0.88441391  1
  O  O73  1  0.00496127  0.80557831  0.78983732  1
  O  O74  1  0.91523436  0.17052015  0.37146535  1
  O  O75  1  0.04312581  0.94497355  0.17643505  1
  O  O76  1  0.76105573  0.79578176  0.38441391  1
  O  O77  1  0.99503873  0.19442169  0.21016268  1
  O  O78  1  0.88995817  0.79054229  0.07993810  1
  O  O79  1  0.08476564  0.82947985  0.62853465  1
  O  O80  1  0.41523436  0.17052015  0.12853465  1
  O  O81  1  0.93049085  0.41819843  0.42199440  1
  O  O82  1  0.29596048  0.16577235  0.79024353  1
  O  O83  1  0.11004183  0.20945771  0.92006190  1
  O  O84  1  0.12542987  0.87007159  0.96800241  1
  O  O85  1  0.00496127  0.69442169  0.21016268  1
  O  O86  1  0.50496127  0.69442169  0.28983732  1
  O  O87  1  0.41523436  0.32947985  0.87146535  1
  O  O88  1  0.73894427  0.20421824  0.88441391  1
  O  O89  1  0.62542987  0.62992841  0.46800241  1
  O  O90  1  0.58476564  0.82947985  0.87146535  1
  O  O91  1  0.50496127  0.80557831  0.71016268  1
  O  O92  1  0.06950915  0.91819843  0.42199440  1
  O  O93  1  0.87457013  0.12992841  0.03199759  1
  O  O94  1  0.62542987  0.87007159  0.53199759  1
  O  O95  1  0.96003757  0.75000000  0.50000000  1
  O  O96  1  0.79596048  0.33422765  0.29024353  1
  O  O97  1  0.45687419  0.05502645  0.67643505  1
  O  O98  1  0.70403952  0.83422765  0.20975647  1
  O  O99  1  0.73894427  0.29578176  0.11558609  1
  O  O100  1  0.43049085  0.08180157  0.92199440  1
  O  O101  1  0.70403952  0.66577235  0.79024353  1
  O  O102  1  0.46003757  0.75000000  0.00000000  1
  O  O103  1  0.04312581  0.55502645  0.82356495  1
