# generated using pymatgen
data_V2Cu2O7
_symmetry_space_group_name_H-M   'P 1'
_cell_length_a   5.67603783
_cell_length_b   5.67603817
_cell_length_c   10.25811876
_cell_angle_alpha   103.65402008
_cell_angle_beta   103.65402089
_cell_angle_gamma   90.73965491
_symmetry_Int_Tables_number   1
_chemical_formula_structural   V2Cu2O7
_chemical_formula_sum   'V4 Cu4 O14'
_cell_volume   311.24850684
_cell_formula_units_Z   2
loop_
 _symmetry_equiv_pos_site_id
 _symmetry_equiv_pos_as_xyz
  1  'x, y, z'
loop_
 _atom_site_type_symbol
 _atom_site_label
 _atom_site_symmetry_multiplicity
 _atom_site_fract_x
 _atom_site_fract_y
 _atom_site_fract_z
 _atom_site_occupancy
  V  V0  1  0.00163695  0.55696625  0.71348604  1
  V  V1  1  0.44303375  0.99836305  0.78651396  1
  V  V2  1  0.99836305  0.44303375  0.28651396  1
  V  V3  1  0.55696625  0.00163695  0.21348604  1
  Cu  Cu4  1  0.62390951  0.76745441  0.48741408  1
  Cu  Cu5  1  0.23254559  0.37609049  0.01258592  1
  Cu  Cu6  1  0.37609049  0.23254559  0.51258592  1
  Cu  Cu7  1  0.76745441  0.62390951  0.98741408  1
  O  O8  1  0.86180461  0.13819539  0.25000000  1
  O  O9  1  0.13819539  0.86180461  0.75000000  1
  O  O10  1  0.82128664  0.63762556  0.36455781  1
  O  O11  1  0.36237444  0.17871336  0.13544219  1
  O  O12  1  0.17871336  0.36237444  0.63544219  1
  O  O13  1  0.63762556  0.82128664  0.86455781  1
  O  O14  1  0.71851380  0.54270053  0.60250637  1
  O  O15  1  0.45729947  0.28148620  0.89749363  1
  O  O16  1  0.28148620  0.45729947  0.39749363  1
  O  O17  1  0.54270053  0.71851380  0.10250637  1
  O  O18  1  0.00995466  0.51224858  0.12661478  1
  O  O19  1  0.48775142  0.99004534  0.37338522  1
  O  O20  1  0.99004534  0.48775142  0.87338522  1
  O  O21  1  0.51224858  0.00995466  0.62661478  1
