# generated using pymatgen
data_La2TaCl3O4
_symmetry_space_group_name_H-M   'P 1'
_cell_length_a   3.97260823
_cell_length_b   15.76081953
_cell_length_c   18.27086841
_cell_angle_alpha   90.00000000
_cell_angle_beta   90.00000000
_cell_angle_gamma   90.00000000
_symmetry_Int_Tables_number   1
_chemical_formula_structural   La2TaCl3O4
_chemical_formula_sum   'La12 Ta6 Cl18 O24'
_cell_volume   1143.96759885
_cell_formula_units_Z   6
loop_
 _symmetry_equiv_pos_site_id
 _symmetry_equiv_pos_as_xyz
  1  'x, y, z'
loop_
 _atom_site_type_symbol
 _atom_site_label
 _atom_site_symmetry_multiplicity
 _atom_site_fract_x
 _atom_site_fract_y
 _atom_site_fract_z
 _atom_site_occupancy
  La  La0  1  0.75000000  0.92470278  0.61453666  1
  La  La1  1  0.75000000  0.40008447  0.90083736  1
  La  La2  1  0.25000000  0.07529722  0.38546334  1
  La  La3  1  0.75000000  0.09991553  0.90083736  1
  La  La4  1  0.75000000  0.57529722  0.61453666  1
  La  La5  1  0.25000000  0.25000000  0.13388816  1
  La  La6  1  0.25000000  0.42470278  0.38546334  1
  La  La7  1  0.75000000  0.75000000  0.34503056  1
  La  La8  1  0.25000000  0.90008447  0.09916264  1
  La  La9  1  0.75000000  0.75000000  0.86611184  1
  La  La10  1  0.25000000  0.59991553  0.09916264  1
  La  La11  1  0.25000000  0.25000000  0.65496944  1
  Ta  Ta12  1  0.25000000  0.75000000  0.51678663  1
  Ta  Ta13  1  0.75000000  0.05692320  0.20297163  1
  Ta  Ta14  1  0.75000000  0.44307680  0.20297163  1
  Ta  Ta15  1  0.25000000  0.94307680  0.79702837  1
  Ta  Ta16  1  0.25000000  0.55692320  0.79702837  1
  Ta  Ta17  1  0.75000000  0.25000000  0.48321337  1
  Cl  Cl18  1  0.75000000  0.91742835  0.97335169  1
  Cl  Cl19  1  0.25000000  0.08257165  0.02664831  1
  Cl  Cl20  1  0.25000000  0.25000000  0.85582573  1
  Cl  Cl21  1  0.75000000  0.58257165  0.97335169  1
  Cl  Cl22  1  0.25000000  0.75000000  0.99744408  1
  Cl  Cl23  1  0.75000000  0.75000000  0.14417427  1
  Cl  Cl24  1  0.25000000  0.41742835  0.02664831  1
  Cl  Cl25  1  0.75000000  0.36384957  0.72738359  1
  Cl  Cl26  1  0.25000000  0.63615043  0.27261641  1
  Cl  Cl27  1  0.75000000  0.13615043  0.72738359  1
  Cl  Cl28  1  0.75000000  0.75000000  0.70062447  1
  Cl  Cl29  1  0.25000000  0.43761212  0.56213246  1
  Cl  Cl30  1  0.75000000  0.93761212  0.43786754  1
  Cl  Cl31  1  0.75000000  0.25000000  0.00255592  1
  Cl  Cl32  1  0.25000000  0.25000000  0.29937553  1
  Cl  Cl33  1  0.75000000  0.56238788  0.43786754  1
  Cl  Cl34  1  0.25000000  0.06238788  0.56213246  1
  Cl  Cl35  1  0.25000000  0.86384957  0.27261641  1
  O  O36  1  0.25000000  0.66506450  0.83973098  1
  O  O37  1  0.75000000  0.75000000  0.51028630  1
  O  O38  1  0.25000000  0.55751488  0.69431800  1
  O  O39  1  0.75000000  0.33493550  0.16026902  1
  O  O40  1  0.25000000  0.83493550  0.83973098  1
  O  O41  1  0.25000000  0.45090790  0.19832688  1
  O  O42  1  0.25000000  0.04502354  0.85885829  1
  O  O43  1  0.75000000  0.25000000  0.58931246  1
  O  O44  1  0.75000000  0.95497646  0.14114171  1
  O  O45  1  0.75000000  0.95090790  0.80167312  1
  O  O46  1  0.25000000  0.45497646  0.85885829  1
  O  O47  1  0.25000000  0.94248512  0.69431800  1
  O  O48  1  0.25000000  0.85261923  0.56988516  1
  O  O49  1  0.75000000  0.16506450  0.16026902  1
  O  O50  1  0.25000000  0.25000000  0.48971370  1
  O  O51  1  0.75000000  0.35261923  0.43011484  1
  O  O52  1  0.25000000  0.75000000  0.41068754  1
  O  O53  1  0.75000000  0.14738077  0.43011484  1
  O  O54  1  0.25000000  0.64738077  0.56988516  1
  O  O55  1  0.75000000  0.54909210  0.80167312  1
  O  O56  1  0.75000000  0.05751488  0.30568200  1
  O  O57  1  0.75000000  0.44248512  0.30568200  1
  O  O58  1  0.25000000  0.04909210  0.19832688  1
  O  O59  1  0.75000000  0.54502354  0.14114171  1
