# generated using pymatgen
data_NaNb2AsO8
_symmetry_space_group_name_H-M   'P 1'
_cell_length_a   4.98166141
_cell_length_b   8.75968142
_cell_length_c   15.28193461
_cell_angle_alpha   90.00000000
_cell_angle_beta   98.56590986
_cell_angle_gamma   90.00000000
_symmetry_Int_Tables_number   1
_chemical_formula_structural   NaNb2AsO8
_chemical_formula_sum   'Na4 Nb8 As4 O32'
_cell_volume   659.43068919
_cell_formula_units_Z   4
loop_
 _symmetry_equiv_pos_site_id
 _symmetry_equiv_pos_as_xyz
  1  'x, y, z'
loop_
 _atom_site_type_symbol
 _atom_site_label
 _atom_site_symmetry_multiplicity
 _atom_site_fract_x
 _atom_site_fract_y
 _atom_site_fract_z
 _atom_site_occupancy
  Na  Na0  1  0.91769772  0.02191003  0.38072628  1
  Na  Na1  1  0.58230228  0.52191003  0.11927372  1
  Na  Na2  1  0.08230228  0.97808997  0.61927372  1
  Na  Na3  1  0.41769772  0.47808997  0.88072628  1
  Nb  Nb4  1  0.03221781  0.79304810  0.98103459  1
  Nb  Nb5  1  0.96778219  0.20695190  0.01896541  1
  Nb  Nb6  1  0.46778219  0.29304810  0.51896541  1
  Nb  Nb7  1  0.53221781  0.70695190  0.48103459  1
  Nb  Nb8  1  0.09339591  0.57124240  0.63933565  1
  Nb  Nb9  1  0.59339591  0.92875760  0.13933565  1
  Nb  Nb10  1  0.40660409  0.07124240  0.86066435  1
  Nb  Nb11  1  0.90660409  0.42875760  0.36066435  1
  As  As12  1  0.15559498  0.73891700  0.26559240  1
  As  As13  1  0.34440502  0.23891700  0.23440760  1
  As  As14  1  0.65559498  0.76108300  0.76559240  1
  As  As15  1  0.84440502  0.26108300  0.73440760  1
  O  O16  1  0.22740419  0.62469972  0.00443715  1
  O  O17  1  0.02376506  0.55763421  0.25367595  1
  O  O18  1  0.58370065  0.37920720  0.25756386  1
  O  O19  1  0.08370065  0.12079280  0.75756386  1
  O  O20  1  0.75251536  0.04822953  0.93752091  1
  O  O21  1  0.24055665  0.89223947  0.89264617  1
  O  O22  1  0.77259581  0.37530028  0.99556285  1
  O  O23  1  0.26282897  0.71286558  0.56660102  1
  O  O24  1  0.75944335  0.10776053  0.10735383  1
  O  O25  1  0.91629935  0.87920720  0.24243614  1
  O  O26  1  0.09369483  0.24398662  0.29920822  1
  O  O27  1  0.27274046  0.78337948  0.37540693  1
  O  O28  1  0.72740419  0.87530028  0.50443715  1
  O  O29  1  0.74055665  0.60776053  0.39264617  1
  O  O30  1  0.25251536  0.45177047  0.43752091  1
  O  O31  1  0.23717103  0.21286558  0.93339898  1
  O  O32  1  0.73717103  0.28713442  0.43339898  1
  O  O33  1  0.72725954  0.21662052  0.62459307  1
  O  O34  1  0.90630517  0.75601338  0.70079178  1
  O  O35  1  0.52376506  0.94236579  0.75367595  1
  O  O36  1  0.47623494  0.05763421  0.24632405  1
  O  O37  1  0.27259581  0.12469972  0.49556285  1
  O  O38  1  0.97623494  0.44236579  0.74632405  1
  O  O39  1  0.59369483  0.25601338  0.79920822  1
  O  O40  1  0.77274046  0.71662052  0.87540693  1
  O  O41  1  0.41629935  0.62079280  0.74243614  1
  O  O42  1  0.76282897  0.78713442  0.06660102  1
  O  O43  1  0.74748464  0.54822953  0.56247909  1
  O  O44  1  0.24748464  0.95177047  0.06247909  1
  O  O45  1  0.40630517  0.74398662  0.20079178  1
  O  O46  1  0.22725954  0.28337948  0.12459307  1
  O  O47  1  0.25944335  0.39223947  0.60735383  1
