# generated using pymatgen
data_Na2FeCuF7
_symmetry_space_group_name_H-M   'P 1'
_cell_length_a   7.30474605
_cell_length_b   7.30474605
_cell_length_c   13.01857718
_cell_angle_alpha   91.52425576
_cell_angle_beta   105.59941085
_cell_angle_gamma   118.25129609
_symmetry_Int_Tables_number   1
_chemical_formula_structural   Na2FeCuF7
_chemical_formula_sum   'Na8 Fe4 Cu4 F28'
_cell_volume   579.59901492
_cell_formula_units_Z   4
loop_
 _symmetry_equiv_pos_site_id
 _symmetry_equiv_pos_as_xyz
  1  'x, y, z'
loop_
 _atom_site_type_symbol
 _atom_site_label
 _atom_site_symmetry_multiplicity
 _atom_site_fract_x
 _atom_site_fract_y
 _atom_site_fract_z
 _atom_site_occupancy
  F  F0  1  0.42521683  0.89445105  0.84889055  1
  F  F1  1  0.54556050  0.57632628  0.65110945  1
  F  F2  1  0.57478317  0.10554895  0.15110945  1
  F  F3  1  0.45443950  0.42367372  0.34889055  1
  F  F4  1  0.17907111  0.59915380  0.67330411  1
  F  F5  1  0.42584969  0.50576700  0.82669589  1
  F  F6  1  0.82092889  0.40084620  0.32669589  1
  F  F7  1  0.57415031  0.49423300  0.17330411  1
  F  F8  1  0.24898273  0.04301471  0.95717294  1
  F  F9  1  0.58584176  0.29180979  0.54282706  1
  F  F10  1  0.75101727  0.95698529  0.04282706  1
  F  F11  1  0.41415824  0.70819021  0.45717294  1
  F  F12  1  0.81296378  0.10124563  0.53811532  1
  F  F13  1  0.06313031  0.27484846  0.96188468  1
  F  F14  1  0.18703622  0.89875437  0.46188468  1
  F  F15  1  0.93686969  0.72515154  0.03811532  1
  F  F16  1  0.93820154  0.50969018  0.84278809  1
  F  F17  1  0.16690209  0.09541346  0.65721191  1
  F  F18  1  0.06179846  0.49030982  0.15721191  1
  F  F19  1  0.83309791  0.90458654  0.34278809  1
  F  F20  1  0.81082480  0.87967532  0.82021405  1
  F  F21  1  0.55946127  0.99061075  0.67978595  1
  F  F22  1  0.18917520  0.12032468  0.17978595  1
  F  F23  1  0.44053873  0.00938925  0.32021405  1
  F  F24  1  0.31433960  0.68164557  0.03757256  1
  F  F25  1  0.14407301  0.27676704  0.46242744  1
  F  F26  1  0.68566040  0.31835443  0.96242744  1
  F  F27  1  0.85592699  0.72323296  0.53757256  1
  Na  Na28  1  0.50000000  0.50000000  0.00000000  1
  Na  Na29  1  0.00000000  0.50000000  0.50000000  1
  Na  Na30  1  0.02674228  0.27674228  0.75000000  1
  Na  Na31  1  0.97325772  0.72325772  0.25000000  1
  Na  Na32  1  0.45875804  0.71427986  0.24568789  1
  Na  Na33  1  0.03140803  0.78692985  0.74568789  1
  Na  Na34  1  0.54124196  0.28572014  0.75431211  1
  Na  Na35  1  0.96859197  0.21307015  0.25431211  1
  Fe  Fe36  1  0.00000000  0.50000000  0.00000000  1
  Fe  Fe37  1  0.50463138  0.25463138  0.25000000  1
  Fe  Fe38  1  0.00000000  0.00000000  0.50000000  1
  Fe  Fe39  1  0.49536862  0.74536862  0.75000000  1
  Cu  Cu40  1  0.50000000  0.00000000  0.00000000  1
  Cu  Cu41  1  0.50000000  0.50000000  0.50000000  1
  Cu  Cu42  1  0.50000000  0.00000000  0.50000000  1
  Cu  Cu43  1  0.00000000  0.00000000  0.00000000  1
