# generated using pymatgen
data_U3O8
_symmetry_space_group_name_H-M   'P 1'
_cell_length_a   6.78029024
_cell_length_b   6.78028999
_cell_length_c   8.33522166
_cell_angle_alpha   90.00000000
_cell_angle_beta   90.00000000
_cell_angle_gamma   117.03973073
_symmetry_Int_Tables_number   1
_chemical_formula_structural   U3O8
_chemical_formula_sum   'U6 O16'
_cell_volume   341.30371435
_cell_formula_units_Z   2
loop_
 _symmetry_equiv_pos_site_id
 _symmetry_equiv_pos_as_xyz
  1  'x, y, z'
loop_
 _atom_site_type_symbol
 _atom_site_label
 _atom_site_symmetry_multiplicity
 _atom_site_fract_x
 _atom_site_fract_y
 _atom_site_fract_z
 _atom_site_occupancy
  U  U0  1  0.65047765  0.34952235  0.25000000  1
  U  U1  1  0.98886247  0.01113753  0.75000000  1
  U  U2  1  0.66715739  0.33284261  0.75000000  1
  U  U3  1  0.34952235  0.65047765  0.75000000  1
  U  U4  1  0.01113753  0.98886247  0.25000000  1
  U  U5  1  0.33284261  0.66715739  0.25000000  1
  O  O6  1  0.99443880  0.36897964  0.75000000  1
  O  O7  1  0.65280334  0.34719666  0.01239766  1
  O  O8  1  0.66161431  0.70726867  0.25000000  1
  O  O9  1  0.00556120  0.63102036  0.25000000  1
  O  O10  1  0.65280334  0.34719666  0.48760234  1
  O  O11  1  0.16785833  0.83214167  0.75000000  1
  O  O12  1  0.34719666  0.65280334  0.98760234  1
  O  O13  1  0.29273133  0.33838569  0.25000000  1
  O  O14  1  0.36897964  0.99443880  0.25000000  1
  O  O15  1  0.70726867  0.66161431  0.75000000  1
  O  O16  1  0.00000000  -0.00000000  0.00000000  1
  O  O17  1  0.34719666  0.65280334  0.51239766  1
  O  O18  1  0.63102036  0.00556120  0.75000000  1
  O  O19  1  0.33838569  0.29273133  0.75000000  1
  O  O20  1  0.00000000  -0.00000000  0.50000000  1
  O  O21  1  0.83214167  0.16785833  0.25000000  1
