# generated using pymatgen
data_Al3Fe
_symmetry_space_group_name_H-M   'P 1'
_cell_length_a   5.37493564
_cell_length_b   5.37501556
_cell_length_c   4.37384942
_cell_angle_alpha   90.02887771
_cell_angle_beta   89.97295388
_cell_angle_gamma   120.00288284
_symmetry_Int_Tables_number   1
_chemical_formula_structural   Al3Fe
_chemical_formula_sum   'Al6 Fe2'
_cell_volume   109.42958888
_cell_formula_units_Z   2
loop_
 _symmetry_equiv_pos_site_id
 _symmetry_equiv_pos_as_xyz
  1  'x, y, z'
loop_
 _atom_site_type_symbol
 _atom_site_label
 _atom_site_symmetry_multiplicity
 _atom_site_fract_x
 _atom_site_fract_y
 _atom_site_fract_z
 _atom_site_occupancy
  Al  Al0  1  0.17131713  0.34262547  0.24998133  1
  Al  Al1  1  0.65737142  0.82868581  0.24997896  1
  Al  Al2  1  0.17131852  0.82869088  0.24999329  1
  Al  Al3  1  0.82866562  0.65734444  0.75001921  1
  Al  Al4  1  0.34265586  0.17132879  0.75002157  1
  Al  Al5  1  0.82866507  0.17132197  0.75000786  1
  Fe  Fe6  1  0.33332452  0.66666149  0.74989051  1
  Fe  Fe7  1  0.66668187  0.33334114  0.25011126  1
