# generated using pymatgen
data_BaCa2C2(O3F)2
_symmetry_space_group_name_H-M   'P 1'
_cell_length_a   5.93870145
_cell_length_b   6.98604100
_cell_length_c   9.55977773
_cell_angle_alpha   90.00000000
_cell_angle_beta   90.00000000
_cell_angle_gamma   115.15323031
_symmetry_Int_Tables_number   1
_chemical_formula_structural   BaCa2C2(O3F)2
_chemical_formula_sum   'Ba2 Ca4 C4 O12 F4'
_cell_volume   359.00676863
_cell_formula_units_Z   2
loop_
 _symmetry_equiv_pos_site_id
 _symmetry_equiv_pos_as_xyz
  1  'x, y, z'
loop_
 _atom_site_type_symbol
 _atom_site_label
 _atom_site_symmetry_multiplicity
 _atom_site_fract_x
 _atom_site_fract_y
 _atom_site_fract_z
 _atom_site_occupancy
  Ba  Ba0  1  0.00121406  0.00000000  0.25000000  1
  Ba  Ba1  1  0.99878594  0.00000000  0.75000000  1
  Ca  Ca2  1  0.35362535  0.70725069  0.00000000  1
  Ca  Ca3  1  0.35362535  0.70725069  0.50000000  1
  Ca  Ca4  1  0.64637465  0.29274931  0.50000000  1
  Ca  Ca5  1  0.64637465  0.29274931  0.00000000  1
  C  C6  1  0.40869008  0.50666753  0.25000000  1
  C  C7  1  0.09797745  0.50666753  0.75000000  1
  C  C8  1  0.90202255  0.49333247  0.25000000  1
  C  C9  1  0.59130992  0.49333247  0.75000000  1
  O  O10  1  0.63714472  0.59460920  0.86776207  1
  O  O11  1  0.04253552  0.40539080  0.63223793  1
  O  O12  1  0.95746448  0.59460920  0.36776207  1
  O  O13  1  0.95746448  0.59460920  0.13223793  1
  O  O14  1  0.36285528  0.40539080  0.36776207  1
  O  O15  1  0.50967890  0.28736744  0.75000000  1
  O  O16  1  0.49032110  0.71263256  0.25000000  1
  O  O17  1  0.22231147  0.71263256  0.75000000  1
  O  O18  1  0.04253552  0.40539080  0.86776207  1
  O  O19  1  0.36285528  0.40539080  0.13223793  1
  O  O20  1  0.63714472  0.59460920  0.63223793  1
  O  O21  1  0.77768853  0.28736744  0.25000000  1
  F  F22  1  0.73514903  0.00000000  0.99392428  1
  F  F23  1  0.73514903  0.00000000  0.50607572  1
  F  F24  1  0.26485097  0.00000000  0.49392428  1
  F  F25  1  0.26485097  0.00000000  0.00607572  1
