# generated using pymatgen
data_K2NaAl3F12
_symmetry_space_group_name_H-M   'P 1'
_cell_length_a   7.04790109
_cell_length_b   7.08574604
_cell_length_c   9.81030681
_cell_angle_alpha   90.00000000
_cell_angle_beta   90.17365484
_cell_angle_gamma   90.00000000
_symmetry_Int_Tables_number   1
_chemical_formula_structural   K2NaAl3F12
_chemical_formula_sum   'K4 Na2 Al6 F24'
_cell_volume   489.92091295
_cell_formula_units_Z   2
loop_
 _symmetry_equiv_pos_site_id
 _symmetry_equiv_pos_as_xyz
  1  'x, y, z'
loop_
 _atom_site_type_symbol
 _atom_site_label
 _atom_site_symmetry_multiplicity
 _atom_site_fract_x
 _atom_site_fract_y
 _atom_site_fract_z
 _atom_site_occupancy
  K  K0  1  0.46456800  0.75000000  0.35834091  1
  K  K1  1  0.01439042  0.75000000  0.10540403  1
  K  K2  1  0.53543200  0.25000000  0.64165909  1
  K  K3  1  0.98560958  0.25000000  0.89459597  1
  Na  Na4  1  0.20904008  0.25000000  0.24081505  1
  Na  Na5  1  0.79095992  0.75000000  0.75918495  1
  Al  Al6  1  0.50000000  0.00000000  0.00000000  1
  Al  Al7  1  0.30783860  0.75000000  0.71883618  1
  Al  Al8  1  0.69216140  0.25000000  0.28116382  1
  Al  Al9  1  0.00000000  0.50000000  0.50000000  1
  Al  Al10  1  0.50000000  0.50000000  0.00000000  1
  Al  Al11  1  0.00000000  0.00000000  0.50000000  1
  F  F12  1  0.21221930  0.56192889  0.60543769  1
  F  F13  1  0.13375598  0.95986242  0.34909327  1
  F  F14  1  0.73795621  0.54347079  0.94916076  1
  F  F15  1  0.86624402  0.04013758  0.65090673  1
  F  F16  1  0.78778070  0.06192889  0.39456231  1
  F  F17  1  0.47385204  0.75000000  0.05813708  1
  F  F18  1  0.41822460  0.56035441  0.82573346  1
  F  F19  1  0.92060342  0.75000000  0.50172258  1
  F  F20  1  0.26204379  0.04347079  0.05083924  1
  F  F21  1  0.51979911  0.75000000  0.62104430  1
  F  F22  1  0.73795621  0.95652921  0.94916076  1
  F  F23  1  0.58177540  0.43964559  0.17426654  1
  F  F24  1  0.58177540  0.06035441  0.17426654  1
  F  F25  1  0.52614796  0.25000000  0.94186292  1
  F  F26  1  0.21221930  0.93807111  0.60543769  1
  F  F27  1  0.10412485  0.75000000  0.82176468  1
  F  F28  1  0.89587515  0.25000000  0.17823532  1
  F  F29  1  0.13375598  0.54013758  0.34909327  1
  F  F30  1  0.48020089  0.25000000  0.37895570  1
  F  F31  1  0.86624402  0.45986242  0.65090673  1
  F  F32  1  0.78778070  0.43807111  0.39456231  1
  F  F33  1  0.41822460  0.93964559  0.82573346  1
  F  F34  1  0.07939658  0.25000000  0.49827742  1
  F  F35  1  0.26204379  0.45652921  0.05083924  1
