# generated using pymatgen
data_Np2H12SO14
_symmetry_space_group_name_H-M   'P 1'
_cell_length_a   7.98165868
_cell_length_b   8.24052184
_cell_length_c   19.19845211
_cell_angle_alpha   90.00000000
_cell_angle_beta   90.00000000
_cell_angle_gamma   96.25598364
_symmetry_Int_Tables_number   1
_chemical_formula_structural   Np2H12SO14
_chemical_formula_sum   'Np8 H48 S4 O56'
_cell_volume   1255.22075333
_cell_formula_units_Z   4
loop_
 _symmetry_equiv_pos_site_id
 _symmetry_equiv_pos_as_xyz
  1  'x, y, z'
loop_
 _atom_site_type_symbol
 _atom_site_label
 _atom_site_symmetry_multiplicity
 _atom_site_fract_x
 _atom_site_fract_y
 _atom_site_fract_z
 _atom_site_occupancy
  Np  Np0  1  0.33928879  0.80314110  0.64352387  1
  Np  Np1  1  0.75976660  0.69859513  0.36110497  1
  Np  Np2  1  0.33928879  0.30314110  0.85647613  1
  Np  Np3  1  0.24023340  0.30140487  0.63889503  1
  Np  Np4  1  0.24023340  0.80140487  0.86110497  1
  Np  Np5  1  0.75976660  0.19859513  0.13889503  1
  Np  Np6  1  0.66071121  0.69685890  0.14352387  1
  Np  Np7  1  0.66071121  0.19685890  0.35647613  1
  H  H8  1  0.90094650  0.32314482  0.71303992  1
  H  H9  1  0.02476763  0.62737767  0.09491957  1
  H  H10  1  0.54158872  0.71007096  0.50093888  1
  H  H11  1  0.97523237  0.37262233  0.90508043  1
  H  H12  1  0.09905350  0.67685518  0.28696008  1
  H  H13  1  0.93845146  0.64585307  0.76497568  1
  H  H14  1  0.06154854  0.35414693  0.23502432  1
  H  H15  1  0.07527926  0.62160282  0.43494452  1
  H  H16  1  0.24993594  0.00186539  0.41160658  1
  H  H17  1  0.03655953  0.81294116  0.11449304  1
  H  H18  1  0.90094650  0.82314482  0.78696008  1
  H  H19  1  0.96344047  0.18705884  0.88550696  1
  H  H20  1  0.40812421  0.37249162  0.15585035  1
  H  H21  1  0.93742837  0.19140611  0.54803852  1
  H  H22  1  0.67081740  0.99382827  0.70092015  1
  H  H23  1  0.40812421  0.87249162  0.34414965  1
  H  H24  1  0.06257163  0.80859389  0.45196148  1
  H  H25  1  0.03655953  0.31294116  0.38550696  1
  H  H26  1  0.21299888  0.55239166  0.01112525  1
  H  H27  1  0.67081740  0.49382827  0.79907985  1
  H  H28  1  0.78700112  0.94760834  0.51112525  1
  H  H29  1  0.06257163  0.30859389  0.04803852  1
  H  H30  1  0.07527926  0.12160282  0.06505548  1
  H  H31  1  0.69863509  0.11360646  0.98079548  1
  H  H32  1  0.30136491  0.38639354  0.48079548  1
  H  H33  1  0.93742837  0.69140611  0.95196148  1
  H  H34  1  0.59187579  0.12750838  0.65585035  1
  H  H35  1  0.92472074  0.37839718  0.56505548  1
  H  H36  1  0.09905350  0.17685518  0.21303992  1
  H  H37  1  0.96344047  0.68705884  0.61449304  1
  H  H38  1  0.69863509  0.61360646  0.51920452  1
  H  H39  1  0.54158872  0.21007096  -0.00093888  1
  H  H40  1  0.30136491  0.88639354  0.01920452  1
  H  H41  1  0.24993594  0.50186539  0.08839342  1
  H  H42  1  0.32918260  0.00617173  0.29907985  1
  H  H43  1  0.75006406  0.99813461  0.58839342  1
  H  H44  1  0.59187579  0.62750838  0.84414965  1
  H  H45  1  0.02476763  0.12737767  0.40508043  1
  H  H46  1  0.97523237  0.87262233  0.59491957  1
  H  H47  1  0.32918260  0.50617173  0.20092015  1
  H  H48  1  0.45841128  0.28992904  0.49906112  1
  H  H49  1  0.78700112  0.44760834  0.98887475  1
  H  H50  1  0.06154854  0.85414693  0.26497568  1
  H  H51  1  0.21299888  0.05239166  0.48887475  1
  H  H52  1  0.45841128  0.78992904  1.00093888  1
  H  H53  1  0.92472074  0.87839718  0.93494452  1
  H  H54  1  0.75006406  0.49813461  0.91160658  1
  H  H55  1  0.93845146  0.14585307  0.73502432  1
  S  S56  1  0.67217152  0.50031020  0.65729033  1
  S  S57  1  0.32782848  0.49968980  0.34270967  1
  S  S58  1  0.67217152  1.00031020  0.84270967  1
  S  S59  1  0.32782848  -0.00031020  0.15729033  1
  O  O60  1  0.96957771  0.73311083  0.79885041  1
  O  O61  1  0.15827653  0.50446497  0.05299396  1
  O  O62  1  0.35314222  0.82651775  0.98164425  1
  O  O63  1  0.73758247  0.92260325  0.36951348  1
  O  O64  1  0.30510862  0.31289683  0.75999187  1
  O  O65  1  0.64685778  0.17348225  0.01835575  1
  O  O66  1  0.96896069  0.70748898  0.12309423  1
  O  O67  1  0.15827653  0.00446497  0.44700604  1
  O  O68  1  0.61617366  0.20581640  0.45036536  1
  O  O69  1  0.78691069  0.02401161  0.90411705  1
  O  O70  1  0.84172347  0.99553503  0.55299396  1
  O  O71  1  0.99414987  0.70037585  0.44615267  1
  O  O72  1  0.73758247  0.42260325  0.13048652  1
  O  O73  1  0.00585013  0.29962415  0.55384733  1
  O  O74  1  0.21308931  0.47598839  0.40411705  1
  O  O75  1  0.03103931  0.79251102  0.62309423  1
  O  O76  1  0.38889173  0.98914199  0.34388278  1
  O  O77  1  0.03103931  0.29251102  0.87690577  1
  O  O78  1  0.55201013  0.34879552  0.64689370  1
  O  O79  1  0.22414158  0.02160506  0.22125602  1
  O  O80  1  0.00585013  0.79962415  0.94615267  1
  O  O81  1  0.55201013  0.84879552  0.85310630  1
  O  O82  1  0.21682567  0.52475967  0.64396265  1
  O  O83  1  0.42116074  0.35602408  0.33298996  1
  O  O84  1  0.26241753  0.57739675  0.86951348  1
  O  O85  1  0.38382634  0.29418360  0.95036536  1
  O  O86  1  0.21682567  0.02475967  0.85603735  1
  O  O87  1  0.30510862  0.81289683  0.74000813  1
  O  O88  1  0.84172347  0.49553503  0.94700604  1
  O  O89  1  0.57883926  0.14397592  0.83298996  1
  O  O90  1  0.61110827  0.01085801  0.65611722  1
  O  O91  1  0.96957771  0.23311083  0.70114959  1
  O  O92  1  0.64685778  0.67348225  0.48164425  1
  O  O93  1  0.44798987  0.15120448  0.14689370  1
  O  O94  1  0.03042229  0.76688917  0.29885041  1
  O  O95  1  0.78317433  0.47524033  0.35603735  1
  O  O96  1  0.22414158  0.52160506  0.27874398  1
  O  O97  1  0.69489138  0.18710317  0.25999187  1
  O  O98  1  0.99414987  0.20037585  0.05384733  1
  O  O99  1  0.61617366  0.70581640  0.04963464  1
  O  O100  1  0.03042229  0.26688917  0.20114959  1
  O  O101  1  0.42116074  0.85602408  0.16701004  1
  O  O102  1  0.38889173  0.48914199  0.15611722  1
  O  O103  1  0.35314222  0.32651775  0.51835575  1
  O  O104  1  0.96896069  0.20748898  0.37690577  1
  O  O105  1  0.78317433  0.97524033  0.14396265  1
  O  O106  1  0.21308931  0.97598839  0.09588295  1
  O  O107  1  0.69489138  0.68710317  0.24000813  1
  O  O108  1  0.77585842  0.47839494  0.72125602  1
  O  O109  1  0.44798987  0.65120448  0.35310630  1
  O  O110  1  0.26241753  0.07739675  0.63048652  1
  O  O111  1  0.61110827  0.51085801  0.84388278  1
  O  O112  1  0.77585842  0.97839494  0.77874398  1
  O  O113  1  0.57883926  0.64397592  0.66701004  1
  O  O114  1  0.78691069  0.52401161  0.59588295  1
  O  O115  1  0.38382634  0.79418360  0.54963464  1
