# generated using pymatgen
data_K4WS3O14
_symmetry_space_group_name_H-M   'P 1'
_cell_length_a   9.65999834
_cell_length_b   10.46213044
_cell_length_c   14.28316953
_cell_angle_alpha   90.00000000
_cell_angle_beta   90.00000000
_cell_angle_gamma   91.21557547
_symmetry_Int_Tables_number   1
_chemical_formula_structural   K4WS3O14
_chemical_formula_sum   'K16 W4 S12 O56'
_cell_volume   1443.19171010
_cell_formula_units_Z   4
loop_
 _symmetry_equiv_pos_site_id
 _symmetry_equiv_pos_as_xyz
  1  'x, y, z'
loop_
 _atom_site_type_symbol
 _atom_site_label
 _atom_site_symmetry_multiplicity
 _atom_site_fract_x
 _atom_site_fract_y
 _atom_site_fract_z
 _atom_site_occupancy
  K  K0  1  0.50627608  0.20013439  0.50531634  1
  K  K1  1  0.17852446  0.16546401  0.67406927  1
  K  K2  1  0.75208074  0.22873172  0.78026516  1
  K  K3  1  0.74791926  0.27126828  0.28026516  1
  K  K4  1  0.79162654  0.52532641  0.54139247  1
  K  K5  1  0.99372392  0.29986561  0.00531634  1
  K  K6  1  0.70837346  0.97467359  0.04139247  1
  K  K7  1  0.24791926  0.77126828  0.21973484  1
  K  K8  1  0.29162654  0.02532641  0.95860753  1
  K  K9  1  0.20837346  0.47467359  0.45860753  1
  K  K10  1  0.25208074  0.72873172  0.71973484  1
  K  K11  1  0.32147554  0.33453599  0.17406927  1
  K  K12  1  0.67852446  0.66546401  0.82593073  1
  K  K13  1  0.49372392  0.79986561  0.49468366  1
  K  K14  1  0.00627608  0.70013439  0.99468366  1
  K  K15  1  0.82147554  0.83453599  0.32593073  1
  W  W16  1  0.33365146  0.41620296  0.87788142  1
  W  W17  1  0.83365146  0.91620296  0.62211858  1
  W  W18  1  0.16634854  0.08379704  0.37788142  1
  W  W19  1  0.66634854  0.58379704  0.12211858  1
  S  S20  1  0.97428039  0.95286502  0.84418274  1
  S  S21  1  0.91371659  0.20638228  0.50273269  1
  S  S22  1  0.97719066  0.52201793  0.21949828  1
  S  S23  1  0.52571961  0.54713498  0.34418274  1
  S  S24  1  0.41371659  0.70638228  0.99726731  1
  S  S25  1  0.58628341  0.29361772  0.00273269  1
  S  S26  1  0.52280934  0.97798207  0.71949828  1
  S  S27  1  0.02571961  0.04713498  0.15581726  1
  S  S28  1  0.02280934  0.47798207  0.78050172  1
  S  S29  1  0.08628341  0.79361772  0.49726731  1
  S  S30  1  0.47428039  0.45286502  0.65581726  1
  S  S31  1  0.47719066  0.02201793  0.28050172  1
  O  O32  1  0.01650151  0.55604405  0.69590844  1
  O  O33  1  0.76515901  0.90391132  0.50721573  1
  O  O34  1  0.09492244  0.88150127  0.41396033  1
  O  O35  1  0.05382725  0.01385263  0.26027931  1
  O  O36  1  0.51215760  0.42337967  0.39267981  1
  O  O37  1  0.35720064  0.37428934  0.61957096  1
  O  O38  1  0.39446479  0.61821108  0.34611180  1
  O  O39  1  0.92905848  0.51858451  0.85569074  1
  O  O40  1  0.85720064  0.87428934  0.88042904  1
  O  O41  1  0.48349849  0.94395595  0.19590844  1
  O  O42  1  0.70933286  0.73617099  0.16640878  1
  O  O43  1  0.01169241  0.33995555  0.76397035  1
  O  O44  1  0.01053602  0.31113506  0.52399078  1
  O  O45  1  0.94617275  0.98614737  0.73972069  1
  O  O46  1  0.48830759  0.16004445  0.26397035  1
  O  O47  1  0.98349849  0.44395595  0.30409156  1
  O  O48  1  0.73484099  0.59608868  0.00721573  1
  O  O49  1  0.72321497  0.25073886  0.97430865  1
  O  O50  1  0.22321497  0.75073886  0.52569135  1
  O  O51  1  0.10553521  0.88178892  0.84611180  1
  O  O52  1  0.07094152  0.48141549  0.14430926  1
  O  O53  1  0.96769394  0.12676293  0.41895394  1
  O  O54  1  0.98946398  0.68886494  0.47600922  1
  O  O55  1  0.98830759  0.66004445  0.23602965  1
  O  O56  1  0.23484099  0.09608868  0.49278427  1
  O  O57  1  0.01215760  0.92337967  0.10732019  1
  O  O58  1  0.77678503  0.24926114  0.47430865  1
  O  O59  1  0.59492244  0.38150127  0.08603967  1
  O  O60  1  0.32487917  0.99160364  0.32135733  1
  O  O61  1  0.51053602  0.81113506  0.97600922  1
  O  O62  1  0.55382725  0.51385263  0.23972069  1
  O  O63  1  0.67512083  0.00839636  0.67864267  1
  O  O64  1  0.82487917  0.49160364  0.17864267  1
  O  O65  1  0.98784240  0.07662033  0.89267981  1
  O  O66  1  0.48784240  0.57662033  0.60732019  1
  O  O67  1  0.20933286  0.23617099  0.33359122  1
  O  O68  1  0.27678503  0.74926114  0.02569135  1
  O  O69  1  0.29066714  0.26382901  0.83359122  1
  O  O70  1  0.03230606  0.87323707  0.58104606  1
  O  O71  1  0.79066714  0.76382901  0.66640878  1
  O  O72  1  0.42905848  0.01858451  0.64430926  1
  O  O73  1  0.26515901  0.40391132  0.99278427  1
  O  O74  1  0.64279936  0.62571066  0.38042904  1
  O  O75  1  0.44617275  0.48614737  0.76027931  1
  O  O76  1  0.90507756  0.11849873  0.58603967  1
  O  O77  1  0.51650151  0.05604405  0.80409156  1
  O  O78  1  0.46769394  0.62676293  0.08104606  1
  O  O79  1  0.89446479  0.11821108  0.15388820  1
  O  O80  1  0.51169241  0.83995555  0.73602965  1
  O  O81  1  0.60553521  0.38178892  0.65388820  1
  O  O82  1  0.53230606  0.37323707  0.91895394  1
  O  O83  1  0.48946398  0.18886494  0.02399078  1
  O  O84  1  0.40507756  0.61849873  0.91396033  1
  O  O85  1  0.17512083  0.50839636  0.82135733  1
  O  O86  1  0.57094152  0.98141549  0.35569074  1
  O  O87  1  0.14279936  0.12571066  0.11957096  1
