# generated using pymatgen
data_La4Ti9(Si2O15)2
_symmetry_space_group_name_H-M   'P 1'
_cell_length_a   5.78258541
_cell_length_b   7.42363662
_cell_length_c   14.37415420
_cell_angle_alpha   94.96166083
_cell_angle_beta   90.00000000
_cell_angle_gamma   112.92160031
_symmetry_Int_Tables_number   1
_chemical_formula_structural   La4Ti9(Si2O15)2
_chemical_formula_sum   'La4 Ti9 Si4 O30'
_cell_volume   565.81652627
_cell_formula_units_Z   1
loop_
 _symmetry_equiv_pos_site_id
 _symmetry_equiv_pos_as_xyz
  1  'x, y, z'
loop_
 _atom_site_type_symbol
 _atom_site_label
 _atom_site_symmetry_multiplicity
 _atom_site_fract_x
 _atom_site_fract_y
 _atom_site_fract_z
 _atom_site_occupancy
  La  La0  1  0.01641312  0.03282625  0.30857712  1
  La  La1  1  0.29967223  0.59934447  0.31352578  1
  La  La2  1  0.70032777  0.40065553  0.68647422  1
  La  La3  1  0.98358688  0.96717375  0.69142288  1
  Ti  Ti4  1  0.62341939  0.72784211  0.89014042  1
  Ti  Ti5  1  0.87104661  0.74209323  0.11767647  1
  Ti  Ti6  1  0.40118821  0.80237641  0.11754900  1
  Ti  Ti7  1  0.10442272  0.72784211  0.89014042  1
  Ti  Ti8  1  0.59881179  0.19762359  0.88245100  1
  Ti  Ti9  1  0.89557728  0.27215789  0.10985958  1
  Ti  Ti10  1  0.12895339  0.25790677  0.88232353  1
  Ti  Ti11  1  0.50000000  0.00000000  0.50000000  1
  Ti  Ti12  1  0.37658061  0.27215789  0.10985958  1
  Si  Si13  1  0.65224619  0.30449237  0.32218836  1
  Si  Si14  1  0.34775381  0.69550763  0.67781164  1
  Si  Si15  1  0.14753948  0.29507897  0.53432371  1
  Si  Si16  1  0.85246052  0.70492103  0.46567629  1
  O  O17  1  0.24721065  0.49442131  0.60743302  1
  O  O18  1  0.83330886  0.66661772  0.57422156  1
  O  O19  1  0.32234519  0.17757890  0.56665735  1
  O  O20  1  0.23802691  0.47605383  0.13158191  1
  O  O21  1  0.75278935  0.50557869  0.39256698  1
  O  O22  1  0.67765481  0.82242110  0.43334265  1
  O  O23  1  0.26524515  0.53049031  0.88350630  1
  O  O24  1  0.85507758  0.20898066  0.78378452  1
  O  O25  1  0.10880661  0.69439583  0.73925265  1
  O  O26  1  0.14476628  0.82242110  0.43334265  1
  O  O27  1  0.41441078  0.30560417  0.26074735  1
  O  O28  1  0.76197309  0.52394617  0.86841809  1
  O  O29  1  0.03876206  0.07752413  0.13361217  1
  O  O30  1  0.62984800  0.75694867  0.02396245  1
  O  O31  1  0.16669114  0.33338228  0.42577844  1
  O  O32  1  0.44325034  0.88650069  0.61868910  1
  O  O33  1  0.12710067  0.75694867  0.02396245  1
  O  O34  1  0.64609692  0.79101934  0.21621548  1
  O  O35  1  0.89119339  0.30560417  0.26074735  1
  O  O36  1  0.85523372  0.17757890  0.56665735  1
  O  O37  1  0.87289933  0.24305133  0.97603755  1
  O  O38  1  0.35390308  0.20898066  0.78378452  1
  O  O39  1  0.14492242  0.79101934  0.21621548  1
  O  O40  1  0.53826383  0.07652765  0.11917737  1
  O  O41  1  0.73475485  0.46950969  0.11649370  1
  O  O42  1  0.96123794  0.92247587  0.86638783  1
  O  O43  1  0.55674966  0.11349931  0.38131090  1
  O  O44  1  0.46173617  0.92347235  0.88082263  1
  O  O45  1  0.58558922  0.69439583  0.73925265  1
  O  O46  1  0.37015200  0.24305133  0.97603755  1
