# generated using pymatgen
data_SrTb2Fe2O7
_symmetry_space_group_name_H-M   'P 1'
_cell_length_a   5.59217610
_cell_length_b   5.59217610
_cell_length_c   19.60833837
_cell_angle_alpha   90.00000000
_cell_angle_beta   90.00000000
_cell_angle_gamma   90.00000000
_symmetry_Int_Tables_number   1
_chemical_formula_structural   SrTb2Fe2O7
_chemical_formula_sum   'Sr4 Tb8 Fe8 O28'
_cell_volume   613.20045838
_cell_formula_units_Z   4
loop_
 _symmetry_equiv_pos_site_id
 _symmetry_equiv_pos_as_xyz
  1  'x, y, z'
loop_
 _atom_site_type_symbol
 _atom_site_label
 _atom_site_symmetry_multiplicity
 _atom_site_fract_x
 _atom_site_fract_y
 _atom_site_fract_z
 _atom_site_occupancy
  Tb  Tb0  1  0.27715346  0.27715346  0.18343221  1
  Tb  Tb1  1  0.22284654  0.77715346  0.68343221  1
  Tb  Tb2  1  0.77715346  0.22284654  0.68343221  1
  Tb  Tb3  1  0.77715346  0.22284654  0.31656779  1
  Tb  Tb4  1  0.22284654  0.77715346  0.31656779  1
  Tb  Tb5  1  0.72284654  0.72284654  0.18343221  1
  Tb  Tb6  1  0.27715346  0.27715346  0.81656779  1
  Tb  Tb7  1  0.72284654  0.72284654  0.81656779  1
  Sr  Sr8  1  0.25934617  0.25934617  0.00000000  1
  Sr  Sr9  1  0.24065383  0.75934617  0.50000000  1
  Sr  Sr10  1  0.75934617  0.24065383  0.50000000  1
  Sr  Sr11  1  0.74065383  0.74065383  0.00000000  1
  Fe  Fe12  1  0.25830159  0.25830159  0.39913043  1
  Fe  Fe13  1  0.24169841  0.75830159  0.89913043  1
  Fe  Fe14  1  0.75830159  0.24169841  0.89913043  1
  Fe  Fe15  1  0.75830159  0.24169841  0.10086957  1
  Fe  Fe16  1  0.24169841  0.75830159  0.10086957  1
  Fe  Fe17  1  0.74169841  0.74169841  0.39913043  1
  Fe  Fe18  1  0.25830159  0.25830159  0.60086957  1
  Fe  Fe19  1  0.74169841  0.74169841  0.60086957  1
  O  O20  1  0.70489807  0.70489807  0.50000000  1
  O  O21  1  0.79510193  0.20489807  0.00000000  1
  O  O22  1  0.20489807  0.79510193  0.00000000  1
  O  O23  1  0.29510193  0.29510193  0.50000000  1
  O  O24  1  0.18560984  0.18560984  0.28962987  1
  O  O25  1  0.31439016  0.68560984  0.78962987  1
  O  O26  1  0.68560984  0.31439016  0.78962987  1
  O  O27  1  0.68560984  0.31439016  0.21037013  1
  O  O28  1  0.31439016  0.68560984  0.21037013  1
  O  O29  1  0.81439016  0.81439016  0.28962987  1
  O  O30  1  0.18560984  0.18560984  0.71037013  1
  O  O31  1  0.81439016  0.81439016  0.71037013  1
  O  O32  1  0.00000000  0.50000000  0.11248854  1
  O  O33  1  0.00000000  0.50000000  0.61248854  1
  O  O34  1  0.50000000  0.00000000  0.38751146  1
  O  O35  1  0.50000000  0.00000000  0.88751146  1
  O  O36  1  0.00000000  0.50000000  0.88751146  1
  O  O37  1  0.00000000  0.50000000  0.38751146  1
  O  O38  1  0.50000000  0.00000000  0.61248854  1
  O  O39  1  0.50000000  0.00000000  0.11248854  1
  O  O40  1  0.00000000  0.00000000  0.13108450  1
  O  O41  1  0.50000000  0.50000000  0.63108450  1
  O  O42  1  0.50000000  0.50000000  0.36891550  1
  O  O43  1  0.00000000  0.00000000  0.86891550  1
  O  O44  1  0.00000000  0.00000000  0.40976154  1
  O  O45  1  0.50000000  0.50000000  0.90976154  1
  O  O46  1  0.50000000  0.50000000  0.09023846  1
  O  O47  1  0.00000000  0.00000000  0.59023846  1
