# generated using pymatgen
data_Sn4P2O9
_symmetry_space_group_name_H-M   'P 1'
_cell_length_a   7.52412268
_cell_length_b   9.70138102
_cell_length_c   14.14752653
_cell_angle_alpha   90.00000000
_cell_angle_beta   99.18731384
_cell_angle_gamma   90.00000000
_symmetry_Int_Tables_number   1
_chemical_formula_structural   Sn4P2O9
_chemical_formula_sum   'Sn16 P8 O36'
_cell_volume   1019.44222308
_cell_formula_units_Z   4
loop_
 _symmetry_equiv_pos_site_id
 _symmetry_equiv_pos_as_xyz
  1  'x, y, z'
loop_
 _atom_site_type_symbol
 _atom_site_label
 _atom_site_symmetry_multiplicity
 _atom_site_fract_x
 _atom_site_fract_y
 _atom_site_fract_z
 _atom_site_occupancy
  Sn  Sn0  1  0.27047815  0.97999458  0.61747033  1
  Sn  Sn1  1  0.45051814  0.83785891  0.09410880  1
  Sn  Sn2  1  0.99589190  0.12065557  0.82818748  1
  Sn  Sn3  1  0.54948186  0.16214109  0.90589120  1
  Sn  Sn4  1  0.77047815  0.52000542  0.11747033  1
  Sn  Sn5  1  0.22952185  0.47999458  0.88252967  1
  Sn  Sn6  1  0.04948186  0.33785891  0.40589120  1
  Sn  Sn7  1  0.20287491  0.17923209  0.10354823  1
  Sn  Sn8  1  0.00410810  0.87934443  0.17181252  1
  Sn  Sn9  1  0.79712509  0.82076791  0.89645177  1
  Sn  Sn10  1  0.49589190  0.37934443  0.32818748  1
  Sn  Sn11  1  0.50410810  0.62065557  0.67181252  1
  Sn  Sn12  1  0.95051814  0.66214109  0.59410880  1
  Sn  Sn13  1  0.29712509  0.67923209  0.39645177  1
  Sn  Sn14  1  0.72952185  0.02000542  0.38252967  1
  Sn  Sn15  1  0.70287491  0.32076791  0.60354823  1
  P  P16  1  0.23343887  0.57337751  0.15975842  1
  P  P17  1  0.26656113  0.07337751  0.34024158  1
  P  P18  1  0.73343887  0.92662249  0.65975842  1
  P  P19  1  0.23905085  0.33856877  0.64730662  1
  P  P20  1  0.76656113  0.42662249  0.84024158  1
  P  P21  1  0.73905085  0.16143123  0.14730662  1
  P  P22  1  0.76094915  0.66143123  0.35269338  1
  P  P23  1  0.26094915  0.83856877  0.85269338  1
  O  O24  1  0.39671779  0.47660910  0.19178042  1
  O  O25  1  0.89671779  0.02339090  0.69178042  1
  O  O26  1  0.10328221  0.97660910  0.30821958  1
  O  O27  1  0.24596282  0.18381736  0.67136161  1
  O  O28  1  0.25403718  0.68381736  0.82863839  1
  O  O29  1  0.22093645  0.68692805  0.23932506  1
  O  O30  1  0.92609389  0.11139957  0.12387201  1
  O  O31  1  0.07390611  0.88860043  0.87612799  1
  O  O32  1  0.75403718  0.81618264  0.32863839  1
  O  O33  1  0.56045920  0.01457599  0.63970408  1
  O  O34  1  0.08935576  0.37238842  0.56074302  1
  O  O35  1  0.91064424  0.62761158  0.43925698  1
  O  O36  1  0.41064424  0.87238842  0.93925698  1
  O  O37  1  0.93954080  0.51457599  0.86029592  1
  O  O38  1  0.43954080  0.98542401  0.36029592  1
  O  O39  1  0.26174958  0.65580540  0.06903760  1
  O  O40  1  0.19470454  0.42405673  0.73210606  1
  O  O41  1  0.69470454  0.07594327  0.23210606  1
  O  O42  1  0.58935576  0.12761158  0.06074302  1
  O  O43  1  0.77906355  0.31307195  0.76067494  1
  O  O44  1  0.72093645  0.81307195  0.73932506  1
  O  O45  1  0.27906355  0.18692805  0.26067494  1
  O  O46  1  0.74596282  0.31618264  0.17136161  1
  O  O47  1  0.73825042  0.34419460  0.93096240  1
  O  O48  1  0.23825042  0.15580540  0.43096240  1
  O  O49  1  0.72797998  0.53898701  0.61402200  1
  O  O50  1  0.60328221  0.52339090  0.80821958  1
  O  O51  1  0.76174958  0.84419460  0.56903760  1
  O  O52  1  0.80529546  0.57594327  0.26789394  1
  O  O53  1  0.22797998  0.96101299  0.11402200  1
  O  O54  1  0.30529546  0.92405673  0.76789394  1
  O  O55  1  0.42609389  0.38860043  0.62387201  1
  O  O56  1  0.06045920  0.48542401  0.13970408  1
  O  O57  1  0.57390611  0.61139957  0.37612799  1
  O  O58  1  0.77202002  0.03898701  0.88597800  1
  O  O59  1  0.27202002  0.46101299  0.38597800  1
