# generated using pymatgen
data_Li3ScF6
_symmetry_space_group_name_H-M   'P 1'
_cell_length_a   8.89653025
_cell_length_b   8.89653013
_cell_length_c   9.64906794
_cell_angle_alpha   90.00000000
_cell_angle_beta   90.00000000
_cell_angle_gamma   120.00000040
_symmetry_Int_Tables_number   1
_chemical_formula_structural   Li3ScF6
_chemical_formula_sum   'Li18 Sc6 F36'
_cell_volume   661.38951861
_cell_formula_units_Z   6
loop_
 _symmetry_equiv_pos_site_id
 _symmetry_equiv_pos_as_xyz
  1  'x, y, z'
loop_
 _atom_site_type_symbol
 _atom_site_label
 _atom_site_symmetry_multiplicity
 _atom_site_fract_x
 _atom_site_fract_y
 _atom_site_fract_z
 _atom_site_occupancy
  Li  Li0  1  0.34048202  0.36081095  0.96318367  1
  Li  Li1  1  0.69946216  0.00000000  0.25000000  1
  Li  Li2  1  0.69946216  0.69946216  0.75000000  1
  Li  Li3  1  0.97967107  0.63918905  0.53681633  1
  Li  Li4  1  0.65951798  0.63918905  0.03681633  1
  Li  Li5  1  0.34048202  0.97967107  0.46318367  1
  Li  Li6  1  0.63918905  0.65951798  0.46318367  1
  Li  Li7  1  0.30053784  0.30053784  0.25000000  1
  Li  Li8  1  0.00000000  0.69946216  0.25000000  1
  Li  Li9  1  0.30053784  0.00000000  0.75000000  1
  Li  Li10  1  0.02032893  0.36081095  0.46318367  1
  Li  Li11  1  0.36081095  0.02032893  0.03681633  1
  Li  Li12  1  0.02032893  0.65951798  0.96318367  1
  Li  Li13  1  0.65951798  0.02032893  0.53681633  1
  Li  Li14  1  0.97967107  0.34048202  0.03681633  1
  Li  Li15  1  0.63918905  0.97967107  0.96318367  1
  Li  Li16  1  0.00000000  0.30053784  0.75000000  1
  Li  Li17  1  0.36081095  0.34048202  0.53681633  1
  Sc  Sc18  1  0.66666700  0.33333300  0.26388824  1
  Sc  Sc19  1  0.66666700  0.33333300  0.76388824  1
  Sc  Sc20  1  0.00000000  0.00000000  0.00000000  1
  Sc  Sc21  1  0.33333300  0.66666700  0.23611176  1
  Sc  Sc22  1  0.00000000  0.00000000  0.50000000  1
  Sc  Sc23  1  0.33333300  0.66666700  0.73611176  1
  F  F24  1  0.88216667  0.77315808  0.89280760  1
  F  F25  1  0.78398555  0.55254998  0.14481005  1
  F  F26  1  0.44745002  0.23143557  0.14481005  1
  F  F27  1  0.11783333  0.89099140  0.60719240  1
  F  F28  1  0.78398555  0.23143557  0.64481005  1
  F  F29  1  0.88216667  0.10900860  0.39280760  1
  F  F30  1  0.55254998  0.76856443  0.85518995  1
  F  F31  1  0.77315808  0.89099140  0.10719240  1
  F  F32  1  0.57131126  0.11192485  0.38152928  1
  F  F33  1  0.89099140  0.11783333  0.89280760  1
  F  F34  1  0.10900860  0.22684192  0.60719240  1
  F  F35  1  0.76856443  0.21601445  0.14481005  1
  F  F36  1  0.54061360  0.11192485  0.88152928  1
  F  F37  1  0.21601445  0.76856443  0.35518995  1
  F  F38  1  0.88807515  0.45938640  0.38152928  1
  F  F39  1  0.10900860  0.88216667  0.10719240  1
  F  F40  1  0.77315808  0.88216667  0.60719240  1
  F  F41  1  0.44745002  0.21601445  0.64481005  1
  F  F42  1  0.22684192  0.11783333  0.39280760  1
  F  F43  1  0.42868874  0.88807515  0.61847072  1
  F  F44  1  0.22684192  0.10900860  0.89280760  1
  F  F45  1  0.11783333  0.22684192  0.10719240  1
  F  F46  1  0.45938640  0.88807515  0.11847072  1
  F  F47  1  0.88807515  0.42868874  0.88152928  1
  F  F48  1  0.76856443  0.55254998  0.64481005  1
  F  F49  1  0.23143557  0.44745002  0.35518995  1
  F  F50  1  0.11192485  0.57131126  0.11847072  1
  F  F51  1  0.23143557  0.78398555  0.85518995  1
  F  F52  1  0.21601445  0.44745002  0.85518995  1
  F  F53  1  0.11192485  0.54061360  0.61847072  1
  F  F54  1  0.89099140  0.77315808  0.39280760  1
  F  F55  1  0.57131126  0.45938640  0.88152928  1
  F  F56  1  0.54061360  0.42868874  0.38152928  1
  F  F57  1  0.45938640  0.57131126  0.61847072  1
  F  F58  1  0.42868874  0.54061360  0.11847072  1
  F  F59  1  0.55254998  0.78398555  0.35518995  1
