# generated using pymatgen
data_La4Ti9(Si2O15)2
_symmetry_space_group_name_H-M   'P 1'
_cell_length_a   5.77727758
_cell_length_b   7.42869873
_cell_length_c   14.66023909
_cell_angle_alpha   80.65261175
_cell_angle_beta   78.63761001
_cell_angle_gamma   67.11662079
_symmetry_Int_Tables_number   1
_chemical_formula_structural   La4Ti9(Si2O15)2
_chemical_formula_sum   'La4 Ti9 Si4 O30'
_cell_volume   565.73383971
_cell_formula_units_Z   1
loop_
 _symmetry_equiv_pos_site_id
 _symmetry_equiv_pos_as_xyz
  1  'x, y, z'
loop_
 _atom_site_type_symbol
 _atom_site_label
 _atom_site_symmetry_multiplicity
 _atom_site_fract_x
 _atom_site_fract_y
 _atom_site_fract_z
 _atom_site_occupancy
  La  La0  1  0.89259587  0.90134931  0.31344707  1
  La  La1  1  0.61229345  0.46700330  0.30845619  1
  La  La2  1  0.10740413  0.09865069  0.68655293  1
  La  La3  1  0.38770655  0.53299670  0.69154381  1
  Ti  Ti4  1  0.56329122  0.75673246  0.11672211  1
  Ti  Ti5  1  0.40836901  0.77340418  0.89013264  1
  Ti  Ti6  1  0.90668422  0.30528011  0.88131829  1
  Ti  Ti7  1  0.00000000  0.50000000  0.50000000  1
  Ti  Ti8  1  0.07188838  0.22658448  0.10986816  1
  Ti  Ti9  1  0.92811162  0.77341552  0.89013184  1
  Ti  Ti10  1  0.43670878  0.24326754  0.88327789  1
  Ti  Ti11  1  0.59163099  0.22659582  0.10986736  1
  Ti  Ti12  1  0.09331578  0.69471989  0.11868171  1
  Si  Si13  1  0.75885766  0.80471733  0.67755781  1
  Si  Si14  1  0.24114234  0.19528267  0.32244219  1
  Si  Si15  1  0.63025124  0.20531529  0.53420509  1
  Si  Si16  1  0.36974876  0.79468471  0.46579491  1
  O  O17  1  0.71124782  0.29203255  0.78375792  1
  O  O18  1  0.48929323  0.80554876  0.73904668  1
  O  O19  1  0.92181948  0.02348749  0.13280267  1
  O  O20  1  0.57263359  0.97095837  0.88376619  1
  O  O21  1  0.72232022  0.42239492  0.13299091  1
  O  O22  1  0.30679585  0.99390930  0.39264929  1
  O  O23  1  0.07818052  0.97651251  0.86719733  1
  O  O24  1  0.77077406  0.57828657  0.88019777  1
  O  O25  1  0.13143158  0.25672070  0.97595796  1
  O  O26  1  0.36414386  0.74329984  0.02404682  1
  O  O27  1  0.42736641  0.02904163  0.11623381  1
  O  O28  1  0.63585614  0.25670016  0.97595318  1
  O  O29  1  0.51070677  0.19445124  0.26095332  1
  O  O30  1  0.21286280  0.29204250  0.78375254  1
  O  O31  1  0.69320415  0.00609070  0.60735071  1
  O  O32  1  0.32171057  0.32256207  0.56640848  1
  O  O33  1  0.78934878  0.32253730  0.56641731  1
  O  O34  1  0.67828943  0.67743793  0.43359152  1
  O  O35  1  0.22922594  0.42171343  0.11980223  1
  O  O36  1  0.88371443  0.61426197  0.61827353  1
  O  O37  1  0.21065122  0.67746270  0.43358269  1
  O  O38  1  0.27767978  0.57760508  0.86700909  1
  O  O39  1  0.11628557  0.38573803  0.38172647  1
  O  O40  1  0.28875218  0.70796745  0.21624208  1
  O  O41  1  0.29629081  0.83297923  0.57432537  1
  O  O42  1  0.70370919  0.16702077  0.42567463  1
  O  O43  1  0.86856842  0.74327930  0.02404204  1
  O  O44  1  0.03393414  0.19442124  0.26094528  1
  O  O45  1  0.78713720  0.70795750  0.21624746  1
  O  O46  1  0.96606586  0.80557876  0.73905472  1
