# generated using pymatgen
data_Pr10Se14O
_symmetry_space_group_name_H-M   'P 1'
_cell_length_a   15.36423646
_cell_length_b   15.36423573
_cell_length_c   15.36423590
_cell_angle_alpha   93.82820753
_cell_angle_beta   117.81495129
_cell_angle_gamma   117.81494995
_symmetry_Int_Tables_number   1
_chemical_formula_structural   Pr10Se14O
_chemical_formula_sum   'Pr40 Se56 O4'
_cell_volume   2642.90891652
_cell_formula_units_Z   4
loop_
 _symmetry_equiv_pos_site_id
 _symmetry_equiv_pos_as_xyz
  1  'x, y, z'
loop_
 _atom_site_type_symbol
 _atom_site_label
 _atom_site_symmetry_multiplicity
 _atom_site_fract_x
 _atom_site_fract_y
 _atom_site_fract_z
 _atom_site_occupancy
  Pr  Pr0  1  0.37442748  0.68601086  0.56950306  1
  Pr  Pr1  1  0.62557252  0.31398914  0.43049694  1
  Pr  Pr2  1  0.88349220  0.81398914  0.18841662  1
  Pr  Pr3  1  0.84345376  0.41753604  0.02055725  1
  Pr  Pr4  1  0.87442748  0.30492442  0.68841662  1
  Pr  Pr5  1  0.75000000  0.25846462  0.24153538  1
  Pr  Pr6  1  0.15654624  0.58246396  0.97944275  1
  Pr  Pr7  1  0.84345376  0.92591772  0.82289652  1
  Pr  Pr8  1  0.65654624  0.67710348  0.57408228  1
  Pr  Pr9  1  0.12557252  0.69507558  0.31158338  1
  Pr  Pr10  1  0.48307076  0.49153538  0.74153538  1
  Pr  Pr11  1  0.98307076  0.24153538  0.99153538  1
  Pr  Pr12  1  0.60302121  0.08246396  0.92591772  1
  Pr  Pr13  1  0.60302121  0.02055725  0.67710348  1
  Pr  Pr14  1  0.01692924  0.75846462  0.00846462  1
  Pr  Pr15  1  0.61650780  0.31158338  0.68601086  1
  Pr  Pr16  1  0.51692924  0.50846462  0.25846462  1
  Pr  Pr17  1  0.38349220  0.68841662  0.31398914  1
  Pr  Pr18  1  0.89697879  0.82289652  0.47944275  1
  Pr  Pr19  1  0.15654624  0.07408228  0.17710348  1
  Pr  Pr20  1  0.39697879  0.97944275  0.32289652  1
  Pr  Pr21  1  0.34345376  0.52055725  0.91753604  1
  Pr  Pr22  1  0.39697879  0.91753604  0.07408228  1
  Pr  Pr23  1  0.34345376  0.32289652  0.42591772  1
  Pr  Pr24  1  0.65654624  0.47944275  0.08246396  1
  Pr  Pr25  1  0.62557252  0.81158338  0.19507558  1
  Pr  Pr26  1  0.37442748  0.18841662  0.80492442  1
  Pr  Pr27  1  0.75000000  0.99153538  0.50846462  1
  Pr  Pr28  1  0.88349220  0.56950306  0.69507558  1
  Pr  Pr29  1  0.87442748  0.06950306  0.18601086  1
  Pr  Pr30  1  0.10302121  0.17710348  0.52055725  1
  Pr  Pr31  1  0.25000000  0.74153538  0.75846462  1
  Pr  Pr32  1  0.25000000  0.00846462  0.49153538  1
  Pr  Pr33  1  0.89697879  0.57408228  0.41753604  1
  Pr  Pr34  1  0.10302121  0.42591772  0.58246396  1
  Pr  Pr35  1  0.12557252  0.93049694  0.81398914  1
  Pr  Pr36  1  0.11650780  0.18601086  0.81158338  1
  Pr  Pr37  1  0.38349220  0.19507558  0.06950306  1
  Pr  Pr38  1  0.61650780  0.80492442  0.93049694  1
  Pr  Pr39  1  0.11650780  0.43049694  0.30492442  1
  Se  Se40  1  0.59600064  0.61613204  0.97533941  1
  Se  Se41  1  0.40399936  0.38386796  0.02466059  1
  Se  Se42  1  0.85478477  0.10478477  0.75000000  1
  Se  Se43  1  0.64521523  0.75000000  0.39521523  1
  Se  Se44  1  0.64079264  0.11613204  0.52013141  1
  Se  Se45  1  0.10887968  0.24189321  0.21034485  1
  Se  Se46  1  0.91382447  0.47828474  0.25002332  1
  Se  Se47  1  0.58617553  0.83619885  0.56446027  1
  Se  Se48  1  0.39112032  0.60146518  0.13301353  1
  Se  Se49  1  0.46845165  0.86698647  0.75810679  1
  Se  Se50  1  0.08617553  0.06446027  0.33619885  1
  Se  Se51  1  0.09600064  0.47533941  0.11613204  1
  Se  Se52  1  0.64521523  0.39521523  0.25000000  1
  Se  Se53  1  0.08617553  0.52171526  0.74997668  1
  Se  Se54  1  0.60887968  0.71034485  0.74189321  1
  Se  Se55  1  0.41382447  0.16380115  0.43553973  1
  Se  Se56  1  0.59600064  0.47986859  0.62066123  1
  Se  Se57  1  0.53154835  0.13301353  0.24189321  1
  Se  Se58  1  0.09600064  0.12066123  0.97986859  1
  Se  Se59  1  0.89112032  0.75810679  0.78965515  1
  Se  Se60  1  0.90399936  0.52466059  0.88386796  1
  Se  Se61  1  0.35920736  0.88386796  0.47986859  1
  Se  Se62  1  0.77173858  0.25002332  0.83619885  1
  Se  Se63  1  0.46845165  0.10146518  0.71034485  1
  Se  Se64  1  0.35478477  0.60478477  0.75000000  1
  Se  Se65  1  0.85920736  0.97986859  0.38386796  1
  Se  Se66  1  0.90399936  0.87933877  0.02013141  1
  Se  Se67  1  0.41382447  0.75002332  0.97828474  1
  Se  Se68  1  0.64079264  0.02466059  0.12066123  1
  Se  Se69  1  0.27173858  0.43553973  0.52171526  1
  Se  Se70  1  0.40399936  0.52013141  0.37933877  1
  Se  Se71  1  0.53154835  0.89853482  0.28965515  1
  Se  Se72  1  0.89112032  0.63301353  0.10146518  1
  Se  Se73  1  0.58617553  0.24997668  0.02171526  1
  Se  Se74  1  0.27173858  0.33619885  0.75002332  1
  Se  Se75  1  0.60887968  0.39853482  0.86698647  1
  Se  Se76  1  0.14521523  0.75000000  0.89521523  1
  Se  Se77  1  0.96845165  0.21034485  0.60146518  1
  Se  Se78  1  0.96845165  0.25810679  0.36698647  1
  Se  Se79  1  0.22826142  0.74997668  0.16380115  1
  Se  Se80  1  0.14079264  0.62066123  0.52466059  1
  Se  Se81  1  0.03154835  0.74189321  0.63301353  1
  Se  Se82  1  0.72826142  0.56446027  0.47828474  1
  Se  Se83  1  0.35478477  0.25000000  0.60478477  1
  Se  Se84  1  0.22826142  0.97828474  0.06446027  1
  Se  Se85  1  0.03154835  0.78965515  0.39853482  1
  Se  Se86  1  0.85920736  0.37933877  0.47533941  1
  Se  Se87  1  0.85478477  0.25000000  0.10478477  1
  Se  Se88  1  0.39112032  0.28965515  0.25810679  1
  Se  Se89  1  0.35920736  0.97533941  0.87933877  1
  Se  Se90  1  0.72826142  0.66380115  0.24997668  1
  Se  Se91  1  0.14521523  0.89521523  0.25000000  1
  Se  Se92  1  0.91382447  0.93553973  0.66380115  1
  Se  Se93  1  0.77173858  0.02171526  0.93553973  1
  Se  Se94  1  0.14079264  0.02013141  0.61613204  1
  Se  Se95  1  0.10887968  0.36698647  0.89853482  1
  O  O96  1  0.75000000  0.87500000  0.12500000  1
  O  O97  1  0.25000000  0.62500000  0.37500000  1
  O  O98  1  0.75000000  0.37500000  0.62500000  1
  O  O99  1  0.25000000  0.12500000  0.87500000  1
