# generated using pymatgen
data_Cs3TaO8
_symmetry_space_group_name_H-M   'P 1'
_cell_length_a   6.81624708
_cell_length_b   6.81624761
_cell_length_c   6.81624726
_cell_angle_alpha   102.94488576
_cell_angle_beta   112.82969062
_cell_angle_gamma   112.82968241
_symmetry_Int_Tables_number   1
_chemical_formula_structural   Cs3TaO8
_chemical_formula_sum   'Cs3 Ta1 O8'
_cell_volume   241.45394960
_cell_formula_units_Z   1
loop_
 _symmetry_equiv_pos_site_id
 _symmetry_equiv_pos_as_xyz
  1  'x, y, z'
loop_
 _atom_site_type_symbol
 _atom_site_label
 _atom_site_symmetry_multiplicity
 _atom_site_fract_x
 _atom_site_fract_y
 _atom_site_fract_z
 _atom_site_occupancy
  Cs  Cs0  1  0.00000000  0.50000000  0.50000000  1
  Cs  Cs1  1  0.50000000  0.25000000  0.75000000  1
  Cs  Cs2  1  0.50000000  0.75000000  0.25000000  1
  Ta  Ta3  1  0.00000000  0.00000000  0.00000000  1
  O  O4  1  0.74410543  0.04852186  0.04852186  1
  O  O5  1  1.00000000  0.78607385  0.17540696  1
  O  O6  1  0.00000000  0.69558358  0.95147814  1
  O  O7  1  0.25589457  0.30441642  0.30441642  1
  O  O8  1  1.00000000  0.95147814  0.69558358  1
  O  O9  1  0.00000000  0.17540696  0.78607385  1
  O  O10  1  0.38933311  0.21392615  0.21392615  1
  O  O11  1  0.61066689  0.82459304  0.82459304  1
