# generated using pymatgen
data_Ni(BO2)2
_symmetry_space_group_name_H-M   'P 1'
_cell_length_a   4.45686140
_cell_length_b   5.44066969
_cell_length_c   5.44066969
_cell_angle_alpha   61.74703893
_cell_angle_beta   74.45214041
_cell_angle_gamma   74.45213855
_symmetry_Int_Tables_number   1
_chemical_formula_structural   Ni(BO2)2
_chemical_formula_sum   'Ni2 B4 O8'
_cell_volume   110.39787227
_cell_formula_units_Z   2
loop_
 _symmetry_equiv_pos_site_id
 _symmetry_equiv_pos_as_xyz
  1  'x, y, z'
loop_
 _atom_site_type_symbol
 _atom_site_label
 _atom_site_symmetry_multiplicity
 _atom_site_fract_x
 _atom_site_fract_y
 _atom_site_fract_z
 _atom_site_occupancy
  Ni  Ni0  1  0.25000000  0.65409528  0.34590472  1
  Ni  Ni1  1  0.75000000  0.34590472  0.65409528  1
  B  B2  1  0.87242575  0.70719848  0.92229935  1
  B  B3  1  0.62757425  0.07770065  0.29280152  1
  B  B4  1  0.12757425  0.29280152  0.07770065  1
  B  B5  1  0.37242575  0.92229935  0.70719848  1
  O  O6  1  0.98033886  0.50579855  0.20538293  1
  O  O7  1  0.01966114  0.49420145  0.79461707  1
  O  O8  1  0.46922501  0.22701802  0.04777832  1
  O  O9  1  0.51966114  0.79461707  0.49420145  1
  O  O10  1  0.03077499  0.95222168  0.77298198  1
  O  O11  1  0.96922501  0.04777832  0.22701802  1
  O  O12  1  0.48033886  0.20538293  0.50579855  1
  O  O13  1  0.53077499  0.77298198  0.95222168  1
