# generated using pymatgen
data_K3Gd5(PO4)6
_symmetry_space_group_name_H-M   'P 1'
_cell_length_a   7.00560012
_cell_length_b   9.49741167
_cell_length_c   17.08357068
_cell_angle_alpha   81.46678412
_cell_angle_beta   78.17120211
_cell_angle_gamma   68.35489517
_symmetry_Int_Tables_number   1
_chemical_formula_structural   K3Gd5(PO4)6
_chemical_formula_sum   'K6 Gd10 P12 O48'
_cell_volume   1030.75774116
_cell_formula_units_Z   2
loop_
 _symmetry_equiv_pos_site_id
 _symmetry_equiv_pos_as_xyz
  1  'x, y, z'
loop_
 _atom_site_type_symbol
 _atom_site_label
 _atom_site_symmetry_multiplicity
 _atom_site_fract_x
 _atom_site_fract_y
 _atom_site_fract_z
 _atom_site_occupancy
  K  K0  1  0.02139973  0.07969103  0.07471473  1
  K  K1  1  0.17099711  0.74980516  0.24996438  1
  K  K2  1  0.82900289  0.25019484  0.75003562  1
  K  K3  1  0.17596424  0.42047956  0.42522465  1
  K  K4  1  0.82403576  0.57952044  0.57477535  1
  K  K5  1  0.97860027  0.92030897  0.92528527  1
  Gd  Gd6  1  0.34443436  0.85168681  0.70780736  1
  Gd  Gd7  1  0.09608140  0.35166689  0.20778436  1
  Gd  Gd8  1  0.73123229  0.19144259  0.51921460  1
  Gd  Gd9  1  0.90391860  0.64833311  0.79221564  1
  Gd  Gd10  1  0.26876771  0.80855741  0.48078540  1
  Gd  Gd11  1  0.55807767  0.69146216  0.01921420  1
  Gd  Gd12  1  0.36279967  0.24998824  0.75001203  1
  Gd  Gd13  1  0.44192233  0.30853784  0.98078580  1
  Gd  Gd14  1  0.63720033  0.75001176  0.24998797  1
  Gd  Gd15  1  0.65556564  0.14831319  0.29219264  1
  P  P16  1  0.17355291  0.07312542  0.34171587  1
  P  P17  1  0.58844035  0.42686750  0.15824918  1
  P  P18  1  0.94907372  0.35932054  0.91339889  1
  P  P19  1  0.77827236  0.85928549  0.41337725  1
  P  P20  1  0.52188888  0.03036963  0.11790196  1
  P  P21  1  0.67016911  0.46963082  0.38206700  1
  P  P22  1  0.05092628  0.64067946  0.08660111  1
  P  P23  1  0.41155965  0.57313250  0.84175082  1
  P  P24  1  0.32983089  0.53036918  0.61793300  1
  P  P25  1  0.82644709  0.92687458  0.65828413  1
  P  P26  1  0.47811112  0.96963037  0.88209804  1
  P  P27  1  0.22172764  0.14071451  0.58662275  1
  O  O28  1  0.99684231  0.23129030  0.57268184  1
  O  O29  1  0.03608840  0.36559469  0.81969482  1
  O  O30  1  0.15059250  0.51438219  0.68663055  1
  O  O31  1  0.80084702  0.26873317  0.92731825  1
  O  O32  1  0.41331917  0.38314379  0.21621945  1
  O  O33  1  0.74399750  0.43725121  0.46392751  1
  O  O34  1  0.58668083  0.61685621  0.78378055  1
  O  O35  1  0.33109464  0.90982058  0.32994335  1
  O  O36  1  0.62386805  0.78634142  0.46113119  1
  O  O37  1  0.96391160  0.63440531  0.18030518  1
  O  O38  1  0.68650144  0.83166916  0.87513058  1
  O  O39  1  0.16171976  0.46756453  0.07488118  1
  O  O40  1  0.19915298  0.73126683  0.07268175  1
  O  O41  1  0.83828024  0.53243547  0.92511882  1
  O  O42  1  0.48479252  0.62006568  0.36980957  1
  O  O43  1  0.25600250  0.56274879  0.53607249  1
  O  O44  1  0.01267223  0.11688723  0.28374007  1
  O  O45  1  0.87133273  0.71363917  0.03883991  1
  O  O46  1  0.47473022  0.87993682  0.13016648  1
  O  O47  1  0.37613195  0.21365858  0.53886881  1
  O  O48  1  0.64523732  0.06272968  0.03604933  1
  O  O49  1  0.71467175  0.80772223  0.68214417  1
  O  O50  1  0.20450032  0.69227598  0.81788084  1
  O  O51  1  0.42911945  0.40981656  0.82998906  1
  O  O52  1  0.92299622  0.92503395  0.56877522  1
  O  O53  1  0.77871213  0.86554930  0.31967021  1
  O  O54  1  0.60671410  0.33168109  0.37507891  1
  O  O55  1  0.29582336  0.96758759  0.57490211  1
  O  O56  1  0.39328590  0.66831891  0.62492109  1
  O  O57  1  0.31349856  0.16833084  0.12486942  1
  O  O58  1  0.00315769  0.76870970  0.42731816  1
  O  O59  1  0.41674711  0.57497576  0.93125957  1
  O  O60  1  0.98732777  0.88311277  0.71625993  1
  O  O61  1  0.66890536  0.09017942  0.67005665  1
  O  O62  1  0.58325289  0.42502424  0.06874043  1
  O  O63  1  0.52526978  0.12006318  0.86983352  1
  O  O64  1  0.22128787  0.13445070  0.68032979  1
  O  O65  1  0.35158574  0.98559370  0.81339611  1
  O  O66  1  0.28532825  0.19227777  0.31785583  1
  O  O67  1  0.79549968  0.30772402  0.18211916  1
  O  O68  1  0.70417664  0.03241241  0.42509789  1
  O  O69  1  0.12866727  0.28636083  0.96116009  1
  O  O70  1  0.64841426  0.01440630  0.18660389  1
  O  O71  1  0.51520748  0.37993432  0.63019043  1
  O  O72  1  0.84940750  0.48561781  0.31336945  1
  O  O73  1  0.35476268  0.93727032  0.96395067  1
  O  O74  1  0.57088055  0.59018344  0.17001094  1
  O  O75  1  0.07700378  0.07496605  0.43122478  1
