# generated using pymatgen
data_Ba2Li3NbN4
_symmetry_space_group_name_H-M   'P 1'
_cell_length_a   5.71605075
_cell_length_b   6.36165707
_cell_length_c   10.17390280
_cell_angle_alpha   81.16635757
_cell_angle_beta   73.68464510
_cell_angle_gamma   63.30375670
_symmetry_Int_Tables_number   1
_chemical_formula_structural   Ba2Li3NbN4
_chemical_formula_sum   'Ba4 Li6 Nb2 N8'
_cell_volume   317.05030726
_cell_formula_units_Z   2
loop_
 _symmetry_equiv_pos_site_id
 _symmetry_equiv_pos_as_xyz
  1  'x, y, z'
loop_
 _atom_site_type_symbol
 _atom_site_label
 _atom_site_symmetry_multiplicity
 _atom_site_fract_x
 _atom_site_fract_y
 _atom_site_fract_z
 _atom_site_occupancy
  Ba  Ba0  1  0.43908497  0.80620744  0.38805412  1
  Ba  Ba1  1  0.86665890  0.30621169  0.88804869  1
  Ba  Ba2  1  0.56091503  0.19379256  0.61194588  1
  Ba  Ba3  1  0.13334110  0.69378831  0.11195131  1
  Li  Li4  1  0.97345222  0.69025124  0.45853151  1
  Li  Li5  1  0.62223127  0.80975308  0.04146908  1
  Li  Li6  1  0.11557797  0.24998488  0.25000237  1
  Li  Li7  1  0.37776873  0.19024692  0.95853092  1
  Li  Li8  1  0.88442203  0.75001512  0.74999763  1
  Li  Li9  1  0.02654778  0.30974876  0.54146849  1
  Nb  Nb10  1  0.36219168  0.75006561  0.74996044  1
  Nb  Nb11  1  0.63780832  0.24993439  0.25003956  1
  N  N12  1  0.56830110  0.11158566  0.11207514  1
  N  N13  1  0.70804481  0.61156684  0.61208511  1
  N  N14  1  0.23595008  0.50708460  0.83802932  1
  N  N15  1  0.43169890  0.88841434  0.88792486  1
  N  N16  1  0.91889781  0.00711599  0.33802081  1
  N  N17  1  0.76404992  0.49291540  0.16197068  1
  N  N18  1  0.08110219  0.99288401  0.66197919  1
  N  N19  1  0.29195519  0.38843316  0.38791489  1
