# generated using pymatgen
data_MnAsO4
_symmetry_space_group_name_H-M   'P 1'
_cell_length_a   4.91252897
_cell_length_b   6.87832087
_cell_length_c   9.09682530
_cell_angle_alpha   90.00000000
_cell_angle_beta   90.00000000
_cell_angle_gamma   94.45224199
_symmetry_Int_Tables_number   1
_chemical_formula_structural   MnAsO4
_chemical_formula_sum   'Mn4 As4 O16'
_cell_volume   306.45371922
_cell_formula_units_Z   4
loop_
 _symmetry_equiv_pos_site_id
 _symmetry_equiv_pos_as_xyz
  1  'x, y, z'
loop_
 _atom_site_type_symbol
 _atom_site_label
 _atom_site_symmetry_multiplicity
 _atom_site_fract_x
 _atom_site_fract_y
 _atom_site_fract_z
 _atom_site_occupancy
  Mn  Mn0  1  0.50000000  0.50000000  0.50000000  1
  Mn  Mn1  1  0.00000000  0.00000000  0.00000000  1
  Mn  Mn2  1  0.00000000  0.50000000  0.00000000  1
  Mn  Mn3  1  0.50000000  0.00000000  0.50000000  1
  As  As4  1  0.96264180  0.78321209  0.32081974  1
  As  As5  1  0.46264180  0.28321209  0.17918026  1
  As  As6  1  0.03735820  0.21678791  0.67918026  1
  As  As7  1  0.53735820  0.71678791  0.82081974  1
  O  O8  1  0.30833887  0.06421943  0.12243779  1
  O  O9  1  0.68684566  0.51223155  0.87578968  1
  O  O10  1  0.19166113  0.43578057  0.62243779  1
  O  O11  1  0.70273994  0.21222642  0.62030728  1
  O  O12  1  0.79726006  0.28777358  0.12030728  1
  O  O13  1  0.58172606  0.72758784  0.62992434  1
  O  O14  1  0.08172606  0.22758784  0.87007566  1
  O  O15  1  0.91827394  0.77241216  0.12992434  1
  O  O16  1  0.69166113  0.93578057  0.87756221  1
  O  O17  1  0.18684566  0.01223155  0.62421032  1
  O  O18  1  0.80833887  0.56421943  0.37756221  1
  O  O19  1  0.20273994  0.71222642  0.87969272  1
  O  O20  1  0.81315434  0.98776845  0.37578968  1
  O  O21  1  0.29726006  0.78777358  0.37969272  1
  O  O22  1  0.41827394  0.27241216  0.37007566  1
  O  O23  1  0.31315434  0.48776845  0.12421032  1
