# generated using pymatgen
data_Gd2Mo4O15
_symmetry_space_group_name_H-M   'P 1'
_cell_length_a   9.47338446
_cell_length_b   11.07848463
_cell_length_c   11.63770366
_cell_angle_alpha   104.49261355
_cell_angle_beta   109.07548148
_cell_angle_gamma   108.99989779
_symmetry_Int_Tables_number   1
_chemical_formula_structural   Gd2Mo4O15
_chemical_formula_sum   'Gd6 Mo12 O45'
_cell_volume   1000.72986875
_cell_formula_units_Z   3
loop_
 _symmetry_equiv_pos_site_id
 _symmetry_equiv_pos_as_xyz
  1  'x, y, z'
loop_
 _atom_site_type_symbol
 _atom_site_label
 _atom_site_symmetry_multiplicity
 _atom_site_fract_x
 _atom_site_fract_y
 _atom_site_fract_z
 _atom_site_occupancy
  Gd  Gd0  1  0.76493287  0.77503606  0.82490469  1
  Gd  Gd1  1  0.78593057  0.94500835  0.41104364  1
  Gd  Gd2  1  0.21406943  0.05499165  0.58895636  1
  Gd  Gd3  1  0.23506713  0.22496394  0.17509531  1
  Gd  Gd4  1  0.33501543  0.65859727  0.79724202  1
  Gd  Gd5  1  0.66498457  0.34140273  0.20275798  1
  Mo  Mo6  1  0.58370379  0.22173850  0.48018593  1
  Mo  Mo7  1  0.08591975  0.31108707  0.44842892  1
  Mo  Mo8  1  0.09081686  0.53358144  0.18219126  1
  Mo  Mo9  1  0.06690486  0.86960076  0.20212361  1
  Mo  Mo10  1  0.90918314  0.46641856  0.81780874  1
  Mo  Mo11  1  0.52259163  0.43520383  0.86666104  1
  Mo  Mo12  1  0.26569932  0.98210882  0.91845360  1
  Mo  Mo13  1  0.73430068  0.01789118  0.08154640  1
  Mo  Mo14  1  0.91408025  0.68891293  0.55157108  1
  Mo  Mo15  1  0.47740837  0.56479617  0.13333896  1
  Mo  Mo16  1  0.41629621  0.77826150  0.51981407  1
  Mo  Mo17  1  0.93309514  0.13039924  0.79787639  1
  O  O18  1  0.14887683  0.74505631  0.22338607  1
  O  O19  1  0.54712768  0.57426345  0.80201210  1
  O  O20  1  0.33413179  0.28406431  0.75145806  1
  O  O21  1  0.75465499  0.38059933  0.61894503  1
  O  O22  1  0.24534501  0.61940067  0.38105497  1
  O  O23  1  0.10295488  0.69628687  0.66126330  1
  O  O24  1  0.78017418  0.98716976  0.80077196  1
  O  O25  1  0.85112317  0.25494369  0.77661393  1
  O  O26  1  0.65786003  0.09466057  0.44985158  1
  O  O27  1  0.47403336  0.73441484  0.66211973  1
  O  O28  1  0.41465914  0.55830589  0.95821509  1
  O  O29  1  0.77545955  0.69329249  0.62496922  1
  O  O30  1  0.32531237  0.60989021  0.16413562  1
  O  O31  1  0.66586821  0.71593569  0.24854194  1
  O  O32  1  0.41482064  0.16300241  0.52088891  1
  O  O33  1  0.38335901  0.14471983  0.06626197  1
  O  O34  1  0.88081890  0.78953718  0.05067872  1
  O  O35  1  0.05206946  0.91791434  0.88723412  1
  O  O36  1  0.33340704  0.85271866  0.94072344  1
  O  O37  1  0.11918110  0.21046282  0.94932128  1
  O  O38  1  0.61664099  0.85528017  0.93373803  1
  O  O39  1  0.21982582  0.01283024  0.19922804  1
  O  O40  1  0.28583757  0.01715674  0.78090370  1
  O  O41  1  0.11172050  0.37921678  0.16732513  1
  O  O42  1  0.94793054  0.08208566  0.11276588  1
  O  O43  1  0.00000000  0.50000000  0.00000000  1
  O  O44  1  0.22454045  0.30670751  0.37503078  1
  O  O45  1  0.19325447  0.46457607  0.59702521  1
  O  O46  1  0.96921630  0.06599840  0.65724318  1
  O  O47  1  0.09534024  0.50752616  0.80153985  1
  O  O48  1  0.67468763  0.39010979  0.83586438  1
  O  O49  1  0.58517936  0.83699759  0.47911109  1
  O  O50  1  0.45287232  0.42573655  0.19798790  1
  O  O51  1  0.71416243  0.98284326  0.21909630  1
  O  O52  1  0.80674553  0.53542393  0.40297479  1
  O  O53  1  0.90465976  0.49247384  0.19846015  1
  O  O54  1  0.88827950  0.62078322  0.83267487  1
  O  O55  1  0.03372072  0.15705389  0.48774136  1
  O  O56  1  0.58534086  0.44169411  0.04178491  1
  O  O57  1  0.89704512  0.30371313  0.33873670  1
  O  O58  1  0.66659296  0.14728134  0.05927656  1
  O  O59  1  0.52596664  0.26558516  0.33788027  1
  O  O60  1  0.03078370  0.93400160  0.34275682  1
  O  O61  1  0.34213997  0.90533943  0.55014842  1
  O  O62  1  0.96627928  0.84294611  0.51225864  1
