# generated using pymatgen
data_TaI4
_symmetry_space_group_name_H-M   'P 1'
_cell_length_a   7.64861034
_cell_length_b   11.11984706
_cell_length_c   11.26941704
_cell_angle_alpha   81.84680615
_cell_angle_beta   88.41856150
_cell_angle_gamma   74.46506739
_symmetry_Int_Tables_number   1
_chemical_formula_structural   TaI4
_chemical_formula_sum   'Ta4 I16'
_cell_volume   914.07545479
_cell_formula_units_Z   4
loop_
 _symmetry_equiv_pos_site_id
 _symmetry_equiv_pos_as_xyz
  1  'x, y, z'
loop_
 _atom_site_type_symbol
 _atom_site_label
 _atom_site_symmetry_multiplicity
 _atom_site_fract_x
 _atom_site_fract_y
 _atom_site_fract_z
 _atom_site_occupancy
  Ta  Ta0  1  0.11243459  0.90876084  0.83824669  1
  Ta  Ta1  1  0.88756541  0.09123916  0.16175331  1
  Ta  Ta2  1  0.18800018  0.67376103  0.72334211  1
  Ta  Ta3  1  0.81199982  0.32623897  0.27665789  1
  I  I4  1  0.22483433  0.94835559  0.06998740  1
  I  I5  1  0.46319191  0.76013088  0.83060125  1
  I  I6  1  0.89395215  0.89663191  0.65215915  1
  I  I7  1  0.19738706  0.11355452  0.72340336  1
  I  I8  1  0.80261294  0.88644548  0.27659664  1
  I  I9  1  0.05896107  0.44939975  0.33151035  1
  I  I10  1  0.41138089  0.43974301  0.80339417  1
  I  I11  1  0.02777897  0.68887146  0.96037578  1
  I  I12  1  0.10604785  0.10336809  0.34784085  1
  I  I13  1  0.53680809  0.23986912  0.16939875  1
  I  I14  1  0.77516567  0.05164441  0.93001260  1
  I  I15  1  0.97222103  0.31112854  0.03962422  1
  I  I16  1  0.66383318  0.29085185  0.49180041  1
  I  I17  1  0.94103893  0.55060025  0.66848965  1
  I  I18  1  0.33616682  0.70914815  0.50819959  1
  I  I19  1  0.58861911  0.56025699  0.19660583  1
