# generated using pymatgen
data_Sr2GeN2
_symmetry_space_group_name_H-M   'P 1'
_cell_length_a   5.46455980
_cell_length_b   6.35369716
_cell_length_c   12.26659105
_cell_angle_alpha   90.00000000
_cell_angle_beta   90.00000000
_cell_angle_gamma   115.46945915
_symmetry_Int_Tables_number   1
_chemical_formula_structural   Sr2GeN2
_chemical_formula_sum   'Sr8 Ge4 N8'
_cell_volume   384.50692954
_cell_formula_units_Z   4
loop_
 _symmetry_equiv_pos_site_id
 _symmetry_equiv_pos_as_xyz
  1  'x, y, z'
loop_
 _atom_site_type_symbol
 _atom_site_label
 _atom_site_symmetry_multiplicity
 _atom_site_fract_x
 _atom_site_fract_y
 _atom_site_fract_z
 _atom_site_occupancy
  Sr  Sr0  1  0.85597577  0.71195154  0.94167596  1
  Sr  Sr1  1  0.45207775  0.90415549  0.14226947  1
  Sr  Sr2  1  0.95207775  0.90415549  0.35773053  1
  Sr  Sr3  1  0.54792225  0.09584451  0.85773053  1
  Sr  Sr4  1  0.64402423  0.28804846  0.44167596  1
  Sr  Sr5  1  0.04792225  0.09584451  0.64226947  1
  Sr  Sr6  1  0.14402423  0.28804846  0.05832404  1
  Sr  Sr7  1  0.35597577  0.71195154  0.55832404  1
  Ge  Ge8  1  0.73974313  0.47948626  0.67996716  1
  Ge  Ge9  1  0.26025687  0.52051374  0.32003284  1
  Ge  Ge10  1  0.23974313  0.47948626  0.82003284  1
  Ge  Ge11  1  0.76025687  0.52051374  0.17996716  1
  N  N12  1  0.66005550  0.32011100  0.05964883  1
  N  N13  1  0.07899984  0.15799969  0.85845922  1
  N  N14  1  0.16005550  0.32011100  0.44035117  1
  N  N15  1  0.57899984  0.15799969  0.64154078  1
  N  N16  1  0.33994450  0.67988900  0.94035117  1
  N  N17  1  0.83994450  0.67988900  0.55964883  1
  N  N18  1  0.42100016  0.84200031  0.35845922  1
  N  N19  1  0.92100016  0.84200031  0.14154078  1
