# generated using pymatgen
data_K10MnMo7O27
_symmetry_space_group_name_H-M   'P 1'
_cell_length_a   8.13197819
_cell_length_b   10.82050705
_cell_length_c   18.77775594
_cell_angle_alpha   90.00000000
_cell_angle_beta   90.00000000
_cell_angle_gamma   90.00000000
_symmetry_Int_Tables_number   1
_chemical_formula_structural   K10MnMo7O27
_chemical_formula_sum   'K20 Mn2 Mo14 O54'
_cell_volume   1652.29469174
_cell_formula_units_Z   2
loop_
 _symmetry_equiv_pos_site_id
 _symmetry_equiv_pos_as_xyz
  1  'x, y, z'
loop_
 _atom_site_type_symbol
 _atom_site_label
 _atom_site_symmetry_multiplicity
 _atom_site_fract_x
 _atom_site_fract_y
 _atom_site_fract_z
 _atom_site_occupancy
  K  K0  1  0.04877416  0.69286575  0.67786035  1
  K  K1  1  0.04877416  0.69286575  0.32213965  1
  K  K2  1  0.26488819  0.50863291  0.15227162  1
  K  K3  1  0.95122584  0.19286575  0.17786035  1
  K  K4  1  0.90802433  0.62308362  0.00000000  1
  K  K5  1  0.38180266  0.76642369  0.50000000  1
  K  K6  1  0.73511181  0.00863291  0.34772838  1
  K  K7  1  0.26488819  0.50863291  0.84772838  1
  K  K8  1  0.73978358  0.52239062  0.18398189  1
  K  K9  1  0.73511181  0.00863291  0.65227162  1
  K  K10  1  0.38199319  0.36532990  0.64078687  1
  K  K11  1  0.61800681  0.86532990  0.14078687  1
  K  K12  1  0.26021642  0.02239062  0.31601811  1
  K  K13  1  0.95122584  0.19286575  0.82213965  1
  K  K14  1  0.73978358  0.52239062  0.81601811  1
  K  K15  1  0.26021642  0.02239062  0.68398189  1
  K  K16  1  0.09197567  0.12308362  0.50000000  1
  K  K17  1  0.61819734  0.26642369  0.00000000  1
  K  K18  1  0.61800681  0.86532990  0.85921313  1
  K  K19  1  0.38199319  0.36532990  0.35921313  1
  Mn  Mn20  1  0.70603980  0.51247553  0.50000000  1
  Mn  Mn21  1  0.29396020  0.01247553  0.00000000  1
  Mo  Mo22  1  0.46753595  0.17820231  0.16890952  1
  Mo  Mo23  1  0.90660067  0.34762788  0.34587201  1
  Mo  Mo24  1  0.11155017  0.49992000  0.50000000  1
  Mo  Mo25  1  0.90003965  0.82270657  0.50000000  1
  Mo  Mo26  1  0.88844983  0.99992000  0.00000000  1
  Mo  Mo27  1  0.09339933  0.84762788  0.15412799  1
  Mo  Mo28  1  0.55639164  0.18135915  0.50000000  1
  Mo  Mo29  1  0.09339933  0.84762788  0.84587201  1
  Mo  Mo30  1  0.46753595  0.17820231  0.83109048  1
  Mo  Mo31  1  0.90660067  0.34762788  0.65412799  1
  Mo  Mo32  1  0.44360836  0.68135915  0.00000000  1
  Mo  Mo33  1  0.53246405  0.67820231  0.66890952  1
  Mo  Mo34  1  0.53246405  0.67820231  0.33109048  1
  Mo  Mo35  1  0.09996035  0.32270657  0.00000000  1
  O  O36  1  0.99854381  0.88684265  0.42263782  1
  O  O37  1  0.20749626  0.57172467  0.57451185  1
  O  O38  1  0.56413288  0.06823578  0.77285891  1
  O  O39  1  0.02332332  0.20773766  0.64656053  1
  O  O40  1  0.90658954  0.43751795  0.42996266  1
  O  O41  1  0.70369057  0.30811851  0.67891570  1
  O  O42  1  0.44931825  0.12807938  0.42171591  1
  O  O43  1  0.41018686  0.10077545  0.08674176  1
  O  O44  1  0.19850623  0.34992231  0.50000000  1
  O  O45  1  0.76240857  0.12490734  0.50000000  1
  O  O46  1  0.00145619  0.38684265  0.92263782  1
  O  O47  1  0.09341046  0.93751795  0.07003734  1
  O  O48  1  0.29630943  0.80811851  0.82108430  1
  O  O49  1  0.58981314  0.60077545  0.41325824  1
  O  O50  1  0.97667668  0.70773766  0.85343947  1
  O  O51  1  0.71394573  0.73520986  0.71245911  1
  O  O52  1  0.71394573  0.73520986  0.28754089  1
  O  O53  1  0.44931825  0.12807938  0.57828409  1
  O  O54  1  0.99191382  0.44024200  0.72421885  1
  O  O55  1  0.28605427  0.23520986  0.78754089  1
  O  O56  1  0.00808618  0.94024200  0.77578115  1
  O  O57  1  0.39831506  0.80462926  0.64768619  1
  O  O58  1  0.55068175  0.62807938  0.07828409  1
  O  O59  1  0.60168494  0.30462926  0.85231381  1
  O  O60  1  0.00808618  0.94024200  0.22421885  1
  O  O61  1  0.99191382  0.44024200  0.27578115  1
  O  O62  1  0.92046469  0.65270990  0.50000000  1
  O  O63  1  0.43586712  0.56823578  0.72714109  1
  O  O64  1  0.20749626  0.57172467  0.42548815  1
  O  O65  1  0.43586712  0.56823578  0.27285891  1
  O  O66  1  0.07953531  0.15270990  0.00000000  1
  O  O67  1  0.99854381  0.88684265  0.57736218  1
  O  O68  1  0.79250374  0.07172467  0.92548815  1
  O  O69  1  0.56404062  0.34915843  0.50000000  1
  O  O70  1  0.43595938  0.84915843  0.00000000  1
  O  O71  1  0.39831506  0.80462926  0.35231381  1
  O  O72  1  0.56413288  0.06823578  0.22714109  1
  O  O73  1  0.79250374  0.07172467  0.07451185  1
  O  O74  1  0.29630943  0.80811851  0.17891570  1
  O  O75  1  0.02332332  0.20773766  0.35343947  1
  O  O76  1  0.31099991  0.36066840  0.00000000  1
  O  O77  1  0.90658954  0.43751795  0.57003734  1
  O  O78  1  0.70369057  0.30811851  0.32108430  1
  O  O79  1  0.68900009  0.86066840  0.50000000  1
  O  O80  1  0.23759143  0.62490734  0.00000000  1
  O  O81  1  0.60168494  0.30462926  0.14768619  1
  O  O82  1  0.55068175  0.62807938  0.92171591  1
  O  O83  1  0.97667668  0.70773766  0.14656053  1
  O  O84  1  0.28605427  0.23520986  0.21245911  1
  O  O85  1  0.58981314  0.60077545  0.58674176  1
  O  O86  1  0.41018686  0.10077545  0.91325824  1
  O  O87  1  0.09341046  0.93751795  0.92996266  1
  O  O88  1  0.80149377  0.84992231  0.00000000  1
  O  O89  1  0.00145619  0.38684265  0.07736218  1
