# generated using pymatgen
data_BeCl2
_symmetry_space_group_name_H-M   'P 1'
_cell_length_a   17.13752906
_cell_length_b   17.13752923
_cell_length_c   17.13752933
_cell_angle_alpha   109.47122077
_cell_angle_beta   109.47122097
_cell_angle_gamma   109.47122011
_symmetry_Int_Tables_number   1
_chemical_formula_structural   BeCl2
_chemical_formula_sum   'Be24 Cl48'
_cell_volume   3874.56305686
_cell_formula_units_Z   24
loop_
 _symmetry_equiv_pos_site_id
 _symmetry_equiv_pos_as_xyz
  1  'x, y, z'
loop_
 _atom_site_type_symbol
 _atom_site_label
 _atom_site_symmetry_multiplicity
 _atom_site_fract_x
 _atom_site_fract_y
 _atom_site_fract_z
 _atom_site_occupancy
  Be  Be0  1  0.38480654  0.64397014  0.12402805  1
  Be  Be1  1  0.74083640  0.35602986  0.48005791  1
  Be  Be2  1  0.38480654  0.12402805  0.64397014  1
  Be  Be3  1  0.35602986  0.48005791  0.74083640  1
  Be  Be4  1  0.61519346  0.73922152  0.25916360  1
  Be  Be5  1  0.12402805  0.64397014  0.38480654  1
  Be  Be6  1  0.87597195  0.26077848  0.51994209  1
  Be  Be7  1  0.64397014  0.12402805  0.38480654  1
  Be  Be8  1  0.26077848  0.51994209  0.87597195  1
  Be  Be9  1  0.87597195  0.51994209  0.26077848  1
  Be  Be10  1  0.61519346  0.25916360  0.73922152  1
  Be  Be11  1  0.48005791  0.74083640  0.35602986  1
  Be  Be12  1  0.73922152  0.25916360  0.61519346  1
  Be  Be13  1  0.12402805  0.38480654  0.64397014  1
  Be  Be14  1  0.51994209  0.26077848  0.87597195  1
  Be  Be15  1  0.26077848  0.87597195  0.51994209  1
  Be  Be16  1  0.48005791  0.35602986  0.74083640  1
  Be  Be17  1  0.25916360  0.73922152  0.61519346  1
  Be  Be18  1  0.64397014  0.38480654  0.12402805  1
  Be  Be19  1  0.51994209  0.87597195  0.26077848  1
  Be  Be20  1  0.25916360  0.61519346  0.73922152  1
  Be  Be21  1  0.74083640  0.48005791  0.35602986  1
  Be  Be22  1  0.73922152  0.61519346  0.25916360  1
  Be  Be23  1  0.35602986  0.74083640  0.48005791  1
  Cl  Cl24  1  0.63045359  0.13045359  0.50000000  1
  Cl  Cl25  1  0.77023981  0.13201677  0.40175999  1
  Cl  Cl26  1  0.63152018  0.22976019  0.36177696  1
  Cl  Cl27  1  0.59824001  0.36847982  0.73025678  1
  Cl  Cl28  1  0.50000000  0.86954641  0.36954641  1
  Cl  Cl29  1  0.53293647  0.00000000  0.26390097  1
  Cl  Cl30  1  0.46706353  0.73096450  0.46706353  1
  Cl  Cl31  1  0.26390097  0.53293647  0.00000000  1
  Cl  Cl32  1  0.36177696  0.22976019  0.63152018  1
  Cl  Cl33  1  0.36177696  0.63152018  0.22976019  1
  Cl  Cl34  1  0.00000000  0.26390097  0.53293647  1
  Cl  Cl35  1  0.40175999  0.13201677  0.77023981  1
  Cl  Cl36  1  0.46706353  0.46706353  0.73096450  1
  Cl  Cl37  1  0.22976019  0.36177696  0.63152018  1
  Cl  Cl38  1  0.63822304  0.26974322  0.86798323  1
  Cl  Cl39  1  0.73609903  0.26903550  0.73609903  1
  Cl  Cl40  1  0.77023981  0.40175999  0.13201677  1
  Cl  Cl41  1  0.13045359  0.50000000  0.63045359  1
  Cl  Cl42  1  0.00000000  0.53293647  0.26390097  1
  Cl  Cl43  1  0.86798323  0.26974322  0.63822304  1
  Cl  Cl44  1  0.40175999  0.77023981  0.13201677  1
  Cl  Cl45  1  0.36954641  0.86954641  0.50000000  1
  Cl  Cl46  1  0.50000000  0.63045359  0.13045359  1
  Cl  Cl47  1  0.22976019  0.63152018  0.36177696  1
  Cl  Cl48  1  0.53293647  0.26390097  0.00000000  1
  Cl  Cl49  1  0.73025678  0.59824001  0.36847982  1
  Cl  Cl50  1  0.86954641  0.50000000  0.36954641  1
  Cl  Cl51  1  0.73025678  0.36847982  0.59824001  1
  Cl  Cl52  1  0.36954641  0.50000000  0.86954641  1
  Cl  Cl53  1  0.63152018  0.36177696  0.22976019  1
  Cl  Cl54  1  0.59824001  0.73025678  0.36847982  1
  Cl  Cl55  1  0.86954641  0.36954641  0.50000000  1
  Cl  Cl56  1  0.26974322  0.86798323  0.63822304  1
  Cl  Cl57  1  0.13045359  0.63045359  0.50000000  1
  Cl  Cl58  1  0.26390097  0.00000000  0.53293647  1
  Cl  Cl59  1  0.73609903  0.73609903  0.26903550  1
  Cl  Cl60  1  0.13201677  0.77023981  0.40175999  1
  Cl  Cl61  1  0.26974322  0.63822304  0.86798323  1
  Cl  Cl62  1  0.63045359  0.50000000  0.13045359  1
  Cl  Cl63  1  0.13201677  0.40175999  0.77023981  1
  Cl  Cl64  1  0.63822304  0.86798323  0.26974322  1
  Cl  Cl65  1  0.50000000  0.13045359  0.63045359  1
  Cl  Cl66  1  0.73096450  0.46706353  0.46706353  1
  Cl  Cl67  1  0.36847982  0.59824001  0.73025678  1
  Cl  Cl68  1  0.26903550  0.73609903  0.73609903  1
  Cl  Cl69  1  0.86798323  0.63822304  0.26974322  1
  Cl  Cl70  1  0.36847982  0.73025678  0.59824001  1
  Cl  Cl71  1  0.50000000  0.36954641  0.86954641  1
