# generated using pymatgen
data_K2AgI3
_symmetry_space_group_name_H-M   'P 1'
_cell_length_a   4.86538029
_cell_length_b   10.22567797
_cell_length_c   19.86579579
_cell_angle_alpha   90.00000000
_cell_angle_beta   90.00000000
_cell_angle_gamma   90.00000000
_symmetry_Int_Tables_number   1
_chemical_formula_structural   K2AgI3
_chemical_formula_sum   'K8 Ag4 I12'
_cell_volume   988.35933831
_cell_formula_units_Z   4
loop_
 _symmetry_equiv_pos_site_id
 _symmetry_equiv_pos_as_xyz
  1  'x, y, z'
loop_
 _atom_site_type_symbol
 _atom_site_label
 _atom_site_symmetry_multiplicity
 _atom_site_fract_x
 _atom_site_fract_y
 _atom_site_fract_z
 _atom_site_occupancy
  K  K0  1  0.75000000  0.75048868  0.53693358  1
  K  K1  1  0.25000000  0.24951132  0.46306642  1
  K  K2  1  0.75000000  0.25048868  0.96306642  1
  K  K3  1  0.25000000  0.74951132  0.03693358  1
  K  K4  1  0.75000000  0.42406746  0.21399114  1
  K  K5  1  0.25000000  0.07593254  0.71399114  1
  K  K6  1  0.75000000  0.92406746  0.28600886  1
  K  K7  1  0.25000000  0.57593254  0.78600886  1
  Ag  Ag8  1  0.25000000  0.63045225  0.36422361  1
  Ag  Ag9  1  0.25000000  0.13045225  0.13577639  1
  Ag  Ag10  1  0.75000000  0.36954775  0.63577639  1
  Ag  Ag11  1  0.75000000  0.86954775  0.86422361  1
  I  I12  1  0.75000000  0.99183205  0.09918555  1
  I  I13  1  0.25000000  0.50816795  0.59918555  1
  I  I14  1  0.25000000  0.18759043  0.27729891  1
  I  I15  1  0.75000000  0.31240957  0.77729891  1
  I  I16  1  0.25000000  0.38116973  0.07170787  1
  I  I17  1  0.75000000  0.61883027  0.92829213  1
  I  I18  1  0.25000000  0.00816795  0.90081445  1
  I  I19  1  0.75000000  0.11883027  0.57170787  1
  I  I20  1  0.25000000  0.88116973  0.42829213  1
  I  I21  1  0.75000000  0.81240957  0.72270109  1
  I  I22  1  0.25000000  0.68759043  0.22270109  1
  I  I23  1  0.75000000  0.49183205  0.40081445  1
