# generated using pymatgen
data_MnBiSe2I
_symmetry_space_group_name_H-M   'P 1'
_cell_length_a   4.13355686
_cell_length_b   7.07683103
_cell_length_c   10.15846758
_cell_angle_alpha   91.78151649
_cell_angle_beta   90.00000000
_cell_angle_gamma   106.98064120
_symmetry_Int_Tables_number   1
_chemical_formula_structural   MnBiSe2I
_chemical_formula_sum   'Mn2 Bi2 Se4 I2'
_cell_volume   284.05506133
_cell_formula_units_Z   2
loop_
 _symmetry_equiv_pos_site_id
 _symmetry_equiv_pos_as_xyz
  1  'x, y, z'
loop_
 _atom_site_type_symbol
 _atom_site_label
 _atom_site_symmetry_multiplicity
 _atom_site_fract_x
 _atom_site_fract_y
 _atom_site_fract_z
 _atom_site_occupancy
  Mn  Mn0  1  0.50000000  0.00000000  0.00000000  1
  Mn  Mn1  1  0.50000000  0.00000000  0.50000000  1
  Bi  Bi2  1  0.78902441  0.57804881  0.18905356  1
  Bi  Bi3  1  0.21097559  0.42195119  0.81094644  1
  Se  Se4  1  0.57045658  0.14091316  0.75666326  1
  Se  Se5  1  0.86539787  0.73079573  0.94209842  1
  Se  Se6  1  0.42954342  0.85908684  0.24333674  1
  Se  Se7  1  0.13460213  0.26920427  0.05790158  1
  I  I8  1  0.86539152  0.73078304  0.57050957  1
  I  I9  1  0.13460848  0.26921696  0.42949043  1
