# generated using pymatgen
data_RbNa11(WN3)4
_symmetry_space_group_name_H-M   'P 1'
_cell_length_a   11.76566758
_cell_length_b   12.26677189
_cell_length_c   12.59264670
_cell_angle_alpha   90.00000000
_cell_angle_beta   90.00000000
_cell_angle_gamma   90.00000000
_symmetry_Int_Tables_number   1
_chemical_formula_structural   RbNa11(WN3)4
_chemical_formula_sum   'Rb4 Na44 W16 N48'
_cell_volume   1817.45590228
_cell_formula_units_Z   4
loop_
 _symmetry_equiv_pos_site_id
 _symmetry_equiv_pos_as_xyz
  1  'x, y, z'
loop_
 _atom_site_type_symbol
 _atom_site_label
 _atom_site_symmetry_multiplicity
 _atom_site_fract_x
 _atom_site_fract_y
 _atom_site_fract_z
 _atom_site_occupancy
  Rb  Rb0  1  0.00000000  0.00000000  0.50000000  1
  Rb  Rb1  1  0.50000000  0.00000000  0.00000000  1
  Rb  Rb2  1  0.50000000  0.50000000  0.50000000  1
  Rb  Rb3  1  0.00000000  0.50000000  0.00000000  1
  Na  Na4  1  0.13113457  0.55487773  0.76409813  1
  Na  Na5  1  0.86886543  0.44512227  0.23590187  1
  Na  Na6  1  0.63113457  0.94512227  0.76409813  1
  Na  Na7  1  0.63113457  0.44512227  0.73590187  1
  Na  Na8  1  0.77919831  0.18916897  0.32795522  1
  Na  Na9  1  0.25710499  0.37572004  0.59402379  1
  Na  Na10  1  0.75710499  0.62427996  0.90597621  1
  Na  Na11  1  0.27919831  0.31083103  0.32795522  1
  Na  Na12  1  0.38283872  0.02077015  0.73124181  1
  Na  Na13  1  0.44998206  0.74078192  0.62197308  1
  Na  Na14  1  0.36886543  0.05487773  0.23590187  1
  Na  Na15  1  0.94998206  0.25921808  0.87802692  1
  Na  Na16  1  0.88283872  0.97922985  0.76875819  1
  Na  Na17  1  0.11716128  0.02077015  0.23124181  1
  Na  Na18  1  0.75710499  0.12427996  0.59402379  1
  Na  Na19  1  0.74289501  0.12427996  0.09402379  1
  Na  Na20  1  0.55001794  0.25921808  0.37802692  1
  Na  Na21  1  0.13113457  0.05487773  0.73590187  1
  Na  Na22  1  0.94998206  0.75921808  0.62197308  1
  Na  Na23  1  0.24289501  0.87572004  0.40597621  1
  Na  Na24  1  0.22080169  0.81083103  0.67204478  1
  Na  Na25  1  0.61716128  0.47922985  0.23124181  1
  Na  Na26  1  0.00000000  0.00000000  0.00000000  1
  Na  Na27  1  0.25710499  0.87572004  0.90597621  1
  Na  Na28  1  0.05001794  0.74078192  0.12197308  1
  Na  Na29  1  0.74289501  0.62427996  0.40597621  1
  Na  Na30  1  0.11716128  0.52077015  0.26875819  1
  Na  Na31  1  0.44998206  0.24078192  0.87802692  1
  Na  Na32  1  0.27919831  0.81083103  0.17204478  1
  Na  Na33  1  0.50000000  0.50000000  0.00000000  1
  Na  Na34  1  0.24289501  0.37572004  0.09402379  1
  Na  Na35  1  0.38283872  0.52077015  0.76875819  1
  Na  Na36  1  0.00000000  0.50000000  0.50000000  1
  Na  Na37  1  0.36886543  0.55487773  0.26409813  1
  Na  Na38  1  0.50000000  0.00000000  0.50000000  1
  Na  Na39  1  0.61716128  0.97922985  0.26875819  1
  Na  Na40  1  0.72080169  0.18916897  0.82795522  1
  Na  Na41  1  0.55001794  0.75921808  0.12197308  1
  Na  Na42  1  0.86886543  0.94512227  0.26409813  1
  Na  Na43  1  0.88283872  0.47922985  0.73124181  1
  Na  Na44  1  0.22080169  0.31083103  0.82795522  1
  Na  Na45  1  0.72080169  0.68916897  0.67204478  1
  Na  Na46  1  0.77919831  0.68916897  0.17204478  1
  Na  Na47  1  0.05001794  0.24078192  0.37802692  1
  W  W48  1  0.99004524  0.73803893  0.36389617  1
  W  W49  1  0.73441859  0.38322063  0.00817420  1
  W  W50  1  0.73441859  0.88322063  0.49182580  1
  W  W51  1  0.00995476  0.26196107  0.63610383  1
  W  W52  1  0.99004524  0.23803893  0.13610383  1
  W  W53  1  0.23441859  0.61677937  0.49182580  1
  W  W54  1  0.49004524  0.26196107  0.13610383  1
  W  W55  1  0.50995476  0.73803893  0.86389617  1
  W  W56  1  0.76558141  0.38322063  0.50817420  1
  W  W57  1  0.50995476  0.23803893  0.63610383  1
  W  W58  1  0.26558141  0.61677937  0.99182580  1
  W  W59  1  0.00995476  0.76196107  0.86389617  1
  W  W60  1  0.49004524  0.76196107  0.36389617  1
  W  W61  1  0.26558141  0.11677937  0.50817420  1
  W  W62  1  0.76558141  0.88322063  0.99182580  1
  W  W63  1  0.23441859  0.11677937  0.00817420  1
  N  N64  1  0.06748258  0.34265440  0.21155543  1
  N  N65  1  0.27133495  0.60461724  0.63245781  1
  N  N66  1  0.27128320  0.48034841  0.93037382  1
  N  N67  1  0.22866505  0.10461724  0.36754219  1
  N  N68  1  0.14466964  0.19930953  0.57400914  1
  N  N69  1  0.85533036  0.30069047  0.07400914  1
  N  N70  1  0.77133495  0.89538276  0.63245781  1
  N  N71  1  0.56748258  0.15734560  0.21155543  1
  N  N72  1  0.05560831  0.87300563  0.77448462  1
  N  N73  1  0.72866505  0.89538276  0.13245781  1
  N  N74  1  0.72871680  0.51965159  0.06962618  1
  N  N75  1  0.94439169  0.62699437  0.27448462  1
  N  N76  1  0.93251742  0.65734560  0.78844457  1
  N  N77  1  0.72866505  0.39538276  0.36754219  1
  N  N78  1  0.91418933  0.31264911  0.51966449  1
  N  N79  1  0.58581067  0.81264911  0.48033551  1
  N  N80  1  0.27133495  0.10461724  0.86754219  1
  N  N81  1  0.06748258  0.84265440  0.28844457  1
  N  N82  1  0.22871680  0.48034841  0.43037382  1
  N  N83  1  0.35533036  0.19930953  0.07400914  1
  N  N84  1  0.22871680  0.98034841  0.06962618  1
  N  N85  1  0.22866505  0.60461724  0.13245781  1
  N  N86  1  0.58581067  0.31264911  0.01966449  1
  N  N87  1  0.91418933  0.81264911  0.98033551  1
  N  N88  1  0.64466964  0.30069047  0.57400914  1
  N  N89  1  0.08581067  0.68735089  0.48033551  1
  N  N90  1  0.27128320  0.98034841  0.56962618  1
  N  N91  1  0.44439169  0.37300563  0.22551538  1
  N  N92  1  0.77128320  0.01965159  0.93037382  1
  N  N93  1  0.14466964  0.69930953  0.92599086  1
  N  N94  1  0.41418933  0.68735089  0.98033551  1
  N  N95  1  0.85533036  0.80069047  0.42599086  1
  N  N96  1  0.08581067  0.18735089  0.01966449  1
  N  N97  1  0.44439169  0.87300563  0.27448462  1
  N  N98  1  0.93251742  0.15734560  0.71155543  1
  N  N99  1  0.35533036  0.69930953  0.42599086  1
  N  N100  1  0.72871680  0.01965159  0.43037382  1
  N  N101  1  0.55560831  0.12699437  0.72551538  1
  N  N102  1  0.43251742  0.34265440  0.71155543  1
  N  N103  1  0.05560831  0.37300563  0.72551538  1
  N  N104  1  0.41418933  0.18735089  0.51966449  1
  N  N105  1  0.55560831  0.62699437  0.77448462  1
  N  N106  1  0.77133495  0.39538276  0.86754219  1
  N  N107  1  0.64466964  0.80069047  0.92599086  1
  N  N108  1  0.94439169  0.12699437  0.22551538  1
  N  N109  1  0.56748258  0.65734560  0.28844457  1
  N  N110  1  0.43251742  0.84265440  0.78844457  1
  N  N111  1  0.77128320  0.51965159  0.56962618  1
