# generated using pymatgen
data_K13Na2W7N19
_symmetry_space_group_name_H-M   'P 1'
_cell_length_a   6.80307104
_cell_length_b   12.62373164
_cell_length_c   19.45111043
_cell_angle_alpha   90.59144157
_cell_angle_beta   93.97527110
_cell_angle_gamma   99.81106521
_symmetry_Int_Tables_number   1
_chemical_formula_structural   K13Na2W7N19
_chemical_formula_sum   'K26 Na4 W14 N38'
_cell_volume   1641.65699586
_cell_formula_units_Z   2
loop_
 _symmetry_equiv_pos_site_id
 _symmetry_equiv_pos_as_xyz
  1  'x, y, z'
loop_
 _atom_site_type_symbol
 _atom_site_label
 _atom_site_symmetry_multiplicity
 _atom_site_fract_x
 _atom_site_fract_y
 _atom_site_fract_z
 _atom_site_occupancy
  K  K0  1  0.92418770  0.02760014  0.39027291  1
  K  K1  1  0.87517409  0.90959899  0.89690709  1
  K  K2  1  0.09208443  0.33013166  0.20532754  1
  K  K3  1  0.97253908  0.34663125  0.01617591  1
  K  K4  1  0.12482591  0.09040101  0.10309291  1
  K  K5  1  0.60618409  0.89815251  0.52998207  1
  K  K6  1  0.25329025  0.74118600  0.61662507  1
  K  K7  1  0.72041297  0.08284392  0.00066917  1
  K  K8  1  0.74670975  0.25881400  0.38337493  1
  K  K9  1  0.76655869  0.76505157  0.27893571  1
  K  K10  1  0.07581230  0.97239986  0.60972709  1
  K  K11  1  0.72356579  0.01606773  0.19825972  1
  K  K12  1  0.90791557  0.66986834  0.79467246  1
  K  K13  1  0.58377237  0.46758349  0.28122255  1
  K  K14  1  0.15640471  0.82891521  0.17142001  1
  K  K15  1  0.84359529  0.17108479  0.82857999  1
  K  K16  1  0.38120586  0.86510978  0.35033900  1
  K  K17  1  0.02746092  0.65336875  0.98382409  1
  K  K18  1  0.27643421  0.98393227  0.80174028  1
  K  K19  1  0.61879414  0.13489022  0.64966100  1
  K  K20  1  0.39381591  0.10184749  0.47001793  1
  K  K21  1  0.41622763  0.53241651  0.71877745  1
  K  K22  1  0.23344131  0.23494843  0.72106429  1
  K  K23  1  0.49134865  0.37795971  0.55949935  1
  K  K24  1  0.50865135  0.62204029  0.44050065  1
  K  K25  1  0.27958703  0.91715608  0.99933083  1
  Na  Na26  1  0.60645080  0.36548070  0.85024577  1
  Na  Na27  1  0.39354920  0.63451930  0.14975423  1
  Na  Na28  1  0.00000000  0.50000000  0.50000000  1
  Na  Na29  1  0.50000000  0.50000000  0.00000000  1
  W  W30  1  0.75132039  0.65439478  0.60775391  1
  W  W31  1  0.41481865  0.73901109  0.87447529  1
  W  W32  1  0.67916594  0.78654018  0.05517611  1
  W  W33  1  0.86038938  0.54693886  0.13861875  1
  W  W34  1  0.24867961  0.34560522  0.39224609  1
  W  W35  1  0.13879896  0.59401336  0.30491281  1
  W  W36  1  0.13961062  0.45306114  0.86138125  1
  W  W37  1  0.33393479  0.11971802  0.27815287  1
  W  W38  1  0.58518135  0.26098891  0.12552471  1
  W  W39  1  0.32083406  0.21345982  0.94482389  1
  W  W40  1  0.66606521  0.88028198  0.72184713  1
  W  W41  1  0.00886422  0.23524176  0.54894064  1
  W  W42  1  0.86120104  0.40598664  0.69508719  1
  W  W43  1  0.99113578  0.76475824  0.45105936  1
  N  N44  1  0.13775519  0.00534930  0.25333173  1
  N  N45  1  0.91214095  0.88271829  0.05687521  1
  N  N46  1  0.37663803  0.65268567  0.27431905  1
  N  N47  1  0.80813046  0.12453489  0.52016890  1
  N  N48  1  0.50706562  0.39650144  0.41852624  1
  N  N49  1  0.42518097  0.20039239  0.19663450  1
  N  N50  1  0.91554062  0.47038361  0.90134180  1
  N  N51  1  0.54311980  0.07021644  0.32248006  1
  N  N52  1  0.49293438  0.60349856  0.58147376  1
  N  N53  1  0.84929896  0.54968944  0.66694906  1
  N  N54  1  0.49480784  0.16388965  0.88984267  1
  N  N55  1  0.06742121  0.40318076  0.76850565  1
  N  N56  1  0.77664785  0.81855173  0.41428909  1
  N  N57  1  0.08445938  0.52961639  0.09865820  1
  N  N58  1  0.56517782  0.77010991  0.96031559  1
  N  N59  1  0.45688020  0.92978356  0.67751994  1
  N  N60  1  0.80131724  0.19730597  0.12197203  1
  N  N61  1  0.86224481  0.99465070  0.74666827  1
  N  N62  1  0.19868276  0.80269403  0.87802797  1
  N  N63  1  0.22335215  0.18144827  0.58571091  1
  N  N64  1  0.57481903  0.79960761  0.80336550  1
  N  N65  1  0.22537632  0.21461268  0.34231385  1
  N  N66  1  0.19186954  0.87546511  0.47983110  1
  N  N67  1  0.50519216  0.83611035  0.11015733  1
  N  N68  1  0.09768405  0.32751119  0.47222355  1
  N  N69  1  0.43482218  0.22989009  0.03968441  1
  N  N70  1  0.93257879  0.59681924  0.23149435  1
  N  N71  1  0.27579107  0.35600306  0.91239486  1
  N  N72  1  0.08100827  0.67965312  0.37792365  1
  N  N73  1  0.67847467  0.41353729  0.13970880  1
  N  N74  1  0.72420893  0.64399694  0.08760514  1
  N  N75  1  0.62336197  0.34731433  0.72568095  1
  N  N76  1  0.08785905  0.11728171  0.94312479  1
  N  N77  1  0.32152533  0.58646271  0.86029120  1
  N  N78  1  0.77462368  0.78538732  0.65768615  1
  N  N79  1  0.90231595  0.67248881  0.52777645  1
  N  N80  1  0.15070104  0.45031056  0.33305094  1
  N  N81  1  0.91899173  0.32034688  0.62207635  1
