# generated using pymatgen
data_Tb2In16Pt7
_symmetry_space_group_name_H-M   'P 1'
_cell_length_a   4.46614996
_cell_length_b   11.87147411
_cell_length_c   11.87147443
_cell_angle_alpha   117.25660491
_cell_angle_beta   90.00000000
_cell_angle_gamma   90.00000000
_symmetry_Int_Tables_number   1
_chemical_formula_structural   Tb2In16Pt7
_chemical_formula_sum   'Tb2 In16 Pt7'
_cell_volume   559.53461484
_cell_formula_units_Z   1
loop_
 _symmetry_equiv_pos_site_id
 _symmetry_equiv_pos_as_xyz
  1  'x, y, z'
loop_
 _atom_site_type_symbol
 _atom_site_label
 _atom_site_symmetry_multiplicity
 _atom_site_fract_x
 _atom_site_fract_y
 _atom_site_fract_z
 _atom_site_occupancy
  Tb  Tb0  1  0.50000000  0.83118629  0.83118629  1
  Tb  Tb1  1  0.50000000  0.16881371  0.16881371  1
  In  In2  1  0.00000000  0.58830296  0.14129213  1
  In  In3  1  0.00000000  0.36783371  0.36783371  1
  In  In4  1  0.00000000  0.14129213  0.58830296  1
  In  In5  1  0.50000000  0.48285677  0.25653373  1
  In  In6  1  0.50000000  0.51714323  0.74346627  1
  In  In7  1  0.00000000  0.41169704  0.85870787  1
  In  In8  1  0.50000000  0.28722113  0.96166853  1
  In  In9  1  0.50000000  0.96166853  0.28722113  1
  In  In10  1  0.50000000  0.03833147  0.71277887  1
  In  In11  1  0.00000000  0.63216629  0.63216629  1
  In  In12  1  0.50000000  0.25653373  0.48285677  1
  In  In13  1  0.00000000  0.07308646  0.92691354  1
  In  In14  1  0.50000000  0.74346627  0.51714323  1
  In  In15  1  0.50000000  0.71277887  0.03833147  1
  In  In16  1  0.00000000  0.92691354  0.07308646  1
  In  In17  1  0.00000000  0.85870787  0.41169704  1
  Pt  Pt18  1  0.00000000  0.66663957  0.88437175  1
  Pt  Pt19  1  0.00000000  0.88437175  0.66663957  1
  Pt  Pt20  1  0.00000000  0.33336043  0.11562825  1
  Pt  Pt21  1  0.50000000  0.72433513  0.27566487  1
  Pt  Pt22  1  0.50000000  0.27566487  0.72433513  1
  Pt  Pt23  1  0.50000000  0.50000000  0.50000000  1
  Pt  Pt24  1  0.00000000  0.11562825  0.33336043  1
