# generated using pymatgen
data_La3C3Cl2
_symmetry_space_group_name_H-M   'P 1'
_cell_length_a   6.99133963
_cell_length_b   7.82984814
_cell_length_c   12.90624196
_cell_angle_alpha   90.00000000
_cell_angle_beta   90.00000000
_cell_angle_gamma   104.68053639
_symmetry_Int_Tables_number   1
_chemical_formula_structural   La3C3Cl2
_chemical_formula_sum   'La12 C12 Cl8'
_cell_volume   683.43769425
_cell_formula_units_Z   4
loop_
 _symmetry_equiv_pos_site_id
 _symmetry_equiv_pos_as_xyz
  1  'x, y, z'
loop_
 _atom_site_type_symbol
 _atom_site_label
 _atom_site_symmetry_multiplicity
 _atom_site_fract_x
 _atom_site_fract_y
 _atom_site_fract_z
 _atom_site_occupancy
  La  La0  1  0.86307412  0.26433990  0.84980118  1
  La  La1  1  0.63692588  0.73566010  0.34980118  1
  La  La2  1  0.13171528  0.88099722  0.82124443  1
  La  La3  1  0.37572409  0.19039316  0.00773106  1
  La  La4  1  0.87572409  0.19039316  0.49226894  1
  La  La5  1  0.63171528  0.88099722  0.67875557  1
  La  La6  1  0.86828472  0.11900278  0.17875557  1
  La  La7  1  0.36307412  0.26433990  0.65019882  1
  La  La8  1  0.36828472  0.11900278  0.32124443  1
  La  La9  1  0.12427591  0.80960684  0.50773106  1
  La  La10  1  0.13692588  0.73566010  0.15019882  1
  La  La11  1  0.62427591  0.80960684  0.99226894  1
  C  C12  1  0.97645977  0.11390670  0.70416401  1
  C  C13  1  0.97488993  0.99478592  0.36796136  1
  C  C14  1  0.52354023  0.88609330  0.20416401  1
  C  C15  1  0.47488993  0.99478592  0.13203864  1
  C  C16  1  0.47124615  0.05873139  0.53003761  1
  C  C17  1  0.02354023  0.88609330  0.29583599  1
  C  C18  1  0.52511007  0.00521408  0.86796136  1
  C  C19  1  0.47645977  0.11390670  0.79583599  1
  C  C20  1  0.52875385  0.94126861  0.46996239  1
  C  C21  1  0.97124615  0.05873139  0.96996239  1
  C  C22  1  0.02875385  0.94126861  0.03003761  1
  C  C23  1  0.02511007  0.00521408  0.63203864  1
  Cl  Cl24  1  0.23181160  0.61431001  0.68616304  1
  Cl  Cl25  1  0.26233276  0.44985462  0.44301992  1
  Cl  Cl26  1  0.73766724  0.55014538  0.55698008  1
  Cl  Cl27  1  0.73181160  0.61431001  0.81383696  1
  Cl  Cl28  1  0.76233276  0.44985462  0.05698008  1
  Cl  Cl29  1  0.26818840  0.38568999  0.18616304  1
  Cl  Cl30  1  0.23766724  0.55014538  0.94301992  1
  Cl  Cl31  1  0.76818840  0.38568999  0.31383696  1
