# generated using pymatgen
data_La14C14Cl9
_symmetry_space_group_name_H-M   'P 1'
_cell_length_a   6.97897790
_cell_length_b   7.82545394
_cell_length_c   30.03131623
_cell_angle_alpha   90.00000000
_cell_angle_beta   90.00000000
_cell_angle_gamma   104.41569453
_symmetry_Int_Tables_number   1
_chemical_formula_structural   La14C14Cl9
_chemical_formula_sum   'La28 C28 Cl18'
_cell_volume   1588.48121307
_cell_formula_units_Z   2
loop_
 _symmetry_equiv_pos_site_id
 _symmetry_equiv_pos_as_xyz
  1  'x, y, z'
loop_
 _atom_site_type_symbol
 _atom_site_label
 _atom_site_symmetry_multiplicity
 _atom_site_fract_x
 _atom_site_fract_y
 _atom_site_fract_z
 _atom_site_occupancy
  La  La0  1  0.28646813  0.15686645  0.32875386  1
  La  La1  1  0.26809103  0.22532742  0.17093000  1
  La  La2  1  0.49513160  0.74572503  0.95623835  1
  La  La3  1  0.51264487  0.60379233  0.81876269  1
  La  La4  1  0.52552140  0.61338472  0.38884996  1
  La  La5  1  0.28072087  0.30696851  0.46934004  1
  La  La6  1  0.50418681  0.67394172  0.11420084  1
  La  La7  1  0.51304210  0.68756626  0.54299273  1
  La  La8  1  0.01546079  0.53879547  0.31543171  1
  La  La9  1  0.01245313  0.53291468  0.74707222  1
  La  La10  1  0.27973745  0.15411965  0.75740351  1
  La  La11  1  0.78646813  0.15686645  0.67124614  1
  La  La12  1  0.01304210  0.68756626  0.45700727  1
  La  La13  1  0.01264487  0.60379233  0.18123731  1
  La  La14  1  0.51245313  0.53291468  0.25292778  1
  La  La15  1  0.51546079  0.53879547  0.68456829  1
  La  La16  1  0.02552140  0.61338472  0.61115004  1
  La  La17  1  0.26471888  0.29487726  0.89680825  1
  La  La18  1  0.26080939  0.36603666  0.03213831  1
  La  La19  1  0.00418681  0.67394172  0.88579916  1
  La  La20  1  0.78072087  0.30696851  0.53065996  1
  La  La21  1  0.77443764  0.23270629  0.39618347  1
  La  La22  1  0.76809103  0.22532742  0.82907000  1
  La  La23  1  0.77973745  0.15411965  0.24259649  1
  La  La24  1  0.76471888  0.29487726  0.10319175  1
  La  La25  1  0.27443764  0.23270629  0.60381653  1
  La  La26  1  0.99513160  0.74572503  0.04376165  1
  La  La27  1  0.76080939  0.36603666  0.96786169  1
  C  C28  1  0.16957728  0.30162477  0.26536842  1
  C  C29  1  0.17103316  0.30766061  0.69546322  1
  C  C30  1  0.62287265  0.41603598  0.33569082  1
  C  C31  1  0.65437898  0.49349675  0.05136606  1
  C  C32  1  0.10464920  0.59661154  0.98048373  1
  C  C33  1  0.60781130  0.47009409  0.16439940  1
  C  C34  1  0.67851684  0.36512297  0.62076966  1
  C  C35  1  0.12086067  0.48249779  0.40505799  1
  C  C36  1  0.15437898  0.49349675  0.94863394  1
  C  C37  1  0.66807514  0.35444867  0.19133521  1
  C  C38  1  0.66957728  0.30162477  0.73463158  1
  C  C39  1  0.16807514  0.35444867  0.80866479  1
  C  C40  1  0.17644764  0.42902580  0.55092219  1
  C  C41  1  0.16708612  0.42702003  0.12039355  1
  C  C42  1  0.10841680  0.54448096  0.09341794  1
  C  C43  1  0.66708612  0.42702003  0.87960645  1
  C  C44  1  0.12691873  0.53698377  0.51966878  1
  C  C45  1  0.67644764  0.42902580  0.44907781  1
  C  C46  1  0.12287265  0.41603598  0.66430918  1
  C  C47  1  0.60841680  0.54448096  0.90658206  1
  C  C48  1  0.62086067  0.48249779  0.59494201  1
  C  C49  1  0.11846458  0.40645547  0.23390957  1
  C  C50  1  0.60464920  0.59661154  0.01951627  1
  C  C51  1  0.61846458  0.40645547  0.76609043  1
  C  C52  1  0.62691873  0.53698377  0.48033122  1
  C  C53  1  0.17851684  0.36512297  0.37923034  1
  C  C54  1  0.67103316  0.30766061  0.30453678  1
  C  C55  1  0.10781130  0.47009409  0.83560060  1
  Cl  Cl56  1  0.90841498  0.80506586  0.25586757  1
  Cl  Cl57  1  0.41249336  0.80587188  0.31053311  1
  Cl  Cl58  1  0.88794308  0.97305375  0.58335324  1
  Cl  Cl59  1  0.88402062  0.03883865  0.47271653  1
  Cl  Cl60  1  0.90932443  0.86441148  0.80296828  1
  Cl  Cl61  1  0.91249336  0.80587188  0.68946689  1
  Cl  Cl62  1  0.38783020  0.94885099  0.85835777  1
  Cl  Cl63  1  0.41081177  0.87058066  0.63266665  1
  Cl  Cl64  1  0.40932443  0.86441148  0.19703172  1
  Cl  Cl65  1  0.40841498  0.80506586  0.74413243  1
  Cl  Cl66  1  0.86327132  0.09295742  0.02692683  1
  Cl  Cl67  1  0.36535702  0.03720766  0.08727945  1
  Cl  Cl68  1  0.38402062  0.03883865  0.52728347  1
  Cl  Cl69  1  0.38794308  0.97305375  0.41664676  1
  Cl  Cl70  1  0.86535702  0.03720766  0.91272055  1
  Cl  Cl71  1  0.91081177  0.87058066  0.36733335  1
  Cl  Cl72  1  0.36327132  0.09295742  0.97307317  1
  Cl  Cl73  1  0.88783020  0.94885099  0.14164223  1
