# generated using pymatgen
data_TlCdSe2
_symmetry_space_group_name_H-M   'P 1'
_cell_length_a   4.11577733
_cell_length_b   4.11458009
_cell_length_c   7.17806027
_cell_angle_alpha   89.99999994
_cell_angle_beta   89.77184778
_cell_angle_gamma   119.99036438
_symmetry_Int_Tables_number   1
_chemical_formula_structural   TlCdSe2
_chemical_formula_sum   'Tl1 Cd1 Se2'
_cell_volume   105.28165241
_cell_formula_units_Z   1
loop_
 _symmetry_equiv_pos_site_id
 _symmetry_equiv_pos_as_xyz
  1  'x, y, z'
loop_
 _atom_site_type_symbol
 _atom_site_label
 _atom_site_symmetry_multiplicity
 _atom_site_fract_x
 _atom_site_fract_y
 _atom_site_fract_z
 _atom_site_occupancy
  Tl  Tl0  1  0.00000000  0.00000000  0.50000000  1
  Cd  Cd1  1  0.00000000  0.00000000  -0.00000000  1
  Se  Se2  1  0.33344138  0.66672069  0.22399142  1
  Se  Se3  1  0.66655862  0.33327931  0.77600858  1
