# generated using pymatgen
data_Sr11(MgSi5)2
_symmetry_space_group_name_H-M   'P 1'
_cell_length_a   4.76113239
_cell_length_b   10.15212984
_cell_length_c   14.63001777
_cell_angle_alpha   71.34569066
_cell_angle_beta   80.63530835
_cell_angle_gamma   76.43847771
_symmetry_Int_Tables_number   1
_chemical_formula_structural   Sr11(MgSi5)2
_chemical_formula_sum   'Sr11 Mg2 Si10'
_cell_volume   648.36066147
_cell_formula_units_Z   1
loop_
 _symmetry_equiv_pos_site_id
 _symmetry_equiv_pos_as_xyz
  1  'x, y, z'
loop_
 _atom_site_type_symbol
 _atom_site_label
 _atom_site_symmetry_multiplicity
 _atom_site_fract_x
 _atom_site_fract_y
 _atom_site_fract_z
 _atom_site_occupancy
  Sr  Sr0  1  0.79364694  0.03448146  0.37822466  1
  Sr  Sr1  1  0.01712541  0.76957169  0.19617749  1
  Sr  Sr2  1  0.64382918  0.42967604  0.28266559  1
  Sr  Sr3  1  0.57135976  0.29874364  0.55853684  1
  Sr  Sr4  1  0.84258440  0.21051516  0.10431604  1
  Sr  Sr5  1  0.20635306  0.96551854  0.62177534  1
  Sr  Sr6  1  0.50000000  0.00000000  0.00000000  1
  Sr  Sr7  1  0.98287459  0.23042831  0.80382251  1
  Sr  Sr8  1  0.15741560  0.78948484  0.89568396  1
  Sr  Sr9  1  0.42864024  0.70125636  0.44146316  1
  Sr  Sr10  1  0.35617082  0.57032396  0.71733441  1
  Mg  Mg11  1  0.78045189  0.52183250  0.91726372  1
  Mg  Mg12  1  0.21954811  0.47816750  0.08273628  1
  Si  Si13  1  0.16911393  0.24104825  0.42072388  1
  Si  Si14  1  0.61137807  0.01370553  0.76353833  1
  Si  Si15  1  0.74010831  0.77303790  0.74674548  1
  Si  Si16  1  0.95444729  0.50714176  0.58396366  1
  Si  Si17  1  0.38862193  0.98629447  0.23646167  1
  Si  Si18  1  0.35741106  0.35495916  0.93021871  1
  Si  Si19  1  0.83088607  0.75895175  0.57927612  1
  Si  Si20  1  0.64258894  0.64504084  0.06978129  1
  Si  Si21  1  0.25989169  0.22696210  0.25325452  1
  Si  Si22  1  0.04555271  0.49285824  0.41603634  1
