# generated using pymatgen
data_LaCoSb3
_symmetry_space_group_name_H-M   'P 1'
_cell_length_a   6.23094703
_cell_length_b   12.19955469
_cell_length_c   13.02169503
_cell_angle_alpha   90.00000000
_cell_angle_beta   90.00000000
_cell_angle_gamma   90.00000000
_symmetry_Int_Tables_number   1
_chemical_formula_structural   LaCoSb3
_chemical_formula_sum   'La8 Co8 Sb24'
_cell_volume   989.84127073
_cell_formula_units_Z   8
loop_
 _symmetry_equiv_pos_site_id
 _symmetry_equiv_pos_as_xyz
  1  'x, y, z'
loop_
 _atom_site_type_symbol
 _atom_site_label
 _atom_site_symmetry_multiplicity
 _atom_site_fract_x
 _atom_site_fract_y
 _atom_site_fract_z
 _atom_site_occupancy
  La  La0  1  0.72760267  0.25000000  0.69768457  1
  La  La1  1  0.75000000  0.00000000  0.29870618  1
  La  La2  1  0.25000000  0.00000000  0.70129382  1
  La  La3  1  0.25000000  0.50000000  0.70129382  1
  La  La4  1  0.75000000  0.50000000  0.29870618  1
  La  La5  1  0.22760267  0.25000000  0.30231543  1
  La  La6  1  0.77239733  0.75000000  0.69768457  1
  La  La7  1  0.27239733  0.75000000  0.30231543  1
  Co  Co8  1  0.53837832  0.86371393  0.90423615  1
  Co  Co9  1  0.96162168  0.13628607  0.90423615  1
  Co  Co10  1  0.96162168  0.36371393  0.90423615  1
  Co  Co11  1  0.03837832  0.63628607  0.09576385  1
  Co  Co12  1  0.03837832  0.86371393  0.09576385  1
  Co  Co13  1  0.53837832  0.63628607  0.90423615  1
  Co  Co14  1  0.46162168  0.36371393  0.09576385  1
  Co  Co15  1  0.46162168  0.13628607  0.09576385  1
  Sb  Sb16  1  0.75000000  0.00000000  0.02722163  1
  Sb  Sb17  1  0.25000000  0.00000000  0.97277837  1
  Sb  Sb18  1  0.88520446  0.75000000  0.94496086  1
  Sb  Sb19  1  0.75000000  0.00000000  0.78587388  1
  Sb  Sb20  1  0.48881562  0.37601890  0.49787820  1
  Sb  Sb21  1  0.38520446  0.75000000  0.05503914  1
  Sb  Sb22  1  0.25000000  0.00000000  0.21412612  1
  Sb  Sb23  1  0.98881562  0.37601890  0.50212180  1
  Sb  Sb24  1  0.51118438  0.62398110  0.50212180  1
  Sb  Sb25  1  0.75000000  0.50000000  0.78587388  1
  Sb  Sb26  1  0.98881562  0.12398110  0.50212180  1
  Sb  Sb27  1  0.23213716  0.25000000  0.79179499  1
  Sb  Sb28  1  0.25000000  0.50000000  0.97277837  1
  Sb  Sb29  1  0.11479554  0.25000000  0.05503914  1
  Sb  Sb30  1  0.01118438  0.87601890  0.49787820  1
  Sb  Sb31  1  0.73213716  0.25000000  0.20820501  1
  Sb  Sb32  1  0.61479554  0.25000000  0.94496086  1
  Sb  Sb33  1  0.76786284  0.75000000  0.20820501  1
  Sb  Sb34  1  0.26786284  0.75000000  0.79179499  1
  Sb  Sb35  1  0.75000000  0.50000000  0.02722163  1
  Sb  Sb36  1  0.48881562  0.12398110  0.49787820  1
  Sb  Sb37  1  0.25000000  0.50000000  0.21412612  1
  Sb  Sb38  1  0.01118438  0.62398110  0.49787820  1
  Sb  Sb39  1  0.51118438  0.87601890  0.50212180  1
