# generated using pymatgen
data_Rb2ZnCl4
_symmetry_space_group_name_H-M   'P 1'
_cell_length_a   7.40096946
_cell_length_b   9.41374810
_cell_length_c   12.98188579
_cell_angle_alpha   90.00000000
_cell_angle_beta   90.00000000
_cell_angle_gamma   90.00000000
_symmetry_Int_Tables_number   1
_chemical_formula_structural   Rb2ZnCl4
_chemical_formula_sum   'Rb8 Zn4 Cl16'
_cell_volume   904.45917587
_cell_formula_units_Z   4
loop_
 _symmetry_equiv_pos_site_id
 _symmetry_equiv_pos_as_xyz
  1  'x, y, z'
loop_
 _atom_site_type_symbol
 _atom_site_label
 _atom_site_symmetry_multiplicity
 _atom_site_fract_x
 _atom_site_fract_y
 _atom_site_fract_z
 _atom_site_occupancy
  Rb  Rb0  1  0.75000000  0.36916555  0.59149265  1
  Rb  Rb1  1  0.75000000  0.51500192  0.17946523  1
  Rb  Rb2  1  0.75000000  0.01500192  0.32053477  1
  Rb  Rb3  1  0.75000000  0.86916555  0.90850735  1
  Rb  Rb4  1  0.25000000  0.63083445  0.40850735  1
  Rb  Rb5  1  0.25000000  0.48499808  0.82053477  1
  Rb  Rb6  1  0.25000000  0.98499808  0.67946523  1
  Rb  Rb7  1  0.25000000  0.13083445  0.09149265  1
  Zn  Zn8  1  0.75000000  0.27524868  0.92237689  1
  Zn  Zn9  1  0.25000000  0.22475132  0.42237689  1
  Zn  Zn10  1  0.25000000  0.72475132  0.07762311  1
  Zn  Zn11  1  0.75000000  0.77524868  0.57762311  1
  Cl  Cl12  1  0.25000000  0.98321928  0.41725081  1
  Cl  Cl13  1  0.50011094  0.81618602  0.15739739  1
  Cl  Cl14  1  0.25000000  0.31875975  0.58611395  1
  Cl  Cl15  1  0.25000000  0.81875975  0.91388605  1
  Cl  Cl16  1  0.75000000  0.18124025  0.08611395  1
  Cl  Cl17  1  0.00011094  0.18381398  0.84260261  1
  Cl  Cl18  1  0.25000000  0.48321928  0.08274919  1
  Cl  Cl19  1  0.49988906  0.68381398  0.65739739  1
  Cl  Cl20  1  0.75000000  0.01678072  0.58274919  1
  Cl  Cl21  1  0.50011094  0.31618602  0.34260261  1
  Cl  Cl22  1  0.49988906  0.18381398  0.84260261  1
  Cl  Cl23  1  0.99988906  0.81618602  0.15739739  1
  Cl  Cl24  1  0.75000000  0.68124025  0.41388605  1
  Cl  Cl25  1  0.00011094  0.68381398  0.65739739  1
  Cl  Cl26  1  0.75000000  0.51678072  0.91725081  1
  Cl  Cl27  1  0.99988906  0.31618602  0.34260261  1
