# generated using pymatgen
data_Eu(MgGe)3
_symmetry_space_group_name_H-M   'P 1'
_cell_length_a   4.48642364
_cell_length_b   4.61148266
_cell_length_c   15.62832507
_cell_angle_alpha   90.00000000
_cell_angle_beta   98.25245266
_cell_angle_gamma   90.00000000
_symmetry_Int_Tables_number   1
_chemical_formula_structural   Eu(MgGe)3
_chemical_formula_sum   'Eu2 Mg6 Ge6'
_cell_volume   319.98737065
_cell_formula_units_Z   2
loop_
 _symmetry_equiv_pos_site_id
 _symmetry_equiv_pos_as_xyz
  1  'x, y, z'
loop_
 _atom_site_type_symbol
 _atom_site_label
 _atom_site_symmetry_multiplicity
 _atom_site_fract_x
 _atom_site_fract_y
 _atom_site_fract_z
 _atom_site_occupancy
  Eu  Eu0  1  0.94403095  0.25000000  0.88806189  1
  Eu  Eu1  1  0.05596905  0.75000000  0.11193811  1
  Mg  Mg2  1  0.14747224  0.25000000  0.29494448  1
  Mg  Mg3  1  0.35412891  0.25000000  0.70825783  1
  Mg  Mg4  1  0.85252776  0.75000000  0.70505552  1
  Mg  Mg5  1  0.74952328  0.75000000  0.49904656  1
  Mg  Mg6  1  0.64587109  0.75000000  0.29174217  1
  Mg  Mg7  1  0.25047672  0.25000000  0.50095344  1
  Ge  Ge8  1  0.51624931  0.25000000  0.03249862  1
  Ge  Ge9  1  0.59707673  0.25000000  0.19415347  1
  Ge  Ge10  1  0.80115804  0.25000000  0.60231609  1
  Ge  Ge11  1  0.48375069  0.75000000  0.96750138  1
  Ge  Ge12  1  0.19884196  0.75000000  0.39768391  1
  Ge  Ge13  1  0.40292327  0.75000000  0.80584653  1
