# generated using pymatgen
data_Eu4Al2O9
_symmetry_space_group_name_H-M   'P 1'
_cell_length_a   7.72297019
_cell_length_b   10.86914289
_cell_length_c   11.34323505
_cell_angle_alpha   90.00000000
_cell_angle_beta   109.08214340
_cell_angle_gamma   90.00000000
_symmetry_Int_Tables_number   1
_chemical_formula_structural   Eu4Al2O9
_chemical_formula_sum   'Eu16 Al8 O36'
_cell_volume   899.85340271
_cell_formula_units_Z   4
loop_
 _symmetry_equiv_pos_site_id
 _symmetry_equiv_pos_as_xyz
  1  'x, y, z'
loop_
 _atom_site_type_symbol
 _atom_site_label
 _atom_site_symmetry_multiplicity
 _atom_site_fract_x
 _atom_site_fract_y
 _atom_site_fract_z
 _atom_site_occupancy
  Eu  Eu0  1  0.02460627  0.41021068  0.30572176  1
  Eu  Eu1  1  0.97539373  0.91021068  0.19427824  1
  Eu  Eu2  1  0.97539373  0.58978932  0.69427824  1
  Eu  Eu3  1  0.02460627  0.08978932  0.80572176  1
  Eu  Eu4  1  0.52509260  0.39831049  0.28830612  1
  Eu  Eu5  1  0.47490740  0.89831049  0.21169388  1
  Eu  Eu6  1  0.47490740  0.60168951  0.71169388  1
  Eu  Eu7  1  0.52509260  0.10168951  0.78830612  1
  Eu  Eu8  1  0.33465173  0.12734650  0.43139132  1
  Eu  Eu9  1  0.66534827  0.62734650  0.06860868  1
  Eu  Eu10  1  0.66534827  0.87265350  0.56860868  1
  Eu  Eu11  1  0.33465173  0.37265350  0.93139132  1
  Eu  Eu12  1  0.83845220  0.12548070  0.41838441  1
  Eu  Eu13  1  0.16154780  0.62548070  0.08161559  1
  Eu  Eu14  1  0.16154780  0.87451930  0.58161559  1
  Eu  Eu15  1  0.83845220  0.37451930  0.91838441  1
  Al  Al16  1  0.22311768  0.18641439  0.12989969  1
  Al  Al17  1  0.77688232  0.68641439  0.37010031  1
  Al  Al18  1  0.77688232  0.81358561  0.87010031  1
  Al  Al19  1  0.22311768  0.31358561  0.62989969  1
  Al  Al20  1  0.65077530  0.18487262  0.11859012  1
  Al  Al21  1  0.34922470  0.68487262  0.38140988  1
  Al  Al22  1  0.34922470  0.81512738  0.88140988  1
  Al  Al23  1  0.65077530  0.31512738  0.61859012  1
  O  O24  1  0.57096660  0.49294447  0.89867415  1
  O  O25  1  0.42903340  0.99294447  0.60132585  1
  O  O26  1  0.42903340  0.50705553  0.10132585  1
  O  O27  1  0.57096660  0.00705553  0.39867415  1
  O  O28  1  0.07383956  0.50273921  0.89641897  1
  O  O29  1  0.92616044  0.00273921  0.60358103  1
  O  O30  1  0.92616044  0.49726079  0.10358103  1
  O  O31  1  0.07383956  0.99726079  0.39641897  1
  O  O32  1  0.70054611  0.46829825  0.66971988  1
  O  O33  1  0.29945389  0.96829825  0.83028012  1
  O  O34  1  0.29945389  0.53170175  0.33028012  1
  O  O35  1  0.70054611  0.03170175  0.16971988  1
  O  O36  1  0.63872285  0.27061039  0.46592851  1
  O  O37  1  0.36127715  0.77061039  0.03407149  1
  O  O38  1  0.21682434  0.46924502  0.66732371  1
  O  O39  1  0.36127715  0.72938961  0.53407149  1
  O  O40  1  0.43384848  0.26150609  0.61761348  1
  O  O41  1  0.56615152  0.76150609  0.88238652  1
  O  O42  1  0.56615152  0.73849391  0.38238652  1
  O  O43  1  0.43384848  0.23849391  0.11761348  1
  O  O44  1  0.07787026  0.26716739  0.48120725  1
  O  O45  1  0.92212974  0.76716739  0.01879275  1
  O  O46  1  0.92212974  0.73283261  0.51879275  1
  O  O47  1  0.07787026  0.23283261  0.98120725  1
  O  O48  1  0.78412829  0.22562264  0.74770702  1
  O  O49  1  0.21587171  0.72562264  0.75229298  1
  O  O50  1  0.21587171  0.77437736  0.25229298  1
  O  O51  1  0.78412829  0.27437736  0.24770702  1
  O  O52  1  0.23037759  0.22933374  0.76636873  1
  O  O53  1  0.76962241  0.72933374  0.73363127  1
  O  O54  1  0.76962241  0.77066626  0.23363127  1
  O  O55  1  0.23037759  0.27066626  0.26636873  1
  O  O56  1  0.21682434  0.03075498  0.16732371  1
  O  O57  1  0.78317566  0.53075498  0.33267629  1
  O  O58  1  0.78317566  0.96924502  0.83267629  1
  O  O59  1  0.63872285  0.22938961  0.96592851  1
