# generated using pymatgen
data_Ce(InPt)2
_symmetry_space_group_name_H-M   'P 1'
_cell_length_a   4.49789515
_cell_length_b   10.33943622
_cell_length_c   10.38324477
_cell_angle_alpha   117.18111868
_cell_angle_beta   90.00000000
_cell_angle_gamma   90.00000000
_symmetry_Int_Tables_number   1
_chemical_formula_structural   Ce(InPt)2
_chemical_formula_sum   'Ce4 In8 Pt8'
_cell_volume   429.55415163
_cell_formula_units_Z   4
loop_
 _symmetry_equiv_pos_site_id
 _symmetry_equiv_pos_as_xyz
  1  'x, y, z'
loop_
 _atom_site_type_symbol
 _atom_site_label
 _atom_site_symmetry_multiplicity
 _atom_site_fract_x
 _atom_site_fract_y
 _atom_site_fract_z
 _atom_site_occupancy
  Ce  Ce0  1  0.75000000  0.59827457  0.29013041  1
  Ce  Ce1  1  0.75000000  0.95323709  0.20494329  1
  Ce  Ce2  1  0.25000000  0.40172543  0.70986959  1
  Ce  Ce3  1  0.25000000  0.04676291  0.79505671  1
  In  In4  1  0.75000000  0.11723470  0.57293456  1
  In  In5  1  0.25000000  0.40705638  0.03889414  1
  In  In6  1  0.75000000  0.59294362  0.96110586  1
  In  In7  1  0.75000000  0.35418061  0.44697280  1
  In  In8  1  0.25000000  0.88276530  0.42706544  1
  In  In9  1  0.75000000  0.23072257  0.10117892  1
  In  In10  1  0.25000000  0.64581939  0.55302720  1
  In  In11  1  0.25000000  0.76927743  0.89882108  1
  Pt  Pt12  1  0.75000000  0.61994298  0.70316036  1
  Pt  Pt13  1  0.25000000  0.38005702  0.29683964  1
  Pt  Pt14  1  0.75000000  0.84312973  0.58019790  1
  Pt  Pt15  1  0.75000000  0.29234299  0.86193689  1
  Pt  Pt16  1  0.25000000  0.15687027  0.41980210  1
  Pt  Pt17  1  0.25000000  0.70765701  0.13806311  1
  Pt  Pt18  1  0.75000000  0.93145712  0.89630273  1
  Pt  Pt19  1  0.25000000  0.06854288  0.10369727  1
