# generated using pymatgen
data_Li3Al(BO3)2
_symmetry_space_group_name_H-M   'P 1'
_cell_length_a   4.91906856
_cell_length_b   6.32850437
_cell_length_c   8.04566541
_cell_angle_alpha   73.47730154
_cell_angle_beta   89.05525761
_cell_angle_gamma   89.09596749
_symmetry_Int_Tables_number   1
_chemical_formula_structural   Li3Al(BO3)2
_chemical_formula_sum   'Li6 Al2 B4 O12'
_cell_volume   240.07326087
_cell_formula_units_Z   2
loop_
 _symmetry_equiv_pos_site_id
 _symmetry_equiv_pos_as_xyz
  1  'x, y, z'
loop_
 _atom_site_type_symbol
 _atom_site_label
 _atom_site_symmetry_multiplicity
 _atom_site_fract_x
 _atom_site_fract_y
 _atom_site_fract_z
 _atom_site_occupancy
  Li  Li0  1  0.82998971  0.23674589  0.61141785  1
  Li  Li1  1  0.68141870  0.39755554  0.92935179  1
  Li  Li2  1  0.82349280  0.53088643  0.26162479  1
  Li  Li3  1  0.17650720  0.46911357  0.73837521  1
  Li  Li4  1  0.17001029  0.76325411  0.38858215  1
  Li  Li5  1  0.31858130  0.60244446  0.07064821  1
  B  B6  1  0.83497862  0.82373802  0.90729870  1
  B  B7  1  0.16502138  0.17626198  0.09270130  1
  B  B8  1  0.34239582  0.32112286  0.43004618  1
  B  B9  1  0.65760418  0.67887714  0.56995382  1
  O  O10  1  0.28990501  0.33930679  0.97030648  1
  O  O11  1  0.71009499  0.66069321  0.02969352  1
  O  O12  1  0.38830079  0.74277817  0.60533714  1
  O  O13  1  0.61169921  0.25722183  0.39466286  1
  O  O14  1  0.21159456  0.49229554  0.32104570  1
  O  O15  1  0.78840544  0.50770446  0.67895430  1
  O  O16  1  0.11905872  0.83656443  0.89435266  1
  O  O17  1  0.88094128  0.16343557  0.10564734  1
  O  O18  1  0.22741298  0.20357558  0.59052406  1
  O  O19  1  0.77258702  0.79642442  0.40947594  1
  O  O20  1  0.68669748  0.98183178  0.78194038  1
  O  O21  1  0.31330252  0.01816822  0.21805962  1
  Al  Al22  1  0.64996364  0.05548779  0.27485810  1
  Al  Al23  1  0.35003636  0.94451221  0.72514190  1
