# generated using pymatgen
data_K2Mo7O20
_symmetry_space_group_name_H-M   'P 1'
_cell_length_a   3.90072590
_cell_length_b   18.52611616
_cell_length_c   22.40699248
_cell_angle_alpha   90.00000000
_cell_angle_beta   90.00000000
_cell_angle_gamma   90.00000000
_symmetry_Int_Tables_number   1
_chemical_formula_structural   K2Mo7O20
_chemical_formula_sum   'K8 Mo28 O80'
_cell_volume   1619.24805902
_cell_formula_units_Z   4
loop_
 _symmetry_equiv_pos_site_id
 _symmetry_equiv_pos_as_xyz
  1  'x, y, z'
loop_
 _atom_site_type_symbol
 _atom_site_label
 _atom_site_symmetry_multiplicity
 _atom_site_fract_x
 _atom_site_fract_y
 _atom_site_fract_z
 _atom_site_occupancy
  K  K0  1  0.50225537  0.40656040  0.94853074  1
  K  K1  1  0.50225537  0.09343960  0.44853074  1
  K  K2  1  0.49774463  0.59343960  0.44853074  1
  K  K3  1  0.50225537  0.09343960  0.05146926  1
  K  K4  1  0.50225537  0.40656040  0.55146926  1
  K  K5  1  0.49774463  0.59343960  0.05146926  1
  K  K6  1  0.49774463  0.90656040  0.94853074  1
  K  K7  1  0.49774463  0.90656040  0.55146926  1
  Mo  Mo8  1  0.04435343  0.09040539  0.60642182  1
  Mo  Mo9  1  0.98796762  0.25000000  0.50000000  1
  Mo  Mo10  1  0.98316264  0.14860594  0.75000000  1
  Mo  Mo11  1  0.01683736  0.85139406  0.25000000  1
  Mo  Mo12  1  0.01347628  0.96917888  0.75000000  1
  Mo  Mo13  1  0.98652372  0.03082112  0.25000000  1
  Mo  Mo14  1  0.95564657  0.90959461  0.10642182  1
  Mo  Mo15  1  0.04435343  0.09040539  0.89357818  1
  Mo  Mo16  1  0.01347628  0.53082112  0.25000000  1
  Mo  Mo17  1  0.01683736  0.64860594  0.75000000  1
  Mo  Mo18  1  0.04435343  0.40959461  0.10642182  1
  Mo  Mo19  1  0.01203238  0.75000000  0.00000000  1
  Mo  Mo20  1  0.98652372  0.46917888  0.75000000  1
  Mo  Mo21  1  0.04435343  0.40959461  0.39357818  1
  Mo  Mo22  1  0.04042886  0.20551310  0.16335043  1
  Mo  Mo23  1  0.95957114  0.70551310  0.16335043  1
  Mo  Mo24  1  0.95564657  0.90959461  0.39357818  1
  Mo  Mo25  1  0.95957114  0.79448690  0.83664957  1
  Mo  Mo26  1  0.95564657  0.59040539  0.60642182  1
  Mo  Mo27  1  0.04042886  0.29448690  0.83664957  1
  Mo  Mo28  1  0.01203238  0.75000000  0.50000000  1
  Mo  Mo29  1  0.04042886  0.29448690  0.66335043  1
  Mo  Mo30  1  0.95564657  0.59040539  0.89357818  1
  Mo  Mo31  1  0.04042886  0.20551310  0.33664957  1
  Mo  Mo32  1  0.98316264  0.35139406  0.25000000  1
  Mo  Mo33  1  0.95957114  0.79448690  0.66335043  1
  Mo  Mo34  1  0.98796762  0.25000000  0.00000000  1
  Mo  Mo35  1  0.95957114  0.70551310  0.33664957  1
  O  O36  1  1.00018475  0.55850993  0.69388211  1
  O  O37  1  -0.00018475  0.44149007  0.30611789  1
  O  O38  1  0.00213878  0.64946033  0.53869200  1
  O  O39  1  1.00011472  0.99681068  0.07535581  1
  O  O40  1  0.50839720  0.64829185  0.75000000  1
  O  O41  1  0.99786122  0.14946033  0.53869200  1
  O  O42  1  0.00618833  0.80166352  0.91918650  1
  O  O43  1  0.49970649  0.79220302  0.83611451  1
  O  O44  1  0.00618870  0.61082084  0.18629497  1
  O  O45  1  0.50509378  0.09569335  0.88954058  1
  O  O46  1  0.99381130  0.38917916  0.81370503  1
  O  O47  1  0.49970649  0.70779698  0.33611451  1
  O  O48  1  0.50029351  0.29220302  0.66388549  1
  O  O49  1  0.00618870  0.88917916  0.81370503  1
  O  O50  1  0.00724998  0.68509427  0.66332296  1
  O  O51  1  0.00724998  0.68509427  0.83667704  1
  O  O52  1  0.99275002  0.31490573  0.16332296  1
  O  O53  1  -0.00011472  0.49681068  0.42464419  1
  O  O54  1  0.50029351  0.29220302  0.83611451  1
  O  O55  1  0.50788679  0.75000000  0.00000000  1
  O  O56  1  0.50509378  0.40430665  0.38954058  1
  O  O57  1  0.99381130  0.38917916  0.68629497  1
  O  O58  1  0.50509378  0.09569335  0.61045942  1
  O  O59  1  0.99381167  0.30166352  0.91918650  1
  O  O60  1  0.49160280  0.14829185  0.75000000  1
  O  O61  1  0.99786122  0.35053967  0.46130800  1
  O  O62  1  0.99186363  0.26099946  0.75000000  1
  O  O63  1  0.99381130  0.11082084  0.18629497  1
  O  O64  1  0.99186363  0.23900054  0.25000000  1
  O  O65  1  0.00618833  0.80166352  0.58081350  1
  O  O66  1  0.50509378  0.40430665  0.11045942  1
  O  O67  1  1.00018475  0.94149007  0.19388211  1
  O  O68  1  0.00618870  0.61082084  0.31370503  1
  O  O69  1  0.49490622  0.90430665  0.11045942  1
  O  O70  1  0.00213878  0.64946033  0.96130800  1
  O  O71  1  0.50029351  0.20779698  0.16388549  1
  O  O72  1  0.49160280  0.35170815  0.25000000  1
  O  O73  1  1.00018475  0.55850993  0.80611789  1
  O  O74  1  0.00724998  0.81490573  0.16332296  1
  O  O75  1  0.00724998  0.81490573  0.33667704  1
  O  O76  1  -0.00018475  0.05850993  0.69388211  1
  O  O77  1  0.50839720  0.85170815  0.25000000  1
  O  O78  1  -0.00018475  0.44149007  0.19388211  1
  O  O79  1  0.49970649  0.70779698  0.16388549  1
  O  O80  1  0.00213878  0.85053967  0.46130800  1
  O  O81  1  0.50788679  0.75000000  0.50000000  1
  O  O82  1  0.99381130  0.11082084  0.31370503  1
  O  O83  1  0.99381167  0.30166352  0.58081350  1
  O  O84  1  1.00011472  0.99681068  0.42464419  1
  O  O85  1  0.99786122  0.14946033  0.96130800  1
  O  O86  1  0.49490622  0.59569335  0.61045942  1
  O  O87  1  1.00011472  0.50318932  0.92464419  1
  O  O88  1  0.99275002  0.18509427  0.66332296  1
  O  O89  1  -0.00011472  0.00318932  0.57535581  1
  O  O90  1  0.00813637  0.76099946  0.75000000  1
  O  O91  1  -0.00011472  0.00318932  0.92464419  1
  O  O92  1  0.00213878  0.85053967  0.03869200  1
  O  O93  1  0.99275002  0.18509427  0.83667704  1
  O  O94  1  1.00011472  0.50318932  0.57535581  1
  O  O95  1  -0.00011472  0.49681068  0.07535581  1
  O  O96  1  0.49211321  0.25000000  0.50000000  1
  O  O97  1  1.00018475  0.94149007  0.30611789  1
  O  O98  1  0.49490622  0.59569335  0.88954058  1
  O  O99  1  0.49211321  0.25000000  0.00000000  1
  O  O100  1  0.49490622  0.90430665  0.38954058  1
  O  O101  1  0.49970649  0.79220302  0.66388549  1
  O  O102  1  0.00618833  0.69833648  0.41918650  1
  O  O103  1  0.50865172  0.96842057  0.75000000  1
  O  O104  1  0.99381167  0.19833648  0.41918650  1
  O  O105  1  0.50029351  0.20779698  0.33611451  1
  O  O106  1  0.50865172  0.53157943  0.25000000  1
  O  O107  1  0.99275002  0.31490573  0.33667704  1
  O  O108  1  0.49134828  0.03157943  0.25000000  1
  O  O109  1  0.00813637  0.73900054  0.25000000  1
  O  O110  1  0.49134828  0.46842057  0.75000000  1
  O  O111  1  0.99786122  0.35053967  0.03869200  1
  O  O112  1  -0.00018475  0.05850993  0.80611789  1
  O  O113  1  0.00618870  0.88917916  0.68629497  1
  O  O114  1  0.00618833  0.69833648  0.08081350  1
  O  O115  1  0.99381167  0.19833648  0.08081350  1
