# generated using pymatgen
data_Ba2Tl2CuO6
_symmetry_space_group_name_H-M   'P 1'
_cell_length_a   5.50411013
_cell_length_b   5.58574279
_cell_length_c   12.28312742
_cell_angle_alpha   90.00000000
_cell_angle_beta   102.94711845
_cell_angle_gamma   90.00000000
_symmetry_Int_Tables_number   1
_chemical_formula_structural   Ba2Tl2CuO6
_chemical_formula_sum   'Ba4 Tl4 Cu2 O12'
_cell_volume   368.03852731
_cell_formula_units_Z   2
loop_
 _symmetry_equiv_pos_site_id
 _symmetry_equiv_pos_as_xyz
  1  'x, y, z'
loop_
 _atom_site_type_symbol
 _atom_site_label
 _atom_site_symmetry_multiplicity
 _atom_site_fract_x
 _atom_site_fract_y
 _atom_site_fract_z
 _atom_site_occupancy
  O  O0  1  0.21181799  0.45450844  0.42363598  1
  O  O1  1  0.78818201  0.54549156  0.57636402  1
  O  O2  1  0.28818201  0.95450844  0.57636402  1
  O  O3  1  0.71181799  0.04549156  0.42363598  1
  O  O4  1  0.38296074  0.50064685  0.76592147  1
  O  O5  1  0.61703926  0.49935315  0.23407853  1
  O  O6  1  0.11703926  0.00064685  0.23407853  1
  O  O7  1  0.88296074  0.99935315  0.76592147  1
  O  O8  1  0.74999293  0.75000000  0.99998586  1
  O  O9  1  0.75000707  0.25000000  0.00001414  1
  O  O10  1  0.24999293  0.75000000  0.99998586  1
  O  O11  1  0.25000707  0.25000000  0.00001414  1
  Cu  Cu12  1  0.50000000  0.50000000  0.00000000  1
  Cu  Cu13  1  0.00000000  0.00000000  0.00000000  1
  Ba  Ba14  1  0.91883483  0.49897394  0.83766966  1
  Ba  Ba15  1  0.08116517  0.50102606  0.16233034  1
  Ba  Ba16  1  0.58116517  0.99897394  0.16233034  1
  Ba  Ba17  1  0.41883483  0.00102606  0.83766966  1
  Tl  Tl18  1  0.29792602  0.51921312  0.59585203  1
  Tl  Tl19  1  0.70207398  0.48078688  0.40414797  1
  Tl  Tl20  1  0.20207398  0.01921312  0.40414797  1
  Tl  Tl21  1  0.79792602  0.98078688  0.59585203  1
