# generated using pymatgen
data_Cs5(KPb6)3
_symmetry_space_group_name_H-M   'P 1'
_cell_length_a   10.12788126
_cell_length_b   15.65649963
_cell_length_c   15.79671661
_cell_angle_alpha   104.77357191
_cell_angle_beta   97.27604346
_cell_angle_gamma   100.03159860
_symmetry_Int_Tables_number   1
_chemical_formula_structural   Cs5(KPb6)3
_chemical_formula_sum   'Cs10 K6 Pb36'
_cell_volume   2346.19621947
_cell_formula_units_Z   2
loop_
 _symmetry_equiv_pos_site_id
 _symmetry_equiv_pos_as_xyz
  1  'x, y, z'
loop_
 _atom_site_type_symbol
 _atom_site_label
 _atom_site_symmetry_multiplicity
 _atom_site_fract_x
 _atom_site_fract_y
 _atom_site_fract_z
 _atom_site_occupancy
  Cs  Cs0  1  0.74660745  0.65160355  0.82886888  1
  Cs  Cs1  1  0.40078573  0.33578537  0.46905690  1
  Cs  Cs2  1  0.06392432  0.33650880  0.26648082  1
  Cs  Cs3  1  0.66790996  0.06318858  0.81769388  1
  Cs  Cs4  1  0.20467770  0.12183058  0.83434424  1
  Cs  Cs5  1  0.81088739  0.84705622  0.38358502  1
  Cs  Cs6  1  0.28230789  0.02875790  0.47276536  1
  Cs  Cs7  1  0.59468593  0.15598981  0.17756769  1
  Cs  Cs8  1  0.47399618  0.84651282  0.17990725  1
  Cs  Cs9  1  0.12964445  0.53336130  0.82018853  1
  K  K10  1  0.03381109  0.64228196  0.20619304  1
  K  K11  1  0.50525288  0.37211706  0.76466077  1
  K  K12  1  0.95474650  0.33676110  0.99378233  1
  K  K13  1  0.92000972  0.85140387  0.65639256  1
  K  K14  1  0.83351215  0.53851143  0.45029602  1
  K  K15  1  0.35796769  0.81541728  0.88255971  1
  Pb  Pb16  1  0.00330197  0.17949678  0.44016227  1
  Pb  Pb17  1  0.72227707  0.93092128  0.00585625  1
  Pb  Pb18  1  0.15388454  0.68259553  0.63846650  1
  Pb  Pb19  1  0.46990717  0.59720956  0.01137031  1
  Pb  Pb20  1  0.76008384  0.29031389  0.43841703  1
  Pb  Pb21  1  0.82065727  0.78856560  0.09733036  1
  Pb  Pb22  1  0.40254024  0.58665295  0.63814702  1
  Pb  Pb23  1  0.33686762  0.29604446  0.09786360  1
  Pb  Pb24  1  0.56695039  0.29450173  0.97561930  1
  Pb  Pb25  1  0.63682275  0.19573209  0.60942037  1
  Pb  Pb26  1  0.05428406  0.39369930  0.55261519  1
  Pb  Pb27  1  0.14798537  0.77446289  0.48162194  1
  Pb  Pb28  1  0.72665907  0.41063811  0.16815774  1
  Pb  Pb29  1  0.63747322  0.60690372  0.19879942  1
  Pb  Pb30  1  0.53794973  0.88824719  0.55325204  1
  Pb  Pb31  1  0.15226540  0.25066979  0.64299124  1
  Pb  Pb32  1  0.08848412  0.78228203  0.01138688  1
  Pb  Pb33  1  0.30671107  0.89039423  0.67419361  1
  Pb  Pb34  1  0.55254682  0.79423295  0.70684004  1
  Pb  Pb35  1  0.71908053  0.50211903  0.01077705  1
  Pb  Pb36  1  0.23544116  0.57769732  0.45090426  1
  Pb  Pb37  1  0.23827786  0.98838107  0.04291883  1
  Pb  Pb38  1  0.98264785  0.09522079  0.04844770  1
  Pb  Pb39  1  0.49185024  0.45148937  0.27426752  1
  Pb  Pb40  1  0.69467515  0.08342248  0.42715395  1
  Pb  Pb41  1  0.87004675  0.00290691  0.20927152  1
  Pb  Pb42  1  0.30049261  0.51138965  0.13886957  1
  Pb  Pb43  1  0.96634534  0.90560768  0.90214766  1
  Pb  Pb44  1  0.89140332  0.08788315  0.60267852  1
  Pb  Pb45  1  0.78702197  0.40092913  0.64018144  1
  Pb  Pb46  1  0.17884447  0.09937655  0.22454630  1
  Pb  Pb47  1  0.91087724  0.27794390  0.74866136  1
  Pb  Pb48  1  0.38351695  0.73303820  0.37617182  1
  Pb  Pb49  1  0.57377905  0.67372130  0.51241910  1
  Pb  Pb50  1  0.11388555  0.89208683  0.21286533  1
  Pb  Pb51  1  0.31983523  0.38973495  0.94436401  1
