# generated using pymatgen
data_Nd6Mo10O39
_symmetry_space_group_name_H-M   'P 1'
_cell_length_a   11.91670169
_cell_length_b   11.91670186
_cell_length_c   14.16416733
_cell_angle_alpha   95.84152397
_cell_angle_beta   95.84152404
_cell_angle_gamma   115.88540226
_symmetry_Int_Tables_number   1
_chemical_formula_structural   Nd6Mo10O39
_chemical_formula_sum   'Nd12 Mo20 O78'
_cell_volume   1776.03271695
_cell_formula_units_Z   2
loop_
 _symmetry_equiv_pos_site_id
 _symmetry_equiv_pos_as_xyz
  1  'x, y, z'
loop_
 _atom_site_type_symbol
 _atom_site_label
 _atom_site_symmetry_multiplicity
 _atom_site_fract_x
 _atom_site_fract_y
 _atom_site_fract_z
 _atom_site_occupancy
  Nd  Nd0  1  0.78247176  0.47174896  0.64714207  1
  Nd  Nd1  1  0.96978275  0.85346785  0.41577682  1
  Nd  Nd2  1  0.03021725  0.14653215  0.58422318  1
  Nd  Nd3  1  0.47174896  0.78247176  0.14714207  1
  Nd  Nd4  1  0.73574430  0.43896902  0.08545881  1
  Nd  Nd5  1  0.14653215  0.03021725  0.08422318  1
  Nd  Nd6  1  0.21752824  0.52825104  0.35285793  1
  Nd  Nd7  1  0.56103098  0.26425570  0.41454119  1
  Nd  Nd8  1  0.85346785  0.96978275  0.91577682  1
  Nd  Nd9  1  0.26425570  0.56103098  0.91454119  1
  Nd  Nd10  1  0.43896902  0.73574430  0.58545881  1
  Nd  Nd11  1  0.52825104  0.21752824  0.85285793  1
  Mo  Mo12  1  0.50111350  0.88446312  0.88161849  1
  Mo  Mo13  1  0.18472565  0.18398507  0.36106978  1
  Mo  Mo14  1  0.38412453  0.42585938  0.13837689  1
  Mo  Mo15  1  0.67944010  0.11385049  0.63758576  1
  Mo  Mo16  1  0.11385049  0.67944010  0.13758576  1
  Mo  Mo17  1  0.32055990  0.88614951  0.36241424  1
  Mo  Mo18  1  0.81527435  0.81601493  0.63893022  1
  Mo  Mo19  1  0.93056689  0.23998036  0.16039179  1
  Mo  Mo20  1  0.76001964  0.06943311  0.33960821  1
  Mo  Mo21  1  0.88614951  0.32055990  0.86241424  1
  Mo  Mo22  1  0.42585938  0.38412453  0.63837689  1
  Mo  Mo23  1  0.88446312  0.50111350  0.38161849  1
  Mo  Mo24  1  0.57414062  0.61587547  0.36162311  1
  Mo  Mo25  1  0.06943311  0.76001964  0.83960821  1
  Mo  Mo26  1  0.61587547  0.57414062  0.86162311  1
  Mo  Mo27  1  0.23998036  0.93056689  0.66039179  1
  Mo  Mo28  1  0.11553688  0.49888650  0.61838151  1
  Mo  Mo29  1  0.18398507  0.18472565  0.86106978  1
  Mo  Mo30  1  0.49888650  0.11553688  0.11838151  1
  Mo  Mo31  1  0.81601493  0.81527435  0.13893022  1
  O  O32  1  0.20142620  0.52206732  0.73485185  1
  O  O33  1  0.21421534  0.34426537  0.88779495  1
  O  O34  1  0.56367403  0.00601313  0.12418302  1
  O  O35  1  0.08176420  0.07758894  0.43490704  1
  O  O36  1  0.88111088  0.86994386  0.26425506  1
  O  O37  1  0.92091825  0.62916436  0.79834869  1
  O  O38  1  0.81643516  0.29391522  0.13378701  1
  O  O39  1  0.56381906  0.22323109  0.03217560  1
  O  O40  1  0.72458573  0.73437039  0.91328526  1
  O  O41  1  0.87416365  0.12583635  0.25000000  1
  O  O42  1  0.54023853  0.37095117  0.56516285  1
  O  O43  1  0.78578466  0.65573463  0.11220505  1
  O  O44  1  0.10663929  0.82715907  0.14458829  1
  O  O45  1  0.06267093  0.84711350  0.94548366  1
  O  O46  1  0.18356484  0.70608478  0.86621299  1
  O  O47  1  0.82784018  0.67408112  0.61129384  1
  O  O48  1  0.03823906  0.44020903  0.91836017  1
  O  O49  1  0.52206732  0.20142620  0.23485185  1
  O  O50  1  0.32591888  0.17215982  0.88870616  1
  O  O51  1  0.73437039  0.72458573  0.41328526  1
  O  O52  1  0.54670552  0.65988621  0.24511984  1
  O  O53  1  0.33343100  0.02226034  0.07771283  1
  O  O54  1  0.91823580  0.92241106  0.56509296  1
  O  O55  1  0.34426537  0.21421534  0.38779495  1
  O  O56  1  0.92241106  0.91823580  0.06509296  1
  O  O57  1  0.11888912  0.13005614  0.73574494  1
  O  O58  1  0.07758894  0.08176420  0.93490704  1
  O  O59  1  0.99398687  0.43632597  0.37581698  1
  O  O60  1  0.65573463  0.78578466  0.61220505  1
  O  O61  1  0.67442824  0.23451545  0.56984309  1
  O  O62  1  0.14191382  0.64104257  0.25591549  1
  O  O63  1  0.43632597  0.99398687  0.87581698  1
  O  O64  1  0.66656900  0.97773966  0.92228717  1
  O  O65  1  0.97773966  0.66656900  0.42228717  1
  O  O66  1  0.00601313  0.56367403  0.62418302  1
  O  O67  1  0.26562961  0.27541427  0.58671474  1
  O  O68  1  0.27541427  0.26562961  0.08671474  1
  O  O69  1  0.45329448  0.34011379  0.75488016  1
  O  O70  1  0.85808618  0.35895743  0.74408451  1
  O  O71  1  0.37083564  0.07908175  0.70165131  1
  O  O72  1  0.43238618  0.53646493  0.64003395  1
  O  O73  1  0.79857380  0.47793268  0.26514815  1
  O  O74  1  0.86994386  0.88111088  0.76425506  1
  O  O75  1  0.22323109  0.56381906  0.53217560  1
  O  O76  1  0.53646493  0.43238618  0.14003395  1
  O  O77  1  0.17284093  0.89336071  0.35541171  1
  O  O78  1  0.62916436  0.92091825  0.29834869  1
  O  O79  1  0.15288650  0.93732907  0.55451634  1
  O  O80  1  0.35895743  0.85808618  0.24408451  1
  O  O81  1  0.32557176  0.76548455  0.43015691  1
  O  O82  1  0.76548455  0.32557176  0.93015691  1
  O  O83  1  0.23451545  0.67442824  0.06984309  1
  O  O84  1  0.46353507  0.56761382  0.85996605  1
  O  O85  1  0.67408112  0.82784018  0.11129384  1
  O  O86  1  0.44020903  0.03823906  0.41836017  1
  O  O87  1  0.84711350  0.06267093  0.44548366  1
  O  O88  1  0.93732907  0.15288650  0.05451634  1
  O  O89  1  0.82715907  0.10663929  0.64458829  1
  O  O90  1  0.56761382  0.46353507  0.35996605  1
  O  O91  1  0.13005614  0.11888912  0.23574494  1
  O  O92  1  0.96176094  0.55979097  0.08163983  1
  O  O93  1  0.34011379  0.45329448  0.25488016  1
  O  O94  1  0.02226034  0.33343100  0.57771283  1
  O  O95  1  0.77676891  0.43618094  0.46782440  1
  O  O96  1  0.43618094  0.77676891  0.96782440  1
  O  O97  1  0.70608478  0.18356484  0.36621299  1
  O  O98  1  0.47793268  0.79857380  0.76514815  1
  O  O99  1  0.17215982  0.32591888  0.38870616  1
  O  O100  1  0.62904883  0.45976147  0.93483715  1
  O  O101  1  0.64104257  0.14191382  0.75591549  1
  O  O102  1  0.07908175  0.37083564  0.20165131  1
  O  O103  1  0.65988621  0.54670552  0.74511984  1
  O  O104  1  0.89336071  0.17284093  0.85541171  1
  O  O105  1  0.55979097  0.96176094  0.58163983  1
  O  O106  1  0.12583635  0.87416365  0.75000000  1
  O  O107  1  0.37095117  0.54023853  0.06516285  1
  O  O108  1  0.29391522  0.81643516  0.63378701  1
  O  O109  1  0.45976147  0.62904883  0.43483715  1
