# generated using pymatgen
data_MgSiO3
_symmetry_space_group_name_H-M   'P 1'
_cell_length_a   5.24579352
_cell_length_b   8.94539619
_cell_length_c   18.44950261
_cell_angle_alpha   90.00000000
_cell_angle_beta   90.00000000
_cell_angle_gamma   90.00000000
_symmetry_Int_Tables_number   1
_chemical_formula_structural   MgSiO3
_chemical_formula_sum   'Mg16 Si16 O48'
_cell_volume   865.75584985
_cell_formula_units_Z   16
loop_
 _symmetry_equiv_pos_site_id
 _symmetry_equiv_pos_as_xyz
  1  'x, y, z'
loop_
 _atom_site_type_symbol
 _atom_site_label
 _atom_site_symmetry_multiplicity
 _atom_site_fract_x
 _atom_site_fract_y
 _atom_site_fract_z
 _atom_site_occupancy
  O  O0  1  0.40059353  0.30324583  0.94854214  1
  O  O1  1  0.90059353  0.69675417  0.55145786  1
  O  O2  1  0.09940647  0.80324583  0.05145786  1
  O  O3  1  0.59940647  0.19675417  0.44854214  1
  O  O4  1  0.59940647  0.69675417  0.05145786  1
  O  O5  1  0.09940647  0.30324583  0.44854214  1
  O  O6  1  0.90059353  0.19675417  0.94854214  1
  O  O7  1  0.40059353  0.80324583  0.55145786  1
  O  O8  1  0.30926237  0.01741981  0.93249129  1
  O  O9  1  0.80926237  0.98258019  0.56750871  1
  O  O10  1  0.19073763  0.51741981  0.06750871  1
  O  O11  1  0.69073763  0.48258019  0.43249129  1
  O  O12  1  0.69073763  0.98258019  0.06750871  1
  O  O13  1  0.19073763  0.01741981  0.43249129  1
  O  O14  1  0.80926237  0.48258019  0.93249129  1
  O  O15  1  0.30926237  0.51741981  0.56750871  1
  O  O16  1  0.20354598  0.15922731  0.06298846  1
  O  O17  1  0.70354598  0.84077269  0.43701154  1
  O  O18  1  0.29645402  0.65922731  0.93701154  1
  O  O19  1  0.95256011  0.99931789  0.81159567  1
  O  O20  1  0.79645402  0.34077269  0.56298846  1
  O  O21  1  0.29645402  0.15922731  0.56298846  1
  O  O22  1  0.70354598  0.34077269  0.06298846  1
  O  O23  1  0.20354598  0.65922731  0.43701154  1
  O  O24  1  0.16182436  0.27872085  0.80293496  1
  O  O25  1  0.66182436  0.72127915  0.69706504  1
  O  O26  1  0.33817564  0.77872085  0.19706504  1
  O  O27  1  0.83817564  0.22127915  0.30293496  1
  O  O28  1  0.83817564  0.72127915  0.19706504  1
  O  O29  1  0.33817564  0.27872085  0.30293496  1
  O  O30  1  0.66182436  0.22127915  0.80293496  1
  O  O31  1  0.16182436  0.77872085  0.69706504  1
  O  O32  1  0.96091800  0.66008050  0.81638410  1
  O  O33  1  0.46091800  0.33991950  0.68361590  1
  O  O34  1  0.53908200  0.16008050  0.18361590  1
  O  O35  1  0.03908200  0.83991950  0.31638410  1
  O  O36  1  0.03908200  0.33991950  0.18361590  1
  O  O37  1  0.53908200  0.66008050  0.31638410  1
  O  O38  1  0.46091800  0.83991950  0.81638410  1
  O  O39  1  0.96091800  0.16008050  0.68361590  1
  O  O40  1  0.95256011  0.49931789  0.68840433  1
  O  O41  1  0.45256011  0.50068211  0.81159567  1
  O  O42  1  0.54743989  0.99931789  0.31159567  1
  O  O43  1  0.04743989  0.00068211  0.18840433  1
  O  O44  1  0.04743989  0.50068211  0.31159567  1
  O  O45  1  0.54743989  0.49931789  0.18840433  1
  O  O46  1  0.45256011  0.00068211  0.68840433  1
  O  O47  1  0.79645402  0.84077269  0.93701154  1
  Mg  Mg48  1  0.13047406  0.34721817  0.62412098  1
  Mg  Mg49  1  0.63047406  0.65278183  0.87587902  1
  Mg  Mg50  1  0.36952594  0.84721817  0.37587902  1
  Mg  Mg51  1  0.86952594  0.15278183  0.12412098  1
  Mg  Mg52  1  0.86952594  0.65278183  0.37587902  1
  Mg  Mg53  1  0.36952594  0.34721817  0.12412098  1
  Mg  Mg54  1  0.63047406  0.15278183  0.62412098  1
  Mg  Mg55  1  0.13047406  0.84721817  0.87587902  1
  Mg  Mg56  1  0.63648119  0.51118969  0.62393415  1
  Mg  Mg57  1  0.13648119  0.48881031  0.87606585  1
  Mg  Mg58  1  0.86351881  0.01118969  0.37606585  1
  Mg  Mg59  1  0.36351881  0.98881031  0.12393415  1
  Mg  Mg60  1  0.36351881  0.48881031  0.37606585  1
  Mg  Mg61  1  0.86351881  0.51118969  0.12393415  1
  Mg  Mg62  1  0.13648119  0.98881031  0.62393415  1
  Mg  Mg63  1  0.63648119  0.01118969  0.87606585  1
  Si  Si64  1  0.94445628  0.65895692  0.72813354  1
  Si  Si65  1  0.44445628  0.34104308  0.77186646  1
  Si  Si66  1  0.55554372  0.15895692  0.27186646  1
  Si  Si67  1  0.05554372  0.84104308  0.22813354  1
  Si  Si68  1  0.05554372  0.34104308  0.27186646  1
  Si  Si69  1  0.55554372  0.65895692  0.22813354  1
  Si  Si70  1  0.44445628  0.84104308  0.72813354  1
  Si  Si71  1  0.94445628  0.15895692  0.77186646  1
  Si  Si72  1  0.20442279  0.66269182  0.52581806  1
  Si  Si73  1  0.70442279  0.33730818  0.97418194  1
  Si  Si74  1  0.29557721  0.16269182  0.47418194  1
  Si  Si75  1  0.79557721  0.83730818  0.02581806  1
  Si  Si76  1  0.79557721  0.33730818  0.47418194  1
  Si  Si77  1  0.29557721  0.66269182  0.02581806  1
  Si  Si78  1  0.70442279  0.83730818  0.52581806  1
  Si  Si79  1  0.20442279  0.16269182  0.97418194  1
