# generated using pymatgen
data_LiAlSiO4
_symmetry_space_group_name_H-M   'P 1'
_cell_length_a   10.59744380
_cell_length_b   10.59744380
_cell_length_c   11.38814215
_cell_angle_alpha   90.00000000
_cell_angle_beta   90.00000000
_cell_angle_gamma   119.99999999
_symmetry_Int_Tables_number   1
_chemical_formula_structural   LiAlSiO4
_chemical_formula_sum   'Li12 Al12 Si12 O48'
_cell_volume   1107.60716274
_cell_formula_units_Z   12
loop_
 _symmetry_equiv_pos_site_id
 _symmetry_equiv_pos_as_xyz
  1  'x, y, z'
loop_
 _atom_site_type_symbol
 _atom_site_label
 _atom_site_symmetry_multiplicity
 _atom_site_fract_x
 _atom_site_fract_y
 _atom_site_fract_z
 _atom_site_occupancy
  Li  Li0  1  0.50000000  0.00000000  0.00000000  1
  Li  Li1  1  0.50000000  0.50000000  0.66666667  1
  Li  Li2  1  0.00000000  0.50000000  0.33333333  1
  Li  Li3  1  0.00000000  0.00000000  0.50000000  1
  Li  Li4  1  0.00000000  0.00000000  0.16666667  1
  Li  Li5  1  0.00000000  0.00000000  0.83333333  1
  Li  Li6  1  0.50000000  0.00000000  0.32803746  1
  Li  Li7  1  0.50000000  0.50000000  0.99470413  1
  Li  Li8  1  0.00000000  0.50000000  0.66137080  1
  Li  Li9  1  0.50000000  0.00000000  0.67196254  1
  Li  Li10  1  0.50000000  0.50000000  0.33862920  1
  Li  Li11  1  0.00000000  0.50000000  0.00529587  1
  O  O12  1  0.89418574  0.29357066  0.26265337  1
  O  O13  1  0.59188030  0.39163498  0.41576255  1
  O  O14  1  0.60836502  0.20024532  0.74909588  1
  O  O15  1  0.79975468  0.40811970  0.08242922  1
  O  O16  1  0.20024532  0.59188030  0.08242922  1
  O  O17  1  0.40811970  0.79975468  0.25090412  1
  O  O18  1  0.40811970  0.60836502  0.41576255  1
  O  O19  1  0.39163498  0.79975468  0.74909588  1
  O  O20  1  0.60836502  0.40811970  0.91757078  1
  O  O21  1  0.79975468  0.39163498  0.58423745  1
  O  O22  1  0.20024532  0.60836502  0.58423745  1
  O  O23  1  0.39163498  0.59188030  0.91757078  1
  O  O24  1  0.59188030  0.20024532  0.25090412  1
  O  O25  1  0.39938492  0.29357066  0.73734663  1
  O  O26  1  0.70642934  0.10581426  0.07067997  1
  O  O27  1  0.89418574  0.60061508  0.40401330  1
  O  O28  1  0.10581426  0.39938492  0.40401330  1
  O  O29  1  0.60061508  0.89418574  0.92932003  1
  O  O30  1  0.60061508  0.70642934  0.73734663  1
  O  O31  1  0.39951776  0.30272293  0.26022852  1
  O  O32  1  0.70642934  0.60061508  0.59598670  1
  O  O33  1  0.10581426  0.70642934  0.26265337  1
  O  O34  1  0.29357066  0.39938492  0.59598670  1
  O  O35  1  0.39938492  0.10581426  0.92932003  1
  O  O36  1  0.19806730  0.08714005  0.09068487  1
  O  O37  1  0.11092725  0.19806730  0.75735154  1
  O  O38  1  0.08714005  0.88907275  0.42401821  1
  O  O39  1  0.91285995  0.11092725  0.42401821  1
  O  O40  1  0.88907275  0.80193270  0.75735154  1
  O  O41  1  0.11092725  0.91285995  0.90931513  1
  O  O42  1  0.80193270  0.88907275  0.57598179  1
  O  O43  1  0.80193270  0.91285995  0.09068487  1
  O  O44  1  0.08714005  0.19806730  0.24264846  1
  O  O45  1  0.91285995  0.80193270  0.24264846  1
  O  O46  1  0.88907275  0.08714005  0.90931513  1
  O  O47  1  0.19806730  0.11092725  0.57598179  1
  O  O48  1  0.39951776  0.09679484  0.40643815  1
  O  O49  1  0.30272293  0.39951776  0.07310482  1
  O  O50  1  0.09679484  0.69727707  0.73977148  1
  O  O51  1  0.90320516  0.30272293  0.73977148  1
  O  O52  1  0.69727707  0.60048224  0.07310482  1
  O  O53  1  0.30272293  0.90320516  0.59356185  1
  O  O54  1  0.60048224  0.69727707  0.26022852  1
  O  O55  1  0.60048224  0.90320516  0.40643815  1
  O  O56  1  0.09679484  0.39951776  0.92689518  1
  O  O57  1  0.90320516  0.60048224  0.92689518  1
  O  O58  1  0.69727707  0.09679484  0.59356185  1
  O  O59  1  0.29357066  0.89418574  0.07067997  1
  Al  Al60  1  0.25094628  0.25094628  0.16666667  1
  Al  Al61  1  0.00000000  0.74905372  0.83333333  1
  Al  Al62  1  0.00000000  0.25094628  0.83333333  1
  Al  Al63  1  0.25094628  0.00000000  0.50000000  1
  Al  Al64  1  0.74905372  0.74905372  0.16666667  1
  Al  Al65  1  0.74905372  0.00000000  0.50000000  1
  Al  Al66  1  0.25118576  0.50237153  0.50000000  1
  Al  Al67  1  0.74881424  0.25118576  0.16666667  1
  Al  Al68  1  0.50237153  0.25118576  0.83333333  1
  Al  Al69  1  0.49762847  0.74881424  0.83333333  1
  Al  Al70  1  0.25118576  0.74881424  0.16666667  1
  Al  Al71  1  0.74881424  0.49762847  0.50000000  1
  Si  Si72  1  0.24749452  0.00000000  0.00000000  1
  Si  Si73  1  0.24749452  0.24749452  0.66666667  1
  Si  Si74  1  0.00000000  0.75250548  0.33333333  1
  Si  Si75  1  0.00000000  0.24749452  0.33333333  1
  Si  Si76  1  0.75250548  0.75250548  0.66666667  1
  Si  Si77  1  0.75250548  0.00000000  0.00000000  1
  Si  Si78  1  0.24826537  0.49653073  0.00000000  1
  Si  Si79  1  0.75173463  0.24826537  0.66666667  1
  Si  Si80  1  0.49653073  0.24826537  0.33333333  1
  Si  Si81  1  0.50346927  0.75173463  0.33333333  1
  Si  Si82  1  0.24826537  0.75173463  0.66666667  1
  Si  Si83  1  0.75173463  0.50346927  0.00000000  1
