# generated using pymatgen
data_Sb6Pb6S17
_symmetry_space_group_name_H-M   'P 1'
_cell_length_a   3.99170623
_cell_length_b   15.64545883
_cell_length_c   23.37396507
_cell_angle_alpha   90.00000000
_cell_angle_beta   90.00000000
_cell_angle_gamma   90.00000000
_symmetry_Int_Tables_number   1
_chemical_formula_structural   Sb6Pb6S17
_chemical_formula_sum   'Sb12 Pb12 S34'
_cell_volume   1459.75263089
_cell_formula_units_Z   2
loop_
 _symmetry_equiv_pos_site_id
 _symmetry_equiv_pos_as_xyz
  1  'x, y, z'
loop_
 _atom_site_type_symbol
 _atom_site_label
 _atom_site_symmetry_multiplicity
 _atom_site_fract_x
 _atom_site_fract_y
 _atom_site_fract_z
 _atom_site_occupancy
  Sb  Sb0  1  0.50120665  0.82427775  0.39814673  1
  Sb  Sb1  1  0.52588485  0.43458795  0.93011705  1
  Sb  Sb2  1  0.47411515  0.93458795  0.56988295  1
  Sb  Sb3  1  0.51192014  0.55778658  0.75804739  1
  Sb  Sb4  1  0.47411515  0.06541205  0.43011705  1
  Sb  Sb5  1  0.52588485  0.56541205  0.06988295  1
  Sb  Sb6  1  0.49879335  0.32427775  0.10185327  1
  Sb  Sb7  1  0.49879335  0.67572225  0.89814673  1
  Sb  Sb8  1  0.48807986  0.05778658  0.74195261  1
  Sb  Sb9  1  0.51192014  0.44221342  0.24195261  1
  Sb  Sb10  1  0.48807986  0.94221342  0.25804739  1
  Sb  Sb11  1  0.50120665  0.17572225  0.60185327  1
  Pb  Pb12  1  0.99593949  0.17872407  0.29590103  1
  Pb  Pb13  1  0.00140484  0.07946004  0.12532069  1
  Pb  Pb14  1  0.99593949  0.82127593  0.70409897  1
  Pb  Pb15  1  0.00211643  0.79839139  0.03768938  1
  Pb  Pb16  1  0.99788357  0.70160861  0.53768938  1
  Pb  Pb17  1  0.99859516  0.42053996  0.62532069  1
  Pb  Pb18  1  0.00140484  0.92053996  0.87467931  1
  Pb  Pb19  1  0.00406051  0.67872407  0.20409897  1
  Pb  Pb20  1  0.99788357  0.29839139  0.46231062  1
  Pb  Pb21  1  0.99859516  0.57946004  0.37467931  1
  Pb  Pb22  1  0.00211643  0.20160861  0.96231062  1
  Pb  Pb23  1  0.00406051  0.32127593  0.79590103  1
  S  S24  1  -0.00852937  0.48008681  0.85077060  1
  S  S25  1  0.49946357  0.29095214  0.88584694  1
  S  S26  1  0.77686507  0.00000000  0.00000000  1
  S  S27  1  0.50053643  0.79095214  0.61415306  1
  S  S28  1  -0.00625008  0.62363874  0.99641651  1
  S  S29  1  0.22313493  0.50000000  0.50000000  1
  S  S30  1  0.50053643  0.20904786  0.38584694  1
  S  S31  1  0.49453620  0.18600440  0.05333228  1
  S  S32  1  0.50341416  0.40950470  0.72142665  1
  S  S33  1  0.00625008  0.12363874  0.50358349  1
  S  S34  1  0.49707771  0.95539314  0.06875208  1
  S  S35  1  0.00270186  0.09867186  0.80822058  1
  S  S36  1  0.00417174  0.77442872  0.33465671  1
  S  S37  1  0.00625008  0.87636126  0.49641651  1
  S  S38  1  0.49453620  0.81399560  0.94666772  1
  S  S39  1  0.49707771  0.04460686  0.93124792  1
  S  S40  1  0.00417174  0.22557128  0.66534329  1
  S  S41  1  0.50546380  0.68600440  0.44666772  1
  S  S42  1  0.00852937  0.01991319  0.35077060  1
  S  S43  1  0.50341416  0.59049530  0.27857335  1
  S  S44  1  0.50292229  0.54460686  0.56875208  1
  S  S45  1  0.49658584  0.09049530  0.22142665  1
  S  S46  1  0.99582826  0.27442872  0.16534329  1
  S  S47  1  0.00852937  0.98008681  0.64922940  1
  S  S48  1  0.99729814  0.59867186  0.69177942  1
  S  S49  1  -0.00625008  0.37636126  0.00358349  1
  S  S50  1  0.49946357  0.70904786  0.11415306  1
  S  S51  1  0.00270186  0.90132814  0.19177942  1
  S  S52  1  0.99729814  0.40132814  0.30822058  1
  S  S53  1  0.50546380  0.31399560  0.55333228  1
  S  S54  1  0.99582826  0.72557128  0.83465671  1
  S  S55  1  0.50292229  0.45539314  0.43124792  1
  S  S56  1  0.49658584  0.90950470  0.77857335  1
  S  S57  1  -0.00852937  0.51991319  0.14922940  1
