# generated using pymatgen
data_Rb2ZnCl4
_symmetry_space_group_name_H-M   'P 1'
_cell_length_a   7.40291356
_cell_length_b   9.38026319
_cell_length_c   12.95774135
_cell_angle_alpha   90.00000000
_cell_angle_beta   90.00000000
_cell_angle_gamma   90.00000000
_symmetry_Int_Tables_number   1
_chemical_formula_structural   Rb2ZnCl4
_chemical_formula_sum   'Rb8 Zn4 Cl16'
_cell_volume   899.80211371
_cell_formula_units_Z   4
loop_
 _symmetry_equiv_pos_site_id
 _symmetry_equiv_pos_as_xyz
  1  'x, y, z'
loop_
 _atom_site_type_symbol
 _atom_site_label
 _atom_site_symmetry_multiplicity
 _atom_site_fract_x
 _atom_site_fract_y
 _atom_site_fract_z
 _atom_site_occupancy
  Rb  Rb0  1  0.74765123  0.87117343  0.90728634  1
  Rb  Rb1  1  0.24825045  0.48716984  0.82055468  1
  Rb  Rb2  1  0.74825045  0.51283016  0.17944532  1
  Rb  Rb3  1  0.24825045  0.98716984  0.67944532  1
  Rb  Rb4  1  0.24765123  0.62882657  0.40728634  1
  Rb  Rb5  1  0.24765123  0.12882657  0.09271366  1
  Rb  Rb6  1  0.74765123  0.37117343  0.59271366  1
  Rb  Rb7  1  0.74825045  0.01283016  0.32055468  1
  Zn  Zn8  1  0.75010085  0.27693603  0.92163421  1
  Zn  Zn9  1  0.75010085  0.77693603  0.57836579  1
  Zn  Zn10  1  0.25010085  0.22306397  0.42163421  1
  Zn  Zn11  1  0.25010085  0.72306397  0.07836579  1
  Cl  Cl12  1  0.50038970  0.81505264  0.15663876  1
  Cl  Cl13  1  0.00343969  0.80900746  0.16392338  1
  Cl  Cl14  1  0.75236606  0.01819602  0.58023523  1
  Cl  Cl15  1  0.00038970  0.68494736  0.65663876  1
  Cl  Cl16  1  0.00343969  0.30900746  0.33607662  1
  Cl  Cl17  1  0.24320202  0.82212618  0.91642696  1
  Cl  Cl18  1  0.75236606  0.51819602  0.91976477  1
  Cl  Cl19  1  0.74320202  0.67787382  0.41642696  1
  Cl  Cl20  1  0.25236606  0.48180398  0.08023523  1
  Cl  Cl21  1  0.50343969  0.69099254  0.66392338  1
  Cl  Cl22  1  0.74320202  0.17787382  0.08357304  1
  Cl  Cl23  1  0.25236606  0.98180398  0.41976477  1
  Cl  Cl24  1  0.24320202  0.32212618  0.58357304  1
  Cl  Cl25  1  0.50343969  0.19099254  0.83607662  1
  Cl  Cl26  1  0.00038970  0.18494736  0.84336124  1
  Cl  Cl27  1  0.50038970  0.31505264  0.34336124  1
