# generated using pymatgen
data_Cs2HgBr4
_symmetry_space_group_name_H-M   'P 1'
_cell_length_a   8.18665672
_cell_length_b   10.51894526
_cell_length_c   14.44132254
_cell_angle_alpha   90.00000000
_cell_angle_beta   90.00000000
_cell_angle_gamma   90.00000000
_symmetry_Int_Tables_number   1
_chemical_formula_structural   Cs2HgBr4
_chemical_formula_sum   'Cs8 Hg4 Br16'
_cell_volume   1243.61440244
_cell_formula_units_Z   4
loop_
 _symmetry_equiv_pos_site_id
 _symmetry_equiv_pos_as_xyz
  1  'x, y, z'
loop_
 _atom_site_type_symbol
 _atom_site_label
 _atom_site_symmetry_multiplicity
 _atom_site_fract_x
 _atom_site_fract_y
 _atom_site_fract_z
 _atom_site_occupancy
  Cs  Cs0  1  0.25000000  0.48270885  0.67078212  1
  Cs  Cs1  1  0.75000000  0.87897637  0.59965766  1
  Cs  Cs2  1  0.75000000  0.01729115  0.17078212  1
  Cs  Cs3  1  0.25000000  0.62102363  0.09965766  1
  Cs  Cs4  1  0.25000000  0.12102363  0.40034234  1
  Cs  Cs5  1  0.25000000  0.98270885  0.82921788  1
  Cs  Cs6  1  0.75000000  0.37897637  0.90034234  1
  Cs  Cs7  1  0.75000000  0.51729115  0.32921788  1
  Hg  Hg8  1  0.25000000  0.22220821  0.07671523  1
  Hg  Hg9  1  0.75000000  0.77779179  0.92328477  1
  Hg  Hg10  1  0.25000000  0.72220821  0.42328477  1
  Hg  Hg11  1  0.75000000  0.27779179  0.57671523  1
  Br  Br12  1  0.25000000  0.47204596  0.41135989  1
  Br  Br13  1  0.25000000  0.82167657  0.59456800  1
  Br  Br14  1  0.98616182  0.82164473  0.34242475  1
  Br  Br15  1  0.75000000  0.67832343  0.09456800  1
  Br  Br16  1  0.25000000  0.97204596  0.08864011  1
  Br  Br17  1  0.51383818  0.32164473  0.15757525  1
  Br  Br18  1  0.01383818  0.67835527  0.84242475  1
  Br  Br19  1  0.48616182  0.67835527  0.84242475  1
  Br  Br20  1  0.51383818  0.82164473  0.34242475  1
  Br  Br21  1  0.48616182  0.17835527  0.65757525  1
  Br  Br22  1  0.75000000  0.17832343  0.40543200  1
  Br  Br23  1  0.25000000  0.32167657  0.90543200  1
  Br  Br24  1  0.75000000  0.52795404  0.58864011  1
  Br  Br25  1  0.98616182  0.32164473  0.15757525  1
  Br  Br26  1  0.75000000  0.02795404  0.91135989  1
  Br  Br27  1  0.01383818  0.17835527  0.65757525  1
