# generated using pymatgen
data_LaCu6
_symmetry_space_group_name_H-M   'P 1'
_cell_length_a   5.15500652
_cell_length_b   8.12047275
_cell_length_c   10.22604408
_cell_angle_alpha   90.00000000
_cell_angle_beta   90.00000000
_cell_angle_gamma   90.00000000
_symmetry_Int_Tables_number   1
_chemical_formula_structural   LaCu6
_chemical_formula_sum   'La4 Cu24'
_cell_volume   428.07335129
_cell_formula_units_Z   4
loop_
 _symmetry_equiv_pos_site_id
 _symmetry_equiv_pos_as_xyz
  1  'x, y, z'
loop_
 _atom_site_type_symbol
 _atom_site_label
 _atom_site_symmetry_multiplicity
 _atom_site_fract_x
 _atom_site_fract_y
 _atom_site_fract_z
 _atom_site_occupancy
  La  La0  1  0.75000000  0.73787319  0.56485818  1
  La  La1  1  0.75000000  0.23787319  0.93514182  1
  La  La2  1  0.25000000  0.26212681  0.43514182  1
  La  La3  1  0.25000000  0.76212681  0.06485818  1
  Cu  Cu4  1  0.75000000  0.85292882  0.85881782  1
  Cu  Cu5  1  0.49481448  0.43550758  0.19030957  1
  Cu  Cu6  1  0.75000000  0.09930781  0.48415605  1
  Cu  Cu7  1  0.25000000  0.31783935  0.74664869  1
  Cu  Cu8  1  0.25000000  0.90069219  0.51584395  1
  Cu  Cu9  1  0.75000000  0.43941477  0.40160888  1
  Cu  Cu10  1  0.50518552  0.56449242  0.80969043  1
  Cu  Cu11  1  0.25000000  0.06058523  0.90160888  1
  Cu  Cu12  1  0.75000000  0.59930781  0.01584395  1
  Cu  Cu13  1  0.25000000  0.14707118  0.14118218  1
  Cu  Cu14  1  0.49481448  0.93550758  0.30969043  1
  Cu  Cu15  1  0.50518552  0.06449242  0.69030957  1
  Cu  Cu16  1  0.75000000  0.93941477  0.09839112  1
  Cu  Cu17  1  0.25000000  0.56058523  0.59839112  1
  Cu  Cu18  1  0.99481448  0.56449242  0.80969043  1
  Cu  Cu19  1  0.75000000  0.35292882  0.64118218  1
  Cu  Cu20  1  0.00518552  0.93550758  0.30969043  1
  Cu  Cu21  1  0.75000000  0.18216065  0.24664869  1
  Cu  Cu22  1  0.25000000  0.81783935  0.75335131  1
  Cu  Cu23  1  0.25000000  0.64707118  0.35881782  1
  Cu  Cu24  1  0.75000000  0.68216065  0.25335131  1
  Cu  Cu25  1  0.99481448  0.06449242  0.69030957  1
  Cu  Cu26  1  0.00518552  0.43550758  0.19030957  1
  Cu  Cu27  1  0.25000000  0.40069219  0.98415605  1
