# generated using pymatgen
data_KEuPSe4
_symmetry_space_group_name_H-M   'P 1'
_cell_length_a   6.93935306
_cell_length_b   7.04538248
_cell_length_c   17.60990644
_cell_angle_alpha   90.00000000
_cell_angle_beta   90.00000000
_cell_angle_gamma   90.00000000
_symmetry_Int_Tables_number   1
_chemical_formula_structural   KEuPSe4
_chemical_formula_sum   'K4 Eu4 P4 Se16'
_cell_volume   860.95530768
_cell_formula_units_Z   4
loop_
 _symmetry_equiv_pos_site_id
 _symmetry_equiv_pos_as_xyz
  1  'x, y, z'
loop_
 _atom_site_type_symbol
 _atom_site_label
 _atom_site_symmetry_multiplicity
 _atom_site_fract_x
 _atom_site_fract_y
 _atom_site_fract_z
 _atom_site_occupancy
  Eu  Eu0  1  0.28936930  0.25000000  0.47537621  1
  Eu  Eu1  1  0.71063070  0.75000000  0.52462379  1
  Eu  Eu2  1  0.78936930  0.75000000  0.02462379  1
  Eu  Eu3  1  0.21063070  0.25000000  0.97537621  1
  K  K4  1  0.02351338  0.25000000  0.71353019  1
  K  K5  1  0.47648662  0.25000000  0.21353019  1
  K  K6  1  0.52351338  0.75000000  0.78646981  1
  K  K7  1  0.97648662  0.75000000  0.28646981  1
  P  P8  1  0.22091645  0.75000000  0.59664522  1
  P  P9  1  0.27908355  0.75000000  0.09664522  1
  P  P10  1  0.77908355  0.25000000  0.40335478  1
  P  P11  1  0.72091645  0.25000000  0.90335478  1
  Se  Se12  1  0.46369423  0.25000000  0.82786827  1
  Se  Se13  1  0.53630577  0.75000000  0.17213173  1
  Se  Se14  1  0.40689604  0.49559694  0.61978008  1
  Se  Se15  1  0.90689604  0.50440306  0.88021992  1
  Se  Se16  1  0.96369423  0.75000000  0.67213173  1
  Se  Se17  1  0.59310396  0.50440306  0.38021992  1
  Se  Se18  1  0.09310396  0.00440306  0.11978008  1
  Se  Se19  1  0.03630577  0.25000000  0.32786827  1
  Se  Se20  1  0.40689604  0.00440306  0.61978008  1
  Se  Se21  1  0.90689604  0.99559694  0.88021992  1
  Se  Se22  1  0.35251852  0.75000000  0.97234271  1
  Se  Se23  1  0.14748148  0.75000000  0.47234271  1
  Se  Se24  1  0.64748148  0.25000000  0.02765729  1
  Se  Se25  1  0.59310396  0.99559694  0.38021992  1
  Se  Se26  1  0.85251852  0.25000000  0.52765729  1
  Se  Se27  1  0.09310396  0.49559694  0.11978008  1
