# generated using pymatgen
data_SrH4O3
_symmetry_space_group_name_H-M   'P 1'
_cell_length_a   3.69473907
_cell_length_b   6.20974867
_cell_length_c   6.84351082
_cell_angle_alpha   90.00000000
_cell_angle_beta   90.00000000
_cell_angle_gamma   90.17987840
_symmetry_Int_Tables_number   1
_chemical_formula_structural   SrH4O3
_chemical_formula_sum   'Sr2 H8 O6'
_cell_volume   157.01263942
_cell_formula_units_Z   2
loop_
 _symmetry_equiv_pos_site_id
 _symmetry_equiv_pos_as_xyz
  1  'x, y, z'
loop_
 _atom_site_type_symbol
 _atom_site_label
 _atom_site_symmetry_multiplicity
 _atom_site_fract_x
 _atom_site_fract_y
 _atom_site_fract_z
 _atom_site_occupancy
  Sr  Sr0  1  0.00746217  0.62202702  0.75424865  1
  Sr  Sr1  1  0.99253783  0.37797298  0.25424865  1
  H  H2  1  0.21425941  0.11865929  0.82058622  1
  H  H3  1  0.79482482  0.11287678  0.83256700  1
  H  H4  1  0.78574059  0.88134071  0.32058622  1
  H  H5  1  0.20517518  0.88712322  0.33256700  1
  H  H6  1  0.55114242  0.94669631  0.60352041  1
  H  H7  1  0.44885758  0.05330369  0.10352041  1
  H  H8  1  0.49781012  0.29077984  0.59259859  1
  H  H9  1  0.50218988  0.70922016  0.09259859  1
  O  O10  1  0.00741303  0.20678675  0.87459225  1
  O  O11  1  0.99258697  0.79321325  0.37459225  1
  O  O12  1  0.51322614  0.93094292  0.74355681  1
  O  O13  1  0.48677386  0.06905708  0.24355681  1
  O  O14  1  0.50127962  0.43624973  0.53793206  1
  O  O15  1  0.49872038  0.56375027  0.03793206  1
