# generated using pymatgen
data_Nd5Si4
_symmetry_space_group_name_H-M   'P 1'
_cell_length_a   7.77801105
_cell_length_b   7.97176758
_cell_length_c   15.18747709
_cell_angle_alpha   90.00009204
_cell_angle_beta   89.99997087
_cell_angle_gamma   90.00003024
_symmetry_Int_Tables_number   1
_chemical_formula_structural   Nd5Si4
_chemical_formula_sum   'Nd20 Si16'
_cell_volume   941.69186742
_cell_formula_units_Z   4
loop_
 _symmetry_equiv_pos_site_id
 _symmetry_equiv_pos_as_xyz
  1  'x, y, z'
loop_
 _atom_site_type_symbol
 _atom_site_label
 _atom_site_symmetry_multiplicity
 _atom_site_fract_x
 _atom_site_fract_y
 _atom_site_fract_z
 _atom_site_occupancy
  Nd  Nd0  1  0.13944863  0.51321675  0.75000088  1
  Nd  Nd1  1  0.81128315  0.31876649  0.87802661  1
  Nd  Nd2  1  0.46190439  0.68665043  0.60046590  1
  Nd  Nd3  1  0.96190397  0.81335135  0.60046502  1
  Nd  Nd4  1  0.18871717  0.68123133  0.37804188  1
  Nd  Nd5  1  0.68871863  0.81876998  0.37804089  1
  Nd  Nd6  1  0.31128447  0.18123074  0.62197460  1
  Nd  Nd7  1  0.18871860  0.68123281  0.12195720  1
  Nd  Nd8  1  0.03808937  0.18664382  0.39953608  1
  Nd  Nd9  1  0.31128445  0.18123209  0.87802678  1
  Nd  Nd10  1  0.86054847  0.48678402  0.24999872  1
  Nd  Nd11  1  0.36054888  0.01321663  0.24999920  1
  Nd  Nd12  1  0.53808969  0.31335703  0.10046286  1
  Nd  Nd13  1  0.81128488  0.31876748  0.62197551  1
  Nd  Nd14  1  0.96190927  0.81335381  0.89953736  1
  Nd  Nd15  1  0.46191208  0.68664074  0.89953720  1
  Nd  Nd16  1  0.03808821  0.18664246  0.10046180  1
  Nd  Nd17  1  0.68871792  0.81876853  0.12195675  1
  Nd  Nd18  1  0.63945156  0.98678298  0.75000130  1
  Nd  Nd19  1  0.53808992  0.31335625  0.39953507  1
  Si  Si20  1  0.48201602  0.59904568  0.24999960  1
  Si  Si21  1  0.25019132  0.37985076  0.24999926  1
  Si  Si22  1  0.86507504  0.52518801  0.04066540  1
  Si  Si23  1  0.51798784  0.40095697  0.75000022  1
  Si  Si24  1  0.63492731  0.02519014  0.54066347  1
  Si  Si25  1  0.01798837  0.09904322  0.75000044  1
  Si  Si26  1  0.74980517  0.62014443  0.75000028  1
  Si  Si27  1  0.75019061  0.12015002  0.25000005  1
  Si  Si28  1  0.36507191  0.97481230  0.04066541  1
  Si  Si29  1  0.98201574  0.90095511  0.24999975  1
  Si  Si30  1  0.36507479  0.97481194  0.45933442  1
  Si  Si31  1  0.63492923  0.02518879  0.95933470  1
  Si  Si32  1  0.13492502  0.47481066  0.54066525  1
  Si  Si33  1  0.13492899  0.47481129  0.95933527  1
  Si  Si34  1  0.86507494  0.52518858  0.45933446  1
  Si  Si35  1  0.24980398  0.87985640  0.75000044  1
