# generated using pymatgen
data_Mg(CoS2)4
_symmetry_space_group_name_H-M   'P 1'
_cell_length_a   7.05673109
_cell_length_b   7.05673086
_cell_length_c   7.05673196
_cell_angle_alpha   56.43443045
_cell_angle_beta   56.43442511
_cell_angle_gamma   56.43443143
_symmetry_Int_Tables_number   1
_chemical_formula_structural   Mg(CoS2)4
_chemical_formula_sum   'Mg1 Co4 S8'
_cell_volume   227.99792822
_cell_formula_units_Z   1
loop_
 _symmetry_equiv_pos_site_id
 _symmetry_equiv_pos_as_xyz
  1  'x, y, z'
loop_
 _atom_site_type_symbol
 _atom_site_label
 _atom_site_symmetry_multiplicity
 _atom_site_fract_x
 _atom_site_fract_y
 _atom_site_fract_z
 _atom_site_occupancy
  Mg  Mg0  1  0.50000000  0.50000100  0.49999900  1
  Co  Co1  1  0.50000100  0.99999900  0.50000100  1
  Co  Co2  1  0.99999900  0.50000000  0.50000100  1
  Co  Co3  1  0.50000000  0.50000000  0.00000000  1
  Co  Co4  1  0.00000000  0.00000000  0.00000000  1
  S  S5  1  0.76429467  0.27076824  0.76429466  1
  S  S6  1  0.23570433  0.23570533  0.72923176  1
  S  S7  1  0.23570433  0.72923276  0.23570434  1
  S  S8  1  0.72923076  0.23570533  0.23570534  1
  S  S9  1  0.26629450  0.26629550  0.26629450  1
  S  S10  1  0.73370550  0.73370550  0.73370550  1
  S  S11  1  0.27076924  0.76429567  0.76429466  1
  S  S12  1  0.76429567  0.76429567  0.27076824  1
