# generated using pymatgen
data_BaCa(CO3)2
_symmetry_space_group_name_H-M   'P 1'
_cell_length_a   5.30128387
_cell_length_b   6.63415126
_cell_length_c   8.25831740
_cell_angle_alpha   105.95121623
_cell_angle_beta   90.00000000
_cell_angle_gamma   90.00000000
_symmetry_Int_Tables_number   1
_chemical_formula_structural   BaCa(CO3)2
_chemical_formula_sum   'Ba2 Ca2 C4 O12'
_cell_volume   279.25791914
_cell_formula_units_Z   2
loop_
 _symmetry_equiv_pos_site_id
 _symmetry_equiv_pos_as_xyz
  1  'x, y, z'
loop_
 _atom_site_type_symbol
 _atom_site_label
 _atom_site_symmetry_multiplicity
 _atom_site_fract_x
 _atom_site_fract_y
 _atom_site_fract_z
 _atom_site_occupancy
  C  C0  1  0.22420651  0.74792084  0.61515987  1
  C  C1  1  0.72420651  0.25207916  0.38484013  1
  C  C2  1  0.72518457  0.24917389  0.89492830  1
  C  C3  1  0.22518457  0.75082611  0.10507170  1
  O  O4  1  0.93504087  0.15252679  0.39423433  1
  O  O5  1  0.43504087  0.84747321  0.60576567  1
  O  O6  1  0.51358193  0.15201639  0.39390326  1
  O  O7  1  0.01358193  0.84798361  0.60609674  1
  O  O8  1  0.22423979  0.85958659  0.99716452  1
  O  O9  1  0.72423979  0.14041341  0.00283548  1
  O  O10  1  0.43763092  0.69011154  0.15573413  1
  O  O11  1  0.93763092  0.30988846  0.84426587  1
  O  O12  1  0.01378522  0.69042140  0.15729422  1
  O  O13  1  0.51378522  0.30957860  0.84270578  1
  O  O14  1  0.72389217  0.43424850  0.36070794  1
  O  O15  1  0.22389217  0.56575150  0.63929206  1
  Ca  Ca16  1  0.22452282  0.19885357  0.62207573  1
  Ca  Ca17  1  0.72452282  0.80114643  0.37792427  1
  Ba  Ba18  1  0.72491521  0.71383604  0.85496692  1
  Ba  Ba19  1  0.22491521  0.28616396  0.14503308  1
