# generated using pymatgen
data_MgMn3(CuO4)2
_symmetry_space_group_name_H-M   'P 1'
_cell_length_a   8.45519773
_cell_length_b   8.45519773
_cell_length_c   8.45519773
_cell_angle_alpha   90.00000000
_cell_angle_beta   90.00000000
_cell_angle_gamma   90.00000000
_symmetry_Int_Tables_number   1
_chemical_formula_structural   MgMn3(CuO4)2
_chemical_formula_sum   'Mg4 Mn12 Cu8 O32'
_cell_volume   604.46520276
_cell_formula_units_Z   4
loop_
 _symmetry_equiv_pos_site_id
 _symmetry_equiv_pos_as_xyz
  1  'x, y, z'
loop_
 _atom_site_type_symbol
 _atom_site_label
 _atom_site_symmetry_multiplicity
 _atom_site_fract_x
 _atom_site_fract_y
 _atom_site_fract_z
 _atom_site_occupancy
  Mg  Mg0  1  0.37500000  0.12500000  0.87500000  1
  Mg  Mg1  1  0.12500000  0.87500000  0.37500000  1
  Mg  Mg2  1  0.87500000  0.37500000  0.12500000  1
  Mg  Mg3  1  0.62500000  0.62500000  0.62500000  1
  Mn  Mn4  1  0.87139317  0.12500000  0.37860683  1
  Mn  Mn5  1  0.37500000  0.62139317  0.37139317  1
  Mn  Mn6  1  0.87500000  0.87860683  0.62860683  1
  Mn  Mn7  1  0.37139317  0.37500000  0.62139317  1
  Mn  Mn8  1  0.12139317  0.12860683  0.62500000  1
  Mn  Mn9  1  0.12860683  0.62500000  0.12139317  1
  Mn  Mn10  1  0.62139317  0.37139317  0.37500000  1
  Mn  Mn11  1  0.62860683  0.87500000  0.87860683  1
  Mn  Mn12  1  0.12500000  0.37860683  0.87139317  1
  Mn  Mn13  1  0.62500000  0.12139317  0.12860683  1
  Mn  Mn14  1  0.37860683  0.87139317  0.12500000  1
  Mn  Mn15  1  0.87860683  0.62860683  0.87500000  1
  Cu  Cu16  1  0.99318441  0.50681559  0.49318441  1
  Cu  Cu17  1  0.74318441  0.25681559  0.75681559  1
  Cu  Cu18  1  0.25681559  0.75681559  0.74318441  1
  Cu  Cu19  1  0.00681559  0.00681559  0.00681559  1
  Cu  Cu20  1  0.50681559  0.49318441  0.99318441  1
  Cu  Cu21  1  0.75681559  0.74318441  0.25681559  1
  Cu  Cu22  1  0.49318441  0.99318441  0.50681559  1
  Cu  Cu23  1  0.24318441  0.24318441  0.24318441  1
  O  O24  1  0.10989909  0.89681339  0.62185649  1
  O  O25  1  0.60318661  0.37814351  0.60989909  1
  O  O26  1  0.14681339  0.85989909  0.12814351  1
  O  O27  1  0.89681339  0.62185649  0.10989909  1
  O  O28  1  0.85989909  0.12814351  0.14681339  1
  O  O29  1  0.10318661  0.12185649  0.39010091  1
  O  O30  1  0.87185649  0.64681339  0.64010091  1
  O  O31  1  0.12185649  0.39010091  0.10318661  1
  O  O32  1  0.13336760  0.36663240  0.63336760  1
  O  O33  1  0.64681339  0.64010091  0.87185649  1
  O  O34  1  0.38336760  0.38336760  0.38336760  1
  O  O35  1  0.88336760  0.11663240  0.61663240  1
  O  O36  1  0.36663240  0.63336760  0.13336760  1
  O  O37  1  0.37814351  0.60989909  0.60318661  1
  O  O38  1  0.89010091  0.39681339  0.87814351  1
  O  O39  1  0.62185649  0.10989909  0.89681339  1
  O  O40  1  0.64010091  0.87185649  0.64681339  1
  O  O41  1  0.61663240  0.88336760  0.11663240  1
  O  O42  1  0.11663240  0.61663240  0.88336760  1
  O  O43  1  0.85318661  0.35989909  0.37185649  1
  O  O44  1  0.60989909  0.60318661  0.37814351  1
  O  O45  1  0.87814351  0.89010091  0.39681339  1
  O  O46  1  0.63336760  0.13336760  0.36663240  1
  O  O47  1  0.86663240  0.86663240  0.86663240  1
  O  O48  1  0.14010091  0.62814351  0.35318661  1
  O  O49  1  0.39681339  0.87814351  0.89010091  1
  O  O50  1  0.35989909  0.37185649  0.85318661  1
  O  O51  1  0.37185649  0.85318661  0.35989909  1
  O  O52  1  0.62814351  0.35318661  0.14010091  1
  O  O53  1  0.12814351  0.14681339  0.85989909  1
  O  O54  1  0.35318661  0.14010091  0.62814351  1
  O  O55  1  0.39010091  0.10318661  0.12185649  1
