# generated using pymatgen
data_BaNa4Cu3F12
_symmetry_space_group_name_H-M   'P 1'
_cell_length_a   14.07799914
_cell_length_b   14.07799945
_cell_length_c   14.07799967
_cell_angle_alpha   109.47121950
_cell_angle_beta   109.47121995
_cell_angle_gamma   109.47122089
_symmetry_Int_Tables_number   1
_chemical_formula_structural   BaNa4Cu3F12
_chemical_formula_sum   'Ba8 Na32 Cu24 F96'
_cell_volume   2147.83515486
_cell_formula_units_Z   8
loop_
 _symmetry_equiv_pos_site_id
 _symmetry_equiv_pos_as_xyz
  1  'x, y, z'
loop_
 _atom_site_type_symbol
 _atom_site_label
 _atom_site_symmetry_multiplicity
 _atom_site_fract_x
 _atom_site_fract_y
 _atom_site_fract_z
 _atom_site_occupancy
  Ba  Ba0  1  0.50000000  0.50000000  0.00000000  1
  Ba  Ba1  1  0.00000000  0.00000000  0.00000000  1
  Ba  Ba2  1  0.50000000  0.00000000  0.50000000  1
  Ba  Ba3  1  0.50000000  0.00000000  0.00000000  1
  Ba  Ba4  1  0.00000000  0.50000000  0.00000000  1
  Ba  Ba5  1  0.00000000  0.50000000  0.50000000  1
  Ba  Ba6  1  0.50000000  0.50000000  0.50000000  1
  Ba  Ba7  1  0.00000000  0.00000000  0.50000000  1
  Na  Na8  1  0.25189569  0.25189569  0.25189569  1
  Na  Na9  1  0.52446225  0.25000000  0.77446225  1
  Na  Na10  1  1.00000000  0.75189569  0.50000000  1
  Na  Na11  1  0.74810431  0.74810431  0.74810431  1
  Na  Na12  1  0.47553775  0.75000000  0.22553775  1
  Na  Na13  1  0.25000000  0.50445976  0.25445976  1
  Na  Na14  1  0.00000000  0.24810431  0.50000000  1
  Na  Na15  1  0.50000000  1.00000000  0.75189569  1
  Na  Na16  1  0.25000000  0.00445976  0.75445976  1
  Na  Na17  1  0.00445976  0.75445976  0.25000000  1
  Na  Na18  1  0.02446225  0.25000000  0.27446225  1
  Na  Na19  1  0.75000000  0.99554024  0.24554024  1
  Na  Na20  1  0.22553775  0.47553775  0.75000000  1
  Na  Na21  1  0.74554024  0.75000000  0.49554024  1
  Na  Na22  1  0.72553775  0.97553775  0.75000000  1
  Na  Na23  1  0.25000000  0.27446225  0.02446225  1
  Na  Na24  1  0.27446225  0.02446225  0.25000000  1
  Na  Na25  1  0.50000000  0.00000000  0.24810431  1
  Na  Na26  1  0.24554024  0.75000000  0.99554024  1
  Na  Na27  1  0.99554024  0.24554024  0.75000000  1
  Na  Na28  1  0.50445976  0.25445976  0.25000000  1
  Na  Na29  1  0.49554024  0.74554024  0.75000000  1
  Na  Na30  1  0.75000000  0.22553775  0.47553775  1
  Na  Na31  1  0.24810431  0.50000000  1.00000000  1
  Na  Na32  1  0.75189569  0.50000000  0.00000000  1
  Na  Na33  1  0.75445976  0.25000000  0.00445976  1
  Na  Na34  1  0.77446225  0.52446225  0.25000000  1
  Na  Na35  1  0.25000000  0.77446225  0.52446225  1
  Na  Na36  1  0.25445976  0.25000000  0.50445976  1
  Na  Na37  1  0.75000000  0.72553775  0.97553775  1
  Na  Na38  1  0.97553775  0.75000000  0.72553775  1
  Na  Na39  1  0.75000000  0.49554024  0.74554024  1
  Cu  Cu40  1  0.24991119  0.50114539  0.50141870  1
  Cu  Cu41  1  0.24849250  0.74876580  0.74991119  1
  Cu  Cu42  1  0.50141870  0.24991119  0.50114539  1
  Cu  Cu43  1  0.75150750  0.25123420  0.25008881  1
  Cu  Cu44  1  0.00027330  0.99885461  0.24876580  1
  Cu  Cu45  1  0.75008881  0.49885461  0.49858130  1
  Cu  Cu46  1  0.00114539  0.75123420  0.99972670  1
  Cu  Cu47  1  0.99885461  0.24876580  0.00027330  1
  Cu  Cu48  1  0.49972670  0.74849250  0.99858130  1
  Cu  Cu49  1  0.75123420  0.99972670  0.00114539  1
  Cu  Cu50  1  0.74849250  0.99858130  0.49972670  1
  Cu  Cu51  1  0.50027330  0.25150750  0.00141870  1
  Cu  Cu52  1  0.00141870  0.50027330  0.25150750  1
  Cu  Cu53  1  0.24876580  0.00027330  0.99885461  1
  Cu  Cu54  1  0.74991119  0.24849250  0.74876580  1
  Cu  Cu55  1  0.99858130  0.49972670  0.74849250  1
  Cu  Cu56  1  0.50114539  0.50141870  0.24991119  1
  Cu  Cu57  1  0.49885461  0.49858130  0.75008881  1
  Cu  Cu58  1  0.49858130  0.75008881  0.49885461  1
  Cu  Cu59  1  0.99972670  0.00114539  0.75123420  1
  Cu  Cu60  1  0.25008881  0.75150750  0.25123420  1
  Cu  Cu61  1  0.25150750  0.00141870  0.50027330  1
  Cu  Cu62  1  0.74876580  0.74991119  0.24849250  1
  Cu  Cu63  1  0.25123420  0.25008881  0.75150750  1
  F  F64  1  0.05183172  0.13876725  0.39212705  1
  F  F65  1  0.36123275  0.41306447  0.25335980  1
  F  F66  1  0.13876725  0.39212705  0.05183172  1
  F  F67  1  0.89565661  0.26225239  0.34775874  1
  F  F68  1  0.54818394  0.65438524  0.41676686  1
  F  F69  1  0.65970467  0.10787295  0.24664020  1
  F  F70  1  0.39565661  0.04789787  0.63340423  1
  F  F71  1  0.65918221  0.91622148  0.55476402  1
  F  F72  1  0.44523598  0.34081779  0.08377852  1
  F  F73  1  0.76238162  0.84561476  0.39379869  1
  F  F74  1  0.75703927  0.36145746  0.41622148  1
  F  F75  1  0.08323314  0.73761838  0.13141708  1
  F  F76  1  0.58377852  0.24296073  0.63854254  1
  F  F77  1  0.55183172  0.15970467  0.91306447  1
  F  F78  1  0.73774761  0.65224126  0.10434339  1
  F  F79  1  0.65224126  0.10434339  0.73774761  1
  F  F80  1  0.55476402  0.65918221  0.91622148  1
  F  F81  1  0.86858292  0.91676686  0.26238162  1
  F  F82  1  0.73761838  0.13141708  0.08323314  1
  F  F83  1  0.39212705  0.05183172  0.13876725  1
  F  F84  1  0.13854254  0.89558181  0.05476402  1
  F  F85  1  0.60787295  0.94816828  0.86123275  1
  F  F86  1  0.34081779  0.08377852  0.44523598  1
  F  F87  1  0.58550635  0.45210213  0.84775874  1
  F  F88  1  0.60434339  0.95210213  0.36659577  1
  F  F89  1  0.54789787  0.15224126  0.41449365  1
  F  F90  1  0.84775874  0.58550635  0.45210213  1
  F  F91  1  0.89212705  0.75335980  0.34029533  1
  F  F92  1  0.86659577  0.91449365  0.76225239  1
  F  F93  1  0.25335980  0.36123275  0.41306447  1
  F  F94  1  0.05476402  0.13854254  0.89558181  1
  F  F95  1  0.10441819  0.94523598  0.86145746  1
  F  F96  1  0.65438524  0.41676686  0.54818394  1
  F  F97  1  0.36145746  0.41622148  0.75703927  1
  F  F98  1  0.15970467  0.91306447  0.55183172  1
  F  F99  1  0.41676686  0.54818394  0.65438524  1
  F  F100  1  0.13141708  0.08323314  0.73761838  1
  F  F101  1  0.15918221  0.60441819  0.74296073  1
  F  F102  1  0.76225239  0.86659577  0.91449365  1
  F  F103  1  0.41306447  0.25335980  0.36123275  1
  F  F104  1  0.86145746  0.10441819  0.94523598  1
  F  F105  1  0.84029533  0.08693553  0.44816828  1
  F  F106  1  0.84081779  0.39558181  0.25703927  1
  F  F107  1  0.60620131  0.23761838  0.15438524  1
  F  F108  1  0.08550635  0.23774761  0.13340423  1
  F  F109  1  0.10620131  0.95181606  0.36858292  1
  F  F110  1  0.10434339  0.73774761  0.65224126  1
  F  F111  1  0.04818394  0.63141708  0.89379869  1
  F  F112  1  0.24296073  0.63854254  0.58377852  1
  F  F113  1  0.45210213  0.84775874  0.58550635  1
  F  F114  1  0.08377852  0.44523598  0.34081779  1
  F  F115  1  0.10787295  0.24664020  0.65970467  1
  F  F116  1  0.04789787  0.63340423  0.39565661  1
  F  F117  1  0.23761838  0.15438524  0.60620131  1
  F  F118  1  0.26225239  0.34775874  0.89565661  1
  F  F119  1  0.91306447  0.55183172  0.15970467  1
  F  F120  1  0.25703927  0.84081779  0.39558181  1
  F  F121  1  0.63876725  0.58693553  0.74664020  1
  F  F122  1  0.15438524  0.60620131  0.23761838  1
  F  F123  1  0.94816828  0.86123275  0.60787295  1
  F  F124  1  0.75335980  0.34029533  0.89212705  1
  F  F125  1  0.58323314  0.45181606  0.34561476  1
  F  F126  1  0.63854254  0.58377852  0.24296073  1
  F  F127  1  0.08693553  0.44816828  0.84029533  1
  F  F128  1  0.34561476  0.58323314  0.45181606  1
  F  F129  1  0.39558181  0.25703927  0.84081779  1
  F  F130  1  0.91449365  0.76225239  0.86659577  1
  F  F131  1  0.36858292  0.10620131  0.95181606  1
  F  F132  1  0.94523598  0.86145746  0.10441819  1
  F  F133  1  0.95210213  0.36659577  0.60434339  1
  F  F134  1  0.89558181  0.05476402  0.13854254  1
  F  F135  1  0.58693553  0.74664020  0.63876725  1
  F  F136  1  0.34775874  0.89565661  0.26225239  1
  F  F137  1  0.24664020  0.65970467  0.10787295  1
  F  F138  1  0.45181606  0.34561476  0.58323314  1
  F  F139  1  0.91676686  0.26238162  0.86858292  1
  F  F140  1  0.34029533  0.89212705  0.75335980  1
  F  F141  1  0.84561476  0.39379869  0.76238162  1
  F  F142  1  0.13340423  0.08550635  0.23774761  1
  F  F143  1  0.89379869  0.04818394  0.63141708  1
  F  F144  1  0.15224126  0.41449365  0.54789787  1
  F  F145  1  0.36659577  0.60434339  0.95210213  1
  F  F146  1  0.74296073  0.15918221  0.60441819  1
  F  F147  1  0.95181606  0.36858292  0.10620131  1
  F  F148  1  0.74664020  0.63876725  0.58693553  1
  F  F149  1  0.41449365  0.54789787  0.15224126  1
  F  F150  1  0.63141708  0.89379869  0.04818394  1
  F  F151  1  0.60441819  0.74296073  0.15918221  1
  F  F152  1  0.86123275  0.60787295  0.94816828  1
  F  F153  1  0.39379869  0.76238162  0.84561476  1
  F  F154  1  0.63340423  0.39565661  0.04789787  1
  F  F155  1  0.26238162  0.86858292  0.91676686  1
  F  F156  1  0.91622148  0.55476402  0.65918221  1
  F  F157  1  0.41622148  0.75703927  0.36145746  1
  F  F158  1  0.44816828  0.84029533  0.08693553  1
  F  F159  1  0.23774761  0.13340423  0.08550635  1
