# generated using pymatgen
data_Fe7(P2O7)4
_symmetry_space_group_name_H-M   'P 1'
_cell_length_a   6.53016737
_cell_length_b   6.53016663
_cell_length_c   23.95393424
_cell_angle_alpha   90.00000000
_cell_angle_beta   90.00000000
_cell_angle_gamma   97.93529252
_symmetry_Int_Tables_number   1
_chemical_formula_structural   Fe7(P2O7)4
_chemical_formula_sum   'Fe14 P16 O56'
_cell_volume   1011.68859300
_cell_formula_units_Z   2
loop_
 _symmetry_equiv_pos_site_id
 _symmetry_equiv_pos_as_xyz
  1  'x, y, z'
loop_
 _atom_site_type_symbol
 _atom_site_label
 _atom_site_symmetry_multiplicity
 _atom_site_fract_x
 _atom_site_fract_y
 _atom_site_fract_z
 _atom_site_occupancy
  Fe  Fe0  1  0.30757007  0.30757007  0.50000000  1
  Fe  Fe1  1  0.07125050  0.07125050  0.00000000  1
  Fe  Fe2  1  0.69242993  0.69242993  0.00000000  1
  Fe  Fe3  1  0.96402440  0.68032136  0.63761027  1
  Fe  Fe4  1  0.68032136  0.96402440  0.36238973  1
  Fe  Fe5  1  0.28540360  0.58625174  0.37621101  1
  Fe  Fe6  1  0.31967864  0.03597560  0.86238973  1
  Fe  Fe7  1  0.92874950  0.92874950  0.50000000  1
  Fe  Fe8  1  0.71459640  0.41374826  0.87621101  1
  Fe  Fe9  1  0.03597560  0.31967864  0.13761027  1
  Fe  Fe10  1  0.72079865  0.27920135  0.25000000  1
  Fe  Fe11  1  0.27920135  0.72079865  0.75000000  1
  Fe  Fe12  1  0.41374826  0.71459640  0.12378899  1
  Fe  Fe13  1  0.58625174  0.28540360  0.62378899  1
  P  P14  1  0.47612849  0.75980917  0.61989150  1
  P  P15  1  0.07384174  0.17836999  0.62413300  1
  P  P16  1  0.75980917  0.47612849  0.38010850  1
  P  P17  1  0.18960422  0.59509032  0.00404821  1
  P  P18  1  0.70177971  0.77647182  0.23300800  1
  P  P19  1  0.22352818  0.29822029  0.26699200  1
  P  P20  1  0.59509032  0.18960422  0.99595179  1
  P  P21  1  0.52387151  0.24019083  0.11989150  1
  P  P22  1  0.29822029  0.22352818  0.73300800  1
  P  P23  1  0.81039578  0.40490968  0.50404821  1
  P  P24  1  0.82163001  0.92615826  0.87586700  1
  P  P25  1  0.24019083  0.52387151  0.88010850  1
  P  P26  1  0.17836999  0.07384174  0.37586700  1
  P  P27  1  0.92615826  0.82163001  0.12413300  1
  P  P28  1  0.77647182  0.70177971  0.76699200  1
  P  P29  1  0.40490968  0.81039578  0.49595179  1
  O  O30  1  0.98392768  0.57247372  0.37966518  1
  O  O31  1  0.72103476  0.72453047  0.90472207  1
  O  O32  1  0.29317289  0.71637186  0.84419957  1
  O  O33  1  0.95631748  0.70267895  0.72539032  1
  O  O34  1  0.36415857  0.39086234  0.12907478  1
  O  O35  1  0.77952152  0.59178733  0.25818925  1
  O  O36  1  0.22047848  0.40821267  0.75818925  1
  O  O37  1  0.01607232  0.42752628  0.87966518  1
  O  O38  1  0.04368252  0.29732105  0.22539032  1
  O  O39  1  0.63584143  0.60913766  0.62907478  1
  O  O40  1  0.50299319  0.27016008  0.70095535  1
  O  O41  1  0.29378655  0.60432481  0.94329667  1
  O  O42  1  0.09896416  0.37900485  0.02126665  1
  O  O43  1  0.40821267  0.22047848  0.24181075  1
  O  O44  1  0.74258921  0.02560048  0.99650760  1
  O  O45  1  0.70682711  0.28362814  0.34419957  1
  O  O46  1  0.08763598  0.66782525  0.12731686  1
  O  O47  1  0.27896524  0.27546953  0.40472207  1
  O  O48  1  0.27546953  0.27896524  0.59527793  1
  O  O49  1  0.39086234  0.36415857  0.87092522  1
  O  O50  1  0.38461676  0.68100991  0.03838160  1
  O  O51  1  0.01039118  0.03034351  0.09775213  1
  O  O52  1  0.59178733  0.77952152  0.74181075  1
  O  O53  1  0.71637186  0.29317289  0.15580043  1
  O  O54  1  0.37900485  0.09896416  0.97873335  1
  O  O55  1  0.96965649  0.98960882  0.40224787  1
  O  O56  1  0.72983992  0.49700681  0.79904465  1
  O  O57  1  0.03034351  0.01039118  0.90224787  1
  O  O58  1  0.31899009  0.61538324  0.46161840  1
  O  O59  1  0.72453047  0.72103476  0.09527793  1
  O  O60  1  0.60913766  0.63584143  0.37092522  1
  O  O61  1  0.39567519  0.70621345  0.55670333  1
  O  O62  1  0.12390072  0.12828696  0.31326442  1
  O  O63  1  0.98960882  0.96965649  0.59775213  1
  O  O64  1  0.68100991  0.38461676  0.96161840  1
  O  O65  1  0.25741079  0.97439952  0.49650760  1
  O  O66  1  0.12828696  0.12390072  0.68673558  1
  O  O67  1  0.49700681  0.72983992  0.20095535  1
  O  O68  1  0.57247372  0.98392768  0.62033482  1
  O  O69  1  0.90103584  0.62099515  0.52126665  1
  O  O70  1  0.62099515  0.90103584  0.47873335  1
  O  O71  1  0.28362814  0.70682711  0.65580043  1
  O  O72  1  0.70621345  0.39567519  0.44329667  1
  O  O73  1  0.60432481  0.29378655  0.05670333  1
  O  O74  1  0.97439952  0.25741079  0.50349240  1
  O  O75  1  0.61538324  0.31899009  0.53838160  1
  O  O76  1  0.02560048  0.74258921  0.00349240  1
  O  O77  1  0.29732105  0.04368252  0.77460968  1
  O  O78  1  0.91236402  0.33217475  0.62731686  1
  O  O79  1  0.66782525  0.08763598  0.87268314  1
  O  O80  1  0.87609928  0.87171304  0.81326442  1
  O  O81  1  0.42752628  0.01607232  0.12033482  1
  O  O82  1  0.27016008  0.50299319  0.29904465  1
  O  O83  1  0.70267895  0.95631748  0.27460968  1
  O  O84  1  0.87171304  0.87609928  0.18673558  1
  O  O85  1  0.33217475  0.91236402  0.37268314  1
