# generated using pymatgen
data_Mn7(PbO5)3
_symmetry_space_group_name_H-M   'P 1'
_cell_length_a   10.27942869
_cell_length_b   10.27942834
_cell_length_c   13.83318170
_cell_angle_alpha   90.00000000
_cell_angle_beta   90.00000000
_cell_angle_gamma   120.70680596
_symmetry_Int_Tables_number   1
_chemical_formula_structural   Mn7(PbO5)3
_chemical_formula_sum   'Mn28 Pb12 O60'
_cell_volume   1256.76255063
_cell_formula_units_Z   4
loop_
 _symmetry_equiv_pos_site_id
 _symmetry_equiv_pos_as_xyz
  1  'x, y, z'
loop_
 _atom_site_type_symbol
 _atom_site_label
 _atom_site_symmetry_multiplicity
 _atom_site_fract_x
 _atom_site_fract_y
 _atom_site_fract_z
 _atom_site_occupancy
  Mn  Mn0  1  0.83092900  0.66517672  0.50009628  1
  Mn  Mn1  1  0.83092900  0.66517672  0.99990372  1
  Mn  Mn2  1  0.66931048  0.33657214  0.64668314  1
  Mn  Mn3  1  0.16620272  0.83379728  0.50000000  1
  Mn  Mn4  1  0.33068952  0.66342786  0.35331686  1
  Mn  Mn5  1  0.16907100  0.33482328  0.49990372  1
  Mn  Mn6  1  0.50000000  0.00000000  0.50000000  1
  Mn  Mn7  1  0.66931048  0.33657214  0.85331686  1
  Mn  Mn8  1  0.16907100  0.33482328  0.00009628  1
  Mn  Mn9  1  0.83379728  0.16620272  0.00000000  1
  Mn  Mn10  1  0.50000000  0.50000000  0.50000000  1
  Mn  Mn11  1  0.50000000  0.50000000  0.00000000  1
  Mn  Mn12  1  0.33482328  0.16907100  0.49990372  1
  Mn  Mn13  1  0.00000000  0.50000000  0.50000000  1
  Mn  Mn14  1  0.33068952  0.66342786  0.14668314  1
  Mn  Mn15  1  0.33657214  0.66931048  0.64668314  1
  Mn  Mn16  1  0.00000000  0.50000000  0.00000000  1
  Mn  Mn17  1  0.00000000  0.00000000  0.00000000  1
  Mn  Mn18  1  0.66342786  0.33068952  0.35331686  1
  Mn  Mn19  1  0.33657214  0.66931048  0.85331686  1
  Mn  Mn20  1  0.66517672  0.83092900  0.50009628  1
  Mn  Mn21  1  0.50000000  0.00000000  0.00000000  1
  Mn  Mn22  1  0.33482328  0.16907100  0.00009628  1
  Mn  Mn23  1  0.66342786  0.33068952  0.14668314  1
  Mn  Mn24  1  0.16620272  0.83379728  0.00000000  1
  Mn  Mn25  1  0.66517672  0.83092900  0.99990372  1
  Mn  Mn26  1  0.83379728  0.16620272  0.50000000  1
  Mn  Mn27  1  0.00000000  0.00000000  0.50000000  1
  Pb  Pb28  1  0.72828729  0.99677202  0.25000000  1
  Pb  Pb29  1  0.73666640  0.73666640  0.75000000  1
  Pb  Pb30  1  0.00269534  0.61278318  0.75000000  1
  Pb  Pb31  1  0.60493082  0.60493082  0.25000000  1
  Pb  Pb32  1  0.26333360  0.26333360  0.25000000  1
  Pb  Pb33  1  0.99677202  0.72828729  0.25000000  1
  Pb  Pb34  1  0.27171271  0.00322798  0.75000000  1
  Pb  Pb35  1  0.38721682  0.99730466  0.25000000  1
  Pb  Pb36  1  0.00322798  0.27171271  0.75000000  1
  Pb  Pb37  1  0.99730466  0.38721682  0.25000000  1
  Pb  Pb38  1  0.61278318  0.00269534  0.75000000  1
  Pb  Pb39  1  0.39506918  0.39506918  0.75000000  1
  O  O40  1  0.66823360  0.51316569  0.07721047  1
  O  O41  1  0.00007239  0.16345647  0.42833390  1
  O  O42  1  0.35488511  0.83719324  0.75000000  1
  O  O43  1  0.16280676  0.64511489  0.25000000  1
  O  O44  1  0.00315887  0.32650783  0.92587442  1
  O  O45  1  0.48683431  0.33176640  0.57721047  1
  O  O46  1  0.53032896  0.18083916  0.75000000  1
  O  O47  1  0.33176640  0.48683431  0.57721047  1
  O  O48  1  -0.00007239  0.83654353  0.57166610  1
  O  O49  1  0.18083916  0.53032896  0.75000000  1
  O  O50  1  0.99684113  0.67349217  0.07412558  1
  O  O51  1  0.33176640  0.48683431  0.92278953  1
  O  O52  1  0.67271501  0.67271501  0.92551255  1
  O  O53  1  0.83654353  -0.00007239  0.57166610  1
  O  O54  1  0.83719324  0.35488511  0.75000000  1
  O  O55  1  0.99684113  0.67349217  0.42587442  1
  O  O56  1  0.16257569  0.48872526  0.07780601  1
  O  O57  1  0.83654353  -0.00007239  0.92833390  1
  O  O58  1  0.81916084  0.46967104  0.25000000  1
  O  O59  1  0.66823360  0.51316569  0.42278953  1
  O  O60  1  -0.00007239  0.83654353  0.92833390  1
  O  O61  1  0.51528350  0.34529348  0.25000000  1
  O  O62  1  0.67349217  0.99684113  0.07412558  1
  O  O63  1  0.16345647  0.00007239  0.42833390  1
  O  O64  1  0.00007239  0.16345647  0.07166610  1
  O  O65  1  0.32940164  0.84538865  0.42297107  1
  O  O66  1  0.48683431  0.33176640  0.92278953  1
  O  O67  1  0.16345647  0.00007239  0.07166610  1
  O  O68  1  0.48872526  0.16257569  0.07780601  1
  O  O69  1  0.84538865  0.32940164  0.07702893  1
  O  O70  1  0.83583203  0.83583203  0.42848396  1
  O  O71  1  0.51127474  0.83742431  0.57780601  1
  O  O72  1  0.48872526  0.16257569  0.42219399  1
  O  O73  1  0.51316569  0.66823360  0.07721047  1
  O  O74  1  0.84538865  0.32940164  0.42297107  1
  O  O75  1  0.83742431  0.51127474  0.92219399  1
  O  O76  1  0.46967104  0.81916084  0.25000000  1
  O  O77  1  0.32650783  0.00315887  0.57412558  1
  O  O78  1  0.15461135  0.67059836  0.57702893  1
  O  O79  1  0.67059836  0.15461135  0.57702893  1
  O  O80  1  0.32940164  0.84538865  0.07702893  1
  O  O81  1  0.16416797  0.16416797  0.57151604  1
  O  O82  1  0.00315887  0.32650783  0.57412558  1
  O  O83  1  0.32728499  0.32728499  0.42551255  1
  O  O84  1  0.64511489  0.16280676  0.25000000  1
  O  O85  1  0.34529348  0.51528350  0.25000000  1
  O  O86  1  0.51316569  0.66823360  0.42278953  1
  O  O87  1  0.83583203  0.83583203  0.07151604  1
  O  O88  1  0.16416797  0.16416797  0.92848396  1
  O  O89  1  0.67059836  0.15461135  0.92297107  1
  O  O90  1  0.65470652  0.48471650  0.75000000  1
  O  O91  1  0.15461135  0.67059836  0.92297107  1
  O  O92  1  0.32650783  0.00315887  0.92587442  1
  O  O93  1  0.67349217  0.99684113  0.42587442  1
  O  O94  1  0.83742431  0.51127474  0.57780601  1
  O  O95  1  0.48471650  0.65470652  0.75000000  1
  O  O96  1  0.51127474  0.83742431  0.92219399  1
  O  O97  1  0.67271501  0.67271501  0.57448745  1
  O  O98  1  0.16257569  0.48872526  0.42219399  1
  O  O99  1  0.32728499  0.32728499  0.07448745  1
