# generated using pymatgen
data_Sb8(Pb3S7)3
_symmetry_space_group_name_H-M   'P 1'
_cell_length_a   9.19865581
_cell_length_b   9.19865526
_cell_length_c   25.19915622
_cell_angle_alpha   98.31418167
_cell_angle_beta   99.75758028
_cell_angle_gamma   98.02435709
_symmetry_Int_Tables_number   1
_chemical_formula_structural   Sb8(Pb3S7)3
_chemical_formula_sum   'Sb16 Pb18 S42'
_cell_volume   2049.65019914
_cell_formula_units_Z   2
loop_
 _symmetry_equiv_pos_site_id
 _symmetry_equiv_pos_as_xyz
  1  'x, y, z'
loop_
 _atom_site_type_symbol
 _atom_site_label
 _atom_site_symmetry_multiplicity
 _atom_site_fract_x
 _atom_site_fract_y
 _atom_site_fract_z
 _atom_site_occupancy
  Sb  Sb0  1  0.50117177  0.53868553  0.92345053  1
  Sb  Sb1  1  0.66588085  0.10259414  0.12220246  1
  Sb  Sb2  1  0.30134135  0.84447363  0.47675167  1
  Sb  Sb3  1  0.12361153  0.71118991  0.31561355  1
  Sb  Sb4  1  0.11523501  0.57772124  0.57654947  1
  Sb  Sb5  1  0.33411915  0.89740586  0.87779754  1
  Sb  Sb6  1  0.10442365  0.19200202  0.81561355  1
  Sb  Sb7  1  0.69865865  0.15552637  0.52324833  1
  Sb  Sb8  1  0.89557635  0.80799798  0.18438645  1
  Sb  Sb9  1  0.48039168  0.54367840  0.37779754  1
  Sb  Sb10  1  0.86772196  0.82458968  0.02324833  1
  Sb  Sb11  1  0.13227804  0.17541032  0.97675167  1
  Sb  Sb12  1  0.87638847  0.28881009  0.68438645  1
  Sb  Sb13  1  0.49882823  0.46131447  0.07654947  1
  Sb  Sb14  1  0.88476499  0.42227876  0.42345053  1
  Sb  Sb15  1  0.51960832  0.45632160  0.62220246  1
  Pb  Pb16  1  0.43463555  0.78631742  0.19162655  1
  Pb  Pb17  1  0.50568219  0.90680738  0.63952464  1
  Pb  Pb18  1  0.94602043  0.50372697  0.90933104  1
  Pb  Pb19  1  0.23271726  0.13384245  0.13952464  1
  Pb  Pb20  1  0.29145017  0.54145017  0.75000000  1
  Pb  Pb21  1  0.70854983  0.45854983  0.25000000  1
  Pb  Pb22  1  0.31989892  0.80317897  0.01890842  1
  Pb  Pb23  1  0.28427055  0.30099050  0.48109158  1
  Pb  Pb24  1  0.90530913  0.75699100  0.69162655  1
  Pb  Pb25  1  0.90560406  0.96331060  0.40933104  1
  Pb  Pb26  1  0.76728274  0.86615755  0.86047536  1
  Pb  Pb27  1  0.05397957  0.49627303  0.09066896  1
  Pb  Pb28  1  0.68010108  0.19682103  0.98109158  1
  Pb  Pb29  1  0.09439594  0.03668940  0.59066896  1
  Pb  Pb30  1  0.71572945  0.69900950  0.51890842  1
  Pb  Pb31  1  0.49431781  0.09319262  0.36047536  1
  Pb  Pb32  1  0.56536445  0.21368258  0.80837345  1
  Pb  Pb33  1  0.09469087  0.24300900  0.30837345  1
  S  S34  1  0.58327651  0.31787362  0.45544977  1
  S  S35  1  0.25709935  0.22553040  0.74598945  1
  S  S36  1  0.85254825  0.51937745  0.59880251  1
  S  S37  1  0.20920996  0.06797913  0.39835542  1
  S  S38  1  0.96203714  0.19395915  0.50079387  1
  S  S39  1  0.73555628  0.38421508  0.13121119  1
  S  S40  1  0.47308390  0.89386708  0.80387281  1
  S  S41  1  0.80683472  0.53875673  0.00079387  1
  S  S42  1  0.97879373  0.16557704  0.04754683  1
  S  S43  1  0.39785923  0.72525774  0.31688926  1
  S  S44  1  0.26444372  0.61578492  0.86878881  1
  S  S45  1  0.85548455  0.10548455  0.75000000  1
  S  S46  1  0.83037629  0.18914546  0.89835542  1
  S  S47  1  0.19369957  0.78992738  0.65146511  1
  S  S48  1  0.61803021  0.93124690  0.45245317  1
  S  S49  1  0.74290065  0.77446960  0.25401055  1
  S  S50  1  0.03796286  0.80604085  0.49920613  1
  S  S51  1  0.02045905  0.48889010  0.24598945  1
  S  S52  1  0.80630043  0.21007262  0.34853489  1
  S  S53  1  0.36153773  0.45776554  0.15146511  1
  S  S54  1  0.42057494  0.25374574  0.90119749  1
  S  S55  1  0.79079004  0.93202087  0.60164458  1
  S  S56  1  0.63846227  0.54223446  0.84853489  1
  S  S57  1  0.57942506  0.74625426  0.09880251  1
  S  S58  1  0.19316528  0.46124327  0.99920613  1
  S  S59  1  0.14745175  0.48062255  0.40119749  1
  S  S60  1  0.58999427  0.66921109  0.69612719  1
  S  S61  1  0.24699611  0.39565491  0.63121119  1
  S  S62  1  0.75300389  0.60434509  0.36878881  1
  S  S63  1  0.60214077  0.27474226  0.68311074  1
  S  S64  1  0.36242384  0.12782674  0.04455023  1
  S  S65  1  0.97954095  0.51110990  0.75401055  1
  S  S66  1  0.16962371  0.81085454  0.10164458  1
  S  S67  1  0.38196979  0.06875310  0.54754683  1
  S  S68  1  0.41000573  0.33078891  0.30387281  1
  S  S69  1  0.41672349  0.68212638  0.54455023  1
  S  S70  1  0.02120627  0.83442296  0.95245317  1
  S  S71  1  0.14451545  0.89451545  0.25000000  1
  S  S72  1  0.90836847  0.08096996  0.18311074  1
  S  S73  1  0.52691610  0.10613292  0.19612719  1
  S  S74  1  0.09163153  0.91903004  0.81688926  1
  S  S75  1  0.63757616  0.87217326  0.95544977  1
