# generated using pymatgen
data_Yb23Mg4Cu7
_symmetry_space_group_name_H-M   'P 1'
_cell_length_a   10.08033576
_cell_length_b   10.08033553
_cell_length_c   23.17039357
_cell_angle_alpha   90.00000000
_cell_angle_beta   90.00000000
_cell_angle_gamma   120.00000076
_symmetry_Int_Tables_number   1
_chemical_formula_structural   Yb23Mg4Cu7
_chemical_formula_sum   'Yb46 Mg8 Cu14'
_cell_volume   2038.98497333
_cell_formula_units_Z   2
loop_
 _symmetry_equiv_pos_site_id
 _symmetry_equiv_pos_as_xyz
  1  'x, y, z'
loop_
 _atom_site_type_symbol
 _atom_site_label
 _atom_site_symmetry_multiplicity
 _atom_site_fract_x
 _atom_site_fract_y
 _atom_site_fract_z
 _atom_site_occupancy
  Yb  Yb0  1  0.79061453  0.20938547  0.97033434  1
  Yb  Yb1  1  0.07705387  0.53852694  0.33179402  1
  Yb  Yb2  1  0.87008101  0.12991899  0.38380122  1
  Yb  Yb3  1  0.92294613  0.46147306  0.66820598  1
  Yb  Yb4  1  0.66666700  0.33333300  0.38534809  1
  Yb  Yb5  1  0.46147306  0.53852694  0.33179402  1
  Yb  Yb6  1  0.66666700  0.33333300  0.11465191  1
  Yb  Yb7  1  0.74821889  0.87410945  0.25000000  1
  Yb  Yb8  1  0.12589055  0.25178111  0.25000000  1
  Yb  Yb9  1  0.87008101  0.74016203  0.38380122  1
  Yb  Yb10  1  0.53852694  0.07705387  0.83179402  1
  Yb  Yb11  1  0.12991899  0.25983797  0.61619878  1
  Yb  Yb12  1  0.20938547  0.41877093  0.02966566  1
  Yb  Yb13  1  0.12991899  0.87008101  0.61619878  1
  Yb  Yb14  1  0.87410945  0.12589055  0.75000000  1
  Yb  Yb15  1  0.41877093  0.20938547  0.97033434  1
  Yb  Yb16  1  0.74016203  0.87008101  0.88380122  1
  Yb  Yb17  1  0.87008101  0.74016203  0.11619878  1
  Yb  Yb18  1  0.20938547  0.41877093  0.47033434  1
  Yb  Yb19  1  0.58122907  0.79061453  0.47033434  1
  Yb  Yb20  1  0.25178111  0.12589055  0.75000000  1
  Yb  Yb21  1  0.46147306  0.92294613  0.16820598  1
  Yb  Yb22  1  0.20938547  0.79061453  0.47033434  1
  Yb  Yb23  1  0.12589055  0.87410945  0.25000000  1
  Yb  Yb24  1  0.46147306  0.53852694  0.16820598  1
  Yb  Yb25  1  0.33333300  0.66666700  0.61465191  1
  Yb  Yb26  1  0.74016203  0.87008101  0.61619878  1
  Yb  Yb27  1  0.46147306  0.92294613  0.33179402  1
  Yb  Yb28  1  0.41877093  0.20938547  0.52966566  1
  Yb  Yb29  1  0.20938547  0.79061453  0.02966566  1
  Yb  Yb30  1  0.25983797  0.12991899  0.11619878  1
  Yb  Yb31  1  0.12991899  0.87008101  0.88380122  1
  Yb  Yb32  1  0.58122907  0.79061453  0.02966566  1
  Yb  Yb33  1  0.53852694  0.07705387  0.66820598  1
  Yb  Yb34  1  0.25983797  0.12991899  0.38380122  1
  Yb  Yb35  1  0.92294613  0.46147306  0.83179402  1
  Yb  Yb36  1  0.87410945  0.74821889  0.75000000  1
  Yb  Yb37  1  0.87008101  0.12991899  0.11619878  1
  Yb  Yb38  1  0.07705387  0.53852694  0.16820598  1
  Yb  Yb39  1  0.33333300  0.66666700  0.88534809  1
  Yb  Yb40  1  0.53852694  0.46147306  0.83179402  1
  Yb  Yb41  1  0.12991899  0.25983797  0.88380122  1
  Yb  Yb42  1  0.53852694  0.46147306  0.66820598  1
  Yb  Yb43  1  0.79061453  0.20938547  0.52966566  1
  Yb  Yb44  1  0.79061453  0.58122907  0.97033434  1
  Yb  Yb45  1  0.79061453  0.58122907  0.52966566  1
  Mg  Mg46  1  0.00000000  0.00000000  0.50000000  1
  Mg  Mg47  1  0.77031741  0.22968259  0.25000000  1
  Mg  Mg48  1  0.54063482  0.77031741  0.75000000  1
  Mg  Mg49  1  0.22968259  0.77031741  0.75000000  1
  Mg  Mg50  1  0.77031741  0.54063482  0.25000000  1
  Mg  Mg51  1  0.22968259  0.45936518  0.75000000  1
  Mg  Mg52  1  0.45936518  0.22968259  0.25000000  1
  Mg  Mg53  1  0.00000000  0.00000000  0.00000000  1
  Cu  Cu54  1  0.52465855  0.47534145  0.05077767  1
  Cu  Cu55  1  0.52465855  0.47534145  0.44922233  1
  Cu  Cu56  1  0.52465855  0.04931710  0.44922233  1
  Cu  Cu57  1  0.52465855  0.04931710  0.05077767  1
  Cu  Cu58  1  0.47534145  0.52465855  0.94922233  1
  Cu  Cu59  1  0.47534145  0.95068290  0.55077767  1
  Cu  Cu60  1  0.95068290  0.47534145  0.44922233  1
  Cu  Cu61  1  0.95068290  0.47534145  0.05077767  1
  Cu  Cu62  1  0.66666700  0.33333300  0.75000000  1
  Cu  Cu63  1  0.04931710  0.52465855  0.55077767  1
  Cu  Cu64  1  0.47534145  0.95068290  0.94922233  1
  Cu  Cu65  1  0.47534145  0.52465855  0.55077767  1
  Cu  Cu66  1  0.04931710  0.52465855  0.94922233  1
  Cu  Cu67  1  0.33333300  0.66666700  0.25000000  1
