# generated using pymatgen
data_Al14Co5Si2
_symmetry_space_group_name_H-M   'P 1'
_cell_length_a   7.34671385
_cell_length_b   13.97897205
_cell_length_c   23.16811885
_cell_angle_alpha   90.00000000
_cell_angle_beta   90.00000000
_cell_angle_gamma   90.00000000
_symmetry_Int_Tables_number   1
_chemical_formula_structural   Al14Co5Si2
_chemical_formula_sum   'Al112 Co40 Si16'
_cell_volume   2379.35439718
_cell_formula_units_Z   8
loop_
 _symmetry_equiv_pos_site_id
 _symmetry_equiv_pos_as_xyz
  1  'x, y, z'
loop_
 _atom_site_type_symbol
 _atom_site_label
 _atom_site_symmetry_multiplicity
 _atom_site_fract_x
 _atom_site_fract_y
 _atom_site_fract_z
 _atom_site_occupancy
  Al  Al0  1  0.49014179  0.34741988  0.83987697  1
  Al  Al1  1  0.03174594  0.03917608  0.65913600  1
  Al  Al2  1  0.27503371  0.93371293  0.58185197  1
  Al  Al3  1  0.29112519  0.39181161  0.08326107  1
  Al  Al4  1  0.96825406  0.96082392  0.15913600  1
  Al  Al5  1  0.90436262  0.76383841  0.07903173  1
  Al  Al6  1  0.99014179  0.15258012  0.16012303  1
  Al  Al7  1  0.77503371  0.56628707  0.08185197  1
  Al  Al8  1  0.18846715  0.55863111  0.15202403  1
  Al  Al9  1  0.22496629  0.43371293  0.58185197  1
  Al  Al10  1  0.68846715  0.94136889  0.84797597  1
  Al  Al11  1  0.50985821  0.65258012  0.33987697  1
  Al  Al12  1  0.77503371  0.56628707  0.41814803  1
  Al  Al13  1  0.99014179  0.15258012  0.33987697  1
  Al  Al14  1  0.81153285  0.44136889  0.65202403  1
  Al  Al15  1  0.23159085  0.69357367  0.25000000  1
  Al  Al16  1  0.91028010  0.20278697  0.47499929  1
  Al  Al17  1  0.25340850  0.71042973  0.07124003  1
  Al  Al18  1  0.58971990  0.70278697  0.47499929  1
  Al  Al19  1  0.62589424  0.96504355  0.53047784  1
  Al  Al20  1  0.74659150  0.28957027  0.92875997  1
  Al  Al21  1  0.10251063  0.61826341  0.91948811  1
  Al  Al22  1  0.20887481  0.89181161  0.41673893  1
  Al  Al23  1  0.96825406  0.96082392  0.34086400  1
  Al  Al24  1  0.26020629  0.67774472  0.68826590  1
  Al  Al25  1  0.73979371  0.32225528  0.18826590  1
  Al  Al26  1  0.18846715  0.55863111  0.34797597  1
  Al  Al27  1  0.73979371  0.32225528  0.31173410  1
  Al  Al28  1  0.12589424  0.53495645  0.46952216  1
  Al  Al29  1  0.26840915  0.19357367  0.25000000  1
  Al  Al30  1  0.26020629  0.67774472  0.81173410  1
  Al  Al31  1  0.25340850  0.71042973  0.42875997  1
  Al  Al32  1  0.10251063  0.61826341  0.58051189  1
  Al  Al33  1  0.74659150  0.28957027  0.57124003  1
  Al  Al34  1  0.70887481  0.60818839  0.91673893  1
  Al  Al35  1  0.62589424  0.96504355  0.96952216  1
  Al  Al36  1  0.60774757  0.15282746  0.18727321  1
  Al  Al37  1  0.29112519  0.39181161  0.41673893  1
  Al  Al38  1  0.81153285  0.44136889  0.84797597  1
  Al  Al39  1  0.50985821  0.65258012  0.16012303  1
  Al  Al40  1  0.08971990  0.79721303  0.97499929  1
  Al  Al41  1  0.72496629  0.06628707  0.08185197  1
  Al  Al42  1  0.20887481  0.89181161  0.08326107  1
  Al  Al43  1  0.68846715  0.94136889  0.65202403  1
  Al  Al44  1  0.60251063  0.88173659  0.41948811  1
  Al  Al45  1  0.22496629  0.43371293  0.91814803  1
  Al  Al46  1  0.53174594  0.46082392  0.34086400  1
  Al  Al47  1  0.24659150  0.21042973  0.07124003  1
  Al  Al48  1  0.10774757  0.34717254  0.68727321  1
  Al  Al49  1  0.79112519  0.10818839  0.58326107  1
  Al  Al50  1  0.09395516  0.33778904  0.18584348  1
  Al  Al51  1  0.91971862  0.50706218  0.75000000  1
  Al  Al52  1  0.24659150  0.21042973  0.42875997  1
  Al  Al53  1  0.37410576  0.03495645  0.46952216  1
  Al  Al54  1  0.08028138  0.49293782  0.25000000  1
  Al  Al55  1  0.27503371  0.93371293  0.91814803  1
  Al  Al56  1  0.59395516  0.16221096  0.81415652  1
  Al  Al57  1  0.90436262  0.76383841  0.42096827  1
  Al  Al58  1  0.89225243  0.65282746  0.18727321  1
  Al  Al59  1  0.12589424  0.53495645  0.03047784  1
  Al  Al60  1  0.46825406  0.53917608  0.65913600  1
  Al  Al61  1  0.41028010  0.29721303  0.97499929  1
  Al  Al62  1  0.31153285  0.05863111  0.34797597  1
  Al  Al63  1  0.87410576  0.46504355  0.96952216  1
  Al  Al64  1  0.53174594  0.46082392  0.15913600  1
  Al  Al65  1  0.10774757  0.34717254  0.81272679  1
  Al  Al66  1  0.41971862  0.99293782  0.25000000  1
  Al  Al67  1  0.09395516  0.33778904  0.31415652  1
  Al  Al68  1  0.76020629  0.82225528  0.18826590  1
  Al  Al69  1  0.40436262  0.73616159  0.57903173  1
  Al  Al70  1  0.58028138  0.00706218  0.75000000  1
  Al  Al71  1  0.70887481  0.60818839  0.58326107  1
  Al  Al72  1  0.58971990  0.70278697  0.02500071  1
  Al  Al73  1  0.59563738  0.26383841  0.07903173  1
  Al  Al74  1  0.75340850  0.78957027  0.57124003  1
  Al  Al75  1  0.09563738  0.23616159  0.92096827  1
  Al  Al76  1  0.39748937  0.11826341  0.91948811  1
  Al  Al77  1  0.39225243  0.84717254  0.81272679  1
  Al  Al78  1  0.60251063  0.88173659  0.08051189  1
  Al  Al79  1  0.23979371  0.17774472  0.81173410  1
  Al  Al80  1  0.23979371  0.17774472  0.68826590  1
  Al  Al81  1  0.59563738  0.26383841  0.42096827  1
  Al  Al82  1  0.60774757  0.15282746  0.31272679  1
  Al  Al83  1  0.00985821  0.84741988  0.83987697  1
  Al  Al84  1  0.40604484  0.83778904  0.18584348  1
  Al  Al85  1  0.89748937  0.38173659  0.08051189  1
  Al  Al86  1  0.39748937  0.11826341  0.58051189  1
  Al  Al87  1  0.09563738  0.23616159  0.57903173  1
  Al  Al88  1  0.76840915  0.30642633  0.75000000  1
  Al  Al89  1  0.76020629  0.82225528  0.31173410  1
  Al  Al90  1  0.08971990  0.79721303  0.52500071  1
  Al  Al91  1  0.79112519  0.10818839  0.91673893  1
  Al  Al92  1  0.75340850  0.78957027  0.92875997  1
  Al  Al93  1  0.40436262  0.73616159  0.92096827  1
  Al  Al94  1  0.72496629  0.06628707  0.41814803  1
  Al  Al95  1  0.00985821  0.84741988  0.66012303  1
  Al  Al96  1  0.39225243  0.84717254  0.68727321  1
  Al  Al97  1  0.89748937  0.38173659  0.41948811  1
  Al  Al98  1  0.40604484  0.83778904  0.31415652  1
  Al  Al99  1  0.91028010  0.20278697  0.02500071  1
  Al  Al100  1  0.03174594  0.03917608  0.84086400  1
  Al  Al101  1  0.31153285  0.05863111  0.15202403  1
  Al  Al102  1  0.49014179  0.34741988  0.66012303  1
  Al  Al103  1  0.87410576  0.46504355  0.53047784  1
  Al  Al104  1  0.41028010  0.29721303  0.52500071  1
  Al  Al105  1  0.46825406  0.53917608  0.84086400  1
  Al  Al106  1  0.73159085  0.80642633  0.75000000  1
  Al  Al107  1  0.89225243  0.65282746  0.31272679  1
  Al  Al108  1  0.90604484  0.66221096  0.68584348  1
  Al  Al109  1  0.37410576  0.03495645  0.03047784  1
  Al  Al110  1  0.90604484  0.66221096  0.81415652  1
  Al  Al111  1  0.59395516  0.16221096  0.68584348  1
  Co  Co112  1  0.91968847  0.93981991  0.92408022  1
  Co  Co113  1  0.90317144  0.65435584  0.50226985  1
  Co  Co114  1  0.90240603  0.21230143  0.66268163  1
  Co  Co115  1  0.59682856  0.15435584  0.50226985  1
  Co  Co116  1  0.40317144  0.84564416  0.49773015  1
  Co  Co117  1  0.38445002  0.02024927  0.83303293  1
  Co  Co118  1  0.40240603  0.28769857  0.16268163  1
  Co  Co119  1  0.58031153  0.43981991  0.57591978  1
  Co  Co120  1  0.40317144  0.84564416  0.00226985  1
  Co  Co121  1  0.58031153  0.43981991  0.92408022  1
  Co  Co122  1  0.90569149  0.95459747  0.75000000  1
  Co  Co123  1  0.38445002  0.02024927  0.66696707  1
  Co  Co124  1  0.61711328  0.70502993  0.25000000  1
  Co  Co125  1  0.90317144  0.65435584  0.99773015  1
  Co  Co126  1  0.59682856  0.15435584  0.99773015  1
  Co  Co127  1  0.90240603  0.21230143  0.83731837  1
  Co  Co128  1  0.09682856  0.34564416  0.49773015  1
  Co  Co129  1  0.88288672  0.20502993  0.25000000  1
  Co  Co130  1  0.08031153  0.06018009  0.42408022  1
  Co  Co131  1  0.38288672  0.29497007  0.75000000  1
  Co  Co132  1  0.41968847  0.56018009  0.07591978  1
  Co  Co133  1  0.08031153  0.06018009  0.07591978  1
  Co  Co134  1  0.59430851  0.45459747  0.75000000  1
  Co  Co135  1  0.61554998  0.97975073  0.33303293  1
  Co  Co136  1  0.59759397  0.71230143  0.66268163  1
  Co  Co137  1  0.09430851  0.04540253  0.25000000  1
  Co  Co138  1  0.40240603  0.28769857  0.33731837  1
  Co  Co139  1  0.91968847  0.93981991  0.57591978  1
  Co  Co140  1  0.11554998  0.52024927  0.66696707  1
  Co  Co141  1  0.88445002  0.47975073  0.16696707  1
  Co  Co142  1  0.09682856  0.34564416  0.00226985  1
  Co  Co143  1  0.11554998  0.52024927  0.83303293  1
  Co  Co144  1  0.88445002  0.47975073  0.33303293  1
  Co  Co145  1  0.59759397  0.71230143  0.83731837  1
  Co  Co146  1  0.61554998  0.97975073  0.16696707  1
  Co  Co147  1  0.41968847  0.56018009  0.42408022  1
  Co  Co148  1  0.09759397  0.78769857  0.16268163  1
  Co  Co149  1  0.40569149  0.54540253  0.25000000  1
  Co  Co150  1  0.09759397  0.78769857  0.33731837  1
  Co  Co151  1  0.11711328  0.79497007  0.75000000  1
  Si  Si152  1  0.41506189  0.56291639  0.97212934  1
  Si  Si153  1  0.41506189  0.56291639  0.52787066  1
  Si  Si154  1  0.38238733  0.37606772  0.25000000  1
  Si  Si155  1  0.78454362  0.02803194  0.25000000  1
  Si  Si156  1  0.11761267  0.87606772  0.25000000  1
  Si  Si157  1  0.28454362  0.47196806  0.75000000  1
  Si  Si158  1  0.71545638  0.52803194  0.25000000  1
  Si  Si159  1  0.08493811  0.06291639  0.97212934  1
  Si  Si160  1  0.58493811  0.43708361  0.47212934  1
  Si  Si161  1  0.61761267  0.62393228  0.75000000  1
  Si  Si162  1  0.91506189  0.93708361  0.02787066  1
  Si  Si163  1  0.58493811  0.43708361  0.02787066  1
  Si  Si164  1  0.88238733  0.12393228  0.75000000  1
  Si  Si165  1  0.21545638  0.97196806  0.75000000  1
  Si  Si166  1  0.91506189  0.93708361  0.47212934  1
  Si  Si167  1  0.08493811  0.06291639  0.52787066  1
