# generated using pymatgen
data_K2FeH4(SO5)2
_symmetry_space_group_name_H-M   'P 1'
_cell_length_a   7.51657392
_cell_length_b   5.35327619
_cell_length_c   6.69475055
_cell_angle_alpha   106.58372190
_cell_angle_beta   109.88617427
_cell_angle_gamma   95.12033737
_symmetry_Int_Tables_number   1
_chemical_formula_structural   K2FeH4(SO5)2
_chemical_formula_sum   'K2 Fe1 H4 S2 O10'
_cell_volume   237.53914273
_cell_formula_units_Z   1
loop_
 _symmetry_equiv_pos_site_id
 _symmetry_equiv_pos_as_xyz
  1  'x, y, z'
loop_
 _atom_site_type_symbol
 _atom_site_label
 _atom_site_symmetry_multiplicity
 _atom_site_fract_x
 _atom_site_fract_y
 _atom_site_fract_z
 _atom_site_occupancy
  K  K0  1  0.75411673  0.80143526  0.17661267  1
  K  K1  1  0.24588327  0.19856474  0.82338733  1
  Fe  Fe2  1  0.50000000  0.50000000  0.50000000  1
  H  H3  1  0.86827703  0.71429168  0.62834032  1
  H  H4  1  0.13172297  0.28570832  0.37165968  1
  H  H5  1  0.84022343  0.40177794  0.56409021  1
  H  H6  1  0.15977657  0.59822206  0.43590979  1
  S  S7  1  0.27674730  0.85010997  0.18793252  1
  S  S8  1  0.72325270  0.14989003  0.81206748  1
  O  O9  1  0.41212447  0.10652505  0.24277375  1
  O  O10  1  0.58787553  0.89347495  0.75722625  1
  O  O11  1  0.14521802  0.75874319  0.94865596  1
  O  O12  1  0.85478198  0.24125681  0.05134404  1
  O  O13  1  0.16727783  0.88742338  0.34067725  1
  O  O14  1  0.83272217  0.11257662  0.65932275  1
  O  O15  1  0.39916658  0.64602150  0.22592288  1
  O  O16  1  0.60083342  0.35397850  0.77407712  1
  O  O17  1  0.79135551  0.54567735  0.50930028  1
  O  O18  1  0.20864449  0.45432265  0.49069972  1
