# generated using pymatgen
data_Sr3CaCr2S2O5
_symmetry_space_group_name_H-M   'P 1'
_cell_length_a   3.98369517
_cell_length_b   3.98369517
_cell_length_c   14.40741988
_cell_angle_alpha   97.94668138
_cell_angle_beta   97.94668138
_cell_angle_gamma   90.00000000
_symmetry_Int_Tables_number   1
_chemical_formula_structural   Sr3CaCr2S2O5
_chemical_formula_sum   'Sr3 Ca1 Cr2 S2 O5'
_cell_volume   224.23051302
_cell_formula_units_Z   1
loop_
 _symmetry_equiv_pos_site_id
 _symmetry_equiv_pos_as_xyz
  1  'x, y, z'
loop_
 _atom_site_type_symbol
 _atom_site_label
 _atom_site_symmetry_multiplicity
 _atom_site_fract_x
 _atom_site_fract_y
 _atom_site_fract_z
 _atom_site_occupancy
  Sr  Sr0  1  0.50000000  0.50000000  -0.00000000  1
  Sr  Sr1  1  0.63056602  0.63056602  0.26113203  1
  Sr  Sr2  1  0.36943398  0.36943398  0.73886797  1
  Ca  Ca3  1  0.75000000  0.25000000  0.50000000  1
  Cr  Cr4  1  0.06759909  0.06759909  0.13519917  1
  Cr  Cr5  1  0.93240091  0.93240091  0.86480083  1
  S  S6  1  0.18405607  0.18405607  0.36811214  1
  S  S7  1  0.81594393  0.81594393  0.63188786  1
  O  O8  1  0.07555428  0.57555428  0.15110757  1
  O  O9  1  0.57576092  0.07576092  0.15152184  1
  O  O10  1  0.92423908  0.42423908  0.84847816  1
  O  O11  1  0.42444572  0.92444572  0.84889243  1
  O  O12  1  -0.00000000  -0.00000000  -0.00000000  1
