# generated using pymatgen
data_Ga3Te3As
_symmetry_space_group_name_H-M   'P 1'
_cell_length_a   4.15341927
_cell_length_b   33.82640794
_cell_length_c   7.33481129
_cell_angle_alpha   29.84816796
_cell_angle_beta   55.51007783
_cell_angle_gamma   60.58411920
_symmetry_Int_Tables_number   1
_chemical_formula_structural   Ga3Te3As
_chemical_formula_sum   'Ga6 Te6 As2'
_cell_volume   422.73414865
_cell_formula_units_Z   2
loop_
 _symmetry_equiv_pos_site_id
 _symmetry_equiv_pos_as_xyz
  1  'x, y, z'
loop_
 _atom_site_type_symbol
 _atom_site_label
 _atom_site_symmetry_multiplicity
 _atom_site_fract_x
 _atom_site_fract_y
 _atom_site_fract_z
 _atom_site_occupancy
  Ga  Ga0  1  0.01030117  0.12057474  0.00739985  1
  Ga  Ga1  1  0.01030117  0.25442526  0.97199780  1
  Ga  Ga2  1  0.01685452  0.50329704  0.96995732  1
  Ga  Ga3  1  0.99242824  0.63158788  0.98122023  1
  Ga  Ga4  1  0.99242824  0.74341212  0.03392329  1
  Ga  Ga5  1  0.01685452  0.87170296  0.99633365  1
  Te  Te6  1  0.22959284  0.11686727  0.30293810  1
  Te  Te7  1  0.22959284  0.25813273  0.23787622  1
  Te  Te8  1  0.26654438  0.37754236  0.22328617  1
  Te  Te9  1  0.23250003  0.49682530  0.28019877  1
  Te  Te10  1  0.23250003  0.87817470  0.25480117  1
  Te  Te11  1  0.26654438  0.99745764  0.24362508  1
  As  As12  1  0.25177883  0.62680523  0.24100023  1
  As  As13  1  0.25177883  0.74819477  0.25544211  1
