# generated using pymatgen
data_CeAgAs2
_symmetry_space_group_name_H-M   'P 1'
_cell_length_a   5.77155869
_cell_length_b   5.78952724
_cell_length_c   20.53046049
_cell_angle_alpha   89.99539941
_cell_angle_beta   90.00097896
_cell_angle_gamma   90.00140800
_symmetry_Int_Tables_number   1
_chemical_formula_structural   CeAgAs2
_chemical_formula_sum   'Ce8 Ag8 As16'
_cell_volume   686.01704505
_cell_formula_units_Z   8
loop_
 _symmetry_equiv_pos_site_id
 _symmetry_equiv_pos_as_xyz
  1  'x, y, z'
loop_
 _atom_site_type_symbol
 _atom_site_label
 _atom_site_symmetry_multiplicity
 _atom_site_fract_x
 _atom_site_fract_y
 _atom_site_fract_z
 _atom_site_occupancy
  Ce  Ce0  1  0.24999732  0.48758421  0.88590954  1
  Ce  Ce1  1  0.25000063  0.51256411  0.38572746  1
  Ce  Ce2  1  0.24999366  0.98907076  0.61035087  1
  Ce  Ce3  1  0.25000013  0.01081495  0.11028895  1
  Ce  Ce4  1  0.75000318  0.98910449  0.88960414  1
  Ce  Ce5  1  0.75000047  0.51254879  0.11433928  1
  Ce  Ce6  1  0.74999929  0.01084806  0.38971774  1
  Ce  Ce7  1  0.74999989  0.48751772  0.61421404  1
  Ag  Ag8  1  0.99991800  0.73747208  0.75002958  1
  Ag  Ag9  1  0.50002840  0.26251197  0.24995676  1
  Ag  Ag10  1  -0.00006009  0.23533388  0.75002292  1
  Ag  Ag11  1  -0.00002265  0.26251356  0.24995562  1
  Ag  Ag12  1  0.50008648  0.73746788  0.75002932  1
  Ag  Ag13  1  0.50005206  0.76462424  0.24997032  1
  Ag  Ag14  1  0.50005913  0.23533646  0.75002258  1
  Ag  Ag15  1  -0.00005406  0.76461186  0.24996828  1
  As  As16  1  0.74999840  0.98752710  0.65763354  1
  As  As17  1  0.25000099  0.01244149  0.34263679  1
  As  As18  1  0.24999629  0.51194230  0.15821624  1
  As  As19  1  0.49137924  0.73134825  0.99982686  1
  As  As20  1  0.50966618  0.73141225  0.50005401  1
  As  As21  1  0.75000092  0.51189469  0.34180829  1
  As  As22  1  0.49057815  0.26864743  0.49925800  1
  As  As23  1  0.00862010  0.73135423  0.99982583  1
  As  As24  1  0.00941955  0.26864689  0.49925853  1
  As  As25  1  0.99033491  0.73141430  0.50005237  1
  As  As26  1  0.51029590  0.26869566  0.00062691  1
  As  As27  1  0.74999985  0.01238903  0.15734084  1
  As  As28  1  0.75000018  0.48808339  0.84166600  1
  As  As29  1  0.25000012  0.48806804  0.65851695  1
  As  As30  1  0.25000089  0.98751748  0.84254374  1
  As  As31  1  0.98970650  0.26869245  0.00062772  1
