# generated using pymatgen
data_Cu3(P2O7)2
_symmetry_space_group_name_H-M   'P 1'
_cell_length_a   6.99633005
_cell_length_b   8.51337428
_cell_length_c   9.42794391
_cell_angle_alpha   90.00000000
_cell_angle_beta   110.05889000
_cell_angle_gamma   90.00000000
_symmetry_Int_Tables_number   1
_chemical_formula_structural   Cu3(P2O7)2
_chemical_formula_sum   'Cu6 P8 O28'
_cell_volume   527.48740452
_cell_formula_units_Z   2
loop_
 _symmetry_equiv_pos_site_id
 _symmetry_equiv_pos_as_xyz
  1  'x, y, z'
loop_
 _atom_site_type_symbol
 _atom_site_label
 _atom_site_symmetry_multiplicity
 _atom_site_fract_x
 _atom_site_fract_y
 _atom_site_fract_z
 _atom_site_occupancy
  Cu  Cu0  1  0.80725629  0.12906638  0.98334806  1
  Cu  Cu1  1  0.19274371  0.62906638  0.51665194  1
  Cu  Cu2  1  0.80725629  0.37093362  0.48334806  1
  Cu  Cu3  1  0.19274371  0.87093362  0.01665194  1
  Cu  Cu4  1  0.00000000  0.00000000  0.50000000  1
  Cu  Cu5  1  0.00000000  0.50000000  0.00000000  1
  P  P6  1  0.39538897  0.51168264  0.29418526  1
  P  P7  1  0.91319615  0.72869687  0.70041553  1
  P  P8  1  0.39538897  0.98831736  0.79418526  1
  P  P9  1  0.08680385  0.22869687  0.79958447  1
  P  P10  1  0.60461103  0.48831736  0.70581474  1
  P  P11  1  0.91319615  0.77130313  0.20041553  1
  P  P12  1  0.08680385  0.27130313  0.29958447  1
  P  P13  1  0.60461103  0.01168264  0.20581474  1
  O  O14  1  0.71451594  0.06786840  0.36700611  1
  O  O15  1  0.62568003  0.12960004  0.08703071  1
  O  O16  1  0.00155393  0.89271964  0.11842897  1
  O  O17  1  0.88659102  0.89198946  0.63394505  1
  O  O18  1  0.98313628  0.22714354  0.62366326  1
  O  O19  1  0.11340798  0.10801054  0.36605495  1
  O  O20  1  0.71451594  0.43213160  0.86700611  1
  O  O21  1  0.99844607  0.39271964  0.38157103  1
  O  O22  1  0.01686372  0.72714354  0.87633674  1
  O  O23  1  0.37431997  0.62960004  0.41296929  1
  O  O24  1  0.99844607  0.10728036  0.88157103  1
  O  O25  1  0.62315708  0.01521434  0.82081875  1
  O  O26  1  0.98313628  0.27285646  0.12366326  1
  O  O27  1  0.69248838  0.84170302  0.18218293  1
  O  O28  1  0.69248838  0.65829698  0.68218293  1
  O  O29  1  0.37684292  0.51521434  0.67918125  1
  O  O30  1  0.11340798  0.39198946  0.86605495  1
  O  O31  1  0.00155393  0.60728036  0.61842897  1
  O  O32  1  0.37431997  0.87039996  0.91296929  1
  O  O33  1  0.62315708  0.48478566  0.32081875  1
  O  O34  1  0.88659102  0.60801054  0.13394505  1
  O  O35  1  0.37684292  0.98478566  0.17918125  1
  O  O36  1  0.01686372  0.77285646  0.37633674  1
  O  O37  1  0.28548406  0.93213160  0.63299389  1
  O  O38  1  0.30751162  0.15829698  0.81781707  1
  O  O39  1  0.62568003  0.37039996  0.58703071  1
  O  O40  1  0.28548406  0.56786840  0.13299389  1
  O  O41  1  0.30751162  0.34170302  0.31781707  1
