# generated using pymatgen
data_PbI2
_symmetry_space_group_name_H-M   'P 1'
_cell_length_a   22.11188088
_cell_length_b   22.11188092
_cell_length_c   22.11188127
_cell_angle_alpha   12.15580072
_cell_angle_beta   12.15580030
_cell_angle_gamma   12.15580026
_symmetry_Int_Tables_number   1
_chemical_formula_structural   PbI2
_chemical_formula_sum   'Pb3 I6'
_cell_volume   416.70585285
_cell_formula_units_Z   3
loop_
 _symmetry_equiv_pos_site_id
 _symmetry_equiv_pos_as_xyz
  1  'x, y, z'
loop_
 _atom_site_type_symbol
 _atom_site_label
 _atom_site_symmetry_multiplicity
 _atom_site_fract_x
 _atom_site_fract_y
 _atom_site_fract_z
 _atom_site_occupancy
  Pb  Pb0  1  0.00000000  0.00000000  0.00000000  1
  Pb  Pb1  1  0.55553975  0.55553975  0.55553975  1
  Pb  Pb2  1  0.44446025  0.44446025  0.44446025  1
  I  I3  1  0.08234277  0.08234277  0.08234277  1
  I  I4  1  0.30458094  0.30458094  0.30458094  1
  I  I5  1  0.80658674  0.80658674  0.80658674  1
  I  I6  1  0.19341326  0.19341326  0.19341326  1
  I  I7  1  0.91765723  0.91765723  0.91765723  1
  I  I8  1  0.69541906  0.69541906  0.69541906  1
