# generated using pymatgen
data_La2YbS4
_symmetry_space_group_name_H-M   'P 1'
_cell_length_a   7.51491099
_cell_length_b   7.51491113
_cell_length_c   7.51491101
_cell_angle_alpha   109.64405399
_cell_angle_beta   109.12611172
_cell_angle_gamma   109.64404842
_symmetry_Int_Tables_number   1
_chemical_formula_structural   La2YbS4
_chemical_formula_sum   'Yb2 La4 S8'
_cell_volume   326.69149001
_cell_formula_units_Z   2
loop_
 _symmetry_equiv_pos_site_id
 _symmetry_equiv_pos_as_xyz
  1  'x, y, z'
loop_
 _atom_site_type_symbol
 _atom_site_label
 _atom_site_symmetry_multiplicity
 _atom_site_fract_x
 _atom_site_fract_y
 _atom_site_fract_z
 _atom_site_occupancy
  Yb  Yb0  1  0.12500000  0.75000000  0.87500000  1
  Yb  Yb1  1  0.37500000  0.25000000  0.62500000  1
  La  La2  1  0.25000000  0.63082959  0.38082959  1
  La  La3  1  0.61917041  0.36917041  0.25000000  1
  La  La4  1  0.75000000  0.86917041  0.11917041  1
  La  La5  1  0.88082959  0.13082959  0.75000000  1
  S  S6  1  0.49955632  0.00254885  0.35736035  1
  S  S7  1  0.14518850  0.14219597  0.14263965  1
  S  S8  1  0.35481150  0.49745115  0.99700747  1
  S  S9  1  0.64263965  0.64219597  0.64518850  1
  S  S10  1  0.49700747  0.99745115  0.85481150  1
  S  S11  1  0.00299253  0.85780403  0.50044368  1
  S  S12  1  0.85736035  0.50254885  0.99955632  1
  S  S13  1  0.00044368  0.35780403  0.50299253  1
