# generated using pymatgen
data_Re6Pb5O19
_symmetry_space_group_name_H-M   'P 1'
_cell_length_a   9.40070552
_cell_length_b   9.41004396
_cell_length_c   9.39546720
_cell_angle_alpha   89.94918214
_cell_angle_beta   90.00000000
_cell_angle_gamma   90.00000000
_symmetry_Int_Tables_number   1
_chemical_formula_structural   Re6Pb5O19
_chemical_formula_sum   'Re12 Pb10 O38'
_cell_volume   831.13258743
_cell_formula_units_Z   2
loop_
 _symmetry_equiv_pos_site_id
 _symmetry_equiv_pos_as_xyz
  1  'x, y, z'
loop_
 _atom_site_type_symbol
 _atom_site_label
 _atom_site_symmetry_multiplicity
 _atom_site_fract_x
 _atom_site_fract_y
 _atom_site_fract_z
 _atom_site_occupancy
  Re  Re0  1  0.11544115  0.75000000  0.25000000  1
  Re  Re1  1  0.24748782  0.75558420  0.61660060  1
  Re  Re2  1  0.24637765  0.11679394  0.74895409  1
  Re  Re3  1  0.24637765  0.38320606  0.75104591  1
  Re  Re4  1  0.24748782  0.74441580  0.88339940  1
  Re  Re5  1  0.38158754  0.75000000  0.25000000  1
  Re  Re6  1  0.61841246  0.25000000  0.75000000  1
  Re  Re7  1  0.75251218  0.25558420  0.11660060  1
  Re  Re8  1  0.75362235  0.61679394  0.24895409  1
  Re  Re9  1  0.75362235  0.88320606  0.25104591  1
  Re  Re10  1  0.75251218  0.24441580  0.38339940  1
  Re  Re11  1  0.88455885  0.25000000  0.75000000  1
  Pb  Pb12  1  0.10184718  0.39252634  0.39360608  1
  Pb  Pb13  1  0.10184718  0.10747366  0.10639392  1
  Pb  Pb14  1  0.39069686  0.10347173  0.39535942  1
  Pb  Pb15  1  0.39069686  0.39652827  0.10464058  1
  Pb  Pb16  1  0.50000000  0.50000000  0.50000000  1
  Pb  Pb17  1  0.50000000  0.00000000  0.00000000  1
  Pb  Pb18  1  0.60930314  0.60347173  0.89535942  1
  Pb  Pb19  1  0.60930314  0.89652827  0.60464058  1
  Pb  Pb20  1  0.89815282  0.89252634  0.89360608  1
  Pb  Pb21  1  0.89815282  0.60747366  0.60639392  1
  O  O22  1  0.04016566  0.10801135  0.75313724  1
  O  O23  1  0.04016566  0.39198865  0.74686276  1
  O  O24  1  0.07890086  0.75000000  0.75000000  1
  O  O25  1  0.10806819  0.74659626  0.45980579  1
  O  O26  1  0.10806819  0.75340374  0.04019421  1
  O  O27  1  0.24989229  0.96070346  0.89525268  1
  O  O28  1  0.24989229  0.53929654  0.60474732  1
  O  O29  1  0.25134168  0.25000000  0.25000000  1
  O  O30  1  0.25011413  0.24788740  0.91963621  1
  O  O31  1  0.25085562  0.91959213  0.24979065  1
  O  O32  1  0.25085562  0.58040787  0.25020935  1
  O  O33  1  0.25011413  0.25211260  0.58036379  1
  O  O34  1  0.25256806  0.53871776  0.89230047  1
  O  O35  1  0.25256806  0.96128224  0.60769953  1
  O  O36  1  0.39499834  0.74997797  0.03872686  1
  O  O37  1  0.39499834  0.75002203  0.46127314  1
  O  O38  1  0.41762017  0.75000000  0.75000000  1
  O  O39  1  0.46136720  0.10469843  0.75009348  1
  O  O40  1  0.46136720  0.39530157  0.74990652  1
  O  O41  1  0.53863280  0.60469843  0.25009348  1
  O  O42  1  0.53863280  0.89530157  0.24990652  1
  O  O43  1  0.58237983  0.25000000  0.25000000  1
  O  O44  1  0.60500166  0.24997797  0.53872686  1
  O  O45  1  0.60500166  0.25002203  0.96127314  1
  O  O46  1  0.74743194  0.03871776  0.39230047  1
  O  O47  1  0.74743194  0.46128224  0.10769953  1
  O  O48  1  0.74914438  0.41959213  0.74979065  1
  O  O49  1  0.74988587  0.74788740  0.41963621  1
  O  O50  1  0.74914438  0.08040787  0.75020935  1
  O  O51  1  0.74988587  0.75211260  0.08036379  1
  O  O52  1  0.74865832  0.75000000  0.75000000  1
  O  O53  1  0.75010771  0.46070346  0.39525268  1
  O  O54  1  0.75010771  0.03929654  0.10474732  1
  O  O55  1  0.89193181  0.24659626  0.95980579  1
  O  O56  1  0.89193181  0.25340374  0.54019421  1
  O  O57  1  0.92109914  0.25000000  0.25000000  1
  O  O58  1  0.95983434  0.60801135  0.25313724  1
  O  O59  1  0.95983434  0.89198865  0.24686276  1
