# generated using pymatgen
data_KH5O3
_symmetry_space_group_name_H-M   'P 1'
_cell_length_a   7.38659866
_cell_length_b   7.38659858
_cell_length_c   8.31915572
_cell_angle_alpha   115.17983503
_cell_angle_beta   115.17983466
_cell_angle_gamma   89.39830115
_symmetry_Int_Tables_number   1
_chemical_formula_structural   KH5O3
_chemical_formula_sum   'K4 H20 O12'
_cell_volume   363.59674707
_cell_formula_units_Z   4
loop_
 _symmetry_equiv_pos_site_id
 _symmetry_equiv_pos_as_xyz
  1  'x, y, z'
loop_
 _atom_site_type_symbol
 _atom_site_label
 _atom_site_symmetry_multiplicity
 _atom_site_fract_x
 _atom_site_fract_y
 _atom_site_fract_z
 _atom_site_occupancy
  K  K0  1  0.23854211  0.48730468  0.48178785  1
  K  K1  1  0.49531616  0.24350486  0.98496646  1
  K  K2  1  0.51269532  0.76145789  0.01821215  1
  K  K3  1  0.75649514  0.50468384  0.51503354  1
  H  H4  1  0.09704704  0.44704367  0.83495320  1
  H  H5  1  0.10198657  0.92199252  0.85041013  1
  H  H6  1  0.07800748  0.89801343  0.64958987  1
  H  H7  1  0.07913526  0.23611788  0.65224933  1
  H  H8  1  0.99672198  0.18681906  0.98176432  1
  H  H9  1  0.30345298  -0.00053725  0.49805780  1
  H  H10  1  0.25608599  0.11568387  0.16109161  1
  H  H11  1  0.24652870  0.57953351  0.15034459  1
  H  H12  1  0.42395476  0.09025012  0.34610031  1
  H  H13  1  0.42046649  0.75347130  0.34965541  1
  H  H14  1  0.55295633  0.90295296  0.66504680  1
  H  H15  1  0.55328821  0.25017986  0.66592504  1
  H  H16  1  0.74982014  0.44671179  0.83407496  1
  H  H17  1  0.76388212  0.92086474  0.84775067  1
  H  H18  1  0.00053725  0.69654702  0.00194220  1
  H  H19  1  0.81318094  0.00327802  0.51823568  1
  H  H20  1  0.88431613  0.74391401  0.33890839  1
  H  H21  1  0.87777751  0.08932212  0.33561548  1
  H  H22  1  0.91067788  0.12222249  0.16438452  1
  H  H23  1  0.90974988  0.57604524  0.15389969  1
  O  O24  1  0.15275657  0.84724343  0.75000000  1
  O  O25  1  0.16190788  0.37998092  0.74429444  1
  O  O26  1  0.01150333  0.06961266  0.00991479  1
  O  O27  1  0.44282664  0.00101989  0.51341471  1
  O  O28  1  0.59628736  0.40371264  0.75000000  1
  O  O29  1  0.62001908  0.83809212  0.75570556  1
  O  O30  1  0.40878252  0.14434832  0.25040852  1
  O  O31  1  0.39551956  0.60448044  0.25000000  1
  O  O32  1  0.99898011  0.55717336  0.98658529  1
  O  O33  1  0.93038734  0.98849667  0.49008521  1
  O  O34  1  0.85565168  0.59121748  0.24959148  1
  O  O35  1  0.83835557  0.16164442  0.25000000  1
