# generated using pymatgen
data_Mg2Mn2(SiO4)3
_symmetry_space_group_name_H-M   'P 1'
_cell_length_a   10.10820942
_cell_length_b   10.10820981
_cell_length_c   10.10820990
_cell_angle_alpha   109.72858492
_cell_angle_beta   109.72858570
_cell_angle_gamma   108.95770872
_symmetry_Int_Tables_number   1
_chemical_formula_structural   Mg2Mn2(SiO4)3
_chemical_formula_sum   'Mg8 Mn8 Si12 O48'
_cell_volume   795.01386268
_cell_formula_units_Z   4
loop_
 _symmetry_equiv_pos_site_id
 _symmetry_equiv_pos_as_xyz
  1  'x, y, z'
loop_
 _atom_site_type_symbol
 _atom_site_label
 _atom_site_symmetry_multiplicity
 _atom_site_fract_x
 _atom_site_fract_y
 _atom_site_fract_z
 _atom_site_occupancy
  Mg  Mg0  1  0.25000000  0.36997662  0.11997662  1
  Mg  Mg1  1  0.36997662  0.75000000  0.11997662  1
  Mg  Mg2  1  0.13002338  0.25000000  0.38002338  1
  Mg  Mg3  1  0.75000000  0.13002338  0.38002338  1
  Mg  Mg4  1  0.75000000  0.63002338  0.88002338  1
  Mg  Mg5  1  0.63002338  0.25000000  0.88002338  1
  Mg  Mg6  1  0.86997662  0.75000000  0.61997662  1
  Mg  Mg7  1  0.24999900  0.86997662  0.61997662  1
  Mn  Mn8  1  0.50000000  0.50000000  0.50000000  1
  Mn  Mn9  1  0.50000000  0.50000000  0.00000000  1
  Mn  Mn10  1  0.50000000  0.00000000  0.50000000  1
  Mn  Mn11  1  0.50000000  0.00000000  0.99999900  1
  Mn  Mn12  1  0.00000000  0.00000000  0.50000000  1
  Mn  Mn13  1  0.99999900  0.50000000  0.99999900  1
  Mn  Mn14  1  0.00000000  0.00000000  0.00000000  1
  Mn  Mn15  1  0.99999900  0.50000000  0.50000000  1
  Si  Si16  1  0.75000000  0.87418411  0.12418411  1
  Si  Si17  1  0.37418511  0.25000000  0.62418411  1
  Si  Si18  1  0.62500000  0.37500000  0.25000000  1
  Si  Si19  1  0.12581589  0.75000000  0.87581589  1
  Si  Si20  1  0.12500000  0.87500000  0.25000000  1
  Si  Si21  1  0.87500000  0.12500000  0.74999900  1
  Si  Si22  1  0.75000100  0.37418411  0.62418411  1
  Si  Si23  1  0.37500000  0.62500000  0.75000000  1
  Si  Si24  1  0.25000000  0.62581589  0.37581589  1
  Si  Si25  1  0.62581589  0.75000000  0.37581589  1
  Si  Si26  1  0.87418411  0.25000000  0.12418411  1
  Si  Si27  1  0.25000000  0.12581589  0.87581589  1
  O  O28  1  0.69864076  0.68622392  0.07656277  1
  O  O29  1  0.68622292  0.10966015  0.98758216  1
  O  O30  1  0.62207699  0.69863976  0.51241684  1
  O  O31  1  0.51346448  0.60717682  0.70545360  1
  O  O32  1  0.09827677  0.89282318  0.40628766  1
  O  O33  1  0.39210835  0.07762588  0.87459734  1
  O  O34  1  0.10789165  0.98248999  0.68551853  1
  O  O35  1  0.60717682  0.40172323  0.09371234  1
  O  O36  1  0.51751001  0.39210835  0.81448147  1
  O  O37  1  0.89282318  0.98653552  0.79454640  1
  O  O38  1  0.42237312  0.10789165  0.62540166  1
  O  O39  1  0.80801188  0.51346548  0.40628866  1
  O  O40  1  0.98248999  0.79697146  0.87459834  1
  O  O41  1  0.07762588  0.70302754  0.68551753  1
  O  O42  1  0.69198912  0.09827577  0.70545360  1
  O  O43  1  0.10966015  0.62207699  0.42343623  1
  O  O44  1  0.81377608  0.80135924  0.42343623  1
  O  O45  1  0.39033885  0.81377608  0.51241684  1
  O  O46  1  0.40172423  0.80801088  0.79454640  1
  O  O47  1  0.80135924  0.87792301  0.98758216  1
  O  O48  1  0.29697146  0.48248999  0.37459834  1
  O  O49  1  0.87792301  0.39033985  0.07656377  1
  O  O50  1  0.98653552  0.69198912  0.09371234  1
  O  O51  1  0.70302854  0.51751101  0.62540266  1
  O  O52  1  0.30135924  0.31377708  0.92343723  1
  O  O53  1  0.31377608  0.89033985  0.01241784  1
  O  O54  1  0.37792201  0.30135924  0.48758316  1
  O  O55  1  0.48653452  0.39282218  0.29454540  1
  O  O56  1  0.90172423  0.10717782  0.59371234  1
  O  O57  1  0.60789165  0.92237312  0.12540266  1
  O  O58  1  0.89210835  0.01751101  0.31448147  1
  O  O59  1  0.39282318  0.59827677  0.90628766  1
  O  O60  1  0.48248999  0.60789265  0.18551853  1
  O  O61  1  0.10717782  0.01346548  0.20545360  1
  O  O62  1  0.57762588  0.89210835  0.37459834  1
  O  O63  1  0.19198912  0.48653552  0.59371334  1
  O  O64  1  0.01751001  0.20302854  0.12540166  1
  O  O65  1  0.92237412  0.29697146  0.31448247  1
  O  O66  1  0.30801088  0.90172323  0.29454640  1
  O  O67  1  0.89033985  0.37792201  0.57656277  1
  O  O68  1  0.18622292  0.19864076  0.57656277  1
  O  O69  1  0.60966015  0.18622392  0.48758316  1
  O  O70  1  0.59827677  0.19198912  0.20545460  1
  O  O71  1  0.19864076  0.12207799  0.01241784  1
  O  O72  1  0.20302854  0.57762688  0.18551853  1
  O  O73  1  0.12207799  0.60966115  0.92343723  1
  O  O74  1  0.01346548  0.30801188  0.90628766  1
  O  O75  1  0.79697146  0.42237312  0.81448147  1
