# generated using pymatgen
data_Cs3Sb2Cl9
_symmetry_space_group_name_H-M   'P 1'
_cell_length_a   7.75346758
_cell_length_b   13.28047582
_cell_length_c   18.96376627
_cell_angle_alpha   90.00000000
_cell_angle_beta   90.00000000
_cell_angle_gamma   90.00000000
_symmetry_Int_Tables_number   1
_chemical_formula_structural   Cs3Sb2Cl9
_chemical_formula_sum   'Cs12 Sb8 Cl36'
_cell_volume   1952.69405792
_cell_formula_units_Z   4
loop_
 _symmetry_equiv_pos_site_id
 _symmetry_equiv_pos_as_xyz
  1  'x, y, z'
loop_
 _atom_site_type_symbol
 _atom_site_label
 _atom_site_symmetry_multiplicity
 _atom_site_fract_x
 _atom_site_fract_y
 _atom_site_fract_z
 _atom_site_occupancy
  Cs  Cs0  1  0.25000000  0.75102727  0.75243270  1
  Cs  Cs1  1  0.25000000  0.41463684  0.40941256  1
  Cs  Cs2  1  0.75000000  0.24897273  0.24756730  1
  Cs  Cs3  1  0.75000000  0.58536316  0.59058744  1
  Cs  Cs4  1  0.75000000  0.91463684  0.09058744  1
  Cs  Cs5  1  0.25000000  0.74897273  0.25243270  1
  Cs  Cs6  1  0.25000000  0.41695053  0.08220868  1
  Cs  Cs7  1  0.75000000  0.25102727  0.74756730  1
  Cs  Cs8  1  0.25000000  0.08536316  0.90941256  1
  Cs  Cs9  1  0.75000000  0.91695053  0.41779132  1
  Cs  Cs10  1  0.75000000  0.58304947  0.91779132  1
  Cs  Cs11  1  0.25000000  0.08304947  0.58220868  1
  Sb  Sb12  1  0.25000000  0.41640140  0.81536009  1
  Sb  Sb13  1  0.75000000  0.91640140  0.68463991  1
  Sb  Sb14  1  0.75000000  0.58359860  0.18463991  1
  Sb  Sb15  1  0.75000000  0.23536853  0.99915145  1
  Sb  Sb16  1  0.25000000  0.08359860  0.31536009  1
  Sb  Sb17  1  0.75000000  0.26463147  0.49915145  1
  Sb  Sb18  1  0.25000000  0.73536853  0.50084855  1
  Sb  Sb19  1  0.25000000  0.76463147  0.00084855  1
  Cl  Cl20  1  0.01618432  0.83715836  0.92440183  1
  Cl  Cl21  1  0.51618432  0.16284164  0.07559817  1
  Cl  Cl22  1  0.75000000  0.08240332  0.92326468  1
  Cl  Cl23  1  0.50510883  0.00083931  0.75215091  1
  Cl  Cl24  1  0.99489117  0.00083931  0.75215091  1
  Cl  Cl25  1  0.25000000  0.58372397  0.91105642  1
  Cl  Cl26  1  0.49566528  0.17582035  0.40594444  1
  Cl  Cl27  1  0.01618432  0.66284164  0.42440183  1
  Cl  Cl28  1  0.49489117  0.50083931  0.74784909  1
  Cl  Cl29  1  0.98381568  0.33715836  0.57559817  1
  Cl  Cl30  1  0.99566528  0.67582035  0.09405556  1
  Cl  Cl31  1  0.00510883  0.50083931  0.74784909  1
  Cl  Cl32  1  0.99489117  0.49916069  0.25215091  1
  Cl  Cl33  1  0.75000000  0.41627603  0.08894358  1
  Cl  Cl34  1  0.00433472  0.17582035  0.40594444  1
  Cl  Cl35  1  0.50510883  0.49916069  0.25215091  1
  Cl  Cl36  1  0.25000000  0.58240332  0.57673532  1
  Cl  Cl37  1  0.75000000  0.08372397  0.58894358  1
  Cl  Cl38  1  0.48381568  0.83715836  0.92440183  1
  Cl  Cl39  1  0.98381568  0.16284164  0.07559817  1
  Cl  Cl40  1  0.25000000  0.24244562  0.24096589  1
  Cl  Cl41  1  0.50433472  0.82417965  0.59405556  1
  Cl  Cl42  1  0.49566528  0.32417965  0.90594444  1
  Cl  Cl43  1  0.48381568  0.66284164  0.42440183  1
  Cl  Cl44  1  0.51618432  0.33715836  0.57559817  1
  Cl  Cl45  1  0.75000000  0.75755438  0.75903411  1
  Cl  Cl46  1  0.75000000  0.41759668  0.42326468  1
  Cl  Cl47  1  0.49489117  0.99916069  0.24784909  1
  Cl  Cl48  1  0.00510883  0.99916069  0.24784909  1
  Cl  Cl49  1  0.99566528  0.82417965  0.59405556  1
  Cl  Cl50  1  0.75000000  0.74244562  0.25903411  1
  Cl  Cl51  1  0.25000000  0.91627603  0.41105642  1
  Cl  Cl52  1  0.25000000  0.25755438  0.74096589  1
  Cl  Cl53  1  0.25000000  0.91759668  0.07673532  1
  Cl  Cl54  1  0.00433472  0.32417965  0.90594444  1
  Cl  Cl55  1  0.50433472  0.67582035  0.09405556  1
