# generated using pymatgen
data_K2Ti2(PO4)3
_symmetry_space_group_name_H-M   'P 1'
_cell_length_a   10.03274857
_cell_length_b   10.03274857
_cell_length_c   10.03274857
_cell_angle_alpha   90.00000000
_cell_angle_beta   90.00000000
_cell_angle_gamma   90.00000000
_symmetry_Int_Tables_number   1
_chemical_formula_structural   K2Ti2(PO4)3
_chemical_formula_sum   'K8 Ti8 P12 O48'
_cell_volume   1009.85678019
_cell_formula_units_Z   4
loop_
 _symmetry_equiv_pos_site_id
 _symmetry_equiv_pos_as_xyz
  1  'x, y, z'
loop_
 _atom_site_type_symbol
 _atom_site_label
 _atom_site_symmetry_multiplicity
 _atom_site_fract_x
 _atom_site_fract_y
 _atom_site_fract_z
 _atom_site_occupancy
  O  O0  1  0.24023900  0.52174930  0.80171339  1
  O  O1  1  0.74023900  0.97825070  0.19828661  1
  O  O2  1  0.75976100  0.02174930  0.69828661  1
  O  O3  1  0.97825070  0.19828661  0.74023900  1
  O  O4  1  0.69828661  0.75976100  0.02174930  1
  O  O5  1  0.19828661  0.74023900  0.97825070  1
  O  O6  1  0.52174930  0.80171339  0.24023900  1
  O  O7  1  0.80171339  0.24023900  0.52174930  1
  O  O8  1  0.02174930  0.69828661  0.75976100  1
  O  O9  1  0.47825070  0.30171339  0.25976100  1
  O  O10  1  0.30171339  0.25976100  0.47825070  1
  O  O11  1  0.25976100  0.47825070  0.30171339  1
  O  O12  1  0.35206074  0.49678739  0.58079618  1
  O  O13  1  0.85206074  0.00321261  0.41920382  1
  O  O14  1  0.64793926  0.99678739  0.91920382  1
  O  O15  1  0.00321261  0.41920382  0.85206074  1
  O  O16  1  0.91920382  0.64793926  0.99678739  1
  O  O17  1  0.41920382  0.85206074  0.00321261  1
  O  O18  1  0.70162904  0.52274469  0.95424246  1
  O  O19  1  0.49678739  0.58079618  0.35206074  1
  O  O20  1  0.99678739  0.91920382  0.64793926  1
  O  O21  1  0.50321261  0.08079618  0.14793926  1
  O  O22  1  0.08079618  0.14793926  0.50321261  1
  O  O23  1  0.14793926  0.50321261  0.08079618  1
  O  O24  1  0.47725531  0.45424246  0.79837096  1
  O  O25  1  0.97725531  0.04575754  0.20162904  1
  O  O26  1  0.52274469  0.95424246  0.70162904  1
  O  O27  1  0.04575754  0.20162904  0.97725531  1
  O  O28  1  0.08008716  0.31062686  0.23131344  1
  O  O29  1  0.23131344  0.08008716  0.31062686  1
  O  O30  1  0.31062686  0.23131344  0.08008716  1
  O  O31  1  0.18937314  0.76868656  0.58008716  1
  O  O32  1  0.73131344  0.41991284  0.68937314  1
  O  O33  1  0.68937314  0.73131344  0.41991284  1
  O  O34  1  0.26868656  0.91991284  0.81062686  1
  O  O35  1  0.76868656  0.58008716  0.18937314  1
  O  O36  1  0.81062686  0.26868656  0.91991284  1
  O  O37  1  0.58008716  0.18937314  0.76868656  1
  O  O38  1  0.91991284  0.81062686  0.26868656  1
  O  O39  1  0.41991284  0.68937314  0.73131344  1
  O  O40  1  0.02274469  0.54575754  0.29837096  1
  O  O41  1  0.29837096  0.02274469  0.54575754  1
  O  O42  1  0.54575754  0.29837096  0.02274469  1
  O  O43  1  0.95424246  0.70162904  0.52274469  1
  O  O44  1  0.79837096  0.47725531  0.45424246  1
  O  O45  1  0.45424246  0.79837096  0.47725531  1
  O  O46  1  0.20162904  0.97725531  0.04575754  1
  O  O47  1  0.58079618  0.35206074  0.49678739  1
  P  P48  1  0.37327502  0.54215165  0.72618010  1
  P  P49  1  0.87327502  0.95784835  0.27381990  1
  P  P50  1  0.62672498  0.04215165  0.77381990  1
  P  P51  1  0.95784835  0.27381990  0.87327502  1
  P  P52  1  0.77381990  0.62672498  0.04215165  1
  P  P53  1  0.27381990  0.87327502  0.95784835  1
  P  P54  1  0.54215165  0.72618010  0.37327502  1
  P  P55  1  0.72618010  0.37327502  0.54215165  1
  P  P56  1  0.04215165  0.77381990  0.62672498  1
  P  P57  1  0.45784835  0.22618010  0.12672498  1
  P  P58  1  0.22618010  0.12672498  0.45784835  1
  P  P59  1  0.12672498  0.45784835  0.22618010  1
  K  K60  1  0.93087189  0.93087189  0.93087189  1
  K  K61  1  0.43087189  0.56912811  0.06912811  1
  K  K62  1  0.56912811  0.06912811  0.43087189  1
  K  K63  1  0.06912811  0.43087189  0.56912811  1
  K  K64  1  0.70404564  0.70404564  0.70404564  1
  K  K65  1  0.79595436  0.29595436  0.20404564  1
  K  K66  1  0.29595436  0.20404564  0.79595436  1
  K  K67  1  0.20404564  0.79595436  0.29595436  1
  Ti  Ti68  1  0.41266163  0.41266163  0.41266163  1
  Ti  Ti69  1  0.58733837  0.91266163  0.08733837  1
  Ti  Ti70  1  0.91266163  0.08733837  0.58733837  1
  Ti  Ti71  1  0.08733837  0.58733837  0.91266163  1
  Ti  Ti72  1  0.85806186  0.64193814  0.35806186  1
  Ti  Ti73  1  0.64193814  0.35806186  0.85806186  1
  Ti  Ti74  1  0.35806186  0.85806186  0.64193814  1
  Ti  Ti75  1  0.14193814  0.14193814  0.14193814  1
