# generated using pymatgen
data_Ge4Se9
_symmetry_space_group_name_H-M   'P 1'
_cell_length_a   7.16675036
_cell_length_b   12.37122356
_cell_length_c   18.12635207
_cell_angle_alpha   90.00000000
_cell_angle_beta   90.00000000
_cell_angle_gamma   90.00000000
_symmetry_Int_Tables_number   1
_chemical_formula_structural   Ge4Se9
_chemical_formula_sum   'Ge16 Se36'
_cell_volume   1607.10903662
_cell_formula_units_Z   4
loop_
 _symmetry_equiv_pos_site_id
 _symmetry_equiv_pos_as_xyz
  1  'x, y, z'
loop_
 _atom_site_type_symbol
 _atom_site_label
 _atom_site_symmetry_multiplicity
 _atom_site_fract_x
 _atom_site_fract_y
 _atom_site_fract_z
 _atom_site_occupancy
  Ge  Ge0  1  0.68484776  0.21126635  0.83001675  1
  Ge  Ge1  1  0.18912760  0.19995625  0.77487794  1
  Ge  Ge2  1  0.31515224  0.21126635  0.33001675  1
  Ge  Ge3  1  0.32522844  0.63133751  0.54102203  1
  Ge  Ge4  1  0.17875237  0.13672995  0.14557582  1
  Ge  Ge5  1  0.81087240  0.69995625  0.22512206  1
  Ge  Ge6  1  0.18912760  0.69995625  0.72512206  1
  Ge  Ge7  1  0.67477156  0.13133751  0.45897797  1
  Ge  Ge8  1  0.31515224  0.71126635  0.16998325  1
  Ge  Ge9  1  0.32522844  0.13133751  0.95897797  1
  Ge  Ge10  1  0.17875237  0.63672995  0.35442418  1
  Ge  Ge11  1  0.82124763  0.63672995  0.85442418  1
  Ge  Ge12  1  0.81087240  0.19995625  0.27487794  1
  Ge  Ge13  1  0.82124763  0.13672995  0.64557582  1
  Ge  Ge14  1  0.68484776  0.71126635  0.66998325  1
  Ge  Ge15  1  0.67477156  0.63133751  0.04102203  1
  Se  Se16  1  0.74324153  0.00270184  0.55435283  1
  Se  Se17  1  0.70274487  0.05328508  0.75533651  1
  Se  Se18  1  0.34051876  0.65665017  0.04414744  1
  Se  Se19  1  0.20294373  0.54244076  0.64867969  1
  Se  Se20  1  0.95692209  0.32415836  0.82092407  1
  Se  Se21  1  0.32742370  0.30287874  0.10811141  1
  Se  Se22  1  0.25675847  0.00270184  0.05435283  1
  Se  Se23  1  0.15799516  0.65063799  0.85195080  1
  Se  Se24  1  0.79705627  0.04244076  0.35132031  1
  Se  Se25  1  0.44069978  0.32804466  0.78630845  1
  Se  Se26  1  0.55930022  0.82804466  0.21369155  1
  Se  Se27  1  0.32742370  0.80287874  0.39188859  1
  Se  Se28  1  0.17059115  0.29851233  0.99256066  1
  Se  Se29  1  0.79705627  0.54244076  0.14867969  1
  Se  Se30  1  0.67257630  0.80287874  0.89188859  1
  Se  Se31  1  0.74324153  0.50270184  0.94564717  1
  Se  Se32  1  0.25675847  0.50270184  0.44564717  1
  Se  Se33  1  0.84200484  0.65063799  0.35195080  1
  Se  Se34  1  0.55930022  0.32804466  0.28630845  1
  Se  Se35  1  0.29725513  0.55328508  0.24466349  1
  Se  Se36  1  0.20294373  0.04244076  0.85132031  1
  Se  Se37  1  0.15799516  0.15063799  0.64804920  1
  Se  Se38  1  0.44069978  0.82804466  0.71369155  1
  Se  Se39  1  0.65948124  0.65665017  0.54414744  1
  Se  Se40  1  0.29725513  0.05328508  0.25533651  1
  Se  Se41  1  0.82940885  0.79851233  0.00743934  1
  Se  Se42  1  0.84200484  0.15063799  0.14804920  1
  Se  Se43  1  0.70274487  0.55328508  0.74466349  1
  Se  Se44  1  0.95692209  0.82415836  0.67907593  1
  Se  Se45  1  0.65948124  0.15665017  0.95585256  1
  Se  Se46  1  0.67257630  0.30287874  0.60811141  1
  Se  Se47  1  0.34051876  0.15665017  0.45585256  1
  Se  Se48  1  0.17059115  0.79851233  0.50743934  1
  Se  Se49  1  0.82940885  0.29851233  0.49256066  1
  Se  Se50  1  0.04307791  0.82415836  0.17907593  1
  Se  Se51  1  0.04307791  0.32415836  0.32092407  1
