# generated using pymatgen
data_K9(NbAs3)2
_symmetry_space_group_name_H-M   'P 1'
_cell_length_a   9.34210223
_cell_length_b   9.46802055
_cell_length_c   12.84298941
_cell_angle_alpha   96.30525526
_cell_angle_beta   90.00000000
_cell_angle_gamma   90.00000000
_symmetry_Int_Tables_number   1
_chemical_formula_structural   K9(NbAs3)2
_chemical_formula_sum   'K18 Nb4 As12'
_cell_volume   1129.10636812
_cell_formula_units_Z   2
loop_
 _symmetry_equiv_pos_site_id
 _symmetry_equiv_pos_as_xyz
  1  'x, y, z'
loop_
 _atom_site_type_symbol
 _atom_site_label
 _atom_site_symmetry_multiplicity
 _atom_site_fract_x
 _atom_site_fract_y
 _atom_site_fract_z
 _atom_site_occupancy
  K  K0  1  0.08865662  0.41442658  0.16611325  1
  K  K1  1  0.17063470  0.06813074  0.58654510  1
  K  K2  1  0.19057394  0.37557690  0.89289268  1
  K  K3  1  0.21834563  0.81780119  0.30031981  1
  K  K4  1  0.28165437  0.81780119  0.80031981  1
  K  K5  1  0.30942606  0.37557690  0.39289268  1
  K  K6  1  0.32936530  0.06813074  0.08654510  1
  K  K7  1  0.41134338  0.41442658  0.66611325  1
  K  K8  1  0.55385358  0.98616627  0.59388604  1
  K  K9  1  0.58428918  0.59298031  0.33618858  1
  K  K10  1  0.67426145  0.93001759  0.90471193  1
  K  K11  1  0.69416471  0.60429132  0.60939147  1
  K  K12  1  0.68010863  0.19749359  0.21755151  1
  K  K13  1  0.81989137  0.19749359  0.71755151  1
  K  K14  1  0.80583529  0.60429132  0.10939147  1
  K  K15  1  0.82573855  0.93001759  0.40471193  1
  K  K16  1  0.91571082  0.59298031  0.83618858  1
  K  K17  1  0.94614642  0.98616627  0.09388604  1
  Nb  Nb18  1  0.07532776  0.65662957  0.55403486  1
  Nb  Nb19  1  0.42467224  0.65662957  0.05403486  1
  Nb  Nb20  1  0.57936041  0.34285795  0.94550047  1
  Nb  Nb21  1  0.92063959  0.34285795  0.44550047  1
  As  As22  1  0.05634986  0.41049603  0.62054714  1
  As  As23  1  0.04764590  0.15596999  0.32464722  1
  As  As24  1  0.16448875  0.71678619  0.03277151  1
  As  As25  1  0.33551125  0.71678619  0.53277151  1
  As  As26  1  0.45235410  0.15596999  0.82464722  1
  As  As27  1  0.44365014  0.41049603  0.12054714  1
  As  As28  1  0.55630104  0.58923323  0.87867179  1
  As  As29  1  0.56199460  0.84542863  0.16618021  1
  As  As30  1  0.66507391  0.27751393  0.47714642  1
  As  As31  1  0.83492609  0.27751393  0.97714642  1
  As  As32  1  0.93800540  0.84542863  0.66618021  1
  As  As33  1  0.94369896  0.58923323  0.37867179  1
