# generated using pymatgen
data_K2Ti(SiO3)3
_symmetry_space_group_name_H-M   'P 1'
_cell_length_a   6.87019677
_cell_length_b   6.87019677
_cell_length_c   10.07936871
_cell_angle_alpha   90.00000000
_cell_angle_beta   90.00000000
_cell_angle_gamma   120.00000002
_symmetry_Int_Tables_number   1
_chemical_formula_structural   K2Ti(SiO3)3
_chemical_formula_sum   'K4 Ti2 Si6 O18'
_cell_volume   412.00483786
_cell_formula_units_Z   2
loop_
 _symmetry_equiv_pos_site_id
 _symmetry_equiv_pos_as_xyz
  1  'x, y, z'
loop_
 _atom_site_type_symbol
 _atom_site_label
 _atom_site_symmetry_multiplicity
 _atom_site_fract_x
 _atom_site_fract_y
 _atom_site_fract_z
 _atom_site_occupancy
  O  O0  1  0.24526592  0.22311364  0.38743337  1
  O  O1  1  0.02215228  0.24526592  0.88743337  1
  O  O2  1  0.22311364  0.97784772  0.88743337  1
  O  O3  1  0.77688636  0.02215228  0.38743337  1
  O  O4  1  0.97784772  0.75473408  0.38743337  1
  O  O5  1  0.75473408  0.77688636  0.88743337  1
  O  O6  1  0.75473408  0.77688636  0.61256663  1
  O  O7  1  0.97784772  0.75473408  0.11256663  1
  O  O8  1  0.77688636  0.02215228  0.11256663  1
  O  O9  1  0.22311364  0.97784772  0.61256663  1
  O  O10  1  0.02215228  0.24526592  0.61256663  1
  O  O11  1  0.24526592  0.22311364  0.11256663  1
  O  O12  1  0.48823203  0.08145362  0.25000000  1
  O  O13  1  0.40677841  0.48823203  0.75000000  1
  O  O14  1  0.08145362  0.59322159  0.75000000  1
  O  O15  1  0.91854638  0.40677841  0.25000000  1
  O  O16  1  0.59322159  0.51176797  0.25000000  1
  O  O17  1  0.51176797  0.91854638  0.75000000  1
  Si  Si18  1  0.62287966  0.75228749  0.75000000  1
  Si  Si19  1  0.87059217  0.62287966  0.25000000  1
  Si  Si20  1  0.75228749  0.12940783  0.25000000  1
  Si  Si21  1  0.24771251  0.87059217  0.75000000  1
  Si  Si22  1  0.12940783  0.37712034  0.75000000  1
  Si  Si23  1  0.37712034  0.24771251  0.25000000  1
  K  K24  1  0.33333333  0.66666667  0.05735661  1
  K  K25  1  0.66666667  0.33333333  0.55735661  1
  K  K26  1  0.33333333  0.66666667  0.44264339  1
  K  K27  1  0.66666667  0.33333333  0.94264339  1
  Ti  Ti28  1  0.00000000  0.00000000  0.00000000  1
  Ti  Ti29  1  0.00000000  0.00000000  0.50000000  1
