# generated using pymatgen
data_Na3Al2P2O8F3
_symmetry_space_group_name_H-M   'P 1'
_cell_length_a   6.28488404
_cell_length_b   6.27890714
_cell_length_c   13.68898623
_cell_angle_alpha   116.90245198
_cell_angle_beta   116.96593909
_cell_angle_gamma   90.09642725
_symmetry_Int_Tables_number   1
_chemical_formula_structural   Na3Al2P2O8F3
_chemical_formula_sum   'Na6 Al4 P4 O16 F6'
_cell_volume   414.56360059
_cell_formula_units_Z   2
loop_
 _symmetry_equiv_pos_site_id
 _symmetry_equiv_pos_as_xyz
  1  'x, y, z'
loop_
 _atom_site_type_symbol
 _atom_site_label
 _atom_site_symmetry_multiplicity
 _atom_site_fract_x
 _atom_site_fract_y
 _atom_site_fract_z
 _atom_site_occupancy
  Na  Na0  1  0.24924811  0.64329543  0.49825102  1
  Na  Na1  1  0.24546835  0.64532613  0.99849578  1
  Na  Na2  1  0.70152635  0.26446699  0.49946380  1
  Na  Na3  1  0.72217580  0.73733154  0.50235983  1
  Na  Na4  1  0.64718081  0.24653780  0.99812938  1
  Na  Na5  1  0.72877619  0.72781303  0.00251871  1
  Al  Al6  1  0.18772269  0.18505072  0.68043818  1
  Al  Al7  1  0.18760663  0.18699161  0.18012287  1
  Al  Al8  1  0.82564021  0.82519314  0.81980706  1
  Al  Al9  1  0.82543553  0.82238958  0.31921307  1
  P  P10  1  0.24757133  0.74611138  0.75043129  1
  P  P11  1  0.24871697  0.74755174  0.25100589  1
  P  P12  1  0.74545026  0.24739053  0.74947138  1
  P  P13  1  0.74597255  0.24689889  0.24957217  1
  O  O14  1  0.14205030  0.83111959  0.83967672  1
  O  O15  1  0.15750690  0.46295023  0.65976857  1
  O  O16  1  0.16148493  0.86175677  0.66398625  1
  O  O17  1  0.53349185  0.83155776  0.83648122  1
  O  O18  1  0.14004256  0.82869574  0.33889640  1
  O  O19  1  0.46300420  0.15645871  0.66038113  1
  O  O20  1  0.16072738  0.46474226  0.16055431  1
  O  O21  1  0.16307834  0.86404355  0.16498179  1
  O  O22  1  0.83275612  0.14075969  0.83874214  1
  O  O23  1  0.83093184  0.53363527  0.83648036  1
  O  O24  1  0.53503215  0.83492351  0.33756052  1
  O  O25  1  0.86273049  0.16463371  0.66397928  1
  O  O26  1  0.46391666  0.15638101  0.15931264  1
  O  O27  1  0.83293906  0.13958487  0.33864923  1
  O  O28  1  0.83106654  0.53313314  0.33736669  1
  O  O29  1  0.86358069  0.16466973  0.16447243  1
  F  F30  1  0.99326688  0.99384714  0.50002853  1
  F  F31  1  0.36128249  0.36111054  0.85540458  1
  F  F32  1  0.99287207  0.99342291  0.00001828  1
  F  F33  1  0.36536367  0.36157330  0.35521023  1
  F  F34  1  0.65753733  0.65523060  0.64466305  1
  F  F35  1  0.65364675  0.65301944  0.14410422  1
