# generated using pymatgen
data_Li5TiAs3
_symmetry_space_group_name_H-M   'P 1'
_cell_length_a   8.51528978
_cell_length_b   12.85600236
_cell_length_c   10.46328131
_cell_angle_alpha   35.22558483
_cell_angle_beta   35.55023426
_cell_angle_gamma   60.21443959
_symmetry_Int_Tables_number   1
_chemical_formula_structural   Li5TiAs3
_chemical_formula_sum   'Li10 Ti2 As6'
_cell_volume   332.54506895
_cell_formula_units_Z   2
loop_
 _symmetry_equiv_pos_site_id
 _symmetry_equiv_pos_as_xyz
  1  'x, y, z'
loop_
 _atom_site_type_symbol
 _atom_site_label
 _atom_site_symmetry_multiplicity
 _atom_site_fract_x
 _atom_site_fract_y
 _atom_site_fract_z
 _atom_site_occupancy
  Li  Li0  1  0.99252742  0.34501962  0.23915521  1
  Li  Li1  1  0.99492944  0.65591118  0.27307272  1
  Li  Li2  1  0.52307707  0.34249526  0.23082812  1
  Li  Li3  1  0.00744614  0.34459501  0.72462388  1
  Li  Li4  1  0.48888603  0.65842285  0.25707481  1
  Li  Li5  1  0.48105264  0.00004265  0.26941297  1
  Li  Li6  1  0.51277029  0.34332244  0.74005267  1
  Li  Li7  1  0.47802985  0.65722419  0.76905723  1
  Li  Li8  1  0.52050449  0.00064572  0.72911381  1
  Li  Li9  1  0.00914925  0.65646222  0.75818095  1
  Ti  Ti10  1  0.01531226  0.00015512  0.23456826  1
  Ti  Ti11  1  0.98551981  0.00023117  0.76420498  1
  As  As12  1  0.00034927  0.00022656  0.99947943  1
  As  As13  1  0.01416173  0.31071048  0.00205338  1
  As  As14  1  0.50050439  0.00080712  0.99881127  1
  As  As15  1  0.98787489  0.69018801  0.99504617  1
  As  As16  1  0.45179849  0.31011899  0.06536529  1
  As  As17  1  0.54929055  0.69042841  0.93368886  1
