# generated using pymatgen
data_Mo2NCl8
_symmetry_space_group_name_H-M   'P 1'
_cell_length_a   6.86367506
_cell_length_b   10.35494032
_cell_length_c   18.63876910
_cell_angle_alpha   101.02350177
_cell_angle_beta   90.00000000
_cell_angle_gamma   90.00000000
_symmetry_Int_Tables_number   1
_chemical_formula_structural   Mo2NCl8
_chemical_formula_sum   'Mo8 N4 Cl32'
_cell_volume   1300.26973821
_cell_formula_units_Z   4
loop_
 _symmetry_equiv_pos_site_id
 _symmetry_equiv_pos_as_xyz
  1  'x, y, z'
loop_
 _atom_site_type_symbol
 _atom_site_label
 _atom_site_symmetry_multiplicity
 _atom_site_fract_x
 _atom_site_fract_y
 _atom_site_fract_z
 _atom_site_occupancy
  Mo  Mo0  1  0.54332649  0.62124940  0.53462406  1
  Mo  Mo1  1  0.67643675  0.16826670  0.24207121  1
  Mo  Mo2  1  0.45744694  0.48848103  0.20605142  1
  Mo  Mo3  1  0.32421695  0.94187180  0.49842000  1
  Mo  Mo4  1  0.32356325  0.16826670  0.74207121  1
  Mo  Mo5  1  0.67578305  0.94187180  0.99842000  1
  Mo  Mo6  1  0.45667351  0.62124940  0.03462406  1
  Mo  Mo7  1  0.54255306  0.48848103  0.70605142  1
  N  N8  1  0.55962883  0.76161415  0.01662056  1
  N  N9  1  0.56003156  0.34804677  0.22406306  1
  N  N10  1  0.43996844  0.34804677  0.72406306  1
  N  N11  1  0.44037117  0.76161415  0.51662056  1
  Cl  Cl12  1  0.19511082  0.27117508  0.85035074  1
  Cl  Cl13  1  0.36823937  0.14196615  0.28510605  1
  Cl  Cl14  1  0.79595325  0.96881775  0.25702244  1
  Cl  Cl15  1  0.16858316  0.61467881  0.97411700  1
  Cl  Cl16  1  0.07703349  0.89479302  0.57126387  1
  Cl  Cl17  1  0.80646003  0.83836551  0.89081029  1
  Cl  Cl18  1  0.63293808  0.96671680  0.45532342  1
  Cl  Cl19  1  0.28701108  0.55483775  0.62028290  1
  Cl  Cl20  1  0.68177019  0.71825262  0.64954051  1
  Cl  Cl21  1  0.31822981  0.71825262  0.14954051  1
  Cl  Cl22  1  0.63176063  0.14196615  0.78510605  1
  Cl  Cl23  1  0.36706192  0.96671680  0.95532342  1
  Cl  Cl24  1  0.51343125  0.05424020  0.12034286  1
  Cl  Cl25  1  0.20811785  0.14148077  0.48329751  1
  Cl  Cl26  1  0.48656875  0.05424020  0.62034286  1
  Cl  Cl27  1  0.68195486  0.39158342  0.59129884  1
  Cl  Cl28  1  0.07780799  0.21527373  0.66924793  1
  Cl  Cl29  1  0.83141684  0.61467881  0.47411700  1
  Cl  Cl30  1  0.61691764  0.64199469  0.29055898  1
  Cl  Cl31  1  0.71298892  0.55483775  0.12028290  1
  Cl  Cl32  1  0.80488918  0.27117508  0.35035074  1
  Cl  Cl33  1  0.38308236  0.64199469  0.79055898  1
  Cl  Cl34  1  0.38441109  0.46745994  0.45008875  1
  Cl  Cl35  1  0.79188215  0.14148077  0.98329751  1
  Cl  Cl36  1  0.16950184  0.49540391  0.26678860  1
  Cl  Cl37  1  0.92219201  0.21527373  0.16924793  1
  Cl  Cl38  1  0.20404675  0.96881775  0.75702244  1
  Cl  Cl39  1  0.31804514  0.39158342  0.09129884  1
  Cl  Cl40  1  0.19353997  0.83836551  0.39081029  1
  Cl  Cl41  1  0.83049816  0.49540391  0.76678860  1
  Cl  Cl42  1  0.92296651  0.89479302  0.07126387  1
  Cl  Cl43  1  0.61558891  0.46745994  0.95008875  1
