# generated using pymatgen
data_Nd4Si4N7ClO3
_symmetry_space_group_name_H-M   'P 1'
_cell_length_a   10.55743101
_cell_length_b   10.38525838
_cell_length_c   10.42901384
_cell_angle_alpha   90.00000000
_cell_angle_beta   90.00000000
_cell_angle_gamma   90.00000000
_symmetry_Int_Tables_number   1
_chemical_formula_structural   Nd4Si4N7ClO3
_chemical_formula_sum   'Nd16 Si16 N28 Cl4 O12'
_cell_volume   1143.45427348
_cell_formula_units_Z   4
loop_
 _symmetry_equiv_pos_site_id
 _symmetry_equiv_pos_as_xyz
  1  'x, y, z'
loop_
 _atom_site_type_symbol
 _atom_site_label
 _atom_site_symmetry_multiplicity
 _atom_site_fract_x
 _atom_site_fract_y
 _atom_site_fract_z
 _atom_site_occupancy
  Nd  Nd0  1  0.04382131  0.81678659  0.68990803  1
  Nd  Nd1  1  0.10221028  0.10800509  0.10892942  1
  Nd  Nd2  1  0.17866292  0.19347967  0.44991070  1
  Nd  Nd3  1  0.18931668  0.45467249  0.18556523  1
  Nd  Nd4  1  0.31068332  0.54532751  0.68556523  1
  Nd  Nd5  1  0.32133708  0.80652033  0.94991070  1
  Nd  Nd6  1  0.39778972  0.89199491  0.60892942  1
  Nd  Nd7  1  0.45617869  0.18321341  0.18990803  1
  Nd  Nd8  1  0.54382131  0.68321341  0.31009197  1
  Nd  Nd9  1  0.60221028  0.39199491  0.89107058  1
  Nd  Nd10  1  0.67866292  0.30652033  0.55008930  1
  Nd  Nd11  1  0.68931668  0.04532751  0.81443477  1
  Nd  Nd12  1  0.81068332  0.95467249  0.31443477  1
  Nd  Nd13  1  0.82133708  0.69347967  0.05008930  1
  Nd  Nd14  1  0.89778972  0.60800509  0.39107058  1
  Nd  Nd15  1  0.95617869  0.31678659  0.81009197  1
  Si  Si16  1  0.06976083  0.57011079  0.93007052  1
  Si  Si17  1  0.07573510  0.74678319  0.19849877  1
  Si  Si18  1  0.19629830  0.08020325  0.74298979  1
  Si  Si19  1  0.24443396  0.30325601  0.91973540  1
  Si  Si20  1  0.25556604  0.69674399  0.41973540  1
  Si  Si21  1  0.30370170  0.91979675  0.24298979  1
  Si  Si22  1  0.42426490  0.25321681  0.69849877  1
  Si  Si23  1  0.43023917  0.42988921  0.43007052  1
  Si  Si24  1  0.56976083  0.92988921  0.06992948  1
  Si  Si25  1  0.57573510  0.75321681  0.80150123  1
  Si  Si26  1  0.69629830  0.41979675  0.25701021  1
  Si  Si27  1  0.74443396  0.19674399  0.08026460  1
  Si  Si28  1  0.75556604  0.80325601  0.58026460  1
  Si  Si29  1  0.80370170  0.58020325  0.75701021  1
  Si  Si30  1  0.92426490  0.24678319  0.30150123  1
  Si  Si31  1  0.93023917  0.07011079  0.56992948  1
  N  N32  1  0.05349990  0.63222588  0.07985363  1
  N  N33  1  0.07628077  0.28671972  0.25948492  1
  N  N34  1  0.07870488  0.05078854  0.63326378  1
  N  N35  1  0.13036092  0.65070043  0.32693746  1
  N  N36  1  0.13205173  0.41922668  0.94575138  1
  N  N37  1  0.15129352  0.17296856  0.87146579  1
  N  N38  1  0.17509483  0.87060911  0.15215182  1
  N  N39  1  0.32490517  0.12939089  0.65215182  1
  N  N40  1  0.34870648  0.82703144  0.37146579  1
  N  N41  1  0.36794827  0.58077332  0.44575138  1
  N  N42  1  0.36963908  0.34929957  0.82693746  1
  N  N43  1  0.42129512  0.94921146  0.13326378  1
  N  N44  1  0.42371923  0.71328028  0.75948492  1
  N  N45  1  0.44650010  0.36777412  0.57985363  1
  N  N46  1  0.55349990  0.86777412  0.92014637  1
  N  N47  1  0.57628077  0.21328028  0.74051508  1
  N  N48  1  0.57870488  0.44921146  0.36673622  1
  N  N49  1  0.63036092  0.84929957  0.67306254  1
  N  N50  1  0.63205173  0.08077332  0.05424862  1
  N  N51  1  0.65129352  0.32703144  0.12853421  1
  N  N52  1  0.67509483  0.62939089  0.84784818  1
  N  N53  1  0.82490517  0.37060911  0.34784818  1
  N  N54  1  0.84870648  0.67296856  0.62853421  1
  N  N55  1  0.86794827  0.91922668  0.55424862  1
  N  N56  1  0.86963908  0.15070043  0.17306254  1
  N  N57  1  0.92129512  0.55078854  0.86673622  1
  N  N58  1  0.92371923  0.78671972  0.24051508  1
  N  N59  1  0.94650010  0.13222588  0.42014637  1
  Cl  Cl60  1  0.07257324  0.42519266  0.57652513  1
  Cl  Cl61  1  0.42742676  0.57480734  0.07652513  1
  Cl  Cl62  1  0.57257324  0.07480734  0.42347487  1
  Cl  Cl63  1  0.92742676  0.92519266  0.92347487  1
  O  O64  1  0.15881336  0.66385275  0.83659711  1
  O  O65  1  0.20974910  0.73925855  0.56921961  1
  O  O66  1  0.23573106  0.92910912  0.78750622  1
  O  O67  1  0.26426894  0.07089088  0.28750622  1
  O  O68  1  0.29025090  0.26074145  0.06921961  1
  O  O69  1  0.34118664  0.33614725  0.33659711  1
  O  O70  1  0.65881336  0.83614725  0.16340289  1
  O  O71  1  0.70974910  0.76074145  0.43078039  1
  O  O72  1  0.73573106  0.57089088  0.21249378  1
  O  O73  1  0.76426894  0.42910912  0.71249378  1
  O  O74  1  0.79025090  0.23925855  0.93078039  1
  O  O75  1  0.84118664  0.16385275  0.66340289  1
