# generated using pymatgen
data_Mg3BH2O5F
_symmetry_space_group_name_H-M   'P 1'
_cell_length_a   9.06792378
_cell_length_b   9.01338700
_cell_length_c   3.18210039
_cell_angle_alpha   90.00000000
_cell_angle_beta   90.00000000
_cell_angle_gamma   120.25185047
_symmetry_Int_Tables_number   1
_chemical_formula_structural   Mg3BH2O5F
_chemical_formula_sum   'Mg6 B2 H4 O10 F2'
_cell_volume   224.66355482
_cell_formula_units_Z   2
loop_
 _symmetry_equiv_pos_site_id
 _symmetry_equiv_pos_as_xyz
  1  'x, y, z'
loop_
 _atom_site_type_symbol
 _atom_site_label
 _atom_site_symmetry_multiplicity
 _atom_site_fract_x
 _atom_site_fract_y
 _atom_site_fract_z
 _atom_site_occupancy
  Mg  Mg0  1  0.02198934  0.36466802  0.75000000  1
  Mg  Mg1  1  0.33932954  0.96529800  0.75000000  1
  Mg  Mg2  1  0.36777365  0.33793951  0.25000000  1
  Mg  Mg3  1  0.62864273  0.65479553  0.75000000  1
  Mg  Mg4  1  0.64871118  0.02121164  0.25000000  1
  Mg  Mg5  1  0.96784502  0.62901824  0.25000000  1
  B  B6  1  0.32673332  0.65964771  0.25000000  1
  B  B7  1  0.66385305  0.33132968  0.75000000  1
  H  H8  1  0.14248887  0.14767390  0.75000000  1
  H  H9  1  0.81852112  0.98480689  0.75000000  1
  H  H10  1  0.85880665  0.83193006  0.25000000  1
  H  H11  1  0.98575565  0.15231968  0.25000000  1
  O  O12  1  0.15048931  0.54701517  0.25000000  1
  O  O13  1  0.38966733  0.83800280  0.25000000  1
  O  O14  1  0.19382204  0.27170452  0.75000000  1
  O  O15  1  0.43926756  0.59672553  0.25000000  1
  O  O16  1  0.69641541  0.90704788  0.75000000  1
  O  O17  1  0.55007229  0.39384539  0.75000000  1
  O  O18  1  0.79576200  0.70745986  0.25000000  1
  O  O19  1  0.59809796  0.15358637  0.75000000  1
  O  O20  1  0.84007917  0.44420673  0.75000000  1
  O  O21  1  0.90650839  0.19537048  0.25000000  1
  F  F22  1  0.09193530  0.79009259  0.75000000  1
  F  F23  1  0.29743312  0.08430382  0.25000000  1
