# generated using pymatgen
data_NiSn
_symmetry_space_group_name_H-M   'P 1'
_cell_length_a   4.13446067
_cell_length_b   5.22928706
_cell_length_c   24.96070184
_cell_angle_alpha   90.00000000
_cell_angle_beta   90.00000000
_cell_angle_gamma   90.00000000
_symmetry_Int_Tables_number   1
_chemical_formula_structural   NiSn
_chemical_formula_sum   'Ni16 Sn16'
_cell_volume   539.65740475
_cell_formula_units_Z   16
loop_
 _symmetry_equiv_pos_site_id
 _symmetry_equiv_pos_as_xyz
  1  'x, y, z'
loop_
 _atom_site_type_symbol
 _atom_site_label
 _atom_site_symmetry_multiplicity
 _atom_site_fract_x
 _atom_site_fract_y
 _atom_site_fract_z
 _atom_site_occupancy
  Ni  Ni0  1  0.00000000  0.71689939  0.39396525  1
  Ni  Ni1  1  0.00000000  0.21689939  0.10603475  1
  Ni  Ni2  1  0.50000000  0.21303662  0.25546054  1
  Ni  Ni3  1  0.50000000  0.00273165  0.64079507  1
  Ni  Ni4  1  0.50000000  0.50273165  0.85920493  1
  Ni  Ni5  1  0.50000000  0.28696338  0.75546054  1
  Ni  Ni6  1  0.00000000  0.00000000  0.50000000  1
  Ni  Ni7  1  0.50000000  0.99726835  0.35920493  1
  Ni  Ni8  1  0.50000000  0.78696338  0.74453946  1
  Ni  Ni9  1  0.00000000  0.78310061  0.89396525  1
  Ni  Ni10  1  0.50000000  0.71303662  0.24453946  1
  Ni  Ni11  1  0.00000000  0.28310061  0.60603475  1
  Ni  Ni12  1  0.50000000  0.49726835  0.14079507  1
  Ni  Ni13  1  0.00000000  0.00000000  0.00000000  1
  Ni  Ni14  1  0.00000000  0.50000000  0.50000000  1
  Ni  Ni15  1  0.00000000  0.50000000  0.00000000  1
  Sn  Sn16  1  0.50000000  0.25480370  0.03920739  1
  Sn  Sn17  1  0.00000000  0.27754102  0.90970263  1
  Sn  Sn18  1  0.00000000  0.72245898  0.09029737  1
  Sn  Sn19  1  0.50000000  0.00085455  0.83914709  1
  Sn  Sn20  1  0.50000000  0.74519630  0.96079261  1
  Sn  Sn21  1  0.00000000  0.77754102  0.59029737  1
  Sn  Sn22  1  0.00000000  0.94706380  0.29000010  1
  Sn  Sn23  1  0.00000000  0.44706380  0.20999990  1
  Sn  Sn24  1  0.00000000  0.55293620  0.79000010  1
  Sn  Sn25  1  0.50000000  0.24519630  0.53920739  1
  Sn  Sn26  1  0.00000000  0.22245898  0.40970263  1
  Sn  Sn27  1  0.50000000  0.75480370  0.46079261  1
  Sn  Sn28  1  0.00000000  0.05293620  0.70999990  1
  Sn  Sn29  1  0.50000000  0.50085455  0.66085291  1
  Sn  Sn30  1  0.50000000  0.99914545  0.16085291  1
  Sn  Sn31  1  0.50000000  0.49914545  0.33914709  1
