# generated using pymatgen
data_Mg9(In13S24)2
_symmetry_space_group_name_H-M   'P 1'
_cell_length_a   7.69252748
_cell_length_b   7.72356087
_cell_length_c   46.11055160
_cell_angle_alpha   59.84049222
_cell_angle_beta   59.91885984
_cell_angle_gamma   59.87339605
_symmetry_Int_Tables_number   1
_chemical_formula_structural   Mg9(In13S24)2
_chemical_formula_sum   'Mg9 In26 S48'
_cell_volume   1931.80616642
_cell_formula_units_Z   1
loop_
 _symmetry_equiv_pos_site_id
 _symmetry_equiv_pos_as_xyz
  1  'x, y, z'
loop_
 _atom_site_type_symbol
 _atom_site_label
 _atom_site_symmetry_multiplicity
 _atom_site_fract_x
 _atom_site_fract_y
 _atom_site_fract_z
 _atom_site_occupancy
  Mg  Mg0  1  0.49743700  0.50098178  0.16680825  1
  Mg  Mg1  1  0.49999649  0.50010455  0.33330201  1
  Mg  Mg2  1  -0.00009870  0.50025636  0.24997870  1
  Mg  Mg3  1  0.50003218  0.50025076  0.49994387  1
  Mg  Mg4  1  0.00035994  0.50003550  0.41657099  1
  Mg  Mg5  1  0.50063270  0.50045735  0.66641823  1
  Mg  Mg6  1  0.00036715  0.50031229  0.58321958  1
  Mg  Mg7  1  0.50373692  0.50016060  0.83269763  1
  Mg  Mg8  1  0.00039477  0.50013452  0.74988282  1
  In  In9  1  0.48760150  0.48761482  0.00619857  1
  In  In10  1  0.12762785  0.11555401  0.19022747  1
  In  In11  1  0.49715753  0.01580153  0.08172245  1
  In  In12  1  0.49709846  0.49653668  0.08174216  1
  In  In13  1  0.13175906  0.11810536  0.35523533  1
  In  In14  1  0.50009300  0.00026220  0.24999710  1
  In  In15  1  0.49968066  0.50011021  0.24995042  1
  In  In16  1  0.01580990  0.49708198  0.08162279  1
  In  In17  1  0.87721183  0.87943550  0.14397367  1
  In  In18  1  0.13177665  0.11846271  0.52190771  1
  In  In19  1  0.49985171  0.50016819  0.41659062  1
  In  In20  1  0.86911289  0.88231936  0.31113538  1
  In  In21  1  0.50034854  0.00039570  0.58313572  1
  In  In22  1  0.13225172  0.11814693  0.68846014  1
  In  In23  1  0.50014796  0.00012894  0.41655825  1
  In  In24  1  0.50042250  0.50062643  0.58308685  1
  In  In25  1  0.86912129  0.88236192  0.47769125  1
  In  In26  1  0.50063036  0.00027848  0.74962432  1
  In  In27  1  0.12721210  0.12479767  0.85390340  1
  In  In28  1  0.50081434  0.50070950  0.74964631  1
  In  In29  1  0.86915944  0.88240810  0.64441995  1
  In  In30  1  0.49410010  0.49402786  0.91717647  1
  In  In31  1  0.87109014  0.88221766  0.81078663  1
  In  In32  1  0.49406673  0.00864260  0.91716695  1
  In  In33  1  0.00854681  0.49432394  0.91716716  1
  In  In34  1  0.87348269  0.87454364  0.97956898  1
  S  S35  1  0.25270624  0.25346415  0.04336130  1
  S  S36  1  0.25266491  0.73347257  0.04338625  1
  S  S37  1  0.25197322  0.25181121  0.12406252  1
  S  S38  1  0.73423852  0.25245869  0.04348074  1
  S  S39  1  0.27902515  0.73860614  0.12396087  1
  S  S40  1  0.25768331  0.26295425  0.21001639  1
  S  S41  1  0.73823773  0.27999559  0.12406934  1
  S  S42  1  0.25744682  0.71957530  0.20999655  1
  S  S43  1  0.74157244  0.74269935  0.04548137  1
  S  S44  1  0.25196768  0.26026396  0.28792492  1
  S  S45  1  0.72407858  0.26060580  0.20915745  1
  S  S46  1  0.73830532  0.73753520  0.12402731  1
  S  S47  1  0.27392583  0.73941580  0.29123503  1
  S  S48  1  0.25753683  0.26306920  0.37639926  1
  S  S49  1  0.74212864  0.27909026  0.29039457  1
  S  S50  1  0.25729331  0.72071258  0.37643942  1
  S  S51  1  0.74701882  0.73979603  0.21224047  1
  S  S52  1  0.25259396  0.26018271  0.45447762  1
  S  S53  1  0.72567577  0.26028386  0.37561239  1
  S  S54  1  0.74203172  0.73660609  0.29044268  1
  S  S55  1  0.25749795  0.26322948  0.54310577  1
  S  S56  1  0.27378237  0.73922569  0.45797399  1
  S  S57  1  0.25735055  0.72084143  0.54310956  1
  S  S58  1  0.74202475  0.27892854  0.45714670  1
  S  S59  1  0.74706219  0.73920194  0.37905115  1
  S  S60  1  0.25259923  0.26035693  0.62114237  1
  S  S61  1  0.72567819  0.26021654  0.54229529  1
  S  S62  1  0.74200684  0.73625455  0.45715734  1
  S  S63  1  0.25722117  0.26313744  0.70972208  1
  S  S64  1  0.27363592  0.73923264  0.62467193  1
  S  S65  1  0.74208645  0.27877804  0.62382667  1
  S  S66  1  0.25714354  0.72086796  0.70977342  1
  S  S67  1  0.74705598  0.73919855  0.54578894  1
  S  S68  1  0.25449547  0.26177589  0.78696095  1
  S  S69  1  0.72632806  0.26009004  0.70888168  1
  S  S70  1  0.74194359  0.73641375  0.62386059  1
  S  S71  1  0.27459076  0.73878859  0.79125516  1
  S  S72  1  0.26173974  0.26217322  0.87460937  1
  S  S73  1  0.74190299  0.27861603  0.79047494  1
  S  S74  1  0.74699169  0.73893577  0.71251295  1
  S  S75  1  0.26147330  0.72879417  0.87461321  1
  S  S76  1  0.25985105  0.25934290  0.95357298  1
  S  S77  1  0.72953990  0.26105735  0.87471015  1
  S  S78  1  0.74169779  0.73678396  0.79047573  1
  S  S79  1  0.27670009  0.74230036  0.95643839  1
  S  S80  1  0.74217962  0.27688050  0.95653148  1
  S  S81  1  0.74130278  0.74134219  0.87928162  1
  S  S82  1  0.74197905  0.74188121  0.95653806  1
