# generated using pymatgen
data_Na2BH4ClO4
_symmetry_space_group_name_H-M   'P 1'
_cell_length_a   7.38174976
_cell_length_b   7.38174976
_cell_length_c   4.84948360
_cell_angle_alpha   90.00000000
_cell_angle_beta   90.00000000
_cell_angle_gamma   90.00000000
_symmetry_Int_Tables_number   1
_chemical_formula_structural   Na2BH4ClO4
_chemical_formula_sum   'Na4 B2 H8 Cl2 O8'
_cell_volume   264.24947441
_cell_formula_units_Z   2
loop_
 _symmetry_equiv_pos_site_id
 _symmetry_equiv_pos_as_xyz
  1  'x, y, z'
loop_
 _atom_site_type_symbol
 _atom_site_label
 _atom_site_symmetry_multiplicity
 _atom_site_fract_x
 _atom_site_fract_y
 _atom_site_fract_z
 _atom_site_occupancy
  Na  Na0  1  0.50000000  0.50000000  0.50000000  1
  Na  Na1  1  0.00000000  0.50000000  0.50000000  1
  Na  Na2  1  0.50000000  0.00000000  0.50000000  1
  Na  Na3  1  0.00000000  0.00000000  0.50000000  1
  B  B4  1  0.75000000  0.25000000  0.00000000  1
  B  B5  1  0.25000000  0.75000000  0.00000000  1
  H  H6  1  0.51642871  0.75000000  0.93552322  1
  H  H7  1  0.98357129  0.75000000  0.93552322  1
  H  H8  1  0.75000000  0.51642871  0.93552322  1
  H  H9  1  0.75000000  0.98357129  0.93552322  1
  H  H10  1  0.48357129  0.25000000  0.06447678  1
  H  H11  1  0.01642871  0.25000000  0.06447678  1
  H  H12  1  0.25000000  0.48357129  0.06447678  1
  H  H13  1  0.25000000  0.01642871  0.06447678  1
  Cl  Cl14  1  0.75000000  0.75000000  0.26043989  1
  Cl  Cl15  1  0.25000000  0.25000000  0.73956011  1
  O  O16  1  0.41098276  0.75000000  0.81228324  1
  O  O17  1  0.08901724  0.75000000  0.81228324  1
  O  O18  1  0.75000000  0.41098276  0.81228324  1
  O  O19  1  0.75000000  0.08901724  0.81228324  1
  O  O20  1  0.58901724  0.25000000  0.18771676  1
  O  O21  1  0.91098276  0.25000000  0.18771676  1
  O  O22  1  0.25000000  0.58901724  0.18771676  1
  O  O23  1  0.25000000  0.91098276  0.18771676  1
