# generated using pymatgen
data_Ba4Sm7Si12BN27
_symmetry_space_group_name_H-M   'P 1'
_cell_length_a   12.26139519
_cell_length_b   12.26139511
_cell_length_c   5.45814436
_cell_angle_alpha   90.00000000
_cell_angle_beta   90.00000000
_cell_angle_gamma   120.00000022
_symmetry_Int_Tables_number   1
_chemical_formula_structural   Ba4Sm7Si12BN27
_chemical_formula_sum   'Ba4 Sm7 Si12 B1 N27'
_cell_volume   710.64945327
_cell_formula_units_Z   1
loop_
 _symmetry_equiv_pos_site_id
 _symmetry_equiv_pos_as_xyz
  1  'x, y, z'
loop_
 _atom_site_type_symbol
 _atom_site_label
 _atom_site_symmetry_multiplicity
 _atom_site_fract_x
 _atom_site_fract_y
 _atom_site_fract_z
 _atom_site_occupancy
  Ba  Ba0  1  0.92303880  0.48848299  0.50000000  1
  Ba  Ba1  1  0.51151701  0.43455581  0.50000000  1
  Ba  Ba2  1  0.33333300  0.66666700  0.50000000  1
  Ba  Ba3  1  0.56544419  0.07696120  0.50000000  1
  Sm  Sm4  1  0.78156599  0.02392293  0.00000000  1
  Sm  Sm5  1  0.67875054  0.70627474  0.00000000  1
  Sm  Sm6  1  0.02752420  0.32124946  0.00000000  1
  Sm  Sm7  1  0.00000000  0.00000000  0.50000000  1
  Sm  Sm8  1  0.97607707  0.75764306  0.00000000  1
  Sm  Sm9  1  0.24235694  0.21843401  0.00000000  1
  Sm  Sm10  1  0.29372526  0.97247580  0.00000000  1
  Si  Si11  1  0.49396658  0.79878010  0.00000000  1
  Si  Si12  1  0.75751863  0.26254231  0.00000000  1
  Si  Si13  1  0.67924645  0.87267148  0.50000000  1
  Si  Si14  1  0.87698342  0.18629946  0.50000000  1
  Si  Si15  1  0.81370054  0.69068396  0.50000000  1
  Si  Si16  1  0.73745769  0.49497632  0.00000000  1
  Si  Si17  1  0.19342503  0.32075355  0.50000000  1
  Si  Si18  1  0.30481352  0.50603342  0.00000000  1
  Si  Si19  1  0.12732852  0.80657497  0.50000000  1
  Si  Si20  1  0.30931604  0.12301658  0.50000000  1
  Si  Si21  1  0.20121990  0.69518648  0.00000000  1
  Si  Si22  1  0.50502368  0.24248137  0.00000000  1
  B  B23  1  0.00000000  0.00000000  0.00000000  1
  N  N24  1  0.12961564  0.72478679  0.24509729  1
  N  N25  1  0.12961564  0.72478679  0.75490271  1
  N  N26  1  0.25021805  0.96130071  0.50000000  1
  N  N27  1  0.03869929  0.28891734  0.50000000  1
  N  N28  1  0.18641864  0.54807186  0.00000000  1
  N  N29  1  0.87261559  0.88837649  0.00000000  1
  N  N30  1  0.01576090  0.12738441  0.00000000  1
  N  N31  1  0.36165322  0.81358136  0.00000000  1
  N  N32  1  0.27521321  0.40482885  0.75490271  1
  N  N33  1  0.27521321  0.40482885  0.24509729  1
  N  N34  1  0.20283530  0.18044558  0.50000000  1
  N  N35  1  0.11162351  0.98423910  0.00000000  1
  N  N36  1  0.45192814  0.63834678  0.00000000  1
  N  N37  1  0.59517115  0.87038436  0.75490271  1
  N  N38  1  0.59517115  0.87038436  0.24509729  1
  N  N39  1  0.39796909  0.17871924  0.23971348  1
  N  N40  1  0.39796909  0.17871924  0.76028652  1
  N  N41  1  0.71108266  0.74978195  0.50000000  1
  N  N42  1  0.57636497  0.40300265  0.00000000  1
  N  N43  1  0.78075015  0.60203091  0.23971348  1
  N  N44  1  0.78075015  0.60203091  0.76028652  1
  N  N45  1  0.59699735  0.17336231  0.00000000  1
  N  N46  1  0.97761028  0.79716470  0.50000000  1
  N  N47  1  0.82663769  0.42363503  0.00000000  1
  N  N48  1  0.82128076  0.21924985  0.76028652  1
  N  N49  1  0.82128076  0.21924985  0.23971348  1
  N  N50  1  0.81955442  0.02238972  0.50000000  1
