# generated using pymatgen
data_Ca10P6ClO24F
_symmetry_space_group_name_H-M   'P 1'
_cell_length_a   9.59093060
_cell_length_b   9.59093098
_cell_length_c   13.83271773
_cell_angle_alpha   90.00000000
_cell_angle_beta   90.00000000
_cell_angle_gamma   119.99999872
_symmetry_Int_Tables_number   1
_chemical_formula_structural   Ca10P6ClO24F
_chemical_formula_sum   'Ca20 P12 Cl2 O48 F2'
_cell_volume   1101.94435926
_cell_formula_units_Z   2
loop_
 _symmetry_equiv_pos_site_id
 _symmetry_equiv_pos_as_xyz
  1  'x, y, z'
loop_
 _atom_site_type_symbol
 _atom_site_label
 _atom_site_symmetry_multiplicity
 _atom_site_fract_x
 _atom_site_fract_y
 _atom_site_fract_z
 _atom_site_occupancy
  Ca  Ca0  1  0.26089320  0.99440530  0.12518063  1
  Ca  Ca1  1  0.24234812  0.99804652  0.62381376  1
  Ca  Ca2  1  0.00559470  0.26648790  0.12518063  1
  Ca  Ca3  1  0.00195348  0.24430160  0.62381376  1
  Ca  Ca4  1  0.33333300  0.66666700  0.99940677  1
  Ca  Ca5  1  0.33333300  0.66666700  0.50145067  1
  Ca  Ca6  1  0.33333300  0.66666700  0.25007954  1
  Ca  Ca7  1  0.33333300  0.66666700  0.74847915  1
  Ca  Ca8  1  0.26464687  0.25936200  0.37314581  1
  Ca  Ca9  1  0.24652995  0.24419341  0.87354677  1
  Ca  Ca10  1  0.73351210  0.73910680  0.12518063  1
  Ca  Ca11  1  0.75569840  0.75765188  0.62381376  1
  Ca  Ca12  1  0.66666700  0.33333300  0.25026710  1
  Ca  Ca13  1  0.66666700  0.33333300  0.75031902  1
  Ca  Ca14  1  0.66666700  0.33333300  0.99693357  1
  Ca  Ca15  1  0.66666700  0.33333300  0.50116399  1
  Ca  Ca16  1  0.99471512  0.73535313  0.37314581  1
  Ca  Ca17  1  0.99766345  0.75347005  0.87354677  1
  Ca  Ca18  1  0.74063800  0.00528488  0.37314581  1
  Ca  Ca19  1  0.75580659  0.00233655  0.87354677  1
  P  P20  1  0.03274692  0.40280862  0.37631033  1
  P  P21  1  0.03040984  0.39956257  0.87484179  1
  P  P22  1  0.37006170  0.96725308  0.37631033  1
  P  P23  1  0.36915273  0.96959016  0.87484179  1
  P  P24  1  0.39970154  0.36738109  0.12479129  1
  P  P25  1  0.40220328  0.37143115  0.62573197  1
  P  P26  1  0.59719138  0.62993830  0.37631033  1
  P  P27  1  0.60043743  0.63084727  0.87484179  1
  P  P28  1  0.63261891  0.03232045  0.12479129  1
  P  P29  1  0.62856885  0.03077213  0.62573197  1
  P  P30  1  0.96767955  0.60029846  0.12479129  1
  P  P31  1  0.96922787  0.59779672  0.62573197  1
  Cl  Cl32  1  0.00000000  0.00000000  0.43969663  1
  Cl  Cl33  1  0.00000000  0.00000000  0.19381575  1
  O  O34  1  0.26487817  0.90792145  0.46824037  1
  O  O35  1  0.25752257  0.91294614  0.96547571  1
  O  O36  1  0.25801707  0.91254205  0.28609995  1
  O  O37  1  0.25721537  0.91431577  0.78495780  1
  O  O38  1  0.15296003  0.66927096  0.12568637  1
  O  O39  1  0.15445296  0.67012219  0.62591112  1
  O  O40  1  0.12450137  0.59077858  0.37234961  1
  O  O41  1  0.12142764  0.58766520  0.87540663  1
  O  O42  1  0.08745795  0.34547502  0.28609995  1
  O  O43  1  0.08568423  0.34289960  0.78495780  1
  O  O44  1  0.09207855  0.35695672  0.46824037  1
  O  O45  1  0.08705386  0.34457643  0.96547571  1
  O  O46  1  0.46627721  0.87549863  0.37234961  1
  O  O47  1  0.46623756  0.87857236  0.87540663  1
  O  O48  1  0.51631094  0.84703997  0.12568637  1
  O  O49  1  0.51566924  0.84554704  0.62591112  1
  O  O50  1  0.33072904  0.48368906  0.12568637  1
  O  O51  1  0.32987781  0.48433076  0.62591112  1
  O  O52  1  0.40922142  0.53372279  0.37234961  1
  O  O53  1  0.41233480  0.53376244  0.87540663  1
  O  O54  1  0.33475747  0.25112706  0.03681366  1
  O  O55  1  0.34932533  0.26157778  0.53470069  1
  O  O56  1  0.35865594  0.26442991  0.21764436  1
  O  O57  1  0.34514836  0.25863094  0.71570437  1
  O  O58  1  0.65452498  0.74198293  0.28609995  1
  O  O59  1  0.64304328  0.73512183  0.46824037  1
  O  O60  1  0.65710040  0.74278463  0.78495780  1
  O  O61  1  0.65542357  0.74247743  0.96547571  1
  O  O62  1  0.58774589  0.46358940  0.11914092  1
  O  O63  1  0.59007591  0.46839741  0.62686691  1
  O  O64  1  0.66777660  0.51508317  0.37591160  1
  O  O65  1  0.67158489  0.51677262  0.87555973  1
  O  O66  1  0.48491683  0.15269343  0.37591160  1
  O  O67  1  0.48322738  0.15481227  0.87555973  1
  O  O68  1  0.53641060  0.12415649  0.11914092  1
  O  O69  1  0.53160259  0.12167850  0.62686691  1
  O  O70  1  0.91636959  0.66524253  0.03681366  1
  O  O71  1  0.90577397  0.64134406  0.21764436  1
  O  O72  1  0.91225245  0.65067467  0.53470069  1
  O  O73  1  0.91348258  0.65485164  0.71570437  1
  O  O74  1  0.87584351  0.41225411  0.11914092  1
  O  O75  1  0.87832150  0.40992409  0.62686691  1
  O  O76  1  0.84730657  0.33222340  0.37591160  1
  O  O77  1  0.84518773  0.32841511  0.87555973  1
  O  O78  1  0.74887294  0.08363041  0.03681366  1
  O  O79  1  0.73557009  0.09422603  0.21764436  1
  O  O80  1  0.74136906  0.08651742  0.71570437  1
  O  O81  1  0.73842222  0.08774755  0.53470069  1
  F  F82  1  0.00000000  0.00000000  0.64828397  1
  F  F83  1  0.00000000  0.00000000  0.87890736  1
