# generated using pymatgen
data_CoPO4
_symmetry_space_group_name_H-M   'P 1'
_cell_length_a   10.45000541
_cell_length_b   6.71682543
_cell_length_c   5.10946249
_cell_angle_alpha   90.00000000
_cell_angle_beta   90.00000000
_cell_angle_gamma   90.00000000
_symmetry_Int_Tables_number   1
_chemical_formula_structural   CoPO4
_chemical_formula_sum   'Co4 P4 O16'
_cell_volume   358.63757695
_cell_formula_units_Z   4
loop_
 _symmetry_equiv_pos_site_id
 _symmetry_equiv_pos_as_xyz
  1  'x, y, z'
loop_
 _atom_site_type_symbol
 _atom_site_label
 _atom_site_symmetry_multiplicity
 _atom_site_fract_x
 _atom_site_fract_y
 _atom_site_fract_z
 _atom_site_occupancy
  Co  Co0  1  0.34244677  0.71641516  0.18513303  1
  Co  Co1  1  0.84244677  0.71641516  0.31486697  1
  Co  Co2  1  0.65755323  0.21641516  0.81486697  1
  Co  Co3  1  0.15755323  0.21641516  0.68513303  1
  P  P4  1  0.40500624  0.46239694  0.68641963  1
  P  P5  1  0.90500624  0.46239694  0.81358037  1
  P  P6  1  0.09499376  0.96239694  0.18641963  1
  P  P7  1  0.59499376  0.96239694  0.31358037  1
  O  O8  1  0.95226030  0.92654642  0.24834046  1
  O  O9  1  0.61126274  0.99865434  0.61103863  1
  O  O10  1  0.17283205  0.77457893  0.26315525  1
  O  O11  1  0.35778781  0.64994022  0.83343986  1
  O  O12  1  0.11126274  0.99865434  0.88896137  1
  O  O13  1  0.82716795  0.27457893  0.73684475  1
  O  O14  1  0.45226030  0.92654642  0.25165954  1
  O  O15  1  0.64221219  0.14994022  0.16656014  1
  O  O16  1  0.88873726  0.49865434  0.11103863  1
  O  O17  1  0.14221219  0.14994022  0.33343986  1
  O  O18  1  0.67283205  0.77457893  0.23684475  1
  O  O19  1  0.04773970  0.42654642  0.75165954  1
  O  O20  1  0.32716795  0.27457893  0.76315525  1
  O  O21  1  0.38873726  0.49865434  0.38896137  1
  O  O22  1  0.85778781  0.64994022  0.66656014  1
  O  O23  1  0.54773970  0.42654642  0.74834046  1
