# generated using pymatgen
data_Sn14Sb11Pt8
_symmetry_space_group_name_H-M   'P 1'
_cell_length_a   9.52146038
_cell_length_b   9.58067263
_cell_length_c   9.50132568
_cell_angle_alpha   90.29449544
_cell_angle_beta   90.22596333
_cell_angle_gamma   90.26914536
_symmetry_Int_Tables_number   1
_chemical_formula_structural   Sn14Sb11Pt8
_chemical_formula_sum   'Sn14 Sb11 Pt8'
_cell_volume   866.70204673
_cell_formula_units_Z   1
loop_
 _symmetry_equiv_pos_site_id
 _symmetry_equiv_pos_as_xyz
  1  'x, y, z'
loop_
 _atom_site_type_symbol
 _atom_site_label
 _atom_site_symmetry_multiplicity
 _atom_site_fract_x
 _atom_site_fract_y
 _atom_site_fract_z
 _atom_site_occupancy
  Sn  Sn0  1  0.33443293  0.99938803  0.15397268  1
  Sn  Sn1  1  0.16105515  0.49639381  0.65122910  1
  Sn  Sn2  1  0.84159732  0.49831273  0.33668817  1
  Sn  Sn3  1  0.99707121  0.84989767  0.33722980  1
  Sn  Sn4  1  0.99691839  0.15291725  0.66350569  1
  Sn  Sn5  1  0.66376921  0.86001477  0.49650278  1
  Sn  Sn6  1  0.65195874  0.16760628  0.50032035  1
  Sn  Sn7  1  0.49609248  0.65458471  0.15397517  1
  Sn  Sn8  1  0.85074409  0.49253993  0.66483714  1
  Sn  Sn9  1  0.49470035  0.65483875  0.84009095  1
  Sn  Sn10  1  0.56759611  0.55972325  0.52031636  1
  Sn  Sn11  1  0.33669090  0.99846421  0.84665962  1
  Sn  Sn12  1  0.84753111  0.33713219  0.00046180  1
  Sn  Sn13  1  0.15327523  0.33650860  0.99842824  1
  Sb  Sb14  1  0.84527995  0.64965579  0.99748941  1
  Sb  Sb15  1  0.64822648  0.99679138  0.15357991  1
  Sb  Sb16  1  0.49804815  0.34513643  0.84641589  1
  Sb  Sb17  1  0.34331702  0.84315006  0.49826878  1
  Sb  Sb18  1  0.64980764  0.99562175  0.84514583  1
  Sb  Sb19  1  0.99638189  0.84591721  0.65172614  1
  Sb  Sb20  1  0.99621479  0.15585932  0.34721686  1
  Sb  Sb21  1  0.34486557  0.15491834  0.50030570  1
  Sb  Sb22  1  0.49743417  0.34685822  0.15954907  1
  Sb  Sb23  1  0.15304442  0.50044844  0.34400457  1
  Sb  Sb24  1  0.15593904  0.65092117  0.99669217  1
  Pt  Pt25  1  0.24811076  0.25014892  0.25215113  1
  Pt  Pt26  1  0.74843860  0.74997429  0.24486644  1
  Pt  Pt27  1  0.24615729  0.74923864  0.24902636  1
  Pt  Pt28  1  0.74678679  0.24620667  0.24662812  1
  Pt  Pt29  1  0.24430836  0.75022175  0.74644760  1
  Pt  Pt30  1  0.74507057  0.24499188  0.75478951  1
  Pt  Pt31  1  0.25143758  0.24782286  0.74821348  1
  Pt  Pt32  1  0.74829771  0.74759469  0.74846515  1
