# generated using pymatgen
data_CaBePO4F
_symmetry_space_group_name_H-M   'P 1'
_cell_length_a   4.82146431
_cell_length_b   7.75127872
_cell_length_c   9.81229080
_cell_angle_alpha   90.00000000
_cell_angle_beta   90.93860734
_cell_angle_gamma   90.00000000
_symmetry_Int_Tables_number   1
_chemical_formula_structural   CaBePO4F
_chemical_formula_sum   'Ca4 Be4 P4 O16 F4'
_cell_volume   366.66076747
_cell_formula_units_Z   4
loop_
 _symmetry_equiv_pos_site_id
 _symmetry_equiv_pos_as_xyz
  1  'x, y, z'
loop_
 _atom_site_type_symbol
 _atom_site_label
 _atom_site_symmetry_multiplicity
 _atom_site_fract_x
 _atom_site_fract_y
 _atom_site_fract_z
 _atom_site_occupancy
  Be  Be0  1  0.45845241  0.91362393  0.16257561  1
  Be  Be1  1  0.54154759  0.41362393  0.33742439  1
  Be  Be2  1  0.54154759  0.08637607  0.83742439  1
  Be  Be3  1  0.45845241  0.58637607  0.66257561  1
  O  O4  1  0.67703459  0.15467055  0.69233261  1
  O  O5  1  0.33975510  0.10657285  0.14698376  1
  O  O6  1  0.33975510  0.39342715  0.64698376  1
  O  O7  1  0.66024490  0.89342715  0.85301624  1
  O  O8  1  0.67703459  0.34532945  0.19233261  1
  O  O9  1  0.35299168  0.71774946  0.54423153  1
  O  O10  1  0.32296541  0.65467055  0.80766739  1
  O  O11  1  0.66024490  0.60657285  0.35301624  1
  O  O12  1  0.75641107  0.60351749  0.96018349  1
  O  O13  1  0.24358893  0.10351749  0.53981651  1
  O  O14  1  0.35299168  0.78225054  0.04423153  1
  O  O15  1  0.75641107  0.89648251  0.46018349  1
  O  O16  1  0.24358893  0.39648251  0.03981651  1
  O  O17  1  0.64700832  0.21774946  0.95576847  1
  O  O18  1  0.64700832  0.28225054  0.45576847  1
  O  O19  1  0.32296541  0.84532945  0.30766739  1
  F  F20  1  0.21471447  0.40807711  0.32501837  1
  F  F21  1  0.21471447  0.09192289  0.82501837  1
  F  F22  1  0.78528553  0.59192289  0.67498163  1
  F  F23  1  0.78528553  0.90807711  0.17498163  1
  P  P24  1  0.52741752  0.76950471  0.41873622  1
  P  P25  1  0.47258248  0.26950471  0.08126378  1
  P  P26  1  0.52741752  0.73049529  0.91873622  1
  P  P27  1  0.47258248  0.23049529  0.58126378  1
  Ca  Ca28  1  0.00411384  0.61108881  0.16920756  1
  Ca  Ca29  1  0.99588616  0.11108881  0.33079244  1
  Ca  Ca30  1  0.99588616  0.38891119  0.83079244  1
  Ca  Ca31  1  0.00411384  0.88891119  0.66920756  1
