# generated using pymatgen
data_Ca(CrS2)2
_symmetry_space_group_name_H-M   'P 1'
_cell_length_a   7.46414260
_cell_length_b   7.46414284
_cell_length_c   7.46414317
_cell_angle_alpha   59.99999857
_cell_angle_beta   59.99999753
_cell_angle_gamma   59.99999937
_symmetry_Int_Tables_number   1
_chemical_formula_structural   Ca(CrS2)2
_chemical_formula_sum   'Ca2 Cr4 S8'
_cell_volume   294.05246072
_cell_formula_units_Z   2
loop_
 _symmetry_equiv_pos_site_id
 _symmetry_equiv_pos_as_xyz
  1  'x, y, z'
loop_
 _atom_site_type_symbol
 _atom_site_label
 _atom_site_symmetry_multiplicity
 _atom_site_fract_x
 _atom_site_fract_y
 _atom_site_fract_z
 _atom_site_occupancy
  Ca  Ca0  1  0.87500000  0.87499900  0.87500000  1
  Ca  Ca1  1  0.12500000  0.12500000  0.12500000  1
  Cr  Cr2  1  0.50000100  0.50000000  0.50000000  1
  Cr  Cr3  1  0.50000100  0.50000000  0.00000000  1
  Cr  Cr4  1  0.00000000  0.50000000  0.50000000  1
  Cr  Cr5  1  0.50000100  0.00000000  0.50000000  1
  S  S6  1  0.73068311  0.73068210  0.73068410  1
  S  S7  1  0.26931689  0.26931690  0.69204931  1
  S  S8  1  0.26931790  0.69204731  0.26931790  1
  S  S9  1  0.69204932  0.26931690  0.26931789  1
  S  S10  1  0.73068210  0.30795169  0.73068210  1
  S  S11  1  0.30795168  0.73068210  0.73068211  1
  S  S12  1  0.26931689  0.26931690  0.26931790  1
  S  S13  1  0.73068311  0.73068210  0.30795069  1
