# generated using pymatgen
data_BaVCdP2O9
_symmetry_space_group_name_H-M   'P 1'
_cell_length_a   8.94382452
_cell_length_b   9.03930068
_cell_length_c   19.74939126
_cell_angle_alpha   90.00000000
_cell_angle_beta   90.00000000
_cell_angle_gamma   90.00000000
_symmetry_Int_Tables_number   1
_chemical_formula_structural   BaVCdP2O9
_chemical_formula_sum   'Ba8 V8 Cd8 P16 O72'
_cell_volume   1596.65768740
_cell_formula_units_Z   8
loop_
 _symmetry_equiv_pos_site_id
 _symmetry_equiv_pos_as_xyz
  1  'x, y, z'
loop_
 _atom_site_type_symbol
 _atom_site_label
 _atom_site_symmetry_multiplicity
 _atom_site_fract_x
 _atom_site_fract_y
 _atom_site_fract_z
 _atom_site_occupancy
  Ba  Ba0  1  0.81933137  0.48185776  0.08203237  1
  Ba  Ba1  1  0.68066863  0.51814224  0.58203237  1
  Ba  Ba2  1  0.68066863  0.98185776  0.08203237  1
  Ba  Ba3  1  0.81933137  0.01814224  0.58203237  1
  Ba  Ba4  1  0.18066863  0.98185776  0.41796763  1
  Ba  Ba5  1  0.31933137  0.01814224  0.91796763  1
  Ba  Ba6  1  0.18066863  0.51814224  0.91796763  1
  Ba  Ba7  1  0.31933137  0.48185776  0.41796763  1
  V  V8  1  0.50079833  0.14497613  0.27448889  1
  V  V9  1  0.00079833  0.35502387  0.72551111  1
  V  V10  1  0.50079833  0.35502387  0.77448889  1
  V  V11  1  0.99920167  0.85502387  0.77448889  1
  V  V12  1  0.00079833  0.14497613  0.22551111  1
  V  V13  1  0.99920167  0.64497613  0.27448889  1
  V  V14  1  0.49920167  0.64497613  0.22551111  1
  V  V15  1  0.49920167  0.85502387  0.72551111  1
  Cd  Cd16  1  0.17886604  0.62315119  0.58994161  1
  Cd  Cd17  1  0.67886604  0.87684881  0.41005839  1
  Cd  Cd18  1  0.67886604  0.62315119  0.91005839  1
  Cd  Cd19  1  0.32113396  0.37684881  0.08994161  1
  Cd  Cd20  1  0.32113396  0.12315119  0.58994161  1
  Cd  Cd21  1  0.17886604  0.87684881  0.08994161  1
  Cd  Cd22  1  0.82113396  0.37684881  0.41005839  1
  Cd  Cd23  1  0.82113396  0.12315119  0.91005839  1
  P  P24  1  0.44218073  0.70885428  0.02326109  1
  P  P25  1  0.75254393  0.39284855  0.25372513  1
  P  P26  1  0.74745607  0.89284855  0.25372513  1
  P  P27  1  0.44218073  0.79114572  0.52326109  1
  P  P28  1  0.94218073  0.79114572  0.97673891  1
  P  P29  1  0.24745607  0.60715145  0.74627487  1
  P  P30  1  0.24745607  0.89284855  0.24627487  1
  P  P31  1  0.55781927  0.29114572  0.97673891  1
  P  P32  1  0.75254393  0.10715145  0.75372513  1
  P  P33  1  0.05781927  0.29114572  0.52326109  1
  P  P34  1  0.55781927  0.20885428  0.47673891  1
  P  P35  1  0.74745607  0.60715145  0.75372513  1
  P  P36  1  0.94218073  0.70885428  0.47673891  1
  P  P37  1  0.25254393  0.39284855  0.24627487  1
  P  P38  1  0.25254393  0.10715145  0.74627487  1
  P  P39  1  0.05781927  0.20885428  0.02326109  1
  O  O40  1  0.85079105  0.19720692  0.70409105  1
  O  O41  1  0.90331326  0.87519756  0.46058067  1
  O  O42  1  0.64772961  0.98495361  0.30354363  1
  O  O43  1  0.40331326  0.62480244  0.53941933  1
  O  O44  1  0.54481307  0.19533371  0.55587798  1
  O  O45  1  0.35227039  0.01504639  0.69645637  1
  O  O46  1  0.59668674  0.37519756  0.46058067  1
  O  O47  1  0.40988500  0.16996369  0.44103801  1
  O  O48  1  0.98724675  0.85913720  0.69236523  1
  O  O49  1  0.45518693  0.69533371  0.94412202  1
  O  O50  1  0.30598836  0.88524232  0.54697468  1
  O  O51  1  0.48724675  0.64086280  0.30763477  1
  O  O52  1  0.14920895  0.69720692  0.79590895  1
  O  O53  1  0.59011500  0.83003631  0.55896199  1
  O  O54  1  0.35227039  0.48495361  0.19645637  1
  O  O55  1  0.65903988  0.29395558  0.30152614  1
  O  O56  1  0.34061858  0.99465213  0.29280463  1
  O  O57  1  0.48724675  0.85913720  0.80763477  1
  O  O58  1  0.35079105  0.30279308  0.29590895  1
  O  O59  1  0.19401164  0.11475768  0.04697468  1
  O  O60  1  0.40331326  0.87519756  0.03941933  1
  O  O61  1  0.80598836  0.61475768  0.45302532  1
  O  O62  1  0.85079105  0.30279308  0.20409105  1
  O  O63  1  0.51275325  0.35913720  0.69236523  1
  O  O64  1  0.09011500  0.83003631  0.94103801  1
  O  O65  1  0.90331326  0.62480244  0.96058067  1
  O  O66  1  0.15938142  0.49465213  0.29280463  1
  O  O67  1  0.65938142  0.00534787  0.70719537  1
  O  O68  1  0.64772961  0.51504639  0.80354363  1
  O  O69  1  0.85227039  0.48495361  0.30354363  1
  O  O70  1  0.84061858  0.50534787  0.70719537  1
  O  O71  1  0.40988500  0.33003631  0.94103801  1
  O  O72  1  0.95518693  0.80466629  0.05587798  1
  O  O73  1  0.65938142  0.49465213  0.20719537  1
  O  O74  1  0.35079105  0.19720692  0.79590895  1
  O  O75  1  0.14772961  0.51504639  0.69645637  1
  O  O76  1  0.90988500  0.33003631  0.55896199  1
  O  O77  1  0.15903988  0.29395558  0.19847386  1
  O  O78  1  0.69401164  0.38524232  0.95302532  1
  O  O79  1  0.04481307  0.19533371  0.94412202  1
  O  O80  1  0.09668674  0.37519756  0.03941933  1
  O  O81  1  0.54481307  0.30466629  0.05587798  1
  O  O82  1  0.14920895  0.80279308  0.29590895  1
  O  O83  1  0.01275325  0.14086280  0.30763477  1
  O  O84  1  0.69401164  0.11475768  0.45302532  1
  O  O85  1  0.15938142  0.00534787  0.79280463  1
  O  O86  1  0.19401164  0.38524232  0.54697468  1
  O  O87  1  0.14772961  0.98495361  0.19645637  1
  O  O88  1  0.59011500  0.66996369  0.05896199  1
  O  O89  1  0.65903988  0.20604442  0.80152614  1
  O  O90  1  0.84061858  0.99465213  0.20719537  1
  O  O91  1  0.80598836  0.88524232  0.95302532  1
  O  O92  1  0.30598836  0.61475768  0.04697468  1
  O  O93  1  0.84096012  0.79395558  0.30152614  1
  O  O94  1  0.34096012  0.79395558  0.19847386  1
  O  O95  1  0.09011500  0.66996369  0.44103801  1
  O  O96  1  0.15903988  0.20604442  0.69847386  1
  O  O97  1  0.04481307  0.30466629  0.44412202  1
  O  O98  1  0.34061858  0.50534787  0.79280463  1
  O  O99  1  0.64920895  0.69720692  0.70409105  1
  O  O100  1  0.09668674  0.12480244  0.53941933  1
  O  O101  1  0.51275325  0.14086280  0.19236523  1
  O  O102  1  0.34096012  0.70604442  0.69847386  1
  O  O103  1  0.85227039  0.01504639  0.80354363  1
  O  O104  1  0.95518693  0.69533371  0.55587798  1
  O  O105  1  0.64920895  0.80279308  0.20409105  1
  O  O106  1  0.90988500  0.16996369  0.05896199  1
  O  O107  1  0.98724675  0.64086280  0.19236523  1
  O  O108  1  0.45518693  0.80466629  0.44412202  1
  O  O109  1  0.59668674  0.12480244  0.96058067  1
  O  O110  1  0.84096012  0.70604442  0.80152614  1
  O  O111  1  0.01275325  0.35913720  0.80763477  1
