# generated using pymatgen
data_Ca5Nd5Mn9CrO30
_symmetry_space_group_name_H-M   'P 1'
_cell_length_a   5.43436635
_cell_length_b   5.48357221
_cell_length_c   38.59869705
_cell_angle_alpha   90.03756074
_cell_angle_beta   90.03917506
_cell_angle_gamma   90.06520733
_symmetry_Int_Tables_number   1
_chemical_formula_structural   Ca5Nd5Mn9CrO30
_chemical_formula_sum   'Ca10 Nd10 Mn18 Cr2 O60'
_cell_volume   1150.22988530
_cell_formula_units_Z   2
loop_
 _symmetry_equiv_pos_site_id
 _symmetry_equiv_pos_as_xyz
  1  'x, y, z'
loop_
 _atom_site_type_symbol
 _atom_site_label
 _atom_site_symmetry_multiplicity
 _atom_site_fract_x
 _atom_site_fract_y
 _atom_site_fract_z
 _atom_site_occupancy
  Ca  Ca0  1  0.48953782  0.46051754  0.24856012  1
  Ca  Ca1  1  0.48875430  0.45980303  0.44915172  1
  Ca  Ca2  1  0.51270670  0.53826334  0.15134402  1
  Ca  Ca3  1  0.51431552  0.53918934  0.75076449  1
  Ca  Ca4  1  0.51156571  0.53916084  0.95025875  1
  Ca  Ca5  1  0.98842781  0.03897138  0.15071798  1
  Ca  Ca6  1  0.99007040  0.03985557  0.34940736  1
  Ca  Ca7  1  0.98887556  0.03869668  0.54885157  1
  Ca  Ca8  1  0.98758789  0.03956885  0.75049220  1
  Ca  Ca9  1  0.98630115  0.03977668  0.95021239  1
  Nd  Nd10  1  0.00810804  0.96211411  0.05024437  1
  Nd  Nd11  1  0.01018853  0.96209900  0.24922820  1
  Nd  Nd12  1  0.01079889  0.96202641  0.44939940  1
  Nd  Nd13  1  0.00882631  0.96201575  0.65080119  1
  Nd  Nd14  1  0.00815808  0.96100786  0.85024841  1
  Nd  Nd15  1  0.49209044  0.46287322  0.05037752  1
  Nd  Nd16  1  0.49087603  0.46138401  0.65116919  1
  Nd  Nd17  1  0.49169100  0.46054929  0.85035701  1
  Nd  Nd18  1  0.51135090  0.53756107  0.34927907  1
  Nd  Nd19  1  0.51197942  0.53863816  0.54864531  1
  Mn  Mn20  1  0.99928935  0.49924240  0.99882398  1
  Mn  Mn21  1  0.99930414  0.49891832  0.10169926  1
  Mn  Mn22  1  0.99985768  0.49852771  0.19924961  1
  Mn  Mn23  1  0.99956529  0.49868785  0.39961152  1
  Mn  Mn24  1  0.00148436  0.49815768  0.49929916  1
  Mn  Mn25  1  0.99991317  0.49865833  0.59933389  1
  Mn  Mn26  1  0.00083984  0.49832614  0.79905278  1
  Mn  Mn27  1  0.99862356  0.49914368  0.90164255  1
  Mn  Mn28  1  0.50085992  0.99966310  0.99878287  1
  Mn  Mn29  1  0.50077460  0.99883780  0.10171453  1
  Mn  Mn30  1  0.50098601  0.00014983  0.19920152  1
  Mn  Mn31  1  0.49957803  0.00106017  0.39948577  1
  Mn  Mn32  1  0.50060804  0.00155464  0.29954942  1
  Mn  Mn33  1  0.50003740  0.99874741  0.90150471  1
  Mn  Mn34  1  0.50059008  0.00157309  0.49960265  1
  Mn  Mn35  1  0.50047925  0.99892533  0.70199774  1
  Mn  Mn36  1  0.00102773  0.49838567  0.29943971  1
  Mn  Mn37  1  0.99880406  0.49939760  0.70195890  1
  Cr  Cr38  1  0.49997857  0.99969585  0.59921346  1
  Cr  Cr39  1  0.50201471  0.99790689  0.79884209  1
  O  O40  1  0.08124554  0.47958673  0.15006223  1
  O  O41  1  0.07808611  0.48070081  0.54983632  1
  O  O42  1  0.07684941  0.48316788  0.34972070  1
  O  O43  1  0.08437547  0.47638842  0.75091830  1
  O  O44  1  0.08141751  0.47761087  0.95024199  1
  O  O45  1  0.21767959  0.21762510  0.20816317  1
  O  O46  1  0.22087693  0.22124054  0.00906464  1
  O  O47  1  0.22223038  0.22141180  0.09104167  1
  O  O48  1  0.21709232  0.22405276  0.60986985  1
  O  O49  1  0.21857276  0.21790965  0.29155524  1
  O  O50  1  0.21783967  0.21749710  0.40812435  1
  O  O51  1  0.21729172  0.22293980  0.80973871  1
  O  O52  1  0.21795572  0.21667740  0.49132270  1
  O  O53  1  0.22091726  0.22017200  0.69129832  1
  O  O54  1  0.22094478  0.22076058  0.89125850  1
  O  O55  1  0.27812652  0.72068339  0.00916577  1
  O  O56  1  0.27725672  0.72201368  0.09085374  1
  O  O57  1  0.27936374  0.72067766  0.20901654  1
  O  O58  1  0.28361652  0.71691378  0.29118279  1
  O  O59  1  0.28252779  0.71827602  0.40842335  1
  O  O60  1  0.27884022  0.71425205  0.60933864  1
  O  O61  1  0.28392458  0.71703538  0.49096777  1
  O  O62  1  0.27763385  0.72171904  0.69099769  1
  O  O63  1  0.27762484  0.71625639  0.80986263  1
  O  O64  1  0.27825758  0.72048222  0.89116914  1
  O  O65  1  0.41985262  0.97708551  0.15016889  1
  O  O66  1  0.41598040  0.98055071  0.54941103  1
  O  O67  1  0.41358054  0.97369931  0.74957312  1
  O  O68  1  0.42216430  0.98338095  0.34961360  1
  O  O69  1  0.41802685  0.97704587  0.94978350  1
  O  O70  1  0.57149050  0.01136968  0.04997392  1
  O  O71  1  0.57482838  0.01683494  0.24968948  1
  O  O72  1  0.57672555  0.01306426  0.65065031  1
  O  O73  1  0.57687310  0.01710402  0.45010360  1
  O  O74  1  0.57511091  0.01234541  0.85059389  1
  O  O75  1  0.71300632  0.28579889  0.10768392  1
  O  O76  1  0.71997470  0.28080392  0.30828199  1
  O  O77  1  0.71816324  0.28079780  0.50816912  1
  O  O78  1  0.71744218  0.28203588  0.19152728  1
  O  O79  1  0.71640045  0.28272907  0.39141187  1
  O  O80  1  0.71117875  0.28584789  0.70817665  1
  O  O81  1  0.71479908  0.29154086  0.59167286  1
  O  O82  1  0.71269079  0.28627329  0.90799237  1
  O  O83  1  0.71457609  0.29273717  0.79220647  1
  O  O84  1  0.71353784  0.28603481  0.99231239  1
  O  O85  1  0.78760744  0.78609381  0.19215854  1
  O  O86  1  0.78595892  0.78534010  0.10745190  1
  O  O87  1  0.78208611  0.78219851  0.50840182  1
  O  O88  1  0.78870669  0.78063399  0.59072658  1
  O  O89  1  0.78556287  0.78649190  0.70796294  1
  O  O90  1  0.79595549  0.78565785  0.79215432  1
  O  O91  1  0.78277375  0.78135893  0.30840883  1
  O  O92  1  0.78244817  0.78310981  0.39115261  1
  O  O93  1  0.78639453  0.78587931  0.90784699  1
  O  O94  1  0.78638624  0.78544530  0.99248444  1
  O  O95  1  0.92205209  0.51464035  0.24986964  1
  O  O96  1  0.92756258  0.51045555  0.05015019  1
  O  O97  1  0.92550311  0.51214354  0.65007317  1
  O  O98  1  0.92114506  0.51673378  0.44932652  1
  O  O99  1  0.92608054  0.51105431  0.85012409  1
