# generated using pymatgen
data_K2TiH2O3F4
_symmetry_space_group_name_H-M   'P 1'
_cell_length_a   6.14007666
_cell_length_b   14.52319347
_cell_length_c   7.66566324
_cell_angle_alpha   90.00000000
_cell_angle_beta   103.99917243
_cell_angle_gamma   90.00000000
_symmetry_Int_Tables_number   1
_chemical_formula_structural   K2TiH2O3F4
_chemical_formula_sum   'K8 Ti4 H8 O12 F16'
_cell_volume   663.27149768
_cell_formula_units_Z   4
loop_
 _symmetry_equiv_pos_site_id
 _symmetry_equiv_pos_as_xyz
  1  'x, y, z'
loop_
 _atom_site_type_symbol
 _atom_site_label
 _atom_site_symmetry_multiplicity
 _atom_site_fract_x
 _atom_site_fract_y
 _atom_site_fract_z
 _atom_site_occupancy
  K  K0  1  0.44549728  0.91405586  0.71042394  1
  K  K1  1  0.94549728  0.58594414  0.21042394  1
  K  K2  1  0.55450272  0.08594414  0.28957606  1
  K  K3  1  0.05450272  0.41405586  0.78957606  1
  K  K4  1  0.09222395  0.71083890  0.78769795  1
  K  K5  1  0.59222395  0.78916110  0.28769795  1
  K  K6  1  0.90777605  0.28916110  0.21230205  1
  K  K7  1  0.40777605  0.21083890  0.71230205  1
  Ti  Ti8  1  0.06500487  0.90189632  0.13354683  1
  Ti  Ti9  1  0.56500487  0.59810368  0.63354683  1
  Ti  Ti10  1  0.93499513  0.09810368  0.86645317  1
  Ti  Ti11  1  0.43499513  0.40189632  0.36645317  1
  H  H12  1  0.93284912  0.90384297  0.68967025  1
  H  H13  1  0.43284912  0.59615703  0.18967025  1
  H  H14  1  0.06715088  0.09615703  0.31032975  1
  H  H15  1  0.56715088  0.40384297  0.81032975  1
  H  H16  1  0.93258136  0.90322463  0.48390744  1
  H  H17  1  0.43258136  0.59677537  0.98390744  1
  H  H18  1  0.06741864  0.09677537  0.51609256  1
  H  H19  1  0.56741864  0.40322463  0.01609256  1
  O  O20  1  0.89505763  0.79362749  0.05775568  1
  O  O21  1  0.39505763  0.70637251  0.55775568  1
  O  O22  1  0.10494237  0.20637251  0.94224432  1
  O  O23  1  0.60494237  0.29362749  0.44224432  1
  O  O24  1  0.06077484  0.78197892  0.23040260  1
  O  O25  1  0.56077484  0.71802108  0.73040260  1
  O  O26  1  0.93922516  0.21802108  0.76959740  1
  O  O27  1  0.43922516  0.28197892  0.26959740  1
  O  O28  1  0.93490509  0.86321380  0.58780819  1
  O  O29  1  0.43490509  0.63678620  0.08780819  1
  O  O30  1  0.06509491  0.13678620  0.41219181  1
  O  O31  1  0.56509491  0.36321380  0.91219181  1
  F  F32  1  0.28301640  0.87515337  0.00062521  1
  F  F33  1  0.78301640  0.62484663  0.50062521  1
  F  F34  1  0.71698360  0.12484663  0.99937479  1
  F  F35  1  0.21698360  0.37515337  0.49937479  1
  F  F36  1  0.31249466  0.92478430  0.34520605  1
  F  F37  1  0.81249466  0.57521570  0.84520605  1
  F  F38  1  0.68750534  0.07521570  0.65479395  1
  F  F39  1  0.18750534  0.42478430  0.15479395  1
  F  F40  1  0.85623455  0.95185764  0.26267678  1
  F  F41  1  0.35623455  0.54814236  0.76267678  1
  F  F42  1  0.14376545  0.04814236  0.73732322  1
  F  F43  1  0.64376545  0.45185764  0.23732322  1
  F  F44  1  0.86255086  0.95251663  0.89815508  1
  F  F45  1  0.36255086  0.54748337  0.39815508  1
  F  F46  1  0.13744914  0.04748337  0.10184492  1
  F  F47  1  0.63744914  0.45251663  0.60184492  1
