# generated using pymatgen
data_Ca5Yb3Ti5Mn3O24
_symmetry_space_group_name_H-M   'P 1'
_cell_length_a   5.34502931
_cell_length_b   5.45036053
_cell_length_c   15.18827946
_cell_angle_alpha   90.13768471
_cell_angle_beta   90.03184033
_cell_angle_gamma   89.96024403
_symmetry_Int_Tables_number   1
_chemical_formula_structural   Ca5Yb3Ti5Mn3O24
_chemical_formula_sum   'Ca5 Yb3 Ti5 Mn3 O24'
_cell_volume   442.46861993
_cell_formula_units_Z   1
loop_
 _symmetry_equiv_pos_site_id
 _symmetry_equiv_pos_as_xyz
  1  'x, y, z'
loop_
 _atom_site_type_symbol
 _atom_site_label
 _atom_site_symmetry_multiplicity
 _atom_site_fract_x
 _atom_site_fract_y
 _atom_site_fract_z
 _atom_site_occupancy
  Yb  Yb0  1  0.48747888  0.44936462  0.86936827  1
  Yb  Yb1  1  0.50911041  0.55358496  0.62697045  1
  Yb  Yb2  1  0.98715386  0.05146286  0.62672230  1
  Ca  Ca3  1  0.01388823  0.95903536  0.37962817  1
  Ca  Ca4  1  0.01105615  0.95365723  0.86969131  1
  Ca  Ca5  1  0.49126539  0.45621607  0.37996386  1
  Ca  Ca6  1  0.51315294  0.54278183  0.12349010  1
  Ca  Ca7  1  0.98841024  0.04276350  0.12406107  1
  Ti  Ti8  1  0.00241462  0.49859964  0.99641597  1
  Ti  Ti9  1  0.00536948  0.50036969  0.25085603  1
  Ti  Ti10  1  0.00153999  0.50361073  0.50349965  1
  Ti  Ti11  1  0.50310978  0.00098996  0.25163425  1
  Ti  Ti12  1  0.49918310  0.99841161  0.99706289  1
  Mn  Mn13  1  0.00097996  0.50011529  0.74905821  1
  Mn  Mn14  1  0.50355775  0.00250478  0.74734252  1
  Mn  Mn15  1  0.50351662  0.00329387  0.50422462  1
  O  O16  1  0.07952586  0.47857635  0.12387965  1
  O  O17  1  0.07829359  0.48223050  0.62786588  1
  O  O18  1  0.20801750  0.20872936  0.27262147  1
  O  O19  1  0.21451408  0.21234228  0.48378970  1
  O  O20  1  0.21032633  0.21384765  0.77021543  1
  O  O21  1  0.21026415  0.20924265  0.97518665  1
  O  O22  1  0.29115539  0.70968585  0.77013895  1
  O  O23  1  0.29052702  0.70831534  0.27271630  1
  O  O24  1  0.29104664  0.71605107  0.48408993  1
  O  O25  1  0.29299165  0.70540507  0.97515514  1
  O  O26  1  0.41954174  0.97877727  0.12403199  1
  O  O27  1  0.41003319  0.97824460  0.62611352  1
  O  O28  1  0.57810223  0.01974649  0.87005845  1
  O  O29  1  0.57934820  0.01830972  0.37932605  1
  O  O30  1  0.70805726  0.28837681  0.01706318  1
  O  O31  1  0.70823672  0.28774508  0.22991605  1
  O  O32  1  0.70913835  0.28524002  0.52550829  1
  O  O33  1  0.70805664  0.28956322  0.72556291  1
  O  O34  1  0.79128365  0.78847160  0.01818686  1
  O  O35  1  0.78987964  0.78848883  0.22946917  1
  O  O36  1  0.78393334  0.79059542  0.52584636  1
  O  O37  1  0.78771852  0.78872604  0.72451021  1
  O  O38  1  0.92246329  0.51932966  0.37802165  1
  O  O39  1  0.91635763  0.51719711  0.87073654  1
