# generated using pymatgen
data_Na3Zr2Si2PO12
_symmetry_space_group_name_H-M   'P 1'
_cell_length_a   9.17674960
_cell_length_b   9.16840676
_cell_length_c   18.68655764
_cell_angle_alpha   61.25638671
_cell_angle_beta   61.18354349
_cell_angle_gamma   60.18324573
_symmetry_Int_Tables_number   1
_chemical_formula_structural   Na3Zr2Si2PO12
_chemical_formula_sum   'Na12 Zr8 Si8 P4 O48'
_cell_volume   1133.39847337
_cell_formula_units_Z   4
loop_
 _symmetry_equiv_pos_site_id
 _symmetry_equiv_pos_as_xyz
  1  'x, y, z'
loop_
 _atom_site_type_symbol
 _atom_site_label
 _atom_site_symmetry_multiplicity
 _atom_site_fract_x
 _atom_site_fract_y
 _atom_site_fract_z
 _atom_site_occupancy
  Na  Na0  1  0.01287198  0.48054053  0.24483340  1
  Na  Na1  1  0.32714250  0.04414647  0.46900964  1
  Na  Na2  1  0.39531736  0.60811052  0.12580535  1
  Na  Na3  1  0.04431635  0.32770281  0.71761280  1
  Na  Na4  1  0.60300712  0.38415809  0.37942166  1
  Na  Na5  1  0.32473379  0.04558769  0.96979596  1
  Na  Na6  1  0.74865379  0.90678177  0.09065749  1
  Na  Na7  1  0.38531179  0.60589837  0.62902982  1
  Na  Na8  1  0.90225417  0.76173153  0.34791446  1
  Na  Na9  1  0.60351374  0.38620112  0.88023810  1
  Na  Na10  1  0.75054666  0.90468872  0.59200113  1
  Na  Na11  1  0.90597312  0.74877629  0.84168496  1
  Zr  Zr12  1  0.15158632  0.63740495  0.03086072  1
  Zr  Zr13  1  0.15173864  0.64325713  0.52868715  1
  Zr  Zr14  1  0.34732725  0.85947990  0.21548658  1
  Zr  Zr15  1  0.64664668  0.15956560  0.27495106  1
  Zr  Zr16  1  0.34998593  0.85483339  0.71696715  1
  Zr  Zr17  1  0.64630511  0.15699981  0.77556474  1
  Zr  Zr18  1  0.85484197  0.34588183  0.47461417  1
  Zr  Zr19  1  0.85500064  0.34634636  0.97465676  1
  Si  Si20  1  0.03905557  0.94997738  0.12859637  1
  Si  Si21  1  0.46864467  0.25104816  0.11904127  1
  Si  Si22  1  0.24832478  0.46915027  0.36732890  1
  Si  Si23  1  0.04075872  0.95258074  0.62758382  1
  Si  Si24  1  0.75067616  0.53230787  0.13165560  1
  Si  Si25  1  0.47002177  0.25103526  0.61814139  1
  Si  Si26  1  0.24933051  0.46796477  0.86863205  1
  Si  Si27  1  0.75091255  0.53184984  0.63044026  1
  P  P28  1  0.53502070  0.75120858  0.37805943  1
  P  P29  1  0.95663714  0.04489471  0.37439532  1
  P  P30  1  0.53143958  0.75184450  0.87969318  1
  P  P31  1  0.95427376  0.04039239  0.87652014  1
  O  O32  1  0.00226401  0.11604649  0.04134564  1
  O  O33  1  0.11578343  0.99818406  0.29603664  1
  O  O34  1  0.05955038  0.76773293  0.12235142  1
  O  O35  1  0.00483817  0.12192168  0.54092782  1
  O  O36  1  0.28768784  0.42540412  0.11307822  1
  O  O37  1  0.44388905  0.06535850  0.14691596  1
  O  O38  1  0.06273527  0.44525491  0.38952774  1
  O  O39  1  0.63259507  0.26849605  0.02780127  1
  O  O40  1  0.23020556  0.92827260  0.12633948  1
  O  O41  1  0.51900804  0.24922257  0.19285061  1
  O  O42  1  0.26654785  0.63423302  0.27756919  1
  O  O43  1  0.11227202  0.00431827  0.79477573  1
  O  O44  1  0.41673880  0.28245933  0.36430882  1
  O  O45  1  0.24122410  0.52111040  0.44205477  1
  O  O46  1  0.75499538  0.48397798  0.05646781  1
  O  O47  1  0.06393344  0.77604692  0.61603100  1
  O  O48  1  0.57953797  0.71374622  0.14227849  1
  O  O49  1  0.28760202  0.42174790  0.61062288  1
  O  O50  1  0.43963530  0.06678126  0.64859360  1
  O  O51  1  0.72700488  0.37110977  0.22329119  1
  O  O52  1  0.06393573  0.44188538  0.89506893  1
  O  O53  1  0.48406278  0.75896789  0.30851013  1
  O  O54  1  0.78525863  0.05778797  0.37025992  1
  O  O55  1  0.38386991  0.72941503  0.46644335  1
  O  O56  1  0.63493690  0.26575968  0.52733260  1
  O  O57  1  0.22993333  0.92976291  0.62787428  1
  O  O58  1  0.52006959  0.25055184  0.69184478  1
  O  O59  1  0.92513706  0.57570778  0.10683949  1
  O  O60  1  0.26763923  0.63325310  0.77868514  1
  O  O61  1  0.56729090  0.91982453  0.35764529  1
  O  O62  1  0.71119010  0.58918788  0.38393263  1
  O  O63  1  0.41947601  0.28292477  0.86304089  1
  O  O64  1  0.93079164  0.22600081  0.37487257  1
  O  O65  1  0.24730819  0.51881307  0.94255343  1
  O  O66  1  0.75125012  0.48490709  0.55599096  1
  O  O67  1  0.58092168  0.71275062  0.64216880  1
  O  O68  1  0.87622301  0.98532423  0.21531333  1
  O  O69  1  0.73711951  0.36670260  0.72184145  1
  O  O70  1  0.48253786  0.75969165  0.80929430  1
  O  O71  1  0.78387924  0.05340174  0.87138179  1
  O  O72  1  0.37658612  0.73629757  0.96680118  1
  O  O73  1  0.92918335  0.57064942  0.60378891  1
  O  O74  1  0.56616602  0.92121712  0.85696747  1
  O  O75  1  0.70338996  0.58920968  0.88865843  1
  O  O76  1  0.99032202  0.89359134  0.45804858  1
  O  O77  1  0.92802075  0.22196677  0.87636035  1
  O  O78  1  0.87713347  0.98635750  0.71445984  1
  O  O79  1  0.99164749  0.88821771  0.95847206  1
