# generated using pymatgen
data_Ba4Nd7Si12BN27
_symmetry_space_group_name_H-M   'P 1'
_cell_length_a   12.33682678
_cell_length_b   12.33682712
_cell_length_c   5.47572887
_cell_angle_alpha   90.00000000
_cell_angle_beta   90.00000000
_cell_angle_gamma   119.99999909
_symmetry_Int_Tables_number   1
_chemical_formula_structural   Ba4Nd7Si12BN27
_chemical_formula_sum   'Ba4 Nd7 Si12 B1 N27'
_cell_volume   721.73790953
_cell_formula_units_Z   1
loop_
 _symmetry_equiv_pos_site_id
 _symmetry_equiv_pos_as_xyz
  1  'x, y, z'
loop_
 _atom_site_type_symbol
 _atom_site_label
 _atom_site_symmetry_multiplicity
 _atom_site_fract_x
 _atom_site_fract_y
 _atom_site_fract_z
 _atom_site_occupancy
  Ba  Ba0  1  0.92143612  0.48886343  0.50000000  1
  Ba  Ba1  1  0.51113657  0.43257269  0.50000000  1
  Ba  Ba2  1  0.33333300  0.66666700  0.50000000  1
  Ba  Ba3  1  0.56742731  0.07856388  0.50000000  1
  Nd  Nd4  1  0.78021741  0.02384419  0.00000000  1
  Nd  Nd5  1  0.67739627  0.70562611  0.00000000  1
  Nd  Nd6  1  0.02822985  0.32260373  0.00000000  1
  Nd  Nd7  1  0.00000000  0.00000000  0.50000000  1
  Nd  Nd8  1  0.97615581  0.75637322  0.00000000  1
  Nd  Nd9  1  0.24362678  0.21978259  0.00000000  1
  Nd  Nd10  1  0.29437389  0.97177016  0.00000000  1
  Si  Si11  1  0.49324688  0.79648344  0.00000000  1
  Si  Si12  1  0.75770211  0.26329711  0.00000000  1
  Si  Si13  1  0.67865863  0.87137203  0.50000000  1
  Si  Si14  1  0.87547572  0.18601699  0.50000000  1
  Si  Si15  1  0.81398301  0.68945873  0.50000000  1
  Si  Si16  1  0.73670289  0.49440501  0.00000000  1
  Si  Si17  1  0.19271339  0.32134137  0.50000000  1
  Si  Si18  1  0.30323656  0.50675312  0.00000000  1
  Si  Si19  1  0.12862797  0.80728661  0.50000000  1
  Si  Si20  1  0.31054127  0.12452428  0.50000000  1
  Si  Si21  1  0.20351656  0.69676344  0.00000000  1
  Si  Si22  1  0.50559499  0.24229789  0.00000000  1
  B  B23  1  0.00000000  0.00000000  0.00000000  1
  N  N24  1  0.24762006  0.96283920  0.50000000  1
  N  N25  1  0.13397835  0.72745733  0.24568473  1
  N  N26  1  0.13397835  0.72745733  0.75431527  1
  N  N27  1  0.03716080  0.28478086  0.50000000  1
  N  N28  1  0.18704790  0.55022609  0.00000000  1
  N  N29  1  0.87354201  0.88896546  0.00000000  1
  N  N30  1  0.01542345  0.12645799  0.00000000  1
  N  N31  1  0.36317819  0.81295210  0.00000000  1
  N  N32  1  0.27254267  0.40652102  0.24568473  1
  N  N33  1  0.27254267  0.40652102  0.75431527  1
  N  N34  1  0.20593328  0.18359764  0.50000000  1
  N  N35  1  0.11103454  0.98457655  0.00000000  1
  N  N36  1  0.44977391  0.63682181  0.00000000  1
  N  N37  1  0.59347898  0.86602165  0.75431527  1
  N  N38  1  0.59347898  0.86602165  0.24568473  1
  N  N39  1  0.40019445  0.17963048  0.24118984  1
  N  N40  1  0.40019445  0.17963048  0.75881016  1
  N  N41  1  0.71521914  0.75237994  0.50000000  1
  N  N42  1  0.57675792  0.40218416  0.00000000  1
  N  N43  1  0.77943603  0.59980555  0.24118984  1
  N  N44  1  0.77943603  0.59980555  0.75881016  1
  N  N45  1  0.59781584  0.17457377  0.00000000  1
  N  N46  1  0.97766436  0.79406672  0.50000000  1
  N  N47  1  0.82542623  0.42324208  0.00000000  1
  N  N48  1  0.82036952  0.22056397  0.75881016  1
  N  N49  1  0.82036952  0.22056397  0.24118984  1
  N  N50  1  0.81640236  0.02233564  0.50000000  1
