# generated using pymatgen
data_Ca(CoO2)2
_symmetry_space_group_name_H-M   'P 1'
_cell_length_a   5.80839533
_cell_length_b   5.80839602
_cell_length_c   6.53102599
_cell_angle_alpha   116.40267974
_cell_angle_beta   116.40268431
_cell_angle_gamma   89.99999522
_symmetry_Int_Tables_number   1
_chemical_formula_structural   Ca(CoO2)2
_chemical_formula_sum   'Ca2 Co4 O8'
_cell_volume   171.31712544
_cell_formula_units_Z   2
loop_
 _symmetry_equiv_pos_site_id
 _symmetry_equiv_pos_as_xyz
  1  'x, y, z'
loop_
 _atom_site_type_symbol
 _atom_site_label
 _atom_site_symmetry_multiplicity
 _atom_site_fract_x
 _atom_site_fract_y
 _atom_site_fract_z
 _atom_site_occupancy
  Ca  Ca0  1  0.37500000  0.62500000  0.75000000  1
  Ca  Ca1  1  0.62500000  0.37500000  0.25000000  1
  Co  Co2  1  0.00000000  0.00000000  0.50000000  1
  Co  Co3  1  0.00000000  0.50000000  0.00000000  1
  Co  Co4  1  0.50000000  0.00000000  0.50000000  1
  Co  Co5  1  0.00000000  0.00000000  0.00000000  1
  O  O6  1  0.76570697  0.80348464  0.53141394  1
  O  O7  1  0.77207170  0.23429303  0.96858606  1
  O  O8  1  0.19651536  0.23429303  0.96858606  1
  O  O9  1  0.23429303  0.19651536  0.46858606  1
  O  O10  1  0.23429303  0.77207170  0.46858606  1
  O  O11  1  0.22792830  0.76570697  0.03141394  1
  O  O12  1  0.76570697  0.22792830  0.53141394  1
  O  O13  1  0.80348464  0.76570697  0.03141394  1
