# generated using pymatgen
data_Mn3(PO4)2
_symmetry_space_group_name_H-M   'P 1'
_cell_length_a   9.07919177
_cell_length_b   10.19757389
_cell_length_c   21.31811278
_cell_angle_alpha   90.00000000
_cell_angle_beta   99.11429118
_cell_angle_gamma   90.00000000
_symmetry_Int_Tables_number   1
_chemical_formula_structural   Mn3(PO4)2
_chemical_formula_sum   'Mn36 P24 O96'
_cell_volume   1948.83305065
_cell_formula_units_Z   12
loop_
 _symmetry_equiv_pos_site_id
 _symmetry_equiv_pos_as_xyz
  1  'x, y, z'
loop_
 _atom_site_type_symbol
 _atom_site_label
 _atom_site_symmetry_multiplicity
 _atom_site_fract_x
 _atom_site_fract_y
 _atom_site_fract_z
 _atom_site_occupancy
  Mn  Mn0  1  0.89935283  0.29567975  0.70355394  1
  Mn  Mn1  1  0.20729606  0.58414615  0.78324059  1
  Mn  Mn2  1  0.40016847  0.89439981  0.60679677  1
  Mn  Mn3  1  0.39935283  0.20432025  0.20355394  1
  Mn  Mn4  1  0.27810157  0.88572941  0.42439372  1
  Mn  Mn5  1  0.26295797  0.77984873  0.14074700  1
  Mn  Mn6  1  0.70729606  0.91585385  0.28324059  1
  Mn  Mn7  1  0.22189843  0.38572941  0.07560628  1
  Mn  Mn8  1  0.04460821  0.21630979  0.54295944  1
  Mn  Mn9  1  0.89436102  0.38740689  0.41674618  1
  Mn  Mn10  1  0.45679824  0.61037723  0.25685399  1
  Mn  Mn11  1  0.09983153  0.39439981  0.89320323  1
  Mn  Mn12  1  0.93515560  0.09427248  0.05958135  1
  Mn  Mn13  1  0.59983153  0.10560019  0.39320323  1
  Mn  Mn14  1  0.10563898  0.61259311  0.58325382  1
  Mn  Mn15  1  0.04320176  0.11037723  0.24314601  1
  Mn  Mn16  1  0.43515560  0.40572752  0.55958135  1
  Mn  Mn17  1  0.45539179  0.71630979  0.95704056  1
  Mn  Mn18  1  0.06484440  0.90572752  0.94041865  1
  Mn  Mn19  1  0.95679824  0.88962277  0.75685399  1
  Mn  Mn20  1  0.39436102  0.11259311  0.91674618  1
  Mn  Mn21  1  0.72189843  0.11427059  0.57560628  1
  Mn  Mn22  1  0.60563898  0.88740689  0.08325382  1
  Mn  Mn23  1  0.10064717  0.70432025  0.29644606  1
  Mn  Mn24  1  0.79270394  0.41585385  0.21675941  1
  Mn  Mn25  1  0.76295797  0.72015127  0.64074700  1
  Mn  Mn26  1  0.54320176  0.38962277  0.74314601  1
  Mn  Mn27  1  0.90016847  0.60560019  0.10679677  1
  Mn  Mn28  1  0.29270394  0.08414615  0.71675941  1
  Mn  Mn29  1  0.56484440  0.59427248  0.44041865  1
  Mn  Mn30  1  0.60064717  0.79567975  0.79644606  1
  Mn  Mn31  1  0.23704203  0.27984873  0.35925300  1
  Mn  Mn32  1  0.95539179  0.78369021  0.45704056  1
  Mn  Mn33  1  0.54460821  0.28369021  0.04295944  1
  Mn  Mn34  1  0.77810157  0.61427059  0.92439372  1
  Mn  Mn35  1  0.73704203  0.22015127  0.85925300  1
  P  P36  1  0.55039323  0.36923927  0.32787006  1
  P  P37  1  0.70016518  0.94324684  0.93907645  1
  P  P38  1  0.62783507  0.85404325  0.49908737  1
  P  P39  1  0.65054853  0.06838362  0.71814101  1
  P  P40  1  0.37216493  0.14595675  0.50091263  1
  P  P41  1  0.84945147  0.56838362  0.78185899  1
  P  P42  1  0.20016518  0.55675316  0.43907645  1
  P  P43  1  0.53301182  0.57538053  0.10556359  1
  P  P44  1  0.29983482  0.05675316  0.06092355  1
  P  P45  1  0.79983482  0.44324684  0.56092355  1
  P  P46  1  0.94960677  0.86923927  0.17212994  1
  P  P47  1  0.03301182  0.92461947  0.60556359  1
  P  P48  1  0.80796180  0.64302456  0.33083152  1
  P  P49  1  0.05039323  0.13076073  0.82787006  1
  P  P50  1  0.87216493  0.35404325  0.00091263  1
  P  P51  1  0.12783507  0.64595675  0.99908737  1
  P  P52  1  0.15054853  0.43161638  0.21814101  1
  P  P53  1  0.96698818  0.07538053  0.39443641  1
  P  P54  1  0.46698818  0.42461947  0.89443641  1
  P  P55  1  0.44960677  0.63076073  0.67212994  1
  P  P56  1  0.30796180  0.85697544  0.83083152  1
  P  P57  1  0.19203820  0.35697544  0.66916848  1
  P  P58  1  0.34945147  0.93161638  0.28185899  1
  P  P59  1  0.69203820  0.14302456  0.16916848  1
  O  O60  1  0.91040133  0.39193518  0.51736198  1
  O  O61  1  0.22274616  0.55152748  0.25664850  1
  O  O62  1  0.15699900  0.50144307  0.98180019  1
  O  O63  1  0.56892052  0.73998547  0.69133736  1
  O  O64  1  0.10154771  0.07851776  0.76632231  1
  O  O65  1  0.27725384  0.05152748  0.24335150  1
  O  O66  1  0.30918713  0.46963937  0.86250821  1
  O  O67  1  0.82223215  0.80225548  0.12526592  1
  O  O68  1  0.43107948  0.26001453  0.30866264  1
  O  O69  1  0.94337379  0.04049957  0.57000951  1
  O  O70  1  0.27521206  0.93472137  0.88971762  1
  O  O71  1  0.41040133  0.10806482  0.01736198  1
  O  O72  1  0.67776785  0.30225548  0.37473408  1
  O  O73  1  0.72274616  0.94847252  0.75664850  1
  O  O74  1  0.62014688  0.18135668  0.76318662  1
  O  O75  1  0.41765755  0.74284081  0.85328966  1
  O  O76  1  0.87381265  0.56677638  0.59708866  1
  O  O77  1  0.38842374  0.94220605  0.78650259  1
  O  O78  1  0.94309170  0.86694943  0.65551322  1
  O  O79  1  0.52470978  0.51471418  0.64226776  1
  O  O80  1  0.88842374  0.55779395  0.28650259  1
  O  O81  1  0.05662621  0.95950043  0.42999049  1
  O  O82  1  0.73499045  0.61616109  0.82396935  1
  O  O83  1  0.60154771  0.42148224  0.26632231  1
  O  O84  1  0.55690830  0.36694943  0.84448678  1
  O  O85  1  0.17776785  0.19774452  0.87473408  1
  O  O86  1  0.22223183  0.66946228  0.39291991  1
  O  O87  1  0.05314979  0.81497075  0.55723304  1
  O  O88  1  0.16210297  0.79213048  0.79537741  1
  O  O89  1  0.47529022  0.48528582  0.35773224  1
  O  O90  1  0.94685021  0.18502925  0.44276696  1
  O  O91  1  0.89845229  0.92148224  0.23367769  1
  O  O92  1  0.87985312  0.68135668  0.73681338  1
  O  O93  1  0.12014688  0.31864332  0.26318662  1
  O  O94  1  0.58234245  0.25715919  0.14671034  1
  O  O95  1  0.85271069  0.97882377  0.97873565  1
  O  O96  1  0.77776817  0.33053772  0.60708009  1
  O  O97  1  0.49993877  0.96624170  0.32444566  1
  O  O98  1  0.01663611  0.29579862  0.04093267  1
  O  O99  1  0.00006123  0.46624170  0.17555434  1
  O  O100  1  0.98336389  0.70420138  0.95906733  1
  O  O101  1  0.75025785  0.25856145  0.01524730  1
  O  O102  1  0.55662621  0.54049957  0.92999049  1
  O  O103  1  0.58959867  0.89193518  0.98263802  1
  O  O104  1  0.23499045  0.88383891  0.32396935  1
  O  O105  1  0.69081287  0.53036063  0.13749179  1
  O  O106  1  0.65699900  0.99855693  0.48180019  1
  O  O107  1  0.72478794  0.06527863  0.11028238  1
  O  O108  1  0.99993877  0.53375830  0.82444566  1
  O  O109  1  0.61157626  0.05779395  0.21349741  1
  O  O110  1  0.48336389  0.79579862  0.45906733  1
  O  O111  1  0.64728931  0.47882377  0.52126435  1
  O  O112  1  0.11837385  0.64955845  0.07214797  1
  O  O113  1  0.34300100  0.00144307  0.51819981  1
  O  O114  1  0.66210297  0.70786952  0.29537741  1
  O  O115  1  0.61837385  0.85044155  0.57214797  1
  O  O116  1  0.37381265  0.93322362  0.09708866  1
  O  O117  1  0.72223183  0.83053772  0.89291991  1
  O  O118  1  0.84300100  0.49855693  0.01819981  1
  O  O119  1  0.11157626  0.44220605  0.71349741  1
  O  O120  1  0.26500955  0.38383891  0.17603065  1
  O  O121  1  0.06892052  0.76001453  0.19133736  1
  O  O122  1  0.39845229  0.57851776  0.73367769  1
  O  O123  1  0.37985312  0.81864332  0.23681338  1
  O  O124  1  0.80918713  0.03036063  0.36250821  1
  O  O125  1  0.27776817  0.16946228  0.10708009  1
  O  O126  1  0.12618735  0.43322362  0.40291134  1
  O  O127  1  0.05690830  0.13305057  0.34448678  1
  O  O128  1  0.77521206  0.56527863  0.38971762  1
  O  O129  1  0.38162615  0.14955845  0.42785203  1
  O  O130  1  0.08959867  0.60806482  0.48263802  1
  O  O131  1  0.74974215  0.75856145  0.48475270  1
  O  O132  1  0.14728931  0.02117623  0.02126435  1
  O  O133  1  0.50006123  0.03375830  0.67555434  1
  O  O134  1  0.24974215  0.74143855  0.98475270  1
  O  O135  1  0.44309170  0.63305057  0.15551322  1
  O  O136  1  0.55314979  0.68502925  0.05723304  1
  O  O137  1  0.51663611  0.20420138  0.54093267  1
  O  O138  1  0.02470978  0.98528582  0.14226776  1
  O  O139  1  0.44337379  0.45950043  0.07000951  1
  O  O140  1  0.19081287  0.96963937  0.63749179  1
  O  O141  1  0.91765755  0.75715919  0.35328966  1
  O  O142  1  0.77725384  0.44847252  0.74335150  1
  O  O143  1  0.76500955  0.11616109  0.67603065  1
  O  O144  1  0.97529022  0.01471418  0.85773224  1
  O  O145  1  0.44685021  0.31497075  0.94276696  1
  O  O146  1  0.25025785  0.24143855  0.51524730  1
  O  O147  1  0.62618735  0.06677638  0.90291134  1
  O  O148  1  0.08234245  0.24284081  0.64671034  1
  O  O149  1  0.22478794  0.43472137  0.61028238  1
  O  O150  1  0.93107948  0.23998547  0.80866264  1
  O  O151  1  0.35271069  0.52117623  0.47873565  1
  O  O152  1  0.88162615  0.35044155  0.92785203  1
  O  O153  1  0.83789703  0.20786952  0.20462259  1
  O  O154  1  0.33789703  0.29213048  0.70462259  1
  O  O155  1  0.32223215  0.69774452  0.62526592  1
