# generated using pymatgen
data_SnPH5NO4F
_symmetry_space_group_name_H-M   'P 1'
_cell_length_a   6.75747019
_cell_length_b   5.39695846
_cell_length_c   15.45996257
_cell_angle_alpha   90.00000000
_cell_angle_beta   90.00000000
_cell_angle_gamma   90.00000000
_symmetry_Int_Tables_number   1
_chemical_formula_structural   SnPH5NO4F
_chemical_formula_sum   'Sn4 P4 H20 N4 O16 F4'
_cell_volume   563.82152511
_cell_formula_units_Z   4
loop_
 _symmetry_equiv_pos_site_id
 _symmetry_equiv_pos_as_xyz
  1  'x, y, z'
loop_
 _atom_site_type_symbol
 _atom_site_label
 _atom_site_symmetry_multiplicity
 _atom_site_fract_x
 _atom_site_fract_y
 _atom_site_fract_z
 _atom_site_occupancy
  Sn  Sn0  1  0.65809408  0.25000000  0.30336513  1
  Sn  Sn1  1  0.15809408  0.25000000  0.19663487  1
  Sn  Sn2  1  0.34190592  0.75000000  0.69663487  1
  Sn  Sn3  1  0.84190592  0.75000000  0.80336513  1
  P  P4  1  0.38303509  0.75000000  0.33663102  1
  P  P5  1  0.88303509  0.75000000  0.16336898  1
  P  P6  1  0.61696491  0.25000000  0.66336898  1
  P  P7  1  0.11696491  0.25000000  0.83663102  1
  H  H8  1  0.05450311  0.75000000  0.32930723  1
  H  H9  1  0.55450311  0.75000000  0.17069277  1
  H  H10  1  0.94549689  0.25000000  0.67069277  1
  H  H11  1  0.44549689  0.25000000  0.82930723  1
  H  H12  1  0.07434724  0.25000000  0.46258242  1
  H  H13  1  0.57434724  0.25000000  0.03741758  1
  H  H14  1  0.92565276  0.75000000  0.53741758  1
  H  H15  1  0.42565276  0.75000000  0.96258242  1
  H  H16  1  0.32316523  0.25000000  0.45171087  1
  H  H17  1  0.82316523  0.25000000  0.04828913  1
  H  H18  1  0.67683477  0.75000000  0.54828913  1
  H  H19  1  0.17683477  0.75000000  0.95171087  1
  H  H20  1  0.21953287  0.09310116  0.53365574  1
  H  H21  1  0.71953287  0.40689884  0.96634426  1
  H  H22  1  0.78046713  0.59310116  0.46634426  1
  H  H23  1  0.28046713  0.90689884  0.03365574  1
  H  H24  1  0.78046713  0.90689884  0.46634426  1
  H  H25  1  0.28046713  0.59310116  0.03365574  1
  H  H26  1  0.21953287  0.40689884  0.53365574  1
  H  H27  1  0.71953287  0.09310116  0.96634426  1
  N  N28  1  0.20851177  0.25000000  0.49579470  1
  N  N29  1  0.70851177  0.25000000  0.00420530  1
  N  N30  1  0.79148823  0.75000000  0.50420530  1
  N  N31  1  0.29148823  0.75000000  0.99579470  1
  O  O32  1  0.16351255  0.75000000  0.37477464  1
  O  O33  1  0.66351255  0.75000000  0.12522536  1
  O  O34  1  0.83648745  0.25000000  0.62522536  1
  O  O35  1  0.33648745  0.25000000  0.87477464  1
  O  O36  1  0.48548102  0.98330459  0.37517409  1
  O  O37  1  0.98548102  0.51669541  0.12482591  1
  O  O38  1  0.51451898  0.48330459  0.62482591  1
  O  O39  1  0.01451898  0.01669541  0.87517409  1
  O  O40  1  0.51451898  0.01669541  0.62482591  1
  O  O41  1  0.01451898  0.48330459  0.87517409  1
  O  O42  1  0.48548102  0.51669541  0.37517409  1
  O  O43  1  0.98548102  0.98330459  0.12482591  1
  O  O44  1  0.37548520  0.75000000  0.23763878  1
  O  O45  1  0.87548520  0.75000000  0.26236122  1
  O  O46  1  0.62451480  0.25000000  0.76236122  1
  O  O47  1  0.12451480  0.25000000  0.73763878  1
  F  F48  1  0.84023521  0.25000000  0.41409975  1
  F  F49  1  0.34023521  0.25000000  0.08590025  1
  F  F50  1  0.15976479  0.75000000  0.58590025  1
  F  F51  1  0.65976479  0.75000000  0.91409975  1
