# generated using pymatgen
data_Sr5La5Mn9CuO30
_symmetry_space_group_name_H-M   'P 1'
_cell_length_a   5.47795963
_cell_length_b   27.40244735
_cell_length_c   5.53506891
_cell_angle_alpha   119.71127946
_cell_angle_beta   119.65073815
_cell_angle_gamma   90.05541821
_symmetry_Int_Tables_number   1
_chemical_formula_structural   Sr5La5Mn9CuO30
_chemical_formula_sum   'Sr5 La5 Mn9 Cu1 O30'
_cell_volume   592.85470593
_cell_formula_units_Z   1
loop_
 _symmetry_equiv_pos_site_id
 _symmetry_equiv_pos_as_xyz
  1  'x, y, z'
loop_
 _atom_site_type_symbol
 _atom_site_label
 _atom_site_symmetry_multiplicity
 _atom_site_fract_x
 _atom_site_fract_y
 _atom_site_fract_z
 _atom_site_occupancy
  Sr  Sr0  1  0.24629972  0.34873565  0.49638714  1
  Sr  Sr1  1  0.24876005  0.54977088  0.49897883  1
  Sr  Sr2  1  0.25180036  0.95262364  0.50798188  1
  Sr  Sr3  1  0.75292029  0.05040128  0.50138939  1
  Sr  Sr4  1  0.75284763  0.25029701  0.50064750  1
  La  La5  1  0.25655398  0.15060918  0.50185607  1
  La  La6  1  0.24947311  0.74866053  0.49528078  1
  La  La7  1  0.74134961  0.44792315  0.49277245  1
  La  La8  1  0.75139761  0.64869583  0.49646975  1
  La  La9  1  0.75020666  0.85232124  0.50788133  1
  Mn  Mn10  1  0.00167349  0.00086913  0.00355239  1
  Mn  Mn11  1  0.00125737  0.20050713  0.00194614  1
  Mn  Mn12  1  0.99856831  0.39932822  0.99692904  1
  Mn  Mn13  1  0.00167373  0.59905938  0.99629567  1
  Mn  Mn14  1  0.99782751  0.80058548  0.00276131  1
  Mn  Mn15  1  0.50031963  0.09993092  0.99980726  1
  Mn  Mn16  1  0.49963854  0.29982316  0.99927032  1
  Mn  Mn17  1  0.49657898  0.49913773  0.99609492  1
  Mn  Mn18  1  0.50430772  0.90150115  0.00630033  1
  Cu  Cu19  1  0.49949512  0.69942667  0.99782424  1
  O  O20  1  0.25202059  0.05202217  0.50283345  1
  O  O21  1  0.24911263  0.24770761  0.49705511  1
  O  O22  1  0.24907039  0.45050760  0.50233577  1
  O  O23  1  0.23559495  0.64995704  0.48277256  1
  O  O24  1  0.24789549  0.84807425  0.50145890  1
  O  O25  1  0.22131204  0.14434440  0.01306858  1
  O  O26  1  0.22570676  0.34546607  0.00638928  1
  O  O27  1  0.19758836  0.53893421  0.98113342  1
  O  O28  1  0.19369319  0.74234263  0.00333080  1
  O  O29  1  0.20892299  0.94082373  0.98723756  1
  O  O30  1  0.28067785  0.04513540  0.00507105  1
  O  O31  1  0.29698282  0.44377023  0.01432642  1
  O  O32  1  0.27906550  0.24168914  0.98837486  1
  O  O33  1  0.30077020  0.64157492  0.02147003  1
  O  O34  1  0.29646393  0.84073117  0.00074986  1
  O  O35  1  0.75576290  0.15014244  0.50115413  1
  O  O36  1  0.75127021  0.35278042  0.50271944  1
  O  O37  1  0.74501957  0.54962449  0.49467947  1
  O  O38  1  0.76321117  0.75227584  0.51883835  1
  O  O39  1  0.74618113  0.94690103  0.49593877  1
  O  O40  1  0.70861594  0.15590136  0.98747682  1
  O  O41  1  0.72234711  0.35888771  0.01340147  1
  O  O42  1  0.71393249  0.55849422  0.01065205  1
  O  O43  1  0.70559640  0.76243130  0.00492837  1
  O  O44  1  0.71554118  0.95486022  0.99169730  1
  O  O45  1  0.79149180  0.05860999  0.01252786  1
  O  O46  1  0.77424412  0.25465840  0.99356557  1
  O  O47  1  0.78080116  0.45676092  0.98779535  1
  O  O48  1  0.80180944  0.65703283  0.98926013  1
  O  O49  1  0.78634826  0.85735087  0.98733056  1
