# generated using pymatgen
data_SnH12Pt(N2Cl3)2
_symmetry_space_group_name_H-M   'P 1'
_cell_length_a   8.24033187
_cell_length_b   8.24033187
_cell_length_c   10.60993111
_cell_angle_alpha   90.00000000
_cell_angle_beta   90.00000000
_cell_angle_gamma   94.20566383
_symmetry_Int_Tables_number   1
_chemical_formula_structural   SnH12Pt(N2Cl3)2
_chemical_formula_sum   'Sn2 H24 Pt2 N8 Cl12'
_cell_volume   718.50689239
_cell_formula_units_Z   2
loop_
 _symmetry_equiv_pos_site_id
 _symmetry_equiv_pos_as_xyz
  1  'x, y, z'
loop_
 _atom_site_type_symbol
 _atom_site_label
 _atom_site_symmetry_multiplicity
 _atom_site_fract_x
 _atom_site_fract_y
 _atom_site_fract_z
 _atom_site_occupancy
  Sn  Sn0  1  0.00000000  0.00000000  0.50000000  1
  Sn  Sn1  1  0.50000000  0.50000000  0.00000000  1
  H  H2  1  0.28682346  0.57522544  0.33112141  1
  H  H3  1  0.42477456  0.71317654  0.66887859  1
  H  H4  1  0.92477456  0.21317654  0.83112141  1
  H  H5  1  0.78682346  0.07522544  0.16887859  1
  H  H6  1  0.71317654  0.42477456  0.66887859  1
  H  H7  1  0.57522544  0.28682346  0.33112141  1
  H  H8  1  0.07522544  0.78682346  0.16887859  1
  H  H9  1  0.21317654  0.92477456  0.83112141  1
  H  H10  1  0.20440868  0.59246378  0.47283943  1
  H  H11  1  0.40753622  0.79559132  0.52716057  1
  H  H12  1  0.90753622  0.29559132  0.97283943  1
  H  H13  1  0.70440868  0.09246378  0.02716057  1
  H  H14  1  0.79559132  0.40753622  0.52716057  1
  H  H15  1  0.59246378  0.20440868  0.47283943  1
  H  H16  1  0.09246378  0.70440868  0.02716057  1
  H  H17  1  0.29559132  0.90753622  0.97283943  1
  H  H18  1  0.20677975  0.41275131  0.40663086  1
  H  H19  1  0.58724869  0.79322025  0.59336914  1
  H  H20  1  0.08724869  0.29322025  0.90663086  1
  H  H21  1  0.70677975  0.91275131  0.09336914  1
  H  H22  1  0.79322025  0.58724869  0.59336914  1
  H  H23  1  0.41275131  0.20677975  0.40663086  1
  H  H24  1  0.91275131  0.70677975  0.09336914  1
  H  H25  1  0.29322025  0.08724869  0.90663086  1
  Pt  Pt26  1  0.50000000  0.50000000  0.50000000  1
  Pt  Pt27  1  0.00000000  0.00000000  0.00000000  1
  N  N28  1  0.27455560  0.52120869  0.41851498  1
  N  N29  1  0.47879131  0.72544440  0.58148502  1
  N  N30  1  0.97879131  0.22544440  0.91851498  1
  N  N31  1  0.77455560  0.02120869  0.08148502  1
  N  N32  1  0.72544440  0.47879131  0.58148502  1
  N  N33  1  0.52120869  0.27455560  0.41851498  1
  N  N34  1  0.02120869  0.77455560  0.08148502  1
  N  N35  1  0.22544440  0.97879131  0.91851498  1
  Cl  Cl36  1  0.05927497  0.76420084  0.63561129  1
  Cl  Cl37  1  0.23579916  0.94072503  0.36438871  1
  Cl  Cl38  1  0.73579916  0.44072503  0.13561129  1
  Cl  Cl39  1  0.55927497  0.26420084  0.86438871  1
  Cl  Cl40  1  0.94072503  0.23579916  0.36438871  1
  Cl  Cl41  1  0.76420084  0.05927497  0.63561129  1
  Cl  Cl42  1  0.26420084  0.55927497  0.86438871  1
  Cl  Cl43  1  0.44072503  0.73579916  0.13561129  1
  Cl  Cl44  1  0.81802836  0.81802836  0.37284377  1
  Cl  Cl45  1  0.18197164  0.18197164  0.62715623  1
  Cl  Cl46  1  0.68197164  0.68197164  0.87284377  1
  Cl  Cl47  1  0.31802836  0.31802836  0.12715623  1
