# generated using pymatgen
data_KMg2B12H19O30
_symmetry_space_group_name_H-M   'P 1'
_cell_length_a   10.28039817
_cell_length_b   10.28039817
_cell_length_c   14.80798762
_cell_angle_alpha   80.85100362
_cell_angle_beta   99.14899638
_cell_angle_gamma   131.07699251
_symmetry_Int_Tables_number   1
_chemical_formula_structural   KMg2B12H19O30
_chemical_formula_sum   'K2 Mg4 B24 H38 O60'
_cell_volume   1161.60534468
_cell_formula_units_Z   2
loop_
 _symmetry_equiv_pos_site_id
 _symmetry_equiv_pos_as_xyz
  1  'x, y, z'
loop_
 _atom_site_type_symbol
 _atom_site_label
 _atom_site_symmetry_multiplicity
 _atom_site_fract_x
 _atom_site_fract_y
 _atom_site_fract_z
 _atom_site_occupancy
  K  K0  1  0.87717086  0.87717086  0.75000000  1
  K  K1  1  0.12282914  0.12282914  0.25000000  1
  Mg  Mg2  1  0.71585319  0.44028753  0.66485229  1
  Mg  Mg3  1  0.44028753  0.71585319  0.83514771  1
  Mg  Mg4  1  0.28414681  0.55971247  0.33514771  1
  Mg  Mg5  1  0.55971247  0.28414681  0.16485229  1
  B  B6  1  0.35388476  0.35312772  0.60844910  1
  B  B7  1  0.35312772  0.35388476  0.89155090  1
  B  B8  1  0.64611524  0.64687228  0.39155090  1
  B  B9  1  0.64687228  0.64611524  0.10844910  1
  B  B10  1  0.23137608  0.09337731  0.52534670  1
  B  B11  1  0.09337731  0.23137608  0.97465330  1
  B  B12  1  0.76862392  0.90662269  0.47465330  1
  B  B13  1  0.90662269  0.76862392  0.02534670  1
  B  B14  1  0.31532534  0.09403537  0.69653073  1
  B  B15  1  0.09403537  0.31532534  0.80346927  1
  B  B16  1  0.68467466  0.90596463  0.30346927  1
  B  B17  1  0.90596463  0.68467466  0.19653073  1
  B  B18  1  0.06103164  0.53427309  0.75493608  1
  B  B19  1  0.53427309  0.06103164  0.74506392  1
  B  B20  1  0.93896836  0.46572691  0.24506392  1
  B  B21  1  0.46572691  0.93896836  0.25493608  1
  B  B22  1  0.84445773  0.23543247  0.69309460  1
  B  B23  1  0.23543247  0.84445773  0.80690540  1
  B  B24  1  0.15554227  0.76456753  0.30690540  1
  B  B25  1  0.76456753  0.15554227  0.19309460  1
  B  B26  1  0.74416980  0.26131951  0.52266373  1
  B  B27  1  0.26131951  0.74416980  0.97733627  1
  B  B28  1  0.25583020  0.73868049  0.47733627  1
  B  B29  1  0.73868049  0.25583020  0.02266373  1
  H  H30  1  0.73734719  0.73734719  0.25000000  1
  H  H31  1  0.26265281  0.26265281  0.75000000  1
  H  H32  1  0.16927057  0.36567427  0.63180483  1
  H  H33  1  0.36567427  0.16927057  0.86819517  1
  H  H34  1  0.83072943  0.63432573  0.36819517  1
  H  H35  1  0.63432573  0.83072943  0.13180483  1
  H  H36  1  0.83727339  0.07634804  0.56505686  1
  H  H37  1  0.07634804  0.83727339  0.93494314  1
  H  H38  1  0.16272661  0.92365196  0.43494314  1
  H  H39  1  0.92365196  0.16272661  0.06505686  1
  H  H40  1  0.59392965  0.58127961  0.56681236  1
  H  H41  1  0.58127961  0.59392965  0.93318764  1
  H  H42  1  0.40607035  0.41872039  0.43318764  1
  H  H43  1  0.41872039  0.40607035  0.06681236  1
  H  H44  1  0.27194359  0.86351375  0.57782905  1
  H  H45  1  0.86351375  0.27194359  0.92217095  1
  H  H46  1  0.72805641  0.13648625  0.42217095  1
  H  H47  1  0.13648625  0.72805641  0.07782905  1
  H  H48  1  0.70096956  0.42956358  0.48292396  1
  H  H49  1  0.42956358  0.70096956  0.01707604  1
  H  H50  1  0.29903044  0.57043642  0.51707604  1
  H  H51  1  0.57043642  0.29903044  0.98292396  1
  H  H52  1  0.02248372  0.77874340  0.62890859  1
  H  H53  1  0.77874340  0.02248372  0.87109141  1
  H  H54  1  0.97751628  0.22125660  0.37109141  1
  H  H55  1  0.22125660  0.97751628  0.12890859  1
  H  H56  1  0.86703398  0.73080262  0.55562763  1
  H  H57  1  0.73080262  0.86703398  0.94437237  1
  H  H58  1  0.13296602  0.26919738  0.44437237  1
  H  H59  1  0.26919738  0.13296602  0.05562763  1
  H  H60  1  0.43167179  0.62416080  0.67377533  1
  H  H61  1  0.62416080  0.43167179  0.82622467  1
  H  H62  1  0.56832821  0.37583920  0.32622467  1
  H  H63  1  0.37583920  0.56832821  0.17377533  1
  H  H64  1  0.49506280  0.81054520  0.66499004  1
  H  H65  1  0.81054520  0.49506280  0.83500996  1
  H  H66  1  0.50493720  0.18945480  0.33500996  1
  H  H67  1  0.18945480  0.50493720  0.16499004  1
  O  O68  1  0.28291287  0.25676628  0.52421124  1
  O  O69  1  0.25676628  0.28291287  0.97578876  1
  O  O70  1  0.71708713  0.74323372  0.47578876  1
  O  O71  1  0.74323372  0.71708713  0.02421124  1
  O  O72  1  0.30210090  0.23052573  0.68955223  1
  O  O73  1  0.23052573  0.30210090  0.81044777  1
  O  O74  1  0.69789910  0.76947427  0.31044777  1
  O  O75  1  0.76947427  0.69789910  0.18955223  1
  O  O76  1  0.24318320  0.01012527  0.60527339  1
  O  O77  1  0.01012527  0.24318320  0.89472661  1
  O  O78  1  0.75681680  0.98987473  0.39472661  1
  O  O79  1  0.98987473  0.75681680  0.10527339  1
  O  O80  1  0.97695075  0.22404695  0.72704130  1
  O  O81  1  0.22404695  0.97695075  0.77295870  1
  O  O82  1  0.02304925  0.77595305  0.27295870  1
  O  O83  1  0.77595305  0.02304925  0.22704130  1
  O  O84  1  0.50333520  0.17251098  0.70740479  1
  O  O85  1  0.17251098  0.50333520  0.79259521  1
  O  O86  1  0.49666480  0.82748902  0.29259521  1
  O  O87  1  0.82748902  0.49666480  0.20740479  1
  O  O88  1  0.68458294  0.09673471  0.73807165  1
  O  O89  1  0.09673471  0.68458294  0.76192835  1
  O  O90  1  0.31541706  0.90326529  0.26192835  1
  O  O91  1  0.90326529  0.31541706  0.23807165  1
  O  O92  1  0.90147120  0.40748991  0.71011434  1
  O  O93  1  0.40748991  0.90147120  0.78988566  1
  O  O94  1  0.09852880  0.59251009  0.28988566  1
  O  O95  1  0.59251009  0.09852880  0.21011434  1
  O  O96  1  0.81181867  0.21219438  0.59174834  1
  O  O97  1  0.21219438  0.81181867  0.90825166  1
  O  O98  1  0.18818133  0.78780562  0.40825166  1
  O  O99  1  0.78780562  0.18818133  0.09174834  1
  O  O100  1  0.28551609  0.44267063  0.60854976  1
  O  O101  1  0.44267063  0.28551609  0.89145024  1
  O  O102  1  0.71448391  0.55732937  0.39145024  1
  O  O103  1  0.55732937  0.71448391  0.10854976  1
  O  O104  1  0.83471017  0.97989299  0.55725338  1
  O  O105  1  0.97989299  0.83471017  0.94274662  1
  O  O106  1  0.16528983  0.02010701  0.44274662  1
  O  O107  1  0.02010701  0.16528983  0.05725338  1
  O  O108  1  0.54381345  0.48108463  0.61248975  1
  O  O109  1  0.48108463  0.54381345  0.88751025  1
  O  O110  1  0.45618655  0.51891537  0.38751025  1
  O  O111  1  0.51891537  0.45618655  0.11248975  1
  O  O112  1  0.29615513  0.78957765  0.56527626  1
  O  O113  1  0.78957765  0.29615513  0.93472374  1
  O  O114  1  0.70384487  0.21042235  0.43472374  1
  O  O115  1  0.21042235  0.70384487  0.06527626  1
  O  O116  1  0.71088389  0.36690794  0.53905243  1
  O  O117  1  0.36690794  0.71088389  0.96094757  1
  O  O118  1  0.28911611  0.63309206  0.46094757  1
  O  O119  1  0.63309206  0.28911611  0.03905243  1
  O  O120  1  0.89628169  0.69561627  0.61552942  1
  O  O121  1  0.69561627  0.89628169  0.88447058  1
  O  O122  1  0.10371831  0.30438373  0.38447058  1
  O  O123  1  0.30438373  0.10371831  0.11552942  1
  O  O124  1  0.50862637  0.73432562  0.70517436  1
  O  O125  1  0.73432562  0.50862637  0.79482564  1
  O  O126  1  0.49137363  0.26567438  0.29482564  1
  O  O127  1  0.26567438  0.49137363  0.20517436  1
