# generated using pymatgen
data_NaGa(H2N)4
_symmetry_space_group_name_H-M   'P 1'
_cell_length_a   7.48163974
_cell_length_b   6.45046371
_cell_length_c   13.46956375
_cell_angle_alpha   90.00000000
_cell_angle_beta   83.53149878
_cell_angle_gamma   90.00000000
_symmetry_Int_Tables_number   1
_chemical_formula_structural   NaGa(H2N)4
_chemical_formula_sum   'Na4 Ga4 H32 N16'
_cell_volume   645.90355684
_cell_formula_units_Z   4
loop_
 _symmetry_equiv_pos_site_id
 _symmetry_equiv_pos_as_xyz
  1  'x, y, z'
loop_
 _atom_site_type_symbol
 _atom_site_label
 _atom_site_symmetry_multiplicity
 _atom_site_fract_x
 _atom_site_fract_y
 _atom_site_fract_z
 _atom_site_occupancy
  Na  Na0  1  0.24485002  0.77737198  0.81468070  1
  Na  Na1  1  0.24485002  0.72262802  0.31468070  1
  Na  Na2  1  0.75514998  0.27737198  0.68531930  1
  Na  Na3  1  0.75514998  0.22262802  0.18531930  1
  Ga  Ga4  1  0.24383331  0.35702970  0.65770112  1
  Ga  Ga5  1  0.24383331  0.14297030  0.15770112  1
  Ga  Ga6  1  0.75616669  0.85702970  0.84229888  1
  Ga  Ga7  1  0.75616669  0.64297030  0.34229888  1
  H  H8  1  0.04435588  0.10634661  0.57727546  1
  H  H9  1  0.04435588  0.39365339  0.07727546  1
  H  H10  1  0.05671748  0.32682691  0.51831715  1
  H  H11  1  0.05671748  0.17317309  0.01831715  1
  H  H12  1  0.12280189  0.71143771  0.63828482  1
  H  H13  1  0.12280189  0.78856229  0.13828482  1
  H  H14  1  0.14127152  0.15832925  0.81844030  1
  H  H15  1  0.14127152  0.34167075  0.31844030  1
  H  H16  1  0.28509834  0.33643528  0.84097450  1
  H  H17  1  0.28509834  0.16356472  0.34097450  1
  H  H18  1  0.33062682  0.71164841  0.58859071  1
  H  H19  1  0.33062682  0.78835159  0.08859071  1
  H  H20  1  0.52754365  0.59233395  0.89956377  1
  H  H21  1  0.52754365  0.90766605  0.39956377  1
  H  H22  1  0.48777521  0.79861734  0.96623988  1
  H  H23  1  0.48777521  0.70138266  0.46623988  1
  H  H24  1  0.51222479  0.29861734  0.53376012  1
  H  H25  1  0.51222479  0.20138266  0.03376012  1
  H  H26  1  0.47245635  0.09233395  0.60043623  1
  H  H27  1  0.47245635  0.40766605  0.10043623  1
  H  H28  1  0.66937318  0.21164941  0.91140929  1
  H  H29  1  0.66937318  0.28835059  0.41140929  1
  H  H30  1  0.71490166  0.83643528  0.65902550  1
  H  H31  1  0.71490166  0.66356472  0.15902550  1
  H  H32  1  0.85872848  0.65832925  0.68155970  1
  H  H33  1  0.85872848  0.84167075  0.18155970  1
  H  H34  1  0.87719811  0.21143771  0.86171518  1
  H  H35  1  0.87719811  0.28856229  0.36171518  1
  H  H36  1  0.94328252  0.82682691  0.98168285  1
  H  H37  1  0.94328252  0.67317309  0.48168285  1
  H  H38  1  0.95564412  0.60634661  0.92272454  1
  H  H39  1  0.95564412  0.89365339  0.42272454  1
  N  N40  1  0.04466007  0.26365114  0.58841472  1
  N  N41  1  0.04466007  0.23634886  0.08841472  1
  N  N42  1  0.18308897  0.30499677  0.79856485  1
  N  N43  1  0.18308897  0.19500323  0.29856485  1
  N  N44  1  0.24844937  0.65674040  0.64849126  1
  N  N45  1  0.24844937  0.84325960  0.14849126  1
  N  N46  1  0.48159613  0.25040041  0.60618178  1
  N  N47  1  0.48159613  0.24959959  0.10618178  1
  N  N48  1  0.51840387  0.75040041  0.89381822  1
  N  N49  1  0.51840387  0.74959959  0.39381822  1
  N  N50  1  0.75155063  0.15674040  0.85150874  1
  N  N51  1  0.75155063  0.34325960  0.35150874  1
  N  N52  1  0.81691103  0.80499677  0.70143515  1
  N  N53  1  0.81691103  0.69500323  0.20143515  1
  N  N54  1  0.95533993  0.76365114  0.91158528  1
  N  N55  1  0.95533993  0.73634886  0.41158528  1
