# generated using pymatgen
data_NaAl3P2(HO3)4
_symmetry_space_group_name_H-M   'P 1'
_cell_length_a   11.36294098
_cell_length_b   10.25542490
_cell_length_c   7.17158346
_cell_angle_alpha   90.00000000
_cell_angle_beta   97.93499827
_cell_angle_gamma   90.00000000
_symmetry_Int_Tables_number   1
_chemical_formula_structural   NaAl3P2(HO3)4
_chemical_formula_sum   'Na4 Al12 P8 H16 O48'
_cell_volume   827.71571662
_cell_formula_units_Z   4
loop_
 _symmetry_equiv_pos_site_id
 _symmetry_equiv_pos_as_xyz
  1  'x, y, z'
loop_
 _atom_site_type_symbol
 _atom_site_label
 _atom_site_symmetry_multiplicity
 _atom_site_fract_x
 _atom_site_fract_y
 _atom_site_fract_z
 _atom_site_occupancy
  Na  Na0  1  0.19596880  0.57575331  0.46170239  1
  Na  Na1  1  0.69596880  0.92424669  0.96170239  1
  Na  Na2  1  0.80403120  0.42424669  0.53829761  1
  Na  Na3  1  0.30403120  0.07575331  0.03829761  1
  Al  Al4  1  0.45600455  0.71972773  0.93907323  1
  Al  Al5  1  0.95600455  0.78027227  0.43907323  1
  Al  Al6  1  0.54399545  0.28027227  0.06092677  1
  Al  Al7  1  0.04399545  0.21972773  0.56092677  1
  Al  Al8  1  0.23702217  0.56613523  0.99021382  1
  Al  Al9  1  0.73702217  0.93386477  0.49021382  1
  Al  Al10  1  0.76297783  0.43386477  0.00978618  1
  Al  Al11  1  0.26297783  0.06613523  0.50978618  1
  Al  Al12  1  0.04137941  0.75303543  0.06945853  1
  Al  Al13  1  0.54137941  0.74696457  0.56945853  1
  Al  Al14  1  0.95862059  0.24696457  0.93054147  1
  Al  Al15  1  0.45862059  0.25303543  0.43054147  1
  P  P16  1  0.31933505  0.81151004  0.26522862  1
  P  P17  1  0.81933505  0.68848996  0.76522862  1
  P  P18  1  0.68066495  0.18848996  0.73477138  1
  P  P19  1  0.18066495  0.31151004  0.23477138  1
  P  P20  1  0.18829382  0.82866251  0.74897423  1
  P  P21  1  0.68829382  0.67133749  0.24897423  1
  P  P22  1  0.81170618  0.17133749  0.25102577  1
  P  P23  1  0.31170618  0.32866251  0.75102577  1
  H  H24  1  0.43465687  0.50963918  0.13436695  1
  H  H25  1  0.93465687  0.99036082  0.63436695  1
  H  H26  1  0.56534313  0.49036082  0.86563305  1
  H  H27  1  0.06534313  0.00963918  0.36563305  1
  H  H28  1  0.03203510  0.59664294  0.81118667  1
  H  H29  1  0.53203510  0.90335706  0.31118667  1
  H  H30  1  0.96796490  0.40335706  0.18881333  1
  H  H31  1  0.46796490  0.09664294  0.68881333  1
  H  H32  1  0.42684138  0.90432516  0.74158042  1
  H  H33  1  0.92684138  0.59567484  0.24158042  1
  H  H34  1  0.57315862  0.09567484  0.25841958  1
  H  H35  1  0.07315862  0.40432516  0.75841958  1
  H  H36  1  0.45108116  0.54661328  0.66726949  1
  H  H37  1  0.95108116  0.95338672  0.16726949  1
  H  H38  1  0.54891884  0.45338672  0.33273051  1
  H  H39  1  0.04891884  0.04661328  0.83273051  1
  O  O40  1  0.39668562  0.57832252  0.04903633  1
  O  O41  1  0.89668562  0.92167748  0.54903633  1
  O  O42  1  0.60331438  0.42167748  0.95096367  1
  O  O43  1  0.10331438  0.07832252  0.45096367  1
  O  O44  1  0.07915160  0.60576668  0.93525747  1
  O  O45  1  0.57915160  0.89423332  0.43525747  1
  O  O46  1  0.92084840  0.39423332  0.06474253  1
  O  O47  1  0.42084840  0.10576668  0.56474253  1
  O  O48  1  0.49748306  0.85026061  0.77916441  1
  O  O49  1  0.99748306  0.64973939  0.27916441  1
  O  O50  1  0.50251694  0.14973939  0.22083559  1
  O  O51  1  0.00251694  0.35026061  0.72083559  1
  O  O52  1  0.00320981  0.88601421  0.23099125  1
  O  O53  1  0.50320981  0.61398579  0.73099125  1
  O  O54  1  0.99679019  0.11398579  0.76900875  1
  O  O55  1  0.49679019  0.38601421  0.26900875  1
  O  O56  1  0.38616813  0.73870191  0.43541735  1
  O  O57  1  0.88616813  0.76129809  0.93541735  1
  O  O58  1  0.61383187  0.26129809  0.56458265  1
  O  O59  1  0.11383187  0.23870191  0.06458265  1
  O  O60  1  0.21279556  0.72046518  0.18308442  1
  O  O61  1  0.71279556  0.77953482  0.68308442  1
  O  O62  1  0.78720444  0.27953482  0.81691558  1
  O  O63  1  0.28720444  0.22046518  0.31691558  1
  O  O64  1  0.27680438  0.71556277  0.82084158  1
  O  O65  1  0.77680438  0.78443723  0.32084158  1
  O  O66  1  0.72319562  0.28443723  0.17915842  1
  O  O67  1  0.22319562  0.21556277  0.67915842  1
  O  O68  1  0.11229537  0.78093586  0.56782445  1
  O  O69  1  0.61229537  0.71906414  0.06782445  1
  O  O70  1  0.88770463  0.21906414  0.43217555  1
  O  O71  1  0.38770463  0.28093586  0.93217555  1
  O  O72  1  0.40244334  0.83979336  0.11364394  1
  O  O73  1  0.90244334  0.66020664  0.61364394  1
  O  O74  1  0.59755666  0.16020664  0.88635606  1
  O  O75  1  0.09755666  0.33979336  0.38635606  1
  O  O76  1  0.10999882  0.86938630  0.89991185  1
  O  O77  1  0.60999882  0.63061370  0.39991185  1
  O  O78  1  0.89000118  0.13061370  0.10008815  1
  O  O79  1  0.39000118  0.36938630  0.60008815  1
  O  O80  1  0.27308689  0.94589668  0.31737200  1
  O  O81  1  0.77308689  0.55410332  0.81737200  1
  O  O82  1  0.72691311  0.05410332  0.68262800  1
  O  O83  1  0.22691311  0.44589668  0.18262800  1
  O  O84  1  0.26627183  0.94844342  0.71163326  1
  O  O85  1  0.76627183  0.55155658  0.21163326  1
  O  O86  1  0.73372817  0.05155658  0.28836674  1
  O  O87  1  0.23372817  0.44844342  0.78836674  1
