# generated using pymatgen
data_MgV3O8
_symmetry_space_group_name_H-M   'P 1'
_cell_length_a   13.67644590
_cell_length_b   10.56447851
_cell_length_c   7.84791061
_cell_angle_alpha   60.12049255
_cell_angle_beta   67.36735583
_cell_angle_gamma   39.42488026
_symmetry_Int_Tables_number   1
_chemical_formula_structural   MgV3O8
_chemical_formula_sum   'Mg4 V12 O32'
_cell_volume   624.38273688
_cell_formula_units_Z   4
loop_
 _symmetry_equiv_pos_site_id
 _symmetry_equiv_pos_as_xyz
  1  'x, y, z'
loop_
 _atom_site_type_symbol
 _atom_site_label
 _atom_site_symmetry_multiplicity
 _atom_site_fract_x
 _atom_site_fract_y
 _atom_site_fract_z
 _atom_site_occupancy
  Mg  Mg0  1  0.31541694  0.07036128  0.29319884  1
  Mg  Mg1  1  0.18458306  0.70119516  0.29319884  1
  Mg  Mg2  1  0.81541694  0.29880484  0.70680116  1
  Mg  Mg3  1  0.68458306  0.92963872  0.70680116  1
  V  V4  1  0.00551536  0.37256355  0.77390283  1
  V  V5  1  0.00327204  0.81584534  0.70688545  1
  V  V6  1  0.32042673  0.28304894  0.73362347  1
  V  V7  1  0.50327204  0.17761058  0.29311455  1
  V  V8  1  0.17957327  0.92390240  0.73362347  1
  V  V9  1  0.49448464  0.38359428  0.77390283  1
  V  V10  1  0.50551536  0.61640572  0.22609717  1
  V  V11  1  0.82042673  0.07609760  0.26637653  1
  V  V12  1  0.49672796  0.82238942  0.70688545  1
  V  V13  1  0.67957327  0.71695106  0.26637653  1
  V  V14  1  0.99672796  0.18415466  0.29311455  1
  V  V15  1  0.99448464  0.62743645  0.22609717  1
  O  O16  1  0.99485291  0.00805758  0.31697771  1
  O  O17  1  0.00693004  0.29182940  0.03979724  1
  O  O18  1  0.15722410  0.05958860  0.38785149  1
  O  O19  1  0.30644080  0.20692052  0.97836566  1
  O  O20  1  0.15489638  0.36747743  0.30029066  1
  O  O21  1  0.16534207  0.31988725  0.69135062  1
  O  O22  1  0.99626866  0.76618227  0.28865325  1
  O  O23  1  0.50514709  0.99776340  0.31697771  1
  O  O24  1  0.34277590  0.37403680  0.38785149  1
  O  O25  1  0.16904094  0.60190956  0.62654868  1
  O  O26  1  0.19355920  0.81980212  0.97836566  1
  O  O27  1  0.49306996  0.30568948  0.03979724  1
  O  O28  1  0.00514709  0.99194242  0.68302229  1
  O  O29  1  0.66904094  0.06000857  0.37345132  1
  O  O30  1  0.49626866  0.24128042  0.71134675  1
  O  O31  1  0.34510362  0.67727019  0.30029066  1
  O  O32  1  0.33465793  0.65057139  0.69135062  1
  O  O33  1  0.80644080  0.18019788  0.02163434  1
  O  O34  1  0.66534207  0.34942861  0.30864938  1
  O  O35  1  0.65489638  0.32272981  0.69970934  1
  O  O36  1  0.50373134  0.75871958  0.28865325  1
  O  O37  1  0.33095906  0.93999143  0.62654868  1
  O  O38  1  0.50693004  0.69431052  0.96020276  1
  O  O39  1  0.83095906  0.39809044  0.37345132  1
  O  O40  1  0.65722410  0.62596320  0.61214851  1
  O  O41  1  0.69355920  0.79307948  0.02163434  1
  O  O42  1  0.49485291  0.00223660  0.68302229  1
  O  O43  1  0.00373134  0.23381773  0.71134675  1
  O  O44  1  0.83465793  0.68011275  0.30864938  1
  O  O45  1  0.84510362  0.63252257  0.69970934  1
  O  O46  1  0.84277590  0.94041140  0.61214851  1
  O  O47  1  0.99306996  0.70817060  0.96020276  1
