# generated using pymatgen
data_CuSiH8(O2F3)2
_symmetry_space_group_name_H-M   'P 1'
_cell_length_a   6.79388956
_cell_length_b   6.08577340
_cell_length_c   9.41617079
_cell_angle_alpha   90.00000000
_cell_angle_beta   90.00000000
_cell_angle_gamma   110.29930967
_symmetry_Int_Tables_number   1
_chemical_formula_structural   CuSiH8(O2F3)2
_chemical_formula_sum   'Cu2 Si2 H16 O8 F12'
_cell_volume   365.14212202
_cell_formula_units_Z   2
loop_
 _symmetry_equiv_pos_site_id
 _symmetry_equiv_pos_as_xyz
  1  'x, y, z'
loop_
 _atom_site_type_symbol
 _atom_site_label
 _atom_site_symmetry_multiplicity
 _atom_site_fract_x
 _atom_site_fract_y
 _atom_site_fract_z
 _atom_site_occupancy
  Cu  Cu0  1  0.00000000  0.50000000  0.50000000  1
  Cu  Cu1  1  0.00000000  -0.00000000  -0.00000000  1
  Si  Si2  1  0.50000000  0.50000000  0.00000000  1
  Si  Si3  1  0.50000000  -0.00000000  0.50000000  1
  H  H4  1  0.21117332  0.40912935  0.29949647  1
  H  H5  1  0.78882668  0.09087065  0.79949647  1
  H  H6  1  0.78882668  0.59087065  0.70050353  1
  H  H7  1  0.21117332  0.90912935  0.20050353  1
  H  H8  1  0.01783278  0.78083781  0.71506003  1
  H  H9  1  0.98216722  0.71916219  0.21506003  1
  H  H10  1  0.98216722  0.21916219  0.28493997  1
  H  H11  1  0.01783278  0.28083781  0.78493997  1
  H  H12  1  0.29603350  0.06469274  0.84267685  1
  H  H13  1  0.70396650  0.43530726  0.34267685  1
  H  H14  1  0.70396650  0.93530726  0.15732315  1
  H  H15  1  0.29603350  0.56469274  0.65732315  1
  H  H16  1  0.76343323  0.70198724  0.40042379  1
  H  H17  1  0.23656677  0.79801276  0.90042379  1
  H  H18  1  0.23656677  0.29801276  0.59957621  1
  H  H19  1  0.76343323  0.20198724  0.09957621  1
  O  O20  1  0.08859693  0.31423922  0.35434111  1
  O  O21  1  0.91140307  0.18576078  0.85434111  1
  O  O22  1  0.91140307  0.68576078  0.64565889  1
  O  O23  1  0.08859693  0.81423922  0.14565889  1
  O  O24  1  0.17597396  0.91418138  0.85977076  1
  O  O25  1  0.82402604  0.58581862  0.35977076  1
  O  O26  1  0.82402604  0.08581862  0.14022924  1
  O  O27  1  0.17597396  0.41418138  0.64022924  1
  F  F28  1  0.70377345  0.91674219  0.44274130  1
  F  F29  1  0.29622655  0.58325781  0.94274130  1
  F  F30  1  0.29622655  0.08325781  0.55725870  1
  F  F31  1  0.70377345  0.41674219  0.05725870  1
  F  F32  1  0.53390187  0.18030142  0.35335970  1
  F  F33  1  0.46609813  0.31969858  0.85335970  1
  F  F34  1  0.46609813  0.81969858  0.64664030  1
  F  F35  1  0.53390187  0.68030142  0.14664030  1
  F  F36  1  0.32520933  0.77728440  0.40508730  1
  F  F37  1  0.67479067  0.72271560  0.90508730  1
  F  F38  1  0.67479067  0.22271560  0.59491270  1
  F  F39  1  0.32520933  0.27728440  0.09491270  1
