# generated using pymatgen
data_Sr2MnMoO6
_symmetry_space_group_name_H-M   'P 1'
_cell_length_a   8.09607644
_cell_length_b   8.09607644
_cell_length_c   8.16243572
_cell_angle_alpha   90.00000000
_cell_angle_beta   90.00000000
_cell_angle_gamma   90.00000000
_symmetry_Int_Tables_number   1
_chemical_formula_structural   Sr2MnMoO6
_chemical_formula_sum   'Sr8 Mn4 Mo4 O24'
_cell_volume   535.01871518
_cell_formula_units_Z   4
loop_
 _symmetry_equiv_pos_site_id
 _symmetry_equiv_pos_as_xyz
  1  'x, y, z'
loop_
 _atom_site_type_symbol
 _atom_site_label
 _atom_site_symmetry_multiplicity
 _atom_site_fract_x
 _atom_site_fract_y
 _atom_site_fract_z
 _atom_site_occupancy
  Sr  Sr0  1  0.25000000  0.25000000  0.25000000  1
  Sr  Sr1  1  0.75000000  0.25000000  0.26274203  1
  Sr  Sr2  1  0.25000000  0.75000000  0.73725797  1
  Sr  Sr3  1  0.75000000  0.75000000  0.25000000  1
  Sr  Sr4  1  0.25000000  0.25000000  0.75000000  1
  Sr  Sr5  1  0.25000000  0.75000000  0.23725797  1
  Sr  Sr6  1  0.75000000  0.75000000  0.75000000  1
  Sr  Sr7  1  0.75000000  0.25000000  0.76274203  1
  Mn  Mn8  1  0.50000000  -0.00000000  0.50000000  1
  Mn  Mn9  1  0.00000000  -0.00000000  0.00000000  1
  Mn  Mn10  1  0.00000000  0.50000000  0.50000000  1
  Mn  Mn11  1  0.50000000  0.50000000  0.00000000  1
  Mo  Mo12  1  0.50000000  0.50000000  0.50000000  1
  Mo  Mo13  1  0.00000000  -0.00000000  0.50000000  1
  Mo  Mo14  1  0.50000000  -0.00000000  0.00000000  1
  Mo  Mo15  1  0.00000000  0.50000000  0.00000000  1
  O  O16  1  0.73613919  0.54291023  0.47846666  1
  O  O17  1  0.97754212  0.51950530  0.76280401  1
  O  O18  1  0.26386081  0.45708977  0.52153334  1
  O  O19  1  0.54291023  0.76386081  0.02153334  1
  O  O20  1  0.45386031  0.73599571  0.48180858  1
  O  O21  1  0.76386081  0.95708977  0.47846666  1
  O  O22  1  0.01950530  0.02245788  0.26280401  1
  O  O23  1  0.04291023  0.26386081  0.97846666  1
  O  O24  1  0.54613969  0.26400429  0.51819142  1
  O  O25  1  0.02245788  0.48049470  0.23719599  1
  O  O26  1  0.04613969  0.76400429  0.48180858  1
  O  O27  1  0.23613919  0.04291023  0.52153334  1
  O  O28  1  0.26400429  0.95386031  0.98180858  1
  O  O29  1  0.76400429  0.45386031  0.01819142  1
  O  O30  1  0.48049470  0.47754212  0.26280401  1
  O  O31  1  0.98049470  0.97754212  0.73719599  1
  O  O32  1  0.95386031  0.23599571  0.51819142  1
  O  O33  1  0.73599571  0.04613969  0.01819142  1
  O  O34  1  0.95708977  0.73613919  0.02153334  1
  O  O35  1  0.23599571  0.54613969  0.98180858  1
  O  O36  1  0.52245788  0.98049470  0.76280401  1
  O  O37  1  0.45708977  0.23613919  0.97846666  1
  O  O38  1  0.47754212  0.01950530  0.23719599  1
  O  O39  1  0.51950530  0.52245788  0.73719599  1
