# generated using pymatgen
data_Cs7U8V2ClO32
_symmetry_space_group_name_H-M   'P 1'
_cell_length_a   7.74897823
_cell_length_b   11.97036501
_cell_length_c   21.59945311
_cell_angle_alpha   90.00000000
_cell_angle_beta   90.00000000
_cell_angle_gamma   90.00000000
_symmetry_Int_Tables_number   1
_chemical_formula_structural   Cs7U8V2ClO32
_chemical_formula_sum   'Cs14 U16 V4 Cl2 O64'
_cell_volume   2003.52418546
_cell_formula_units_Z   2
loop_
 _symmetry_equiv_pos_site_id
 _symmetry_equiv_pos_as_xyz
  1  'x, y, z'
loop_
 _atom_site_type_symbol
 _atom_site_label
 _atom_site_symmetry_multiplicity
 _atom_site_fract_x
 _atom_site_fract_y
 _atom_site_fract_z
 _atom_site_occupancy
  Cs  Cs0  1  0.54042608  0.75000000  0.52697667  1
  Cs  Cs1  1  0.44794004  0.94048990  0.35165885  1
  Cs  Cs2  1  0.45957392  0.25000000  0.47302333  1
  Cs  Cs3  1  0.74602100  0.75000000  0.75000000  1
  Cs  Cs4  1  0.55205996  0.44048990  0.64834115  1
  Cs  Cs5  1  0.55205996  0.44048990  0.85165885  1
  Cs  Cs6  1  0.44794004  0.55951010  0.14834115  1
  Cs  Cs7  1  0.54042608  0.75000000  0.97302333  1
  Cs  Cs8  1  0.45957392  0.25000000  0.02697667  1
  Cs  Cs9  1  0.55205996  0.05951010  0.64834115  1
  Cs  Cs10  1  0.25397900  0.25000000  0.25000000  1
  Cs  Cs11  1  0.44794004  0.94048990  0.14834115  1
  Cs  Cs12  1  0.55205996  0.05951010  0.85165885  1
  Cs  Cs13  1  0.44794004  0.55951010  0.35165885  1
  U  U14  1  0.05068664  0.94436622  0.57598095  1
  U  U15  1  0.94931336  0.44436622  0.42401905  1
  U  U16  1  0.94740846  0.96569547  0.25000000  1
  U  U17  1  0.00418615  0.25000000  0.90572210  1
  U  U18  1  0.99581385  0.75000000  0.09427790  1
  U  U19  1  0.00418615  0.25000000  0.59427790  1
  U  U20  1  0.94931336  0.05563378  0.07598095  1
  U  U21  1  0.05068664  0.94436622  0.92401905  1
  U  U22  1  0.05259154  0.03430453  0.75000000  1
  U  U23  1  0.94740846  0.53430453  0.25000000  1
  U  U24  1  0.94931336  0.44436622  0.07598095  1
  U  U25  1  0.05068664  0.55563378  0.57598095  1
  U  U26  1  0.05068664  0.55563378  0.92401905  1
  U  U27  1  0.05259154  0.46569547  0.75000000  1
  U  U28  1  0.94931336  0.05563378  0.42401905  1
  U  U29  1  0.99581385  0.75000000  0.40572210  1
  V  V30  1  0.77911825  0.25000000  0.33831164  1
  V  V31  1  0.22088175  0.75000000  0.83831164  1
  V  V32  1  0.22088175  0.75000000  0.66168836  1
  V  V33  1  0.77911825  0.25000000  0.16168836  1
  Cl  Cl34  1  0.88794369  0.25000000  0.75000000  1
  Cl  Cl35  1  0.11205631  0.75000000  0.25000000  1
  O  O36  1  0.12462174  0.87735968  0.81469393  1
  O  O37  1  0.71682570  0.02808830  0.06346949  1
  O  O38  1  0.75708031  0.75000000  0.09052799  1
  O  O39  1  0.56374440  0.25000000  0.16732244  1
  O  O40  1  0.28317430  0.97191170  0.93653051  1
  O  O41  1  0.97442780  0.58572182  0.14937062  1
  O  O42  1  0.87537826  0.37735968  0.31469393  1
  O  O43  1  0.82425312  0.51144713  0.75000000  1
  O  O44  1  0.98731376  0.39521364  0.52535350  1
  O  O45  1  0.76397284  0.25000000  0.90200794  1
  O  O46  1  0.87537826  0.12264032  0.31469393  1
  O  O47  1  0.56374440  0.25000000  0.33267756  1
  O  O48  1  0.97442780  0.91427818  0.14937062  1
  O  O49  1  0.02557220  0.41427818  0.64937062  1
  O  O50  1  0.82451736  0.90305406  0.59156021  1
  O  O51  1  0.72185867  0.58367148  0.25000000  1
  O  O52  1  0.75708031  0.75000000  0.40947201  1
  O  O53  1  0.82451736  0.90305406  0.90843979  1
  O  O54  1  0.02557220  0.41427818  0.85062938  1
  O  O55  1  0.87537826  0.12264032  0.18530607  1
  O  O56  1  0.76397284  0.25000000  0.59799206  1
  O  O57  1  0.28317430  0.97191170  0.56346949  1
  O  O58  1  0.72185867  0.91632852  0.25000000  1
  O  O59  1  0.27814133  0.08367148  0.75000000  1
  O  O60  1  0.87537826  0.37735968  0.18530607  1
  O  O61  1  0.97442780  0.91427818  0.35062938  1
  O  O62  1  0.84511954  0.25000000  0.41655553  1
  O  O63  1  0.12462174  0.87735968  0.68530607  1
  O  O64  1  0.17574688  0.48855287  0.25000000  1
  O  O65  1  0.02557220  0.08572182  0.85062938  1
  O  O66  1  0.24291969  0.25000000  0.59052799  1
  O  O67  1  0.98731376  0.10478636  0.97464650  1
  O  O68  1  0.43625560  0.75000000  0.66732244  1
  O  O69  1  0.23602716  0.75000000  0.40200794  1
  O  O70  1  0.82425312  0.98855287  0.75000000  1
  O  O71  1  0.28317430  0.52808830  0.56346949  1
  O  O72  1  0.71682570  0.47191170  0.06346949  1
  O  O73  1  0.17548264  0.09694594  0.40843979  1
  O  O74  1  0.15488046  0.75000000  0.91655553  1
  O  O75  1  0.82451736  0.59694594  0.59156021  1
  O  O76  1  0.98731376  0.39521364  0.97464650  1
  O  O77  1  0.12462174  0.62264032  0.68530607  1
  O  O78  1  0.17548264  0.40305406  0.09156021  1
  O  O79  1  0.97442780  0.58572182  0.35062938  1
  O  O80  1  0.43625560  0.75000000  0.83267756  1
  O  O81  1  0.84511954  0.25000000  0.08344447  1
  O  O82  1  0.01268624  0.60478636  0.47464650  1
  O  O83  1  0.17574688  0.01144713  0.25000000  1
  O  O84  1  0.27814133  0.41632852  0.75000000  1
  O  O85  1  0.12462174  0.62264032  0.81469393  1
  O  O86  1  0.17548264  0.09694594  0.09156021  1
  O  O87  1  0.01268624  0.60478636  0.02535350  1
  O  O88  1  0.82451736  0.59694594  0.90843979  1
  O  O89  1  0.15488046  0.75000000  0.58344447  1
  O  O90  1  0.01268624  0.89521364  0.02535350  1
  O  O91  1  0.28317430  0.52808830  0.93653051  1
  O  O92  1  0.01268624  0.89521364  0.47464650  1
  O  O93  1  0.17548264  0.40305406  0.40843979  1
  O  O94  1  0.98731376  0.10478636  0.52535350  1
  O  O95  1  0.24291969  0.25000000  0.90947201  1
  O  O96  1  0.71682570  0.02808830  0.43653051  1
  O  O97  1  0.71682570  0.47191170  0.43653051  1
  O  O98  1  0.02557220  0.08572182  0.64937062  1
  O  O99  1  0.23602716  0.75000000  0.09799206  1
