# generated using pymatgen
data_K4Cu3As4(HO8)2
_symmetry_space_group_name_H-M   'P 1'
_cell_length_a   9.55571935
_cell_length_b   10.26459845
_cell_length_c   9.84575256
_cell_angle_alpha   90.00000000
_cell_angle_beta   118.32617386
_cell_angle_gamma   90.00000000
_symmetry_Int_Tables_number   1
_chemical_formula_structural   K4Cu3As4(HO8)2
_chemical_formula_sum   'K8 Cu6 As8 H4 O32'
_cell_volume   850.09130675
_cell_formula_units_Z   2
loop_
 _symmetry_equiv_pos_site_id
 _symmetry_equiv_pos_as_xyz
  1  'x, y, z'
loop_
 _atom_site_type_symbol
 _atom_site_label
 _atom_site_symmetry_multiplicity
 _atom_site_fract_x
 _atom_site_fract_y
 _atom_site_fract_z
 _atom_site_occupancy
  K  K0  1  0.23588031  0.50603739  0.17525364  1
  K  K1  1  0.76411969  0.00603739  0.32474636  1
  K  K2  1  0.76411969  0.49396261  0.82474636  1
  K  K3  1  0.23588031  0.99396261  0.67525364  1
  K  K4  1  0.09277320  0.62348381  0.66255123  1
  K  K5  1  0.90722680  0.12348381  0.83744877  1
  K  K6  1  0.90722680  0.37651619  0.33744877  1
  K  K7  1  0.09277320  0.87651619  0.16255123  1
  Cu  Cu8  1  0.50000000  0.50000000  0.00000000  1
  Cu  Cu9  1  0.50000000  0.00000000  0.50000000  1
  Cu  Cu10  1  0.61529807  0.84564510  0.87915287  1
  Cu  Cu11  1  0.38470193  0.34564510  0.62084713  1
  Cu  Cu12  1  0.38470193  0.15435490  0.12084713  1
  Cu  Cu13  1  0.61529807  0.65435490  0.37915287  1
  As  As14  1  0.18909408  0.33068815  0.81137498  1
  As  As15  1  0.81090592  0.83068815  0.68862502  1
  As  As16  1  0.81090592  0.66931185  0.18862502  1
  As  As17  1  0.18909408  0.16931185  0.31137498  1
  As  As18  1  0.60307976  0.29557188  0.45349606  1
  As  As19  1  0.39692024  0.79557188  0.04650394  1
  As  As20  1  0.39692024  0.70442812  0.54650394  1
  As  As21  1  0.60307976  0.20442812  0.95349606  1
  H  H22  1  0.88464669  0.30680859  0.62477181  1
  H  H23  1  0.11535331  0.80680859  0.87522819  1
  H  H24  1  0.11535331  0.69319141  0.37522819  1
  H  H25  1  0.88464669  0.19319141  0.12477181  1
  O  O26  1  0.25003873  0.17691524  0.88926726  1
  O  O27  1  0.74996127  0.67691524  0.61073274  1
  O  O28  1  0.74996127  0.82308476  0.11073274  1
  O  O29  1  0.25003873  0.32308476  0.38926726  1
  O  O30  1  0.28571390  0.45945748  0.93481978  1
  O  O31  1  0.71428610  0.95945748  0.56518022  1
  O  O32  1  0.71428610  0.54054252  0.06518022  1
  O  O33  1  0.28571390  0.04054252  0.43481978  1
  O  O34  1  0.18690316  0.34554780  0.63430427  1
  O  O35  1  0.81309684  0.84554780  0.86569573  1
  O  O36  1  0.81309684  0.65445220  0.36569573  1
  O  O37  1  0.18690316  0.15445220  0.13430427  1
  O  O38  1  0.99485620  0.36106092  0.76932182  1
  O  O39  1  0.00514380  0.86106092  0.73067818  1
  O  O40  1  0.00514380  0.63893908  0.23067818  1
  O  O41  1  0.99485620  0.13893908  0.26932182  1
  O  O42  1  0.55643592  0.42443694  0.33452037  1
  O  O43  1  0.44356408  0.92443694  0.16547963  1
  O  O44  1  0.44356408  0.57556306  0.66547963  1
  O  O45  1  0.55643592  0.07556306  0.83452037  1
  O  O46  1  0.58647360  0.31017596  0.61998638  1
  O  O47  1  0.41352640  0.81017596  0.88001362  1
  O  O48  1  0.41352640  0.68982404  0.38001362  1
  O  O49  1  0.58647360  0.18982404  0.11998638  1
  O  O50  1  0.50739270  0.14955475  0.35895406  1
  O  O51  1  0.49260730  0.64955475  0.14104594  1
  O  O52  1  0.49260730  0.85044525  0.64104594  1
  O  O53  1  0.50739270  0.35044525  0.85895406  1
  O  O54  1  0.80670203  0.25593367  0.52137898  1
  O  O55  1  0.19329797  0.75593367  0.97862102  1
  O  O56  1  0.19329797  0.74406633  0.47862102  1
  O  O57  1  0.80670203  0.24406633  0.02137898  1
