# generated using pymatgen
data_LiMo2(PO4)3
_symmetry_space_group_name_H-M   'P 1'
_cell_length_a   8.92967767
_cell_length_b   8.92124749
_cell_length_c   8.92967774
_cell_angle_alpha   120.51043471
_cell_angle_beta   120.71755657
_cell_angle_gamma   59.48956656
_symmetry_Int_Tables_number   1
_chemical_formula_structural   LiMo2(PO4)3
_chemical_formula_sum   'Li2 Mo4 P6 O24'
_cell_volume   496.37967333
_cell_formula_units_Z   2
loop_
 _symmetry_equiv_pos_site_id
 _symmetry_equiv_pos_as_xyz
  1  'x, y, z'
loop_
 _atom_site_type_symbol
 _atom_site_label
 _atom_site_symmetry_multiplicity
 _atom_site_fract_x
 _atom_site_fract_y
 _atom_site_fract_z
 _atom_site_occupancy
  Li  Li0  1  0.04073648  0.64719232  0.64232092  1
  Li  Li1  1  0.35767908  0.14719232  0.95926352  1
  Mo  Mo2  1  0.36050994  0.86101083  0.14384754  1
  Mo  Mo3  1  0.14508965  0.63593571  0.35449070  1
  Mo  Mo4  1  0.85615246  0.36101083  0.63949006  1
  Mo  Mo5  1  0.64550930  0.13593571  0.85491035  1
  O  O6  1  0.11680721  0.80794491  0.98269648  1
  O  O7  1  0.00375266  0.70048571  0.11452186  1
  O  O8  1  0.21254471  0.86689641  0.49584563  1
  O  O9  1  0.05894028  0.41785836  0.22258719  1
  O  O10  1  0.59145877  0.92936818  0.28100223  1
  O  O11  1  0.01730352  0.30794491  0.88319279  1
  O  O12  1  0.27672306  0.56542061  0.59587517  1
  O  O13  1  0.70474048  0.97539432  0.62020068  1
  O  O14  1  0.44534917  0.71378436  0.92326871  1
  O  O15  1  0.49236239  0.62399209  0.21035402  1
  O  O16  1  0.77741281  0.91785836  0.94105972  1
  O  O17  1  0.07673129  0.21378436  0.55465083  1
  O  O18  1  0.37979932  0.47539432  0.29525952  1
  O  O19  1  0.62400451  0.51750956  0.71076619  1
  O  O20  1  0.92629535  0.77819527  0.45484934  1
  O  O21  1  0.23260493  0.09479184  0.05654170  1
  O  O22  1  0.50415437  0.36689641  0.78745529  1
  O  O23  1  0.28923381  0.01750956  0.37599549  1
  O  O24  1  0.54515066  0.27819527  0.07370465  1
  O  O25  1  0.71899777  0.42936818  0.40854123  1
  O  O26  1  0.40412483  0.06542061  0.72327694  1
  O  O27  1  0.94345830  0.59479184  0.76739507  1
  O  O28  1  0.78964598  0.12399209  0.50763761  1
  O  O29  1  0.88547814  0.20048571  0.99624734  1
  P  P30  1  0.75271180  0.95614549  0.46607491  1
  P  P31  1  0.04254097  0.25361060  0.03777809  1
  P  P32  1  0.46668184  0.53802841  0.75345083  1
  P  P33  1  0.53392509  0.45614549  0.24728820  1
  P  P34  1  0.96222191  0.75361060  0.95745903  1
  P  P35  1  0.24654917  0.03802841  0.53331816  1
