# generated using pymatgen
data_SnH4(ClO)2
_symmetry_space_group_name_H-M   'P 1'
_cell_length_a   9.24928492
_cell_length_b   7.22346937
_cell_length_c   8.99845138
_cell_angle_alpha   90.00000000
_cell_angle_beta   114.21273868
_cell_angle_gamma   90.00000000
_symmetry_Int_Tables_number   1
_chemical_formula_structural   SnH4(ClO)2
_chemical_formula_sum   'Sn4 H16 Cl8 O8'
_cell_volume   548.31533802
_cell_formula_units_Z   4
loop_
 _symmetry_equiv_pos_site_id
 _symmetry_equiv_pos_as_xyz
  1  'x, y, z'
loop_
 _atom_site_type_symbol
 _atom_site_label
 _atom_site_symmetry_multiplicity
 _atom_site_fract_x
 _atom_site_fract_y
 _atom_site_fract_z
 _atom_site_occupancy
  Sn  Sn0  1  0.37990982  0.24475742  0.03457229  1
  Sn  Sn1  1  0.62009018  0.74475742  0.46542771  1
  Sn  Sn2  1  0.62009018  0.75524258  0.96542771  1
  Sn  Sn3  1  0.37990982  0.25524258  0.53457229  1
  H  H4  1  0.10160408  0.46980141  0.90563793  1
  H  H5  1  0.89839592  0.96980141  0.59436207  1
  H  H6  1  0.89839592  0.53019859  0.09436207  1
  H  H7  1  0.10160408  0.03019859  0.40563793  1
  H  H8  1  0.04970077  0.29930921  0.98521363  1
  H  H9  1  0.95029923  0.79930921  0.51478637  1
  H  H10  1  0.95029923  0.70069079  0.01478637  1
  H  H11  1  0.04970077  0.20069079  0.48521363  1
  H  H12  1  0.99051371  0.24868184  0.20522559  1
  H  H13  1  0.00948629  0.74868184  0.29477441  1
  H  H14  1  0.00948629  0.75131816  0.79477441  1
  H  H15  1  0.99051371  0.25131816  0.70522559  1
  H  H16  1  0.84362956  0.20872212  0.03802680  1
  H  H17  1  0.15637044  0.70872212  0.46197320  1
  H  H18  1  0.15637044  0.79127788  0.96197320  1
  H  H19  1  0.84362956  0.29127788  0.53802680  1
  Cl  Cl20  1  0.28281575  0.00839792  0.18438328  1
  Cl  Cl21  1  0.71718425  0.50839792  0.31561672  1
  Cl  Cl22  1  0.71718425  0.99160208  0.81561672  1
  Cl  Cl23  1  0.28281575  0.49160208  0.68438328  1
  Cl  Cl24  1  0.30760001  0.99794952  0.80369501  1
  Cl  Cl25  1  0.69239999  0.49794952  0.69630499  1
  Cl  Cl26  1  0.69239999  0.00205048  0.19630499  1
  Cl  Cl27  1  0.30760001  0.50205048  0.30369501  1
  O  O28  1  0.10645285  0.33079846  0.91376628  1
  O  O29  1  0.89354715  0.83079846  0.58623372  1
  O  O30  1  0.89354715  0.66920154  0.08623372  1
  O  O31  1  0.10645285  0.16920154  0.41376628  1
  O  O32  1  0.93234597  0.29572169  0.09233619  1
  O  O33  1  0.06765403  0.79572169  0.40766381  1
  O  O34  1  0.06765403  0.70427831  0.90766381  1
  O  O35  1  0.93234597  0.20427831  0.59233619  1
