# generated using pymatgen
data_RbLi2(H2N)3
_symmetry_space_group_name_H-M   'P 1'
_cell_length_a   7.00897302
_cell_length_b   6.98176265
_cell_length_c   5.37618514
_cell_angle_alpha   89.82502196
_cell_angle_beta   90.13073454
_cell_angle_gamma   78.38647315
_symmetry_Int_Tables_number   1
_chemical_formula_structural   RbLi2(H2N)3
_chemical_formula_sum   'Rb2 Li4 H12 N6'
_cell_volume   257.69530410
_cell_formula_units_Z   2
loop_
 _symmetry_equiv_pos_site_id
 _symmetry_equiv_pos_as_xyz
  1  'x, y, z'
loop_
 _atom_site_type_symbol
 _atom_site_label
 _atom_site_symmetry_multiplicity
 _atom_site_fract_x
 _atom_site_fract_y
 _atom_site_fract_z
 _atom_site_occupancy
  Rb  Rb0  1  0.77334959  0.79256464  0.24702174  1
  Rb  Rb1  1  0.21395137  0.21359569  0.74806648  1
  Li  Li2  1  0.64674336  0.35532278  0.50342778  1
  Li  Li3  1  0.64690732  0.35904511  0.00261567  1
  Li  Li4  1  0.36123233  0.64239260  0.50037115  1
  Li  Li5  1  0.35859972  0.64284115  0.99377262  1
  H  H6  1  0.25312323  0.43799024  0.25195284  1
  H  H7  1  0.57773906  0.75636872  0.74966373  1
  H  H8  1  0.74768813  0.56856187  0.74978212  1
  H  H9  1  0.42077986  0.24816935  0.24905709  1
  H  H10  1  0.95301956  0.18704338  0.24377390  1
  H  H11  1  0.81169952  0.05554851  0.74525125  1
  H  H12  1  0.04867299  0.81847691  0.75141509  1
  H  H13  1  0.18782725  0.91718383  0.26042535  1
  H  H14  1  0.98559268  0.40689526  0.25624348  1
  H  H15  1  0.59475240  0.01730890  0.76023969  1
  H  H16  1  0.01791462  0.59939426  0.73689037  1
  H  H17  1  0.38718975  0.99601772  0.24610961  1
  N  N18  1  0.40253606  0.39851264  0.24876799  1
  N  N19  1  0.59762516  0.60589592  0.74870302  1
  N  N20  1  0.87589822  0.32912890  0.25501876  1
  N  N21  1  0.66924125  0.12997729  0.75669136  1
  N  N22  1  0.12722002  0.67723487  0.74020795  1
  N  N23  1  0.33578559  0.86834547  0.24113995  1
