# generated using pymatgen
data_Zn(FeO2)2
_symmetry_space_group_name_H-M   'P 1'
_cell_length_a   5.99808842
_cell_length_b   6.00644158
_cell_length_c   5.98949900
_cell_angle_alpha   90.06981429
_cell_angle_beta   119.92776433
_cell_angle_gamma   119.99750610
_symmetry_Int_Tables_number   1
_chemical_formula_structural   Zn(FeO2)2
_chemical_formula_sum   'Zn2 Fe4 O8'
_cell_volume   152.66204299
_cell_formula_units_Z   2
loop_
 _symmetry_equiv_pos_site_id
 _symmetry_equiv_pos_as_xyz
  1  'x, y, z'
loop_
 _atom_site_type_symbol
 _atom_site_label
 _atom_site_symmetry_multiplicity
 _atom_site_fract_x
 _atom_site_fract_y
 _atom_site_fract_z
 _atom_site_occupancy
  Zn  Zn0  1  0.25451690  0.12734591  0.88160450  1
  Zn  Zn1  1  0.74548079  0.87265746  0.11842399  1
  Fe  Fe2  1  0.50002907  0.00005793  0.49998915  1
  Fe  Fe3  1  0.50003352  0.49997217  0.49999666  1
  Fe  Fe4  1  0.99999399  0.49999818  0.99999418  1
  Fe  Fe5  1  -0.00008001  0.49995923  0.49995471  1
  O  O6  1  0.01797568  0.73509235  0.25231064  1
  O  O7  1  0.47615622  0.73830599  0.71577677  1
  O  O8  1  0.47268899  0.73609539  0.25541906  1
  O  O9  1  0.98219481  0.71711186  0.74872931  1
  O  O10  1  0.52729556  0.26389341  0.74456690  1
  O  O11  1  0.52390892  0.26172556  0.28431710  1
  O  O12  1  0.01779772  0.28287601  0.25125250  1
  O  O13  1  0.98200885  0.26490853  0.74766553  1
