# generated using pymatgen
data_Ti3(BiO3)4
_symmetry_space_group_name_H-M   'P 1'
_cell_length_a   16.91952738
_cell_length_b   5.45390132
_cell_length_c   16.89268123
_cell_angle_alpha   90.00000000
_cell_angle_beta   18.86167565
_cell_angle_gamma   90.00000000
_symmetry_Int_Tables_number   1
_chemical_formula_structural   Ti3(BiO3)4
_chemical_formula_sum   'Ti6 Bi8 O24'
_cell_volume   503.94019888
_cell_formula_units_Z   2
loop_
 _symmetry_equiv_pos_site_id
 _symmetry_equiv_pos_as_xyz
  1  'x, y, z'
loop_
 _atom_site_type_symbol
 _atom_site_label
 _atom_site_symmetry_multiplicity
 _atom_site_fract_x
 _atom_site_fract_y
 _atom_site_fract_z
 _atom_site_occupancy
  Ti  Ti0  1  0.04549769  0.50133410  0.95691629  1
  Ti  Ti1  1  0.54549769  0.99866590  0.45691629  1
  Ti  Ti2  1  0.17836112  0.50200265  0.07946230  1
  Ti  Ti3  1  0.67836112  0.99799735  0.57946230  1
  Ti  Ti4  1  0.92887193  0.49838616  0.81641612  1
  Ti  Ti5  1  0.42887193  0.00161384  0.31641612  1
  Bi  Bi6  1  0.06729835  0.00043286  0.06662849  1
  Bi  Bi7  1  0.56729835  0.49956714  0.56662849  1
  Bi  Bi8  1  0.21503282  0.02568064  0.20925267  1
  Bi  Bi9  1  0.71503282  0.47431936  0.70925267  1
  Bi  Bi10  1  0.93704330  0.99940225  0.93108773  1
  Bi  Bi11  1  0.43704330  0.50059775  0.43108773  1
  Bi  Bi12  1  0.78485587  0.97476170  0.79303686  1
  Bi  Bi13  1  0.28485587  0.52523830  0.29303686  1
  O  O14  1  0.31627406  0.22434246  0.70578075  1
  O  O15  1  0.81627406  0.27565754  0.20578075  1
  O  O16  1  0.01982130  0.25654495  0.48318340  1
  O  O17  1  0.51982130  0.24345505  0.98318340  1
  O  O18  1  0.15702042  0.57949890  0.96144819  1
  O  O19  1  0.65702042  0.92050110  0.46144819  1
  O  O20  1  0.23853771  0.44189247  0.12414133  1
  O  O21  1  0.73853771  0.05810753  0.62414133  1
  O  O22  1  0.40369842  0.21908895  0.81879664  1
  O  O23  1  0.90369842  0.28091105  0.31879664  1
  O  O24  1  0.49541415  0.69866081  0.75499961  1
  O  O25  1  0.99541415  0.80133919  0.25499961  1
  O  O26  1  0.35391279  0.71775621  0.63075168  1
  O  O27  1  0.85391279  0.78224379  0.13075168  1
  O  O28  1  0.51939678  0.74255756  0.97986082  1
  O  O29  1  0.01939678  0.75744244  0.47986082  1
  O  O30  1  0.04167770  0.42977101  0.84455177  1
  O  O31  1  0.54167770  0.07022899  0.34455177  1
  O  O32  1  0.89113677  0.56469764  0.74981899  1
  O  O33  1  0.39113677  0.93530236  0.24981899  1
  O  O34  1  0.19632725  0.77194805  0.58497003  1
  O  O35  1  0.69632725  0.72805195  0.08497003  1
  O  O36  1  0.23822157  0.28978457  0.51469633  1
  O  O37  1  0.73822157  0.21021543  0.01469633  1
