# generated using pymatgen
data_Sr11LaFe6(MoO6)6
_symmetry_space_group_name_H-M   'P 1'
_cell_length_a   5.63675606
_cell_length_b   33.88033669
_cell_length_c   9.79045810
_cell_angle_alpha   30.29917660
_cell_angle_beta   106.42657555
_cell_angle_gamma   89.66290482
_symmetry_Int_Tables_number   1
_chemical_formula_structural   Sr11LaFe6(MoO6)6
_chemical_formula_sum   'Sr11 La1 Fe6 Mo6 O36'
_cell_volume   774.66580499
_cell_formula_units_Z   1
loop_
 _symmetry_equiv_pos_site_id
 _symmetry_equiv_pos_as_xyz
  1  'x, y, z'
loop_
 _atom_site_type_symbol
 _atom_site_label
 _atom_site_symmetry_multiplicity
 _atom_site_fract_x
 _atom_site_fract_y
 _atom_site_fract_z
 _atom_site_occupancy
  Sr  Sr0  1  0.24980939  0.12200848  0.49977950  1
  Sr  Sr1  1  0.25412941  0.28965355  0.50996938  1
  Sr  Sr2  1  0.24972400  0.45866121  0.50018245  1
  Sr  Sr3  1  0.25355228  0.62445172  0.50058464  1
  Sr  Sr4  1  0.23711532  0.79614912  0.47985675  1
  Sr  Sr5  1  0.25904059  0.95882050  0.51214507  1
  Sr  Sr6  1  0.75207223  0.03891915  0.50933751  1
  Sr  Sr7  1  0.74924544  0.20997005  0.49945330  1
  Sr  Sr8  1  0.75539699  0.37274165  0.50458263  1
  Sr  Sr9  1  0.74866979  0.54153075  0.50080693  1
  Sr  Sr10  1  0.74818839  0.87331763  0.49604458  1
  La  La11  1  0.74086792  0.71948971  0.47353712  1
  Fe  Fe12  1  0.99703595  0.50037180  0.99957739  1
  Fe  Fe13  1  0.49640817  0.91798682  0.99355242  1
  Fe  Fe14  1  0.00617769  0.16406924  0.00874338  1
  Fe  Fe15  1  0.99757838  0.33406328  0.99662589  1
  Fe  Fe16  1  0.00061834  0.66801037  0.99465607  1
  Fe  Fe17  1  0.99824290  0.83469793  0.99855784  1
  Mo  Mo18  1  0.00090957  0.99920168  0.00148659  1
  Mo  Mo19  1  0.50048003  0.08424960  0.99894816  1
  Mo  Mo20  1  0.49856256  0.25158827  0.99401286  1
  Mo  Mo21  1  0.49897474  0.41626913  0.00177121  1
  Mo  Mo22  1  0.50351789  0.74834905  0.00769417  1
  Mo  Mo23  1  0.50108894  0.58286417  -0.00018217  1
  O  O24  1  0.24495606  0.04233028  0.49702508  1
  O  O25  1  0.25600804  0.20497115  0.51351565  1
  O  O26  1  0.25070701  0.37693042  0.49446527  1
  O  O27  1  0.24365333  0.54171008  0.49714738  1
  O  O28  1  0.25262251  0.70713565  0.50152859  1
  O  O29  1  0.25980452  0.87194281  0.51368293  1
  O  O30  1  0.21567882  0.12025401  0.99593770  1
  O  O31  1  0.22715340  0.28622984  0.00008603  1
  O  O32  1  0.22464757  0.45286018  0.99758304  1
  O  O33  1  0.19888686  0.62082643  0.98655527  1
  O  O34  1  0.22790096  0.78382374  0.00525081  1
  O  O35  1  0.21924140  0.95207738  0.00323908  1
  O  O36  1  0.28521783  0.03655203  0.99764841  1
  O  O37  1  0.27998149  0.20466997  0.99573813  1
  O  O38  1  0.27790116  0.36890322  0.00421037  1
  O  O39  1  0.29722904  0.53665952  0.00124896  1
  O  O40  1  0.28230848  0.70196405  0.00310977  1
  O  O41  1  0.29623451  0.86311821  0.01688676  1
  O  O42  1  0.74510606  0.12767055  0.48861453  1
  O  O43  1  0.74706892  0.29219783  0.49936872  1
  O  O44  1  0.75031595  0.45809887  0.50156573  1
  O  O45  1  0.75809599  0.62473821  0.50492132  1
  O  O46  1  0.74666631  0.78707332  0.50664646  1
  O  O47  1  0.74313883  0.96194549  0.48328985  1
  O  O48  1  0.71251109  0.13106784  0.99849234  1
  O  O49  1  0.71876162  0.29783737  0.00128017  1
  O  O50  1  0.71896498  0.46432578  0.99710222  1
  O  O51  1  0.70408086  0.62945262  0.99763307  1
  O  O52  1  0.72184761  0.79382107  0.01744292  1
  O  O53  1  0.71956850  0.96238353  0.00638764  1
  O  O54  1  0.78443098  0.04825030  0.99771308  1
  O  O55  1  0.76820008  0.21726603  0.99057930  1
  O  O56  1  0.77635993  0.38067916  0.00390081  1
  O  O57  1  0.78884936  0.55217374  0.98608593  1
  O  O58  1  0.77653831  0.71291917  0.00641138  1
  O  O59  1  0.78195467  0.87770530  0.00598160  1
