# generated using pymatgen
data_Ca5TaTi3Al(SiO5)5
_symmetry_space_group_name_H-M   'P 1'
_cell_length_a   5.48276088
_cell_length_b   27.53030289
_cell_length_c   7.11569192
_cell_angle_alpha   104.26340264
_cell_angle_beta   103.80188041
_cell_angle_gamma   105.80947405
_symmetry_Int_Tables_number   1
_chemical_formula_structural   Ca5TaTi3Al(SiO5)5
_chemical_formula_sum   'Ca10 Ta2 Ti6 Al2 Si10 O50'
_cell_volume   946.22770254
_cell_formula_units_Z   2
loop_
 _symmetry_equiv_pos_site_id
 _symmetry_equiv_pos_as_xyz
  1  'x, y, z'
loop_
 _atom_site_type_symbol
 _atom_site_label
 _atom_site_symmetry_multiplicity
 _atom_site_fract_x
 _atom_site_fract_y
 _atom_site_fract_z
 _atom_site_occupancy
  Ca  Ca0  1  0.17759140  0.96730307  0.76950849  1
  Ca  Ca1  1  0.18319423  0.76841782  0.77631404  1
  Ca  Ca2  1  0.17388335  0.56705901  0.75580780  1
  Ca  Ca3  1  0.16776715  0.36533727  0.75071075  1
  Ca  Ca4  1  0.81680577  0.83158218  0.22368596  1
  Ca  Ca5  1  0.16728539  0.16606603  0.74837889  1
  Ca  Ca6  1  0.82240860  0.63269693  0.23049151  1
  Ca  Ca7  1  0.83271461  0.43393397  0.25162111  1
  Ca  Ca8  1  0.83223285  0.23466273  0.24928925  1
  Ca  Ca9  1  0.82611665  0.03294099  0.24419220  1
  Ta  Ta10  1  0.49601984  0.89942326  0.49849467  1
  Ta  Ta11  1  0.50398016  0.70057674  0.50150533  1
  Ti  Ti12  1  0.50487003  0.50073294  0.50095912  1
  Ti  Ti13  1  0.49829151  0.49864549  0.99703925  1
  Ti  Ti14  1  0.50000000  0.30000000  0.50000000  1
  Ti  Ti15  1  0.50000000  0.30000000  0.00000000  1
  Ti  Ti16  1  0.49512997  0.09926706  0.49904088  1
  Ti  Ti17  1  0.50170849  0.10135451  0.00296075  1
  Al  Al18  1  0.50155416  0.90113195  0.00209902  1
  Al  Al19  1  0.49844584  0.69886805  0.99790098  1
  Si  Si20  1  0.17689325  0.96349943  0.24301313  1
  Si  Si21  1  0.17376374  0.76171230  0.23873662  1
  Si  Si22  1  0.18037660  0.56233937  0.24760193  1
  Si  Si23  1  0.82623626  0.83828770  0.76126338  1
  Si  Si24  1  0.18350607  0.36390240  0.25173324  1
  Si  Si25  1  0.82310675  0.63650057  0.75698687  1
  Si  Si26  1  0.18252551  0.16395516  0.25287489  1
  Si  Si27  1  0.81747449  0.43604484  0.74712511  1
  Si  Si28  1  0.81649393  0.23609760  0.74826676  1
  Si  Si29  1  0.81962340  0.03766063  0.75239807  1
  O  O30  1  0.12602477  0.85201430  0.91692628  1
  O  O31  1  0.18485347  0.92240589  0.38240317  1
  O  O32  1  0.42896882  0.91356148  0.75607986  1
  O  O33  1  0.12356112  0.65054223  0.91335299  1
  O  O34  1  0.24250421  0.82258861  0.40225063  1
  O  O35  1  0.39546207  0.96239767  0.12006423  1
  O  O36  1  0.18640600  0.72225250  0.38243172  1
  O  O37  1  0.60620829  0.83863129  0.88247340  1
  O  O38  1  0.75443517  0.97684463  0.59512382  1
  O  O39  1  0.42967294  0.71318406  0.75562319  1
  O  O40  1  0.11777502  0.44960013  0.90962504  1
  O  O41  1  0.57032706  0.88681594  0.24437681  1
  O  O42  1  0.24556483  0.62315537  0.40487618  1
  O  O43  1  0.39379171  0.76136871  0.11752660  1
  O  O44  1  0.18722771  0.52188085  0.38282340  1
  O  O45  1  0.81359400  0.87774750  0.61756828  1
  O  O46  1  0.60453793  0.63760233  0.87993577  1
  O  O47  1  0.75749579  0.77741139  0.59774937  1
  O  O48  1  0.43296870  0.51390785  0.75100307  1
  O  O49  1  0.11790102  0.25012365  0.91005310  1
  O  O50  1  0.87643888  0.94945777  0.08664701  1
  O  O51  1  0.57103118  0.68643852  0.24392014  1
  O  O52  1  0.25070751  0.42410978  0.41079044  1
  O  O53  1  0.39306713  0.56229199  0.11806925  1
  O  O54  1  0.18678632  0.32208152  0.38291572  1
  O  O55  1  0.81514653  0.67759411  0.61759683  1
  O  O56  1  0.60575014  0.43642569  0.87826992  1
  O  O57  1  0.75278884  0.57641026  0.59110576  1
  O  O58  1  0.43203390  0.31409043  0.75090391  1
  O  O59  1  0.11925341  0.05119297  0.91316541  1
  O  O60  1  0.87397523  0.74798570  0.08307372  1
  O  O61  1  0.56949218  0.48568751  0.24872668  1
  O  O62  1  0.24825716  0.22406334  0.41217149  1
  O  O63  1  0.39351617  0.36286664  0.11931367  1
  O  O64  1  0.18423103  0.12191017  0.38250596  1
  O  O65  1  0.81576897  0.47808983  0.61749404  1
  O  O66  1  0.60648383  0.23713336  0.88068633  1
  O  O67  1  0.75174284  0.37593666  0.58782851  1
  O  O68  1  0.43050782  0.11431249  0.75127332  1
  O  O69  1  0.88074659  0.54880703  0.08683459  1
  O  O70  1  0.56796610  0.28590957  0.24909609  1
  O  O71  1  0.24721116  0.02358974  0.40889424  1
  O  O72  1  0.39424986  0.16357431  0.12173008  1
  O  O73  1  0.81321368  0.27791848  0.61708428  1
  O  O74  1  0.60693287  0.03770801  0.88193075  1
  O  O75  1  0.74929249  0.17589022  0.58920956  1
  O  O76  1  0.88209898  0.34987635  0.08994690  1
  O  O77  1  0.56703130  0.08609215  0.24899693  1
  O  O78  1  0.81277229  0.07811915  0.61717660  1
  O  O79  1  0.88222498  0.15039987  0.09037496  1
