# generated using pymatgen
data_NaCa2B9(H2O5)4
_symmetry_space_group_name_H-M   'P 1'
_cell_length_a   11.61137758
_cell_length_b   10.62917267
_cell_length_c   12.68710249
_cell_angle_alpha   90.00000000
_cell_angle_beta   90.00000000
_cell_angle_gamma   99.27191798
_symmetry_Int_Tables_number   1
_chemical_formula_structural   NaCa2B9(H2O5)4
_chemical_formula_sum   'Na4 Ca8 B36 H32 O80'
_cell_volume   1545.37585532
_cell_formula_units_Z   4
loop_
 _symmetry_equiv_pos_site_id
 _symmetry_equiv_pos_as_xyz
  1  'x, y, z'
loop_
 _atom_site_type_symbol
 _atom_site_label
 _atom_site_symmetry_multiplicity
 _atom_site_fract_x
 _atom_site_fract_y
 _atom_site_fract_z
 _atom_site_occupancy
  Na  Na0  1  0.49920495  0.46801607  0.35150781  1
  Na  Na1  1  0.50079505  0.03198393  0.85150781  1
  Na  Na2  1  0.50079505  0.53198393  0.64849219  1
  Na  Na3  1  0.49920495  0.96801607  0.14849219  1
  Ca  Ca4  1  0.13174958  0.96922905  0.37147609  1
  Ca  Ca5  1  0.86825042  0.53077095  0.87147609  1
  Ca  Ca6  1  0.86825042  0.03077095  0.62852391  1
  Ca  Ca7  1  0.13174958  0.46922905  0.12852391  1
  Ca  Ca8  1  0.65402677  0.13477886  0.39880644  1
  Ca  Ca9  1  0.34597323  0.36522114  0.89880644  1
  Ca  Ca10  1  0.34597323  0.86522114  0.60119356  1
  Ca  Ca11  1  0.65402677  0.63477886  0.10119356  1
  B  B12  1  0.93657793  0.15973240  0.41368809  1
  B  B13  1  0.06342207  0.34026760  0.91368809  1
  B  B14  1  0.06342207  0.84026760  0.58631191  1
  B  B15  1  0.93657793  0.65973240  0.08631191  1
  B  B16  1  0.57009856  0.31305533  0.06881794  1
  B  B17  1  0.42990144  0.18694467  0.56881794  1
  B  B18  1  0.42990144  0.68694467  0.93118206  1
  B  B19  1  0.57009856  0.81305533  0.43118206  1
  B  B20  1  0.88810147  0.31964527  0.28164849  1
  B  B21  1  0.11189853  0.18035473  0.78164849  1
  B  B22  1  0.11189853  0.68035473  0.71835151  1
  B  B23  1  0.88810147  0.81964527  0.21835151  1
  B  B24  1  0.94638955  0.67253763  0.47895443  1
  B  B25  1  0.05361045  0.82746237  0.97895443  1
  B  B26  1  0.05361045  0.32746237  0.52104557  1
  B  B27  1  0.94638955  0.17253763  0.02104557  1
  B  B28  1  0.50059170  0.72799446  0.26149247  1
  B  B29  1  0.49940830  0.77200554  0.76149247  1
  B  B30  1  0.49940830  0.27200554  0.73850753  1
  B  B31  1  0.50059170  0.22799446  0.23850753  1
  B  B32  1  0.39088808  0.59730324  0.11962134  1
  B  B33  1  0.60911192  0.90269676  0.61962134  1
  B  B34  1  0.60911192  0.40269676  0.88037866  1
  B  B35  1  0.39088808  0.09730324  0.38037866  1
  B  B36  1  0.90724429  0.70303912  0.66963927  1
  B  B37  1  0.09275571  0.79696088  0.16963927  1
  B  B38  1  0.09275571  0.29696088  0.33036073  1
  B  B39  1  0.90724429  0.20303912  0.83036073  1
  B  B40  1  0.31147821  0.60614570  0.77091874  1
  B  B41  1  0.68852179  0.89385430  0.27091874  1
  B  B42  1  0.68852179  0.39385430  0.22908126  1
  B  B43  1  0.31147821  0.10614570  0.72908126  1
  B  B44  1  0.29426439  0.75664702  0.21058385  1
  B  B45  1  0.70573561  0.74335298  0.71058385  1
  B  B46  1  0.70573561  0.24335298  0.78941615  1
  B  B47  1  0.29426439  0.25664702  0.28941615  1
  H  H48  1  0.14385456  0.53013629  0.88583995  1
  H  H49  1  0.85614544  0.96986371  0.38583995  1
  H  H50  1  0.85614544  0.46986371  0.11416005  1
  H  H51  1  0.14385456  0.03013629  0.61416005  1
  H  H52  1  0.76864886  0.55181640  0.31026073  1
  H  H53  1  0.23135114  0.94818360  0.81026073  1
  H  H54  1  0.23135114  0.44818360  0.68973927  1
  H  H55  1  0.76864886  0.05181640  0.18973927  1
  H  H56  1  0.73247986  0.57979119  0.54206016  1
  H  H57  1  0.26752014  0.92020881  0.04206016  1
  H  H58  1  0.26752014  0.42020881  0.45793984  1
  H  H59  1  0.73247986  0.07979119  0.95793984  1
  H  H60  1  0.62934512  0.59628112  0.86141436  1
  H  H61  1  0.37065488  0.90371888  0.36141436  1
  H  H62  1  0.37065488  0.40371888  0.13858564  1
  H  H63  1  0.62934512  0.09628112  0.63858564  1
  H  H64  1  0.97324225  0.63014963  0.32878946  1
  H  H65  1  0.02675775  0.86985037  0.82878946  1
  H  H66  1  0.02675775  0.36985037  0.67121054  1
  H  H67  1  0.97324225  0.13014963  0.17121054  1
  H  H68  1  0.21554945  0.63962695  0.47054506  1
  H  H69  1  0.78445055  0.86037305  0.97054506  1
  H  H70  1  0.78445055  0.36037305  0.52945494  1
  H  H71  1  0.21554945  0.13962695  0.02945494  1
  H  H72  1  0.35306581  0.41762737  0.55106041  1
  H  H73  1  0.64693419  0.08237263  0.05106041  1
  H  H74  1  0.64693419  0.58237263  0.44893959  1
  H  H75  1  0.35306581  0.91762737  0.94893959  1
  H  H76  1  0.34811802  0.66246630  0.43892200  1
  H  H77  1  0.65188198  0.83753370  0.93892200  1
  H  H78  1  0.65188198  0.33753370  0.56107800  1
  H  H79  1  0.34811802  0.16246630  0.06107800  1
  O  O80  1  0.60824902  0.29798246  0.28560459  1
  O  O81  1  0.39175098  0.20201754  0.78560459  1
  O  O82  1  0.39175098  0.70201754  0.71439541  1
  O  O83  1  0.60824902  0.79798246  0.21439541  1
  O  O84  1  0.40141327  0.80616380  0.25238132  1
  O  O85  1  0.59858673  0.69383620  0.75238132  1
  O  O86  1  0.59858673  0.19383620  0.74761868  1
  O  O87  1  0.40141327  0.30616380  0.24761868  1
  O  O88  1  0.81138529  0.37052075  0.21938955  1
  O  O89  1  0.18861471  0.12947925  0.71938955  1
  O  O90  1  0.18861471  0.62947925  0.78061045  1
  O  O91  1  0.81138529  0.87052075  0.28061045  1
  O  O92  1  0.45660808  0.67540494  0.03527033  1
  O  O93  1  0.54339192  0.82459506  0.53527033  1
  O  O94  1  0.54339192  0.32459506  0.96472967  1
  O  O95  1  0.45660808  0.17540494  0.46472967  1
  O  O96  1  0.28213729  0.14971183  0.35229414  1
  O  O97  1  0.71786271  0.35028817  0.85229414  1
  O  O98  1  0.71786271  0.85028817  0.64770586  1
  O  O99  1  0.28213729  0.64971183  0.14770586  1
  O  O100  1  0.64536273  0.90730946  0.38074772  1
  O  O101  1  0.35463727  0.59269054  0.88074772  1
  O  O102  1  0.35463727  0.09269054  0.61925228  1
  O  O103  1  0.64536273  0.40730946  0.11925228  1
  O  O104  1  0.46977515  0.10477336  0.29056439  1
  O  O105  1  0.53022485  0.39522664  0.79056439  1
  O  O106  1  0.53022485  0.89522664  0.70943561  1
  O  O107  1  0.46977515  0.60477336  0.20943561  1
  O  O108  1  0.51468120  0.70761037  0.37638363  1
  O  O109  1  0.48531880  0.79238963  0.87638363  1
  O  O110  1  0.48531880  0.29238963  0.62361637  1
  O  O111  1  0.51468120  0.20761037  0.12361637  1
  O  O112  1  0.35002167  0.46447393  0.08540469  1
  O  O113  1  0.64997833  0.03552607  0.58540469  1
  O  O114  1  0.64997833  0.53552607  0.91459531  1
  O  O115  1  0.35002167  0.96447393  0.41459531  1
  O  O116  1  0.04235604  0.66312023  0.14989599  1
  O  O117  1  0.95764396  0.83687977  0.64989599  1
  O  O118  1  0.95764396  0.33687977  0.85010401  1
  O  O119  1  0.04235604  0.16312023  0.35010401  1
  O  O120  1  0.03576786  0.27453931  0.01842556  1
  O  O121  1  0.96423214  0.22546069  0.51842556  1
  O  O122  1  0.96423214  0.72546069  0.98157444  1
  O  O123  1  0.03576786  0.77453931  0.48157444  1
  O  O124  1  0.19965970  0.81608474  0.23319191  1
  O  O125  1  0.80034030  0.68391526  0.73319191  1
  O  O126  1  0.80034030  0.18391526  0.76680809  1
  O  O127  1  0.19965970  0.31608474  0.26680809  1
  O  O128  1  0.88261460  0.53102207  0.05649327  1
  O  O129  1  0.11738540  0.96897793  0.55649327  1
  O  O130  1  0.11738540  0.46897793  0.94350673  1
  O  O131  1  0.88261460  0.03102207  0.44350673  1
  O  O132  1  0.00735206  0.35890350  0.26630144  1
  O  O133  1  0.99264794  0.14109650  0.76630144  1
  O  O134  1  0.99264794  0.64109650  0.73369856  1
  O  O135  1  0.00735206  0.85890350  0.23369856  1
  O  O136  1  0.69262045  0.52259447  0.27770168  1
  O  O137  1  0.30737955  0.97740553  0.77770168  1
  O  O138  1  0.30737955  0.47740553  0.72229832  1
  O  O139  1  0.69262045  0.02259447  0.22229832  1
  O  O140  1  0.85087122  0.22728857  0.35636527  1
  O  O141  1  0.14912878  0.27271143  0.85636527  1
  O  O142  1  0.14912878  0.77271143  0.64363473  1
  O  O143  1  0.85087122  0.72728857  0.14363473  1
  O  O144  1  0.88097700  0.63313706  0.56695341  1
  O  O145  1  0.11902300  0.86686294  0.06695341  1
  O  O146  1  0.11902300  0.36686294  0.43304659  1
  O  O147  1  0.88097700  0.13313706  0.93304659  1
  O  O148  1  0.28541897  0.70368218  0.46812533  1
  O  O149  1  0.71458103  0.79631782  0.96812533  1
  O  O150  1  0.71458103  0.29631782  0.53187467  1
  O  O151  1  0.28541897  0.20368218  0.03187467  1
  O  O152  1  0.91844589  0.60406344  0.38629950  1
  O  O153  1  0.08155411  0.89593656  0.88629950  1
  O  O154  1  0.08155411  0.39593656  0.61370050  1
  O  O155  1  0.91844589  0.10406344  0.11370050  1
  O  O156  1  0.64901635  0.55394165  0.52185818  1
  O  O157  1  0.35098365  0.94605835  0.02185818  1
  O  O158  1  0.35098365  0.44605835  0.47814182  1
  O  O159  1  0.64901635  0.05394165  0.97814182  1
