# generated using pymatgen
data_Na13Ca7S12Cl(O24F)2
_symmetry_space_group_name_H-M   'P 1'
_cell_length_a   9.61193404
_cell_length_b   9.60988725
_cell_length_c   13.90189456
_cell_angle_alpha   89.99240384
_cell_angle_beta   90.01842271
_cell_angle_gamma   119.85800841
_symmetry_Int_Tables_number   1
_chemical_formula_structural   Na13Ca7S12Cl(O24F)2
_chemical_formula_sum   'Na13 Ca7 S12 Cl1 O48 F2'
_cell_volume   1113.66170440
_cell_formula_units_Z   1
loop_
 _symmetry_equiv_pos_site_id
 _symmetry_equiv_pos_as_xyz
  1  'x, y, z'
loop_
 _atom_site_type_symbol
 _atom_site_label
 _atom_site_symmetry_multiplicity
 _atom_site_fract_x
 _atom_site_fract_y
 _atom_site_fract_z
 _atom_site_occupancy
  Na  Na0  1  0.27433265  0.99102087  0.12370562  1
  Na  Na1  1  0.26164995  0.98902767  0.62405949  1
  Na  Na2  1  0.01026499  0.28386251  0.12370064  1
  Na  Na3  1  0.01228700  0.27472308  0.62397004  1
  Na  Na4  1  0.33232717  0.66690205  0.00678061  1
  Na  Na5  1  0.32675840  0.66619941  0.50658787  1
  Na  Na6  1  0.33247357  0.66695426  0.24181575  1
  Na  Na7  1  0.32653119  0.66593897  0.74565260  1
  Na  Na8  1  0.71602257  0.72617227  0.12356436  1
  Na  Na9  1  0.66636701  0.33262193  0.24471520  1
  Na  Na10  1  0.66457284  0.32682689  0.74809372  1
  Na  Na11  1  0.66365844  0.32692189  0.50043493  1
  Na  Na12  1  0.66622377  0.33242927  0.00318907  1
  Ca  Ca13  1  0.24687526  0.24330243  0.37629036  1
  Ca  Ca14  1  0.24310482  0.23991215  0.87298727  1
  Ca  Ca15  1  0.73235668  0.74003560  0.62562682  1
  Ca  Ca16  1  0.99849445  0.75351986  0.37393608  1
  Ca  Ca17  1  0.99915437  0.75718176  0.87493605  1
  Ca  Ca18  1  0.75684305  0.00625948  0.37523195  1
  Ca  Ca19  1  0.76011476  0.00618208  0.87419205  1
  S  S20  1  0.02694320  0.38983987  0.37468182  1
  S  S21  1  0.02765632  0.39311902  0.87614619  1
  S  S22  1  0.36315469  0.97271268  0.37458646  1
  S  S23  1  0.36580998  0.97201788  0.87633295  1
  S  S24  1  0.38023540  0.35677771  0.12513536  1
  S  S25  1  0.39534842  0.36905045  0.62430843  1
  S  S26  1  0.61088259  0.63617224  0.37564702  1
  S  S27  1  0.60718345  0.63318268  0.87540850  1
  S  S28  1  0.64401291  0.02353111  0.12504199  1
  S  S29  1  0.63419980  0.02612720  0.62410659  1
  S  S30  1  0.97583093  0.62003371  0.12494040  1
  S  S31  1  0.96877716  0.60513136  0.62379688  1
  Cl  Cl32  1  0.00119889  0.00175181  0.67158049  1
  O  O33  1  0.25350400  0.91240512  0.45950507  1
  O  O34  1  0.25684010  0.91356876  0.96163638  1
  O  O35  1  0.25667580  0.91485719  0.28814313  1
  O  O36  1  0.25891463  0.91161548  0.79012045  1
  O  O37  1  0.15148166  0.68274791  0.12527424  1
  O  O38  1  0.14513490  0.67744663  0.62599713  1
  O  O39  1  0.09682708  0.56762203  0.37527185  1
  O  O40  1  0.09704962  0.57074163  0.87740265  1
  O  O41  1  0.08531630  0.34117351  0.28856608  1
  O  O42  1  0.08728273  0.34656648  0.78964849  1
  O  O43  1  0.08679170  0.34072812  0.45997031  1
  O  O44  1  0.08682829  0.34289448  0.96119901  1
  O  O45  1  0.47091915  0.90240981  0.37514465  1
  O  O46  1  0.47379908  0.90218190  0.87796775  1
  O  O47  1  0.31735086  0.47002383  0.12531788  1
  O  O48  1  0.32804917  0.47864997  0.62564727  1
  O  O49  1  0.53175592  0.84763856  0.12528193  1
  O  O50  1  0.53336607  0.84672158  0.62624977  1
  O  O51  1  0.43372847  0.53094110  0.37641994  1
  O  O52  1  0.43026517  0.52778209  0.87669255  1
  O  O53  1  0.32181934  0.24991842  0.03877472  1
  O  O54  1  0.32203767  0.25014436  0.21181947  1
  O  O55  1  0.33352712  0.25858847  0.54024730  1
  O  O56  1  0.35797226  0.27440166  0.71463751  1
  O  O57  1  0.66091468  0.74605306  0.29114762  1
  O  O58  1  0.66150388  0.74443413  0.46228566  1
  O  O59  1  0.65469826  0.73832329  0.78744214  1
  O  O60  1  0.65921729  0.74575388  0.95862646  1
  O  O61  1  0.55939521  0.44650540  0.12527055  1
  O  O62  1  0.57523414  0.46476538  0.61599950  1
  O  O63  1  0.45876603  0.15153379  0.37522436  1
  O  O64  1  0.46026962  0.15079098  0.87586410  1
  O  O65  1  0.69359293  0.53999358  0.37557083  1
  O  O66  1  0.69100072  0.53815748  0.87573968  1
  O  O67  1  0.55397011  0.11281050  0.12515462  1
  O  O68  1  0.53456452  0.10339518  0.61366141  1
  O  O69  1  0.92744142  0.67888568  0.03859907  1
  O  O70  1  0.91923707  0.67226907  0.54093870  1
  O  O71  1  0.92724379  0.67889149  0.21139315  1
  O  O72  1  0.90782564  0.64417407  0.71339039  1
  O  O73  1  0.88650014  0.44100878  0.12512265  1
  O  O74  1  0.88727778  0.42794225  0.61415105  1
  O  O75  1  0.84797867  0.30703565  0.37494395  1
  O  O76  1  0.84876170  0.30940021  0.87623918  1
  O  O77  1  0.75107761  0.07204880  0.21154624  1
  O  O78  1  0.75101455  0.07192167  0.03876963  1
  O  O79  1  0.72761027  0.08440726  0.71520974  1
  O  O80  1  0.74740405  0.07308449  0.54087068  1
  F  F81  1  0.99912580  0.99944381  0.37361495  1
  F  F82  1  0.99949036  0.99975888  0.89610356  1
