# generated using pymatgen
data_LiAgF2
_symmetry_space_group_name_H-M   'P 1'
_cell_length_a   3.03512192
_cell_length_b   3.03505434
_cell_length_c   6.09283480
_cell_angle_alpha   89.01059319
_cell_angle_beta   90.94088262
_cell_angle_gamma   119.37695678
_symmetry_Int_Tables_number   1
_chemical_formula_structural   LiAgF2
_chemical_formula_sum   'Li1 Ag1 F2'
_cell_volume   48.89926184
_cell_formula_units_Z   1
loop_
 _symmetry_equiv_pos_site_id
 _symmetry_equiv_pos_as_xyz
  1  'x, y, z'
loop_
 _atom_site_type_symbol
 _atom_site_label
 _atom_site_symmetry_multiplicity
 _atom_site_fract_x
 _atom_site_fract_y
 _atom_site_fract_z
 _atom_site_occupancy
  Li  Li0  1  0.50000000  0.50000000  0.50000000  1
  Ag  Ag1  1  0.00000000  0.99999800  0.00000000  1
  F  F2  1  0.82877802  0.17217019  0.31898778  1
  F  F3  1  0.17122198  0.82783081  0.68101222  1
