# generated using pymatgen
data_CaFe2P3HO12
_symmetry_space_group_name_H-M   'P 1'
_cell_length_a   6.45567191
_cell_length_b   20.04675964
_cell_length_c   6.60545122
_cell_angle_alpha   90.00000000
_cell_angle_beta   91.27501167
_cell_angle_gamma   90.00000000
_symmetry_Int_Tables_number   1
_chemical_formula_structural   CaFe2P3HO12
_chemical_formula_sum   'Ca4 Fe8 P12 H4 O48'
_cell_volume   854.63482058
_cell_formula_units_Z   4
loop_
 _symmetry_equiv_pos_site_id
 _symmetry_equiv_pos_as_xyz
  1  'x, y, z'
loop_
 _atom_site_type_symbol
 _atom_site_label
 _atom_site_symmetry_multiplicity
 _atom_site_fract_x
 _atom_site_fract_y
 _atom_site_fract_z
 _atom_site_occupancy
  Ca  Ca0  1  0.85176407  0.91987040  0.05596038  1
  Ca  Ca1  1  0.35176407  0.58012960  0.55596038  1
  Ca  Ca2  1  0.14823593  0.08012960  0.94403962  1
  Ca  Ca3  1  0.64823593  0.41987040  0.44403962  1
  Fe  Fe4  1  0.40555782  0.90190208  0.71823162  1
  Fe  Fe5  1  0.90555782  0.59809792  0.21823162  1
  Fe  Fe6  1  0.59444218  0.09809792  0.28176838  1
  Fe  Fe7  1  0.09444218  0.40190208  0.78176838  1
  Fe  Fe8  1  0.43874336  0.78813887  0.10034263  1
  Fe  Fe9  1  0.93874336  0.71186113  0.60034263  1
  Fe  Fe10  1  0.56125664  0.21186113  0.89965737  1
  Fe  Fe11  1  0.06125664  0.28813887  0.39965737  1
  P  P12  1  0.91781819  0.87858652  0.61606950  1
  P  P13  1  0.41781819  0.62141348  0.11606950  1
  P  P14  1  0.08218181  0.12141348  0.38393050  1
  P  P15  1  0.58218181  0.37858652  0.88393050  1
  P  P16  1  0.44406704  0.74654646  0.58819413  1
  P  P17  1  0.94406704  0.75345354  0.08819413  1
  P  P18  1  0.55593296  0.25345354  0.41180587  1
  P  P19  1  0.05593296  0.24654646  0.91180587  1
  P  P20  1  0.38495352  0.94853698  0.21627269  1
  P  P21  1  0.88495352  0.55146302  0.71627269  1
  P  P22  1  0.61504648  0.05146302  0.78372731  1
  P  P23  1  0.11504648  0.44853698  0.28372731  1
  H  H24  1  0.05131909  0.94676525  0.39487455  1
  H  H25  1  0.55131909  0.55323475  0.89487455  1
  H  H26  1  0.94868091  0.05323475  0.60512545  1
  H  H27  1  0.44868091  0.44676525  0.10512545  1
  O  O28  1  0.71460339  0.89229620  0.72344049  1
  O  O29  1  0.21460339  0.60770380  0.22344049  1
  O  O30  1  0.28539661  0.10770380  0.27655951  1
  O  O31  1  0.78539661  0.39229620  0.77655951  1
  O  O32  1  0.91328729  0.92752987  0.42312819  1
  O  O33  1  0.41328729  0.57247013  0.92312819  1
  O  O34  1  0.08671271  0.07247013  0.57687181  1
  O  O35  1  0.58671271  0.42752987  0.07687181  1
  O  O36  1  0.09441275  0.90140972  0.76210059  1
  O  O37  1  0.59441275  0.59859028  0.26210059  1
  O  O38  1  0.90558725  0.09859028  0.23789941  1
  O  O39  1  0.40558725  0.40140972  0.73789941  1
  O  O40  1  0.94095268  0.80761744  0.54080696  1
  O  O41  1  0.44095268  0.69238256  0.04080696  1
  O  O42  1  0.05904732  0.19238256  0.45919304  1
  O  O43  1  0.55904732  0.30761744  0.95919304  1
  O  O44  1  0.40937907  0.79993712  0.76067695  1
  O  O45  1  0.90937907  0.70006288  0.26067695  1
  O  O46  1  0.59062093  0.20006288  0.23932305  1
  O  O47  1  0.09062093  0.29993712  0.73932305  1
  O  O48  1  0.47556272  0.78538668  0.39084906  1
  O  O49  1  0.97556272  0.71461332  0.89084906  1
  O  O50  1  0.52443728  0.21461332  0.60915094  1
  O  O51  1  0.02443728  0.28538668  0.10915094  1
  O  O52  1  0.63372910  0.70123039  0.63120576  1
  O  O53  1  0.13372910  0.79876961  0.13120576  1
  O  O54  1  0.36627090  0.29876961  0.36879424  1
  O  O55  1  0.86627090  0.20123039  0.86879424  1
  O  O56  1  0.25491113  0.69881336  0.57393369  1
  O  O57  1  0.75491113  0.80118664  0.07393369  1
  O  O58  1  0.74508887  0.30118664  0.42606631  1
  O  O59  1  0.24508887  0.19881336  0.92606631  1
  O  O60  1  0.35901246  0.91885404  0.43017390  1
  O  O61  1  0.85901246  0.58114596  0.93017390  1
  O  O62  1  0.64098754  0.08114596  0.56982610  1
  O  O63  1  0.14098754  0.41885404  0.06982610  1
  O  O64  1  0.45726491  0.89228147  0.06429906  1
  O  O65  1  0.95726491  0.60771853  0.56429906  1
  O  O66  1  0.54273509  0.10771853  0.93570094  1
  O  O67  1  0.04273509  0.39228147  0.43570094  1
  O  O68  1  0.17494597  0.97670210  0.14367629  1
  O  O69  1  0.67494597  0.52329790  0.64367629  1
  O  O70  1  0.82505403  0.02329790  0.85632371  1
  O  O71  1  0.32505403  0.47670210  0.35632371  1
  O  O72  1  0.56519880  0.99985610  0.21628650  1
  O  O73  1  0.06519880  0.50014390  0.71628650  1
  O  O74  1  0.43480120  0.00014390  0.78371350  1
  O  O75  1  0.93480120  0.49985610  0.28371350  1
