# generated using pymatgen
data_Sr2HfO4
_symmetry_space_group_name_H-M   'P 1'
_cell_length_a   5.84534920
_cell_length_b   5.83040445
_cell_length_c   12.67471839
_cell_angle_alpha   90.00000000
_cell_angle_beta   90.00000000
_cell_angle_gamma   90.00000000
_symmetry_Int_Tables_number   1
_chemical_formula_structural   Sr2HfO4
_chemical_formula_sum   'Sr8 Hf4 O16'
_cell_volume   431.96390861
_cell_formula_units_Z   4
loop_
 _symmetry_equiv_pos_site_id
 _symmetry_equiv_pos_as_xyz
  1  'x, y, z'
loop_
 _atom_site_type_symbol
 _atom_site_label
 _atom_site_symmetry_multiplicity
 _atom_site_fract_x
 _atom_site_fract_y
 _atom_site_fract_z
 _atom_site_occupancy
  Sr  Sr0  1  0.01425096  0.01285394  0.35170774  1
  Sr  Sr1  1  0.01425096  0.48714606  0.85170774  1
  Sr  Sr2  1  0.48574904  0.01285394  0.85170774  1
  Sr  Sr3  1  0.48574904  0.48714606  0.35170774  1
  Sr  Sr4  1  0.51425096  0.51285394  0.64829226  1
  Sr  Sr5  1  0.51425096  0.98714606  0.14829226  1
  Sr  Sr6  1  0.98574904  0.51285394  0.14829226  1
  Sr  Sr7  1  0.98574904  0.98714606  0.64829226  1
  Hf  Hf8  1  0.00000000  0.00000000  0.00000000  1
  Hf  Hf9  1  0.00000000  0.50000000  0.50000000  1
  Hf  Hf10  1  0.50000000  0.50000000  0.00000000  1
  Hf  Hf11  1  0.50000000  0.00000000  0.50000000  1
  O  O12  1  0.04053514  0.46589955  0.33682870  1
  O  O13  1  0.04053514  0.03410045  0.83682870  1
  O  O14  1  0.25000000  0.25000000  0.02121712  1
  O  O15  1  0.25000000  0.25000000  0.52121712  1
  O  O16  1  0.25000000  0.75000000  0.00212186  1
  O  O17  1  0.25000000  0.75000000  0.50212186  1
  O  O18  1  0.45946486  0.46589955  0.83682870  1
  O  O19  1  0.45946486  0.03410045  0.33682870  1
  O  O20  1  0.54053514  0.53410045  0.16317130  1
  O  O21  1  0.54053514  0.96589955  0.66317130  1
  O  O22  1  0.75000000  0.25000000  0.49787814  1
  O  O23  1  0.75000000  0.75000000  0.47878288  1
  O  O24  1  0.75000000  0.25000000  0.99787814  1
  O  O25  1  0.75000000  0.75000000  0.97878288  1
  O  O26  1  0.95946486  0.96589955  0.16317130  1
  O  O27  1  0.95946486  0.53410045  0.66317130  1
