# generated using pymatgen
data_Y2TeO6
_symmetry_space_group_name_H-M   'P 1'
_cell_length_a   9.21021561
_cell_length_b   9.21012032
_cell_length_c   5.21771910
_cell_angle_alpha   90.00490503
_cell_angle_beta   90.00000000
_cell_angle_gamma   120.00034223
_symmetry_Int_Tables_number   1
_chemical_formula_structural   Y2TeO6
_chemical_formula_sum   'Y6 Te3 O18'
_cell_volume   383.30539074
_cell_formula_units_Z   3
loop_
 _symmetry_equiv_pos_site_id
 _symmetry_equiv_pos_as_xyz
  1  'x, y, z'
loop_
 _atom_site_type_symbol
 _atom_site_label
 _atom_site_symmetry_multiplicity
 _atom_site_fract_x
 _atom_site_fract_y
 _atom_site_fract_z
 _atom_site_occupancy
  Y  Y0  1  0.00002051  0.62199806  0.00000463  1
  Y  Y1  1  -0.00002516  0.28437924  0.50001380  1
  Y  Y2  1  0.37802345  0.37800194  -0.00000463  1
  Y  Y3  1  0.28442088  0.00000000  0.50000000  1
  Y  Y4  1  0.71559560  0.71562076  0.49998620  1
  Y  Y5  1  0.62193042  0.00000000  0.00000000  1
  Te  Te6  1  0.33340742  0.66688823  0.50549071  1
  Te  Te7  1  0.00003756  0.00000000  0.00000000  1
  Te  Te8  1  0.66651919  0.33311177  0.49450929  1
  O  O9  1  0.07993856  0.88008957  0.78970323  1
  O  O10  1  0.22244965  0.75785487  0.29280304  1
  O  O11  1  0.13349690  0.54307587  0.71907163  1
  O  O12  1  0.40955993  0.86641701  0.71897943  1
  O  O13  1  0.24209772  0.46453956  0.29276126  1
  O  O14  1  0.11990169  0.19990250  0.78964206  1
  O  O15  1  0.19984899  0.11991043  0.21029677  1
  O  O16  1  0.53542107  0.77749475  0.29280892  1
  O  O17  1  0.45690222  0.59038466  0.71905042  1
  O  O18  1  0.80009806  0.92000168  0.78963389  1
  O  O19  1  0.46459478  0.24214513  0.70719696  1
  O  O20  1  0.59042103  0.45692413  0.28092837  1
  O  O21  1  0.54314392  0.13358299  0.28102057  1
  O  O22  1  0.77755817  0.53546044  0.70723874  1
  O  O23  1  0.91999819  0.80009750  0.21035794  1
  O  O24  1  0.75792632  0.22250525  0.70719108  1
  O  O25  1  0.86651756  0.40961534  0.28094958  1
  O  O26  1  0.88009638  0.07999832  0.21036611  1
