# generated using pymatgen
data_CsFeH24(SO10)2
_symmetry_space_group_name_H-M   'P 1'
_cell_length_a   12.45183440
_cell_length_b   12.45183440
_cell_length_c   12.45183440
_cell_angle_alpha   90.00000000
_cell_angle_beta   90.00000000
_cell_angle_gamma   90.00000000
_symmetry_Int_Tables_number   1
_chemical_formula_structural   CsFeH24(SO10)2
_chemical_formula_sum   'Cs4 Fe4 H96 S8 O80'
_cell_volume   1930.63426045
_cell_formula_units_Z   4
loop_
 _symmetry_equiv_pos_site_id
 _symmetry_equiv_pos_as_xyz
  1  'x, y, z'
loop_
 _atom_site_type_symbol
 _atom_site_label
 _atom_site_symmetry_multiplicity
 _atom_site_fract_x
 _atom_site_fract_y
 _atom_site_fract_z
 _atom_site_occupancy
  Cs  Cs0  1  0.00000000  0.00000000  0.50000000  1
  Cs  Cs1  1  0.00000000  0.50000000  0.00000000  1
  Cs  Cs2  1  0.50000000  0.00000000  0.00000000  1
  Cs  Cs3  1  0.50000000  0.50000000  0.50000000  1
  Fe  Fe4  1  0.50000000  0.50000000  0.00000000  1
  Fe  Fe5  1  0.50000000  0.00000000  0.50000000  1
  Fe  Fe6  1  0.00000000  0.50000000  0.50000000  1
  Fe  Fe7  1  0.00000000  0.00000000  0.00000000  1
  H  H8  1  0.22190729  0.50937133  0.23018570  1
  H  H9  1  0.77809271  0.00937133  0.26981430  1
  H  H10  1  0.27809271  0.49062867  0.73018570  1
  H  H11  1  0.72190729  0.99062867  0.76981430  1
  H  H12  1  0.23018570  0.22190729  0.50937133  1
  H  H13  1  0.26981430  0.77809271  0.00937133  1
  H  H14  1  0.73018570  0.27809271  0.49062867  1
  H  H15  1  0.76981430  0.72190729  0.99062867  1
  H  H16  1  0.50937133  0.23018570  0.22190729  1
  H  H17  1  0.00937133  0.26981430  0.77809271  1
  H  H18  1  0.49062867  0.73018570  0.27809271  1
  H  H19  1  0.99062867  0.76981430  0.72190729  1
  H  H20  1  0.77809271  0.49062867  0.76981430  1
  H  H21  1  0.22190729  0.99062867  0.73018570  1
  H  H22  1  0.72190729  0.50937133  0.26981430  1
  H  H23  1  0.27809271  0.00937133  0.23018570  1
  H  H24  1  0.76981430  0.77809271  0.49062867  1
  H  H25  1  0.73018570  0.22190729  0.99062867  1
  H  H26  1  0.26981430  0.72190729  0.50937133  1
  H  H27  1  0.23018570  0.27809271  0.00937133  1
  H  H28  1  0.49062867  0.76981430  0.77809271  1
  H  H29  1  0.99062867  0.73018570  0.22190729  1
  H  H30  1  0.50937133  0.26981430  0.72190729  1
  H  H31  1  0.00937133  0.23018570  0.27809271  1
  H  H32  1  0.18191318  0.62803379  0.22103489  1
  H  H33  1  0.81808682  0.12803379  0.27896511  1
  H  H34  1  0.31808682  0.37196621  0.72103489  1
  H  H35  1  0.68191318  0.87196621  0.77896511  1
  H  H36  1  0.22103489  0.18191318  0.62803379  1
  H  H37  1  0.27896511  0.81808682  0.12803379  1
  H  H38  1  0.72103489  0.31808682  0.37196621  1
  H  H39  1  0.77896511  0.68191318  0.87196621  1
  H  H40  1  0.62803379  0.22103489  0.18191318  1
  H  H41  1  0.12803379  0.27896511  0.81808682  1
  H  H42  1  0.37196621  0.72103489  0.31808682  1
  H  H43  1  0.87196621  0.77896511  0.68191318  1
  H  H44  1  0.81808682  0.37196621  0.77896511  1
  H  H45  1  0.18191318  0.87196621  0.72103489  1
  H  H46  1  0.68191318  0.62803379  0.27896511  1
  H  H47  1  0.31808682  0.12803379  0.22103489  1
  H  H48  1  0.77896511  0.81808682  0.37196621  1
  H  H49  1  0.72103489  0.18191318  0.87196621  1
  H  H50  1  0.27896511  0.68191318  0.62803379  1
  H  H51  1  0.22103489  0.31808682  0.12803379  1
  H  H52  1  0.37196621  0.77896511  0.81808682  1
  H  H53  1  0.87196621  0.72103489  0.18191318  1
  H  H54  1  0.62803379  0.27896511  0.68191318  1
  H  H55  1  0.12803379  0.22103489  0.31808682  1
  H  H56  1  0.47750463  0.71053204  0.93497975  1
  H  H57  1  0.52249537  0.21053204  0.56502025  1
  H  H58  1  0.02249537  0.28946796  0.43497975  1
  H  H59  1  0.97750463  0.78946796  0.06502025  1
  H  H60  1  0.93497975  0.47750463  0.71053204  1
  H  H61  1  0.56502025  0.52249537  0.21053204  1
  H  H62  1  0.43497975  0.02249537  0.28946796  1
  H  H63  1  0.06502025  0.97750463  0.78946796  1
  H  H64  1  0.71053204  0.93497975  0.47750463  1
  H  H65  1  0.21053204  0.56502025  0.52249537  1
  H  H66  1  0.28946796  0.43497975  0.02249537  1
  H  H67  1  0.78946796  0.06502025  0.97750463  1
  H  H68  1  0.52249537  0.28946796  0.06502025  1
  H  H69  1  0.47750463  0.78946796  0.43497975  1
  H  H70  1  0.97750463  0.71053204  0.56502025  1
  H  H71  1  0.02249537  0.21053204  0.93497975  1
  H  H72  1  0.06502025  0.52249537  0.28946796  1
  H  H73  1  0.43497975  0.47750463  0.78946796  1
  H  H74  1  0.56502025  0.97750463  0.71053204  1
  H  H75  1  0.93497975  0.02249537  0.21053204  1
  H  H76  1  0.28946796  0.06502025  0.52249537  1
  H  H77  1  0.78946796  0.43497975  0.47750463  1
  H  H78  1  0.71053204  0.56502025  0.97750463  1
  H  H79  1  0.21053204  0.93497975  0.02249537  1
  H  H80  1  0.52292809  0.70627040  0.06068859  1
  H  H81  1  0.47707191  0.20627040  0.43931141  1
  H  H82  1  0.97707191  0.29372960  0.56068859  1
  H  H83  1  0.02292809  0.79372960  0.93931141  1
  H  H84  1  0.06068859  0.52292809  0.70627040  1
  H  H85  1  0.43931141  0.47707191  0.20627040  1
  H  H86  1  0.56068859  0.97707191  0.29372960  1
  H  H87  1  0.93931141  0.02292809  0.79372960  1
  H  H88  1  0.70627040  0.06068859  0.52292809  1
  H  H89  1  0.20627040  0.43931141  0.47707191  1
  H  H90  1  0.29372960  0.56068859  0.97707191  1
  H  H91  1  0.79372960  0.93931141  0.02292809  1
  H  H92  1  0.47707191  0.29372960  0.93931141  1
  H  H93  1  0.52292809  0.79372960  0.56068859  1
  H  H94  1  0.02292809  0.70627040  0.43931141  1
  H  H95  1  0.97707191  0.20627040  0.06068859  1
  H  H96  1  0.93931141  0.47707191  0.29372960  1
  H  H97  1  0.56068859  0.52292809  0.79372960  1
  H  H98  1  0.43931141  0.02292809  0.70627040  1
  H  H99  1  0.06068859  0.97707191  0.20627040  1
  H  H100  1  0.29372960  0.93931141  0.47707191  1
  H  H101  1  0.79372960  0.56068859  0.52292809  1
  H  H102  1  0.70627040  0.43931141  0.02292809  1
  H  H103  1  0.20627040  0.06068859  0.97707191  1
  S  S104  1  0.17212143  0.82787857  0.32787857  1
  S  S105  1  0.82787857  0.32787857  0.17212143  1
  S  S106  1  0.32787857  0.17212143  0.82787857  1
  S  S107  1  0.67212143  0.67212143  0.67212143  1
  S  S108  1  0.82787857  0.17212143  0.67212143  1
  S  S109  1  0.17212143  0.67212143  0.82787857  1
  S  S110  1  0.67212143  0.82787857  0.17212143  1
  S  S111  1  0.32787857  0.32787857  0.32787857  1
  O  O112  1  0.24175013  0.75824987  0.25824987  1
  O  O113  1  0.75824987  0.25824987  0.24175013  1
  O  O114  1  0.25824987  0.24175013  0.75824987  1
  O  O115  1  0.74175013  0.74175013  0.74175013  1
  O  O116  1  0.75824987  0.24175013  0.74175013  1
  O  O117  1  0.24175013  0.74175013  0.75824987  1
  O  O118  1  0.74175013  0.75824987  0.24175013  1
  O  O119  1  0.25824987  0.25824987  0.25824987  1
  O  O120  1  0.06210761  0.78061099  0.33535964  1
  O  O121  1  0.93789239  0.28061099  0.16464036  1
  O  O122  1  0.43789239  0.21938901  0.83535964  1
  O  O123  1  0.56210761  0.71938901  0.66464036  1
  O  O124  1  0.33535964  0.06210761  0.78061099  1
  O  O125  1  0.16464036  0.93789239  0.28061099  1
  O  O126  1  0.83535964  0.43789239  0.21938901  1
  O  O127  1  0.66464036  0.56210761  0.71938901  1
  O  O128  1  0.78061099  0.33535964  0.06210761  1
  O  O129  1  0.28061099  0.16464036  0.93789239  1
  O  O130  1  0.21938901  0.83535964  0.43789239  1
  O  O131  1  0.71938901  0.66464036  0.56210761  1
  O  O132  1  0.93789239  0.21938901  0.66464036  1
  O  O133  1  0.06210761  0.71938901  0.83535964  1
  O  O134  1  0.56210761  0.78061099  0.16464036  1
  O  O135  1  0.43789239  0.28061099  0.33535964  1
  O  O136  1  0.66464036  0.93789239  0.21938901  1
  O  O137  1  0.83535964  0.06210761  0.71938901  1
  O  O138  1  0.16464036  0.56210761  0.78061099  1
  O  O139  1  0.33535964  0.43789239  0.28061099  1
  O  O140  1  0.21938901  0.66464036  0.93789239  1
  O  O141  1  0.71938901  0.83535964  0.06210761  1
  O  O142  1  0.78061099  0.16464036  0.56210761  1
  O  O143  1  0.28061099  0.33535964  0.43789239  1
  O  O144  1  0.15850368  0.55306885  0.20922567  1
  O  O145  1  0.84149632  0.05306885  0.29077433  1
  O  O146  1  0.34149632  0.44693115  0.70922567  1
  O  O147  1  0.65850368  0.94693115  0.79077433  1
  O  O148  1  0.20922567  0.15850368  0.55306885  1
  O  O149  1  0.29077433  0.84149632  0.05306885  1
  O  O150  1  0.70922567  0.34149632  0.44693115  1
  O  O151  1  0.79077433  0.65850368  0.94693115  1
  O  O152  1  0.55306885  0.20922567  0.15850368  1
  O  O153  1  0.05306885  0.29077433  0.84149632  1
  O  O154  1  0.44693115  0.70922567  0.34149632  1
  O  O155  1  0.94693115  0.79077433  0.65850368  1
  O  O156  1  0.84149632  0.44693115  0.79077433  1
  O  O157  1  0.15850368  0.94693115  0.70922567  1
  O  O158  1  0.65850368  0.55306885  0.29077433  1
  O  O159  1  0.34149632  0.05306885  0.20922567  1
  O  O160  1  0.79077433  0.84149632  0.44693115  1
  O  O161  1  0.70922567  0.15850368  0.94693115  1
  O  O162  1  0.29077433  0.65850368  0.55306885  1
  O  O163  1  0.20922567  0.34149632  0.05306885  1
  O  O164  1  0.44693115  0.79077433  0.84149632  1
  O  O165  1  0.94693115  0.70922567  0.15850368  1
  O  O166  1  0.55306885  0.29077433  0.65850368  1
  O  O167  1  0.05306885  0.20922567  0.34149632  1
  O  O168  1  0.50018043  0.66221289  0.99743801  1
  O  O169  1  0.49981957  0.16221289  0.50256199  1
  O  O170  1  0.99981957  0.33778711  0.49743801  1
  O  O171  1  0.00018043  0.83778711  0.00256199  1
  O  O172  1  0.99743801  0.50018043  0.66221289  1
  O  O173  1  0.50256199  0.49981957  0.16221289  1
  O  O174  1  0.49743801  0.99981957  0.33778711  1
  O  O175  1  0.00256199  0.00018043  0.83778711  1
  O  O176  1  0.66221289  0.99743801  0.50018043  1
  O  O177  1  0.16221289  0.50256199  0.49981957  1
  O  O178  1  0.33778711  0.49743801  0.99981957  1
  O  O179  1  0.83778711  0.00256199  0.00018043  1
  O  O180  1  0.49981957  0.33778711  0.00256199  1
  O  O181  1  0.50018043  0.83778711  0.49743801  1
  O  O182  1  0.00018043  0.66221289  0.50256199  1
  O  O183  1  0.99981957  0.16221289  0.99743801  1
  O  O184  1  0.00256199  0.49981957  0.33778711  1
  O  O185  1  0.49743801  0.50018043  0.83778711  1
  O  O186  1  0.50256199  0.00018043  0.66221289  1
  O  O187  1  0.99743801  0.99981957  0.16221289  1
  O  O188  1  0.33778711  0.00256199  0.49981957  1
  O  O189  1  0.83778711  0.49743801  0.50018043  1
  O  O190  1  0.66221289  0.50256199  0.00018043  1
  O  O191  1  0.16221289  0.99743801  0.99981957  1
