# generated using pymatgen
data_CaBiAsO6
_symmetry_space_group_name_H-M   'P 1'
_cell_length_a   5.17835218
_cell_length_b   7.14398416
_cell_length_c   7.55027408
_cell_angle_alpha   103.46588258
_cell_angle_beta   90.00000000
_cell_angle_gamma   90.00000000
_symmetry_Int_Tables_number   1
_chemical_formula_structural   CaBiAsO6
_chemical_formula_sum   'Ca2 Bi2 As2 O12'
_cell_volume   271.63661139
_cell_formula_units_Z   2
loop_
 _symmetry_equiv_pos_site_id
 _symmetry_equiv_pos_as_xyz
  1  'x, y, z'
loop_
 _atom_site_type_symbol
 _atom_site_label
 _atom_site_symmetry_multiplicity
 _atom_site_fract_x
 _atom_site_fract_y
 _atom_site_fract_z
 _atom_site_occupancy
  Ca  Ca0  1  0.76759105  0.75416462  0.92610445  1
  Ca  Ca1  1  0.26759105  0.24583538  0.07389555  1
  Bi  Bi2  1  0.22019237  0.41091734  0.59068702  1
  Bi  Bi3  1  0.72019237  0.58908266  0.40931298  1
  As  As4  1  0.80587291  0.21960182  0.78439711  1
  As  As5  1  0.30587291  0.78039818  0.21560289  1
  O  O6  1  0.52839564  0.59792550  0.67847945  1
  O  O7  1  0.98326815  0.43045495  0.87727964  1
  O  O8  1  0.45777307  0.83532479  0.42919933  1
  O  O9  1  0.49232952  0.32392741  0.37117755  1
  O  O10  1  0.97399914  0.76667271  0.22550173  1
  O  O11  1  0.02839564  0.40207450  0.32152055  1
  O  O12  1  0.47399914  0.23332729  0.77449827  1
  O  O13  1  0.99232952  0.67607259  0.62882245  1
  O  O14  1  0.38255216  0.92771635  0.07602825  1
  O  O15  1  0.48326815  0.56954505  0.12272036  1
  O  O16  1  0.88255216  0.07228365  0.92397175  1
  O  O17  1  0.95777307  0.16467521  0.57080067  1
