# generated using pymatgen
data_Mn4Si3AsHO13
_symmetry_space_group_name_H-M   'P 1'
_cell_length_a   6.77088147
_cell_length_b   20.22660603
_cell_length_c   7.68511078
_cell_angle_alpha   90.00000000
_cell_angle_beta   95.67028048
_cell_angle_gamma   90.00000000
_symmetry_Int_Tables_number   1
_chemical_formula_structural   Mn4Si3AsHO13
_chemical_formula_sum   'Mn16 Si12 As4 H4 O52'
_cell_volume   1047.34103579
_cell_formula_units_Z   4
loop_
 _symmetry_equiv_pos_site_id
 _symmetry_equiv_pos_as_xyz
  1  'x, y, z'
loop_
 _atom_site_type_symbol
 _atom_site_label
 _atom_site_symmetry_multiplicity
 _atom_site_fract_x
 _atom_site_fract_y
 _atom_site_fract_z
 _atom_site_occupancy
  Mn  Mn0  1  0.24133067  0.14848421  0.64571608  1
  Mn  Mn1  1  0.74133067  0.35151579  0.14571608  1
  Mn  Mn2  1  0.75866933  0.85151579  0.35428392  1
  Mn  Mn3  1  0.25866933  0.64848421  0.85428392  1
  Mn  Mn4  1  0.95627241  0.08403024  0.95349452  1
  Mn  Mn5  1  0.45627241  0.41596976  0.45349452  1
  Mn  Mn6  1  0.04372759  0.91596976  0.04650548  1
  Mn  Mn7  1  0.54372759  0.58403024  0.54650548  1
  Mn  Mn8  1  0.73629916  0.00801435  0.25125433  1
  Mn  Mn9  1  0.23629916  0.49198565  0.75125433  1
  Mn  Mn10  1  0.26370084  0.99198565  0.74874567  1
  Mn  Mn11  1  0.76370084  0.50801435  0.24874567  1
  Mn  Mn12  1  0.44788313  0.24617597  0.36302122  1
  Mn  Mn13  1  0.94788313  0.25382403  0.86302122  1
  Mn  Mn14  1  0.55211687  0.75382403  0.63697878  1
  Mn  Mn15  1  0.05211687  0.74617597  0.13697878  1
  Si  Si16  1  0.26799248  0.86722039  0.41831194  1
  Si  Si17  1  0.76799248  0.63277961  0.91831194  1
  Si  Si18  1  0.73200752  0.13277961  0.58168806  1
  Si  Si19  1  0.23200752  0.36722039  0.08168806  1
  Si  Si20  1  0.23312636  0.01982180  0.33930760  1
  Si  Si21  1  0.73312636  0.48017820  0.83930760  1
  Si  Si22  1  0.76687364  0.98017820  0.66069240  1
  Si  Si23  1  0.26687364  0.51982180  0.16069240  1
  Si  Si24  1  0.45018096  0.09823893  0.06300166  1
  Si  Si25  1  0.95018096  0.40176107  0.56300166  1
  Si  Si26  1  0.54981904  0.90176107  0.93699834  1
  Si  Si27  1  0.04981904  0.59823893  0.43699834  1
  As  As28  1  0.06705272  0.80083286  0.70993658  1
  As  As29  1  0.56705272  0.69916714  0.20993658  1
  As  As30  1  0.93294728  0.19916714  0.29006342  1
  As  As31  1  0.43294728  0.30083286  0.79006342  1
  H  H32  1  0.37042059  0.20341615  0.02076057  1
  H  H33  1  0.87042059  0.29658385  0.52076057  1
  H  H34  1  0.62957941  0.79658385  0.97923943  1
  H  H35  1  0.12957941  0.70341615  0.47923943  1
  O  O36  1  0.22884975  0.73683915  0.67591406  1
  O  O37  1  0.72884975  0.76316085  0.17591406  1
  O  O38  1  0.77115025  0.26316085  0.32408594  1
  O  O39  1  0.27115025  0.23683915  0.82408594  1
  O  O40  1  0.03903914  0.81983350  0.92077054  1
  O  O41  1  0.53903914  0.68016650  0.42077054  1
  O  O42  1  0.96096086  0.18016650  0.07922946  1
  O  O43  1  0.46096086  0.31983350  0.57922946  1
  O  O44  1  0.84455164  0.79052935  0.58861267  1
  O  O45  1  0.34455164  0.70947065  0.08861267  1
  O  O46  1  0.15544836  0.20947065  0.41138733  1
  O  O47  1  0.65544836  0.29052935  0.91138733  1
  O  O48  1  0.18292632  0.87018660  0.61943507  1
  O  O49  1  0.68292632  0.62981340  0.11943507  1
  O  O50  1  0.81707368  0.12981340  0.38056493  1
  O  O51  1  0.31707368  0.37018660  0.88056493  1
  O  O52  1  0.08409792  0.84248668  0.27870053  1
  O  O53  1  0.58409792  0.65751332  0.77870053  1
  O  O54  1  0.91590208  0.15751332  0.72129947  1
  O  O55  1  0.41590208  0.34248668  0.22129947  1
  O  O56  1  0.46755334  0.82339637  0.42657309  1
  O  O57  1  0.96755334  0.67660363  0.92657309  1
  O  O58  1  0.53244666  0.17660363  0.57342691  1
  O  O59  1  0.03244666  0.32339637  0.07342691  1
  O  O60  1  0.32182666  0.94485877  0.38231316  1
  O  O61  1  0.82182666  0.55514123  0.88231316  1
  O  O62  1  0.67817334  0.05514123  0.61768684  1
  O  O63  1  0.17817334  0.44485877  0.11768684  1
  O  O64  1  0.20174695  0.05291110  0.52705894  1
  O  O65  1  0.70174695  0.44708890  0.02705894  1
  O  O66  1  0.79825305  0.94708890  0.47294106  1
  O  O67  1  0.29825305  0.55291110  0.97294106  1
  O  O68  1  0.04102267  0.01529625  0.19261022  1
  O  O69  1  0.54102267  0.48470375  0.69261022  1
  O  O70  1  0.95897733  0.98470375  0.80738978  1
  O  O71  1  0.45897733  0.51529625  0.30738978  1
  O  O72  1  0.41396599  0.05750495  0.24651186  1
  O  O73  1  0.91396599  0.44249505  0.74651186  1
  O  O74  1  0.58603401  0.94249505  0.75348814  1
  O  O75  1  0.08603401  0.55750495  0.25348814  1
  O  O76  1  0.43985065  0.17820807  0.12010444  1
  O  O77  1  0.93985065  0.32179193  0.62010444  1
  O  O78  1  0.56014935  0.82179193  0.87989556  1
  O  O79  1  0.06014935  0.67820807  0.37989556  1
  O  O80  1  0.27762833  0.08645771  0.90022628  1
  O  O81  1  0.77762833  0.41354229  0.40022628  1
  O  O82  1  0.72237167  0.91354229  0.09977372  1
  O  O83  1  0.22237167  0.58645771  0.59977372  1
  O  O84  1  0.66607263  0.07045156  0.02662990  1
  O  O85  1  0.16607263  0.42954844  0.52662990  1
  O  O86  1  0.33392737  0.92954844  0.97337010  1
  O  O87  1  0.83392737  0.57045156  0.47337010  1
