# generated using pymatgen
data_Ca3La5Mn7CrO24
_symmetry_space_group_name_H-M   'P 1'
_cell_length_a   5.52222343
_cell_length_b   11.05186640
_cell_length_c   7.76407559
_cell_angle_alpha   90.07170835
_cell_angle_beta   89.98289576
_cell_angle_gamma   89.95782605
_symmetry_Int_Tables_number   1
_chemical_formula_structural   Ca3La5Mn7CrO24
_chemical_formula_sum   'Ca3 La5 Mn7 Cr1 O24'
_cell_volume   473.84780982
_cell_formula_units_Z   1
loop_
 _symmetry_equiv_pos_site_id
 _symmetry_equiv_pos_as_xyz
  1  'x, y, z'
loop_
 _atom_site_type_symbol
 _atom_site_label
 _atom_site_symmetry_multiplicity
 _atom_site_fract_x
 _atom_site_fract_y
 _atom_site_fract_z
 _atom_site_occupancy
  Ca  Ca0  1  0.53181050  0.25337947  0.24864963  1
  Ca  Ca1  1  0.53359005  0.75676059  0.25158889  1
  Ca  Ca2  1  0.96645851  0.00530553  0.75005749  1
  La  La3  1  0.02423648  0.49677271  0.24886508  1
  La  La4  1  0.02403777  0.99555343  0.25072867  1
  La  La5  1  0.47450131  0.24199881  0.74872970  1
  La  La6  1  0.47955927  0.75216669  0.75200824  1
  La  La7  1  0.97592089  0.50313700  0.75010975  1
  Mn  Mn8  1  0.00108020  0.75153308  0.00248097  1
  Mn  Mn9  1  0.49956011  0.00019325  0.49891301  1
  Mn  Mn10  1  0.49969055  0.00060928  0.00211620  1
  Mn  Mn11  1  0.49964803  0.49992310  0.49619550  1
  Mn  Mn12  1  0.99916653  0.24745985  0.49654278  1
  Mn  Mn13  1  0.99906509  0.24781579  0.00044678  1
  Mn  Mn14  1  0.00137175  0.75234991  0.50070617  1
  Cr  Cr15  1  0.49955581  0.49943354  0.00301199  1
  O  O16  1  0.00951690  0.28616533  0.75062747  1
  O  O17  1  0.01445633  0.78933450  0.75120302  1
  O  O18  1  0.21675694  0.11345331  0.95779362  1
  O  O19  1  0.22235505  0.61279504  0.95766084  1
  O  O20  1  0.22135980  0.11067892  0.54093881  1
  O  O21  1  0.22619149  0.61348209  0.54248213  1
  O  O22  1  0.27232955  0.36282609  0.45837981  1
  O  O23  1  0.27416254  0.35973741  0.04305268  1
  O  O24  1  0.27905431  0.86135585  0.45839842  1
  O  O25  1  0.27412583  0.85875547  0.04227028  1
  O  O26  1  0.48642138  0.03889283  0.24856948  1
  O  O27  1  0.48458896  0.54292253  0.25393712  1
  O  O28  1  0.50905108  0.46071694  0.74578142  1
  O  O29  1  0.51620065  0.96733898  0.75215771  1
  O  O30  1  0.73071780  0.63616329  0.95516548  1
  O  O31  1  0.72903211  0.13950117  0.96131732  1
  O  O32  1  0.72413601  0.13561844  0.53758539  1
  O  O33  1  0.73212210  0.63563638  0.54331914  1
  O  O34  1  0.77371130  0.38769549  0.46055795  1
  O  O35  1  0.77414281  0.88579271  0.46182188  1
  O  O36  1  0.78026793  0.38750193  0.03896980  1
  O  O37  1  0.77650828  0.88346597  0.03916926  1
  O  O38  1  0.98149782  0.21190493  0.24790576  1
  O  O39  1  0.98204020  0.71387237  0.24978439  1
