# generated using pymatgen
data_Na2Cd2O3
_symmetry_space_group_name_H-M   'P 1'
_cell_length_a   6.60110460
_cell_length_b   5.94339575
_cell_length_c   6.25901448
_cell_angle_alpha   90.00000000
_cell_angle_beta   116.02861807
_cell_angle_gamma   90.00000000
_symmetry_Int_Tables_number   1
_chemical_formula_structural   Na2Cd2O3
_chemical_formula_sum   'Na4 Cd4 O6'
_cell_volume   220.65386579
_cell_formula_units_Z   2
loop_
 _symmetry_equiv_pos_site_id
 _symmetry_equiv_pos_as_xyz
  1  'x, y, z'
loop_
 _atom_site_type_symbol
 _atom_site_label
 _atom_site_symmetry_multiplicity
 _atom_site_fract_x
 _atom_site_fract_y
 _atom_site_fract_z
 _atom_site_occupancy
  Na  Na0  1  0.13038520  0.68640795  0.86881548  1
  Na  Na1  1  0.13038520  0.81359205  0.36881548  1
  Na  Na2  1  0.86961480  0.18640795  0.63118452  1
  Na  Na3  1  0.86961480  0.31359205  0.13118452  1
  Cd  Cd4  1  0.33665637  0.35145072  0.57730846  1
  Cd  Cd5  1  0.66334363  0.85145072  0.92269154  1
  Cd  Cd6  1  0.33665637  0.14854928  0.07730846  1
  Cd  Cd7  1  0.66334363  0.64854928  0.42269154  1
  O  O8  1  0.00000000  0.50000000  0.50000000  1
  O  O9  1  0.00000000  0.00000000  0.00000000  1
  O  O10  1  0.32611363  0.01631771  0.72462743  1
  O  O11  1  0.67388637  0.51631771  0.77537257  1
  O  O12  1  0.32611363  0.48368229  0.22462743  1
  O  O13  1  0.67388637  0.98368229  0.27537257  1
