# generated using pymatgen
data_CdH2(SO4)2
_symmetry_space_group_name_H-M   'P 1'
_cell_length_a   5.44664071
_cell_length_b   13.69141396
_cell_length_c   8.70841402
_cell_angle_alpha   90.00000000
_cell_angle_beta   92.39800020
_cell_angle_gamma   90.00000000
_symmetry_Int_Tables_number   1
_chemical_formula_structural   CdH2(SO4)2
_chemical_formula_sum   'Cd4 H8 S8 O32'
_cell_volume   648.83701176
_cell_formula_units_Z   4
loop_
 _symmetry_equiv_pos_site_id
 _symmetry_equiv_pos_as_xyz
  1  'x, y, z'
loop_
 _atom_site_type_symbol
 _atom_site_label
 _atom_site_symmetry_multiplicity
 _atom_site_fract_x
 _atom_site_fract_y
 _atom_site_fract_z
 _atom_site_occupancy
  Cd  Cd0  1  0.27759748  0.95366464  0.74544514  1
  Cd  Cd1  1  0.27759748  0.54633536  0.24544514  1
  Cd  Cd2  1  0.72240252  0.45366464  0.75455486  1
  Cd  Cd3  1  0.72240252  0.04633536  0.25455486  1
  H  H4  1  0.07002891  0.25436435  0.57268451  1
  H  H5  1  0.07002891  0.24563565  0.07268451  1
  H  H6  1  0.40318091  0.72342088  0.69692464  1
  H  H7  1  0.40318091  0.77657912  0.19692464  1
  H  H8  1  0.59681909  0.22342088  0.80307536  1
  H  H9  1  0.59681909  0.27657912  0.30307536  1
  H  H10  1  0.92997109  0.75436435  0.92731549  1
  H  H11  1  0.92997109  0.74563565  0.42731549  1
  S  S12  1  0.20286233  0.59356032  0.62496048  1
  S  S13  1  0.24733544  0.35772475  0.94410383  1
  S  S14  1  0.20286233  0.90643968  0.12496048  1
  S  S15  1  0.24733544  0.14227525  0.44410383  1
  S  S16  1  0.75266456  0.85772475  0.55589617  1
  S  S17  1  0.79713767  0.09356032  0.87503952  1
  S  S18  1  0.75266456  0.64227525  0.05589617  1
  S  S19  1  0.79713767  0.40643968  0.37503952  1
  O  O20  1  0.02706640  0.34634602  0.84247844  1
  O  O21  1  0.05561891  0.07913930  0.83933413  1
  O  O22  1  0.02706640  0.15365398  0.34247844  1
  O  O23  1  0.05561891  0.42086070  0.33933413  1
  O  O24  1  0.22678440  0.86189219  0.97152781  1
  O  O25  1  0.23674044  0.22631127  0.56855136  1
  O  O26  1  0.22678440  0.63810781  0.47152781  1
  O  O27  1  0.23674044  0.27368873  0.06855136  1
  O  O28  1  0.26168673  0.04807747  0.52127503  1
  O  O29  1  0.26168673  0.45192253  0.02127503  1
  O  O30  1  0.30452551  0.67090839  0.74572622  1
  O  O31  1  0.30452551  0.82909161  0.24572622  1
  O  O32  1  0.34681332  0.50395047  0.64853093  1
  O  O33  1  0.34681332  0.99604953  0.14853093  1
  O  O34  1  0.47841938  0.33555579  0.86638933  1
  O  O35  1  0.47841938  0.16444421  0.36638933  1
  O  O36  1  0.52158062  0.83555579  0.63361067  1
  O  O37  1  0.52158062  0.66444421  0.13361067  1
  O  O38  1  0.65318668  0.00395047  0.85146907  1
  O  O39  1  0.65318668  0.49604953  0.35146907  1
  O  O40  1  0.69547449  0.17090839  0.75427378  1
  O  O41  1  0.69547449  0.32909161  0.25427378  1
  O  O42  1  0.73831327  0.54807747  0.97872497  1
  O  O43  1  0.73831327  0.95192253  0.47872497  1
  O  O44  1  0.76325956  0.72631127  0.93144864  1
  O  O45  1  0.77321560  0.36189219  0.52847219  1
  O  O46  1  0.76325956  0.77368873  0.43144864  1
  O  O47  1  0.77321560  0.13810781  0.02847219  1
  O  O48  1  0.94438109  0.57913930  0.66066587  1
  O  O49  1  0.97293360  0.84634602  0.65752156  1
  O  O50  1  0.94438109  0.92086070  0.16066587  1
  O  O51  1  0.97293360  0.65365398  0.15752156  1
