# generated using pymatgen
data_Sr9Zn3(CuO7)2
_symmetry_space_group_name_H-M   'P 1'
_cell_length_a   3.66729255
_cell_length_b   11.45802732
_cell_length_c   11.42483051
_cell_angle_alpha   98.35647647
_cell_angle_beta   89.99890535
_cell_angle_gamma   99.26416110
_symmetry_Int_Tables_number   1
_chemical_formula_structural   Sr9Zn3(CuO7)2
_chemical_formula_sum   'Sr9 Zn3 Cu2 O14'
_cell_volume   468.64414220
_cell_formula_units_Z   1
loop_
 _symmetry_equiv_pos_site_id
 _symmetry_equiv_pos_as_xyz
  1  'x, y, z'
loop_
 _atom_site_type_symbol
 _atom_site_label
 _atom_site_symmetry_multiplicity
 _atom_site_fract_x
 _atom_site_fract_y
 _atom_site_fract_z
 _atom_site_occupancy
  Sr  Sr0  1  0.30948621  0.61122375  0.42642172  1
  Sr  Sr1  1  0.32002070  0.64847725  0.08442895  1
  Sr  Sr2  1  0.31884106  0.63249147  0.78982151  1
  Sr  Sr3  1  0.68758063  0.37916673  0.21964176  1
  Sr  Sr4  1  0.48612975  0.97039264  0.17575903  1
  Sr  Sr5  1  0.50762246  0.00191859  0.49801501  1
  Sr  Sr6  1  0.69541955  0.39257542  0.57586363  1
  Sr  Sr7  1  0.50926609  0.02153689  0.81104160  1
  Sr  Sr8  1  0.68513305  0.37429728  0.90067439  1
  Zn  Zn9  1  0.11156365  0.22326445  0.70357659  1
  Zn  Zn10  1  0.10045782  0.20527807  0.03963687  1
  Zn  Zn11  1  0.89059295  0.77688223  0.29858694  1
  Cu  Cu12  1  0.90103617  0.78828177  0.62374089  1
  Cu  Cu13  1  0.10853532  0.21356801  0.37656260  1
  O  O14  1  0.80143609  0.59489483  0.27551470  1
  O  O15  1  0.19322240  0.39005291  0.07031502  1
  O  O16  1  0.03325897  0.05434352  0.35361391  1
  O  O17  1  0.91257059  0.82208054  0.14124961  1
  O  O18  1  0.19050715  0.37863953  0.40135466  1
  O  O19  1  0.40911946  0.81292550  0.36505060  1
  O  O20  1  0.79529249  0.58843638  0.92758056  1
  O  O21  1  0.20301335  0.40592937  0.72856488  1
  O  O22  1  0.57826433  0.16056699  0.09305067  1
  O  O23  1  0.81848090  0.62316414  0.59920566  1
  O  O24  1  0.97898577  0.94793323  0.64769940  1
  O  O25  1  0.41142949  0.84041099  0.90938378  1
  O  O26  1  0.08624516  0.17180148  0.86328514  1
  O  O27  1  0.59399744  0.18801602  0.63978194  1
