# generated using pymatgen
data_Mg2NF
_symmetry_space_group_name_H-M   'P 1'
_cell_length_a   4.22023022
_cell_length_b   4.22023022
_cell_length_c   5.90032625
_cell_angle_alpha   110.95452421
_cell_angle_beta   110.95452425
_cell_angle_gamma   90.00000002
_symmetry_Int_Tables_number   1
_chemical_formula_structural   Mg2NF
_chemical_formula_sum   'Mg4 N2 F2'
_cell_volume   90.65565828
_cell_formula_units_Z   2
loop_
 _symmetry_equiv_pos_site_id
 _symmetry_equiv_pos_as_xyz
  1  'x, y, z'
loop_
 _atom_site_type_symbol
 _atom_site_label
 _atom_site_symmetry_multiplicity
 _atom_site_fract_x
 _atom_site_fract_y
 _atom_site_fract_z
 _atom_site_occupancy
  N  N0  1  0.87500000  0.12500000  0.75000000  1
  N  N1  1  0.12500000  0.87500000  0.25000000  1
  F  F2  1  0.37500000  0.62500000  0.75000000  1
  F  F3  1  0.62500000  0.37500000  0.25000000  1
  Mg  Mg4  1  0.08697941  0.33697941  0.17395883  1
  Mg  Mg5  1  0.33697941  0.08697941  0.67395883  1
  Mg  Mg6  1  0.91302059  0.66302059  0.82604117  1
  Mg  Mg7  1  0.66302059  0.91302059  0.32604117  1
