# generated using pymatgen
data_Al12PbO19
_symmetry_space_group_name_H-M   'P 1'
_cell_length_a   5.63028233
_cell_length_b   5.63029581
_cell_length_c   22.24682982
_cell_angle_alpha   90.00008833
_cell_angle_beta   90.00006767
_cell_angle_gamma   120.00006746
_symmetry_Int_Tables_number   1
_chemical_formula_structural   Al12PbO19
_chemical_formula_sum   'Al24 Pb2 O38'
_cell_volume   610.74490795
_cell_formula_units_Z   2
loop_
 _symmetry_equiv_pos_site_id
 _symmetry_equiv_pos_as_xyz
  1  'x, y, z'
loop_
 _atom_site_type_symbol
 _atom_site_label
 _atom_site_symmetry_multiplicity
 _atom_site_fract_x
 _atom_site_fract_y
 _atom_site_fract_z
 _atom_site_occupancy
  Al  Al0  1  0.16905627  0.83097745  0.89206260  1
  Al  Al1  1  0.16759221  0.83242642  0.60874327  1
  Al  Al2  1  0.33334220  0.66666741  0.02844798  1
  Al  Al3  1  0.33333539  0.66667353  0.19029253  1
  Al  Al4  1  0.33333076  0.66665456  0.30980357  1
  Al  Al5  1  0.16757577  0.33516589  0.60874252  1
  Al  Al6  1  0.00001101  0.00000045  0.00029374  1
  Al  Al7  1  0.99999810  0.99999542  0.25877769  1
  Al  Al8  1  -0.00000018  0.99999977  0.50029353  1
  Al  Al9  1  0.00000347  0.00000612  0.75877856  1
  Al  Al10  1  0.33333081  0.66665881  0.47191070  1
  Al  Al11  1  0.16902356  0.33807467  0.89206311  1
  Al  Al12  1  0.66483552  0.83241275  0.60874310  1
  Al  Al13  1  0.66192472  0.83094762  0.89206308  1
  Al  Al14  1  0.33517829  0.16759008  0.10874271  1
  Al  Al15  1  0.33807633  0.16905089  0.39206292  1
  Al  Al16  1  0.66666946  0.33333960  0.80980439  1
  Al  Al17  1  0.66667150  0.33334152  0.69029359  1
  Al  Al18  1  0.83097857  0.66192553  0.39206292  1
  Al  Al19  1  0.83242857  0.66483469  0.10874254  1
  Al  Al20  1  0.66667120  0.33333986  0.52844796  1
  Al  Al21  1  0.66667327  0.33333694  0.97191097  1
  Al  Al22  1  0.83243165  0.16757875  0.10874055  1
  Al  Al23  1  0.83094497  0.16902190  0.39206289  1
  Pb  Pb24  1  0.33333048  0.66665870  0.74867826  1
  Pb  Pb25  1  0.66667528  0.33331643  0.24868099  1
  O  O26  1  0.15532792  0.84471896  0.05122185  1
  O  O27  1  0.15450796  0.84554394  0.44797915  1
  O  O28  1  0.00302771  0.50152474  0.85299325  1
  O  O29  1  0.00266406  0.50133711  0.64743442  1
  O  O30  1  0.18161246  0.81837433  0.25081042  1
  O  O31  1  0.15445737  0.30895424  0.44797873  1
  O  O32  1  0.33332360  0.66664232  0.55417339  1
  O  O33  1  0.00001190  0.00000207  0.14703026  1
  O  O34  1  0.00000031  0.99999837  0.35027051  1
  O  O35  1  0.18161603  0.36323022  0.25081214  1
  O  O36  1  0.00000141  0.00000370  0.64703005  1
  O  O37  1  0.00000063  0.00000172  0.85026870  1
  O  O38  1  0.33332550  0.66665057  0.94593821  1
  O  O39  1  0.15532327  0.31059727  0.05122215  1
  O  O40  1  0.49867591  0.99734389  0.64743304  1
  O  O41  1  0.49850117  0.99697534  0.85299333  1
  O  O42  1  0.63676255  0.81838658  0.25081150  1
  O  O43  1  0.31060143  0.15531893  0.55122144  1
  O  O44  1  0.30896850  0.15449571  0.94797888  1
  O  O45  1  0.49866832  0.50133201  0.64743300  1
  O  O46  1  0.49847359  0.50150304  0.85299375  1
  O  O47  1  0.50152511  0.49849337  0.35299498  1
  O  O48  1  0.50134261  0.49867399  0.14743495  1
  O  O49  1  0.68941214  0.84467562  0.05122117  1
  O  O50  1  0.69103553  0.84550193  0.44797916  1
  O  O51  1  0.36324094  0.18162451  0.75080949  1
  O  O52  1  0.50149885  0.00302289  0.35299380  1
  O  O53  1  0.66667917  0.33335579  0.44593910  1
  O  O54  1  0.81838078  0.63677279  0.75080913  1
  O  O55  1  0.66669934  0.33332549  0.05417483  1
  O  O56  1  0.84554025  0.69103903  0.94797923  1
  O  O57  1  0.50134115  0.00266801  0.14743307  1
  O  O58  1  0.84472963  0.68940750  0.55122293  1
  O  O59  1  0.81839564  0.18163453  0.75080992  1
  O  O60  1  0.99735026  0.49866958  0.14743327  1
  O  O61  1  0.99697077  0.49847295  0.35299488  1
  O  O62  1  0.84549977  0.15445841  0.94797935  1
  O  O63  1  0.84467129  0.15527281  0.55122084  1
