# generated using pymatgen
data_MgSiH12(OF)6
_symmetry_space_group_name_H-M   'P 1'
_cell_length_a   6.63070332
_cell_length_b   9.50141805
_cell_length_c   8.45837735
_cell_angle_alpha   90.00000000
_cell_angle_beta   100.59424680
_cell_angle_gamma   90.00000000
_symmetry_Int_Tables_number   1
_chemical_formula_structural   MgSiH12(OF)6
_chemical_formula_sum   'Mg2 Si2 H24 O12 F12'
_cell_volume   523.80325441
_cell_formula_units_Z   2
loop_
 _symmetry_equiv_pos_site_id
 _symmetry_equiv_pos_as_xyz
  1  'x, y, z'
loop_
 _atom_site_type_symbol
 _atom_site_label
 _atom_site_symmetry_multiplicity
 _atom_site_fract_x
 _atom_site_fract_y
 _atom_site_fract_z
 _atom_site_occupancy
  Mg  Mg0  1  0.00000000  0.50000000  0.50000000  1
  Mg  Mg1  1  0.00000000  0.00000000  0.00000000  1
  Si  Si2  1  0.50000000  0.00000000  0.50000000  1
  Si  Si3  1  0.50000000  0.50000000  0.00000000  1
  H  H4  1  0.04291293  0.56406606  0.81972095  1
  H  H5  1  0.04291293  0.93593394  0.31972095  1
  H  H6  1  0.19215475  0.02381827  0.73967006  1
  H  H7  1  0.24648194  0.32848594  0.70484127  1
  H  H8  1  0.19215475  0.47618173  0.23967006  1
  H  H9  1  0.25091895  0.26795966  0.53090166  1
  H  H10  1  0.26613962  0.72408088  0.52193126  1
  H  H11  1  0.24648194  0.17151406  0.20484127  1
  H  H12  1  0.36934158  0.60302817  0.63877675  1
  H  H13  1  0.25091895  0.23204034  0.03090166  1
  H  H14  1  0.26613962  0.77591912  0.02193126  1
  H  H15  1  0.36934158  0.89697183  0.13877675  1
  H  H16  1  0.63065842  0.10302817  0.86122325  1
  H  H17  1  0.73386038  0.22408088  0.97806874  1
  H  H18  1  0.74908105  0.76795966  0.96909834  1
  H  H19  1  0.63065842  0.39697183  0.36122325  1
  H  H20  1  0.75351806  0.82848594  0.79515873  1
  H  H21  1  0.73386038  0.27591912  0.47806874  1
  H  H22  1  0.74908105  0.73204034  0.46909834  1
  H  H23  1  0.80784525  0.52381827  0.76032994  1
  H  H24  1  0.75351806  0.67151406  0.29515873  1
  H  H25  1  0.80784525  0.97618173  0.26032994  1
  H  H26  1  0.95708707  0.06406606  0.68027905  1
  H  H27  1  0.95708707  0.43593394  0.18027905  1
  O  O28  1  0.06086730  0.03854931  0.77416079  1
  O  O29  1  0.06086730  0.46145069  0.27416079  1
  O  O30  1  0.17406844  0.32860603  0.59283575  1
  O  O31  1  0.25970778  0.62364604  0.54653129  1
  O  O32  1  0.17406844  0.17139397  0.09283575  1
  O  O33  1  0.25970778  0.87635396  0.04653129  1
  O  O34  1  0.74029222  0.12364604  0.95346871  1
  O  O35  1  0.82593156  0.82860603  0.90716425  1
  O  O36  1  0.74029222  0.37635396  0.45346871  1
  O  O37  1  0.82593156  0.67139397  0.40716425  1
  O  O38  1  0.93913270  0.53854931  0.72583921  1
  O  O39  1  0.93913270  0.96145069  0.22583921  1
  F  F40  1  0.27242701  0.59280711  0.96779075  1
  F  F41  1  0.27242701  0.90719289  0.46779075  1
  F  F42  1  0.37450544  0.35279983  0.91150024  1
  F  F43  1  0.37450544  0.14720017  0.41150024  1
  F  F44  1  0.45266365  0.05398576  0.68391356  1
  F  F45  1  0.54733635  0.55398576  0.81608644  1
  F  F46  1  0.45266365  0.44601424  0.18391356  1
  F  F47  1  0.54733635  0.94601424  0.31608644  1
  F  F48  1  0.62549456  0.85279983  0.58849976  1
  F  F49  1  0.62549456  0.64720017  0.08849976  1
  F  F50  1  0.72757299  0.09280711  0.53220925  1
  F  F51  1  0.72757299  0.40719289  0.03220925  1
