# generated using pymatgen
data_Cu6OF11
_symmetry_space_group_name_H-M   'P 1'
_cell_length_a   9.95448009
_cell_length_b   4.57207022
_cell_length_c   4.67418105
_cell_angle_alpha   91.63930961
_cell_angle_beta   82.15912470
_cell_angle_gamma   90.84178111
_symmetry_Int_Tables_number   1
_chemical_formula_structural   Cu6OF11
_chemical_formula_sum   'Cu6 O1 F11'
_cell_volume   210.64639197
_cell_formula_units_Z   1
loop_
 _symmetry_equiv_pos_site_id
 _symmetry_equiv_pos_as_xyz
  1  'x, y, z'
loop_
 _atom_site_type_symbol
 _atom_site_label
 _atom_site_symmetry_multiplicity
 _atom_site_fract_x
 _atom_site_fract_y
 _atom_site_fract_z
 _atom_site_occupancy
  Cu  Cu0  1  0.99937541  0.98159289  0.97707278  1
  Cu  Cu1  1  0.15878330  0.51409089  0.51269690  1
  Cu  Cu2  1  0.33106049  0.00718102  0.00407806  1
  Cu  Cu3  1  0.50051642  0.49963662  0.49983329  1
  Cu  Cu4  1  0.66753513  0.00090605  0.00271980  1
  Cu  Cu5  1  0.85109710  0.51917763  0.51673047  1
  O  O6  1  0.00510136  0.68857735  0.69897176  1
  F  F7  1  0.18243187  0.79673377  0.21091611  1
  F  F8  1  0.15011387  0.19822932  0.78975063  1
  F  F9  1  0.31403865  0.30553417  0.30172359  1
  F  F10  1  0.34753933  0.70627924  0.70837660  1
  F  F11  1  0.51573518  0.79504038  0.20854418  1
  F  F12  1  0.48386935  0.20807658  0.79364863  1
  F  F13  1  0.65668413  0.29924155  0.29868151  1
  F  F14  1  0.68354189  0.70571287  0.70532846  1
  F  F15  1  0.85016512  0.79080132  0.19997770  1
  F  F16  1  0.81579787  0.20605649  0.79247986  1
  F  F17  1  0.98661055  0.27713287  0.27846868  1
