# generated using pymatgen
data_KAl11O17
_symmetry_space_group_name_H-M   'P 1'
_cell_length_a   5.65140886
_cell_length_b   11.92220813
_cell_length_c   5.65142324
_cell_angle_alpha   103.71073366
_cell_angle_beta   59.99896314
_cell_angle_gamma   103.71006844
_symmetry_Int_Tables_number   1
_chemical_formula_structural   KAl11O17
_chemical_formula_sum   'K1 Al11 O17'
_cell_volume   317.16963624
_cell_formula_units_Z   1
loop_
 _symmetry_equiv_pos_site_id
 _symmetry_equiv_pos_as_xyz
  1  'x, y, z'
loop_
 _atom_site_type_symbol
 _atom_site_label
 _atom_site_symmetry_multiplicity
 _atom_site_fract_x
 _atom_site_fract_y
 _atom_site_fract_z
 _atom_site_occupancy
  K  K0  1  0.82935163  0.48805348  0.82935650  1
  Al  Al1  1  0.09747950  0.78685915  0.09745682  1
  Al  Al2  1  0.99981435  0.99943518  0.99980908  1
  Al  Al3  1  0.09745861  0.78684882  0.59191004  1
  Al  Al4  1  0.59193277  0.78685326  0.09745081  1
  Al  Al5  1  0.45025136  0.35080693  0.45025470  1
  Al  Al6  1  0.34989547  0.04966830  0.34989309  1
  Al  Al7  1  0.54999711  0.64990677  0.54998245  1
  Al  Al8  1  0.64978269  0.94933471  0.64977865  1
  Al  Al9  1  0.40488901  0.21210995  0.90361196  1
  Al  Al10  1  0.90363173  0.21211098  0.40489031  1
  Al  Al11  1  0.90358267  0.21210634  0.90361136  1
  O  O12  1  0.29672459  0.89003733  0.29672199  1
  O  O13  1  0.09425202  0.28281727  0.09425417  1
  O  O14  1  0.28017710  0.90076210  0.81037510  1
  O  O15  1  0.19012479  0.09959525  0.19012618  1
  O  O16  1  0.09168633  0.29004267  0.59918388  1
  O  O17  1  0.40200585  0.71072904  0.40198698  1
  O  O18  1  0.59916212  0.29003935  0.09168908  1
  O  O19  1  0.19005343  0.09957431  0.71932579  1
  O  O20  1  0.81037861  0.90076266  0.28017149  1
  O  O21  1  0.49991649  0.49976919  0.49991548  1
  O  O22  1  0.40199500  0.71072429  0.90675789  1
  O  O23  1  0.90677218  0.71072152  0.40196745  1
  O  O24  1  0.59917881  0.29004947  0.59916881  1
  O  O25  1  0.81029833  0.90074800  0.81028930  1
  O  O26  1  0.71932587  0.09957426  0.19004713  1
  O  O27  1  0.70332353  0.11010380  0.70331903  1
  O  O28  1  0.90577705  0.71727161  0.90575546  1
