# generated using pymatgen
data_Mg17(As3O16)2
_symmetry_space_group_name_H-M   'P 1'
_cell_length_a   9.95552561
_cell_length_b   6.12438092
_cell_length_c   10.52715850
_cell_angle_alpha   89.99999560
_cell_angle_beta   69.25893127
_cell_angle_gamma   89.99999486
_symmetry_Int_Tables_number   1
_chemical_formula_structural   Mg17(As3O16)2
_chemical_formula_sum   'Mg17 As6 O32'
_cell_volume   600.25751008
_cell_formula_units_Z   1
loop_
 _symmetry_equiv_pos_site_id
 _symmetry_equiv_pos_as_xyz
  1  'x, y, z'
loop_
 _atom_site_type_symbol
 _atom_site_label
 _atom_site_symmetry_multiplicity
 _atom_site_fract_x
 _atom_site_fract_y
 _atom_site_fract_z
 _atom_site_occupancy
  Mg  Mg0  1  0.26542313  0.25307081  0.99530240  1
  Mg  Mg1  1  0.73608748  0.50000000  0.75356530  1
  Mg  Mg2  1  0.26542313  0.74692919  0.99530240  1
  Mg  Mg3  1  0.26947290  0.00000000  0.74230216  1
  Mg  Mg4  1  0.74472796  0.24108448  0.50434162  1
  Mg  Mg5  1  0.99927656  0.24045130  0.73909650  1
  Mg  Mg6  1  0.25527204  0.24108448  0.49565838  1
  Mg  Mg7  1  0.73052710  0.00000000  0.25769784  1
  Mg  Mg8  1  0.99927656  0.75954870  0.73909650  1
  Mg  Mg9  1  0.74472796  0.75891552  0.50434162  1
  Mg  Mg10  1  0.25527204  0.75891552  0.49565838  1
  Mg  Mg11  1  0.00072344  0.24045130  0.26090350  1
  Mg  Mg12  1  0.26391252  0.50000000  0.24643470  1
  Mg  Mg13  1  0.73457687  0.25307081  0.00469760  1
  Mg  Mg14  1  0.73457687  0.74692919  0.00469760  1
  Mg  Mg15  1  0.00072344  0.75954870  0.26090350  1
  Mg  Mg16  1  0.00000000  0.50000000  0.00000000  1
  As  As17  1  0.57792682  0.00000000  0.80726105  1
  As  As18  1  0.42443522  0.50000000  0.68938307  1
  As  As19  1  0.57556478  0.50000000  0.31061693  1
  As  As20  1  0.42207318  0.00000000  0.19273895  1
  As  As21  1  0.00000000  0.50000000  0.50000000  1
  As  As22  1  0.00000000  0.00000000  0.00000000  1
  O  O23  1  0.88377173  0.00000000  0.89184380  1
  O  O24  1  0.38823186  0.00000000  0.87184762  1
  O  O25  1  0.63191272  0.23141307  0.86708095  1
  O  O26  1  0.86680530  0.50000000  0.87958646  1
  O  O27  1  0.11607250  0.21765344  0.89020397  1
  O  O28  1  0.63036338  0.00000000  0.63471095  1
  O  O29  1  0.36740037  0.50000000  0.86485214  1
  O  O30  1  0.63191272  0.76858693  0.86708095  1
  O  O31  1  0.88032791  0.29172772  0.61458068  1
  O  O32  1  0.61284679  0.50000000  0.62841222  1
  O  O33  1  0.11607250  0.78234656  0.89020397  1
  O  O34  1  0.88032791  0.70827228  0.61458068  1
  O  O35  1  0.85794103  1.00000000  0.36826207  1
  O  O36  1  0.14205897  0.00000000  0.63173793  1
  O  O37  1  0.36780025  0.26940244  0.63281057  1
  O  O38  1  0.88377135  0.50000000  0.39055762  1
  O  O39  1  0.36780025  0.73059756  0.63281057  1
  O  O40  1  0.36963662  0.00000000  0.36528905  1
  O  O41  1  0.63219975  0.26940244  0.36718943  1
  O  O42  1  0.11622865  0.50000000  0.60944238  1
  O  O43  1  0.38715321  0.50000000  0.37158778  1
  O  O44  1  0.88392750  0.21765344  0.10979603  1
  O  O45  1  0.11967209  0.29172772  0.38541932  1
  O  O46  1  0.63219975  0.73059756  0.36718943  1
  O  O47  1  0.61176814  0.00000000  0.12815238  1
  O  O48  1  0.11967209  0.70827228  0.38541932  1
  O  O49  1  0.63259963  0.50000000  0.13514786  1
  O  O50  1  0.36808728  0.23141307  0.13291905  1
  O  O51  1  0.88392750  0.78234656  0.10979603  1
  O  O52  1  0.11622827  0.00000000  0.10815620  1
  O  O53  1  0.13319470  0.50000000  0.12041354  1
  O  O54  1  0.36808728  0.76858693  0.13291905  1
