# generated using pymatgen
data_Er3TaO7
_symmetry_space_group_name_H-M   'P 1'
_cell_length_a   6.43817284
_cell_length_b   6.43817226
_cell_length_c   7.45337779
_cell_angle_alpha   90.00000000
_cell_angle_beta   90.00000000
_cell_angle_gamma   109.08425420
_symmetry_Int_Tables_number   1
_chemical_formula_structural   Er3TaO7
_chemical_formula_sum   'Er6 Ta2 O14'
_cell_volume   291.96312229
_cell_formula_units_Z   2
loop_
 _symmetry_equiv_pos_site_id
 _symmetry_equiv_pos_as_xyz
  1  'x, y, z'
loop_
 _atom_site_type_symbol
 _atom_site_label
 _atom_site_symmetry_multiplicity
 _atom_site_fract_x
 _atom_site_fract_y
 _atom_site_fract_z
 _atom_site_occupancy
  Er  Er0  1  0.99917974  0.46542964  0.49680586  1
  Er  Er1  1  0.53457036  0.00082026  0.50319414  1
  Er  Er2  1  0.52557747  0.52557747  0.25000000  1
  Er  Er3  1  0.47442253  0.47442253  0.75000000  1
  Er  Er4  1  0.46542964  0.99917974  0.00319414  1
  Er  Er5  1  0.00082026  0.53457036  0.99680586  1
  Ta  Ta6  1  0.00231896  0.00231896  0.25000000  1
  Ta  Ta7  1  0.99768104  0.99768104  0.75000000  1
  O  O8  1  0.06992188  0.93007812  0.00000000  1
  O  O9  1  0.06000245  0.31642531  0.21173391  1
  O  O10  1  0.08128910  0.32790534  0.77971878  1
  O  O11  1  0.36099386  0.63900614  0.00000000  1
  O  O12  1  0.37089338  0.62910662  0.50000000  1
  O  O13  1  0.32790534  0.08128910  0.72028122  1
  O  O14  1  0.31642531  0.06000245  0.28826609  1
  O  O15  1  0.68357469  0.93999755  0.78826609  1
  O  O16  1  0.67209466  0.91871090  0.22028122  1
  O  O17  1  0.62910662  0.37089338  0.00000000  1
  O  O18  1  0.63900614  0.36099386  0.50000000  1
  O  O19  1  0.91871090  0.67209466  0.27971878  1
  O  O20  1  0.93999755  0.68357469  0.71173391  1
  O  O21  1  0.93007812  0.06992188  0.50000000  1
