# generated using pymatgen
data_CoP4O11
_symmetry_space_group_name_H-M   'P 1'
_cell_length_a   9.36114404
_cell_length_b   9.32578960
_cell_length_c   10.78346871
_cell_angle_alpha   108.70194058
_cell_angle_beta   109.00343476
_cell_angle_gamma   90.28531086
_symmetry_Int_Tables_number   1
_chemical_formula_structural   CoP4O11
_chemical_formula_sum   'Co4 P16 O44'
_cell_volume   836.78032906
_cell_formula_units_Z   4
loop_
 _symmetry_equiv_pos_site_id
 _symmetry_equiv_pos_as_xyz
  1  'x, y, z'
loop_
 _atom_site_type_symbol
 _atom_site_label
 _atom_site_symmetry_multiplicity
 _atom_site_fract_x
 _atom_site_fract_y
 _atom_site_fract_z
 _atom_site_occupancy
  Co  Co0  1  0.23247938  0.77333753  0.50303583  1
  Co  Co1  1  0.27191270  0.25539257  0.02079399  1
  Co  Co2  1  0.72808730  0.74460743  0.97920601  1
  Co  Co3  1  0.76752062  0.22666247  0.49696417  1
  P  P4  1  0.25234124  0.56624154  0.92359557  1
  P  P5  1  0.07763867  0.23519301  0.39240723  1
  P  P6  1  0.05324877  0.91022753  0.24772208  1
  P  P7  1  0.08287401  0.44383817  0.23493385  1
  P  P8  1  0.40684722  0.10114971  0.76390781  1
  P  P9  1  0.40278596  0.58895904  0.71996636  1
  P  P10  1  0.41708196  0.26211523  0.55926540  1
  P  P11  1  0.26905701  0.90176367  0.08746722  1
  P  P12  1  0.73094299  0.09823633  0.91253278  1
  P  P13  1  0.58291804  0.73788477  0.44073460  1
  P  P14  1  0.59721404  0.41104096  0.28003364  1
  P  P15  1  0.59315278  0.89885029  0.23609219  1
  P  P16  1  0.91712599  0.55616183  0.76506615  1
  P  P17  1  0.94675123  0.08977247  0.75227792  1
  P  P18  1  0.92236133  0.76480699  0.60759277  1
  P  P19  1  0.74765876  0.43375846  0.07640443  1
  O  O20  1  0.08105984  0.50476151  0.83367043  1
  O  O21  1  0.09847443  0.18268268  0.82121317  1
  O  O22  1  0.01011613  0.23365859  0.49788789  1
  O  O23  1  0.26276335  0.74758785  0.96403508  1
  O  O24  1  0.03183382  0.36866019  0.33463566  1
  O  O25  1  0.03218596  0.08801130  0.25658774  1
  O  O26  1  0.16473506  0.91494644  0.38458026  1
  O  O27  1  0.34149602  0.52117980  0.81901050  1
  O  O28  1  0.27034928  0.61956247  0.61362060  1
  O  O29  1  0.31665524  0.94809513  0.69569565  1
  O  O30  1  0.18661607  0.58732386  0.32258958  1
  O  O31  1  0.12136838  0.32072750  0.12707435  1
  O  O32  1  0.40768476  0.20878084  0.90052910  1
  O  O33  1  0.13244400  0.86296986  0.12857793  1
  O  O34  1  0.25981523  0.25813773  0.44050116  1
  O  O35  1  0.36307821  0.18872874  0.65047578  1
  O  O36  1  0.46927078  0.43584042  0.64688653  1
  O  O37  1  0.53765094  0.70515355  0.80587250  1
  O  O38  1  0.25992145  0.03069088  0.03621119  1
  O  O39  1  0.46716393  0.80712864  0.49798644  1
  O  O40  1  0.30601665  0.50442191  0.03868790  1
  O  O41  1  0.58782210  0.09017215  0.78176537  1
  O  O42  1  0.41217790  0.90982785  0.21823463  1
  O  O43  1  0.69398335  0.49557809  0.96131210  1
  O  O44  1  0.53283607  0.19287136  0.50201356  1
  O  O45  1  0.74007855  0.96930912  0.96378881  1
  O  O46  1  0.46234906  0.29484645  0.19412750  1
  O  O47  1  0.53072922  0.56415958  0.35311347  1
  O  O48  1  0.63692179  0.81127126  0.34952422  1
  O  O49  1  0.74018477  0.74186227  0.55949884  1
  O  O50  1  0.86755600  0.13703014  0.87142207  1
  O  O51  1  0.59231524  0.79121916  0.09947090  1
  O  O52  1  0.87863162  0.67927250  0.87292565  1
  O  O53  1  0.81338393  0.41267614  0.67741042  1
  O  O54  1  0.68334476  0.05190487  0.30430435  1
  O  O55  1  0.72965072  0.38043753  0.38637940  1
  O  O56  1  0.65850398  0.47882020  0.18098950  1
  O  O57  1  0.83526494  0.08505356  0.61541974  1
  O  O58  1  0.96781404  0.91198870  0.74341226  1
  O  O59  1  0.96816618  0.63133981  0.66536434  1
  O  O60  1  0.73723665  0.25241215  0.03596492  1
  O  O61  1  0.98988387  0.76634141  0.50211211  1
  O  O62  1  0.90152557  0.81731732  0.17878683  1
  O  O63  1  0.91894016  0.49523849  0.16632957  1
