# generated using pymatgen
data_Li2CuF5
_symmetry_space_group_name_H-M   'P 1'
_cell_length_a   5.02213122
_cell_length_b   5.63130382
_cell_length_c   7.56465541
_cell_angle_alpha   70.46841138
_cell_angle_beta   94.12533992
_cell_angle_gamma   64.83880085
_symmetry_Int_Tables_number   1
_chemical_formula_structural   Li2CuF5
_chemical_formula_sum   'Li4 Cu2 F10'
_cell_volume   176.65466335
_cell_formula_units_Z   2
loop_
 _symmetry_equiv_pos_site_id
 _symmetry_equiv_pos_as_xyz
  1  'x, y, z'
loop_
 _atom_site_type_symbol
 _atom_site_label
 _atom_site_symmetry_multiplicity
 _atom_site_fract_x
 _atom_site_fract_y
 _atom_site_fract_z
 _atom_site_occupancy
  Li  Li0  1  0.35656261  0.26299738  0.78389030  1
  Li  Li1  1  0.37181316  0.27069805  0.23998200  1
  Li  Li2  1  0.62814313  0.72931450  0.76001978  1
  Li  Li3  1  0.64341760  0.73706070  0.21611188  1
  Cu  Cu4  1  0.99995294  0.00007971  0.99995832  1
  Cu  Cu5  1  0.00057036  -0.00081843  0.50027663  1
  F  F6  1  0.23252840  0.15676337  0.54018499  1
  F  F7  1  0.03044537  0.63705333  0.15322359  1
  F  F8  1  0.32159137  0.64987660  0.63845725  1
  F  F9  1  0.21206567  0.99755990  0.22660614  1
  F  F10  1  0.59977829  0.17643640  0.04409314  1
  F  F11  1  0.40019403  0.82357807  0.95590744  1
  F  F12  1  0.78790116  0.00247947  0.77337430  1
  F  F13  1  0.67805182  0.35057617  0.36135159  1
  F  F14  1  0.96954102  0.36300349  0.84675789  1
  F  F15  1  0.76744207  0.84334031  0.45980478  1
