# generated using pymatgen
data_NaH4Au(Br2O)2
_symmetry_space_group_name_H-M   'P 1'
_cell_length_a   13.41699180
_cell_length_b   7.60691978
_cell_length_c   9.49071832
_cell_angle_alpha   90.00000000
_cell_angle_beta   90.00000000
_cell_angle_gamma   90.00000000
_symmetry_Int_Tables_number   1
_chemical_formula_structural   NaH4Au(Br2O)2
_chemical_formula_sum   'Na4 H16 Au4 Br16 O8'
_cell_volume   968.64150632
_cell_formula_units_Z   4
loop_
 _symmetry_equiv_pos_site_id
 _symmetry_equiv_pos_as_xyz
  1  'x, y, z'
loop_
 _atom_site_type_symbol
 _atom_site_label
 _atom_site_symmetry_multiplicity
 _atom_site_fract_x
 _atom_site_fract_y
 _atom_site_fract_z
 _atom_site_occupancy
  Na  Na0  1  0.01497838  0.75000000  0.04246098  1
  Na  Na1  1  0.48502162  0.25000000  0.54246098  1
  Na  Na2  1  0.51497838  0.75000000  0.45753902  1
  Na  Na3  1  0.98502162  0.25000000  0.95753902  1
  H  H4  1  0.13251080  0.50723939  0.86563767  1
  H  H5  1  0.13251080  0.99276061  0.86563767  1
  H  H6  1  0.17488956  0.02203712  0.01583669  1
  H  H7  1  0.17488956  0.47796288  0.01583669  1
  H  H8  1  0.32511044  0.97796288  0.51583669  1
  H  H9  1  0.32511044  0.52203712  0.51583669  1
  H  H10  1  0.36748920  0.00723939  0.36563767  1
  H  H11  1  0.36748920  0.49276061  0.36563767  1
  H  H12  1  0.63251080  0.99276061  0.63436233  1
  H  H13  1  0.63251080  0.50723939  0.63436233  1
  H  H14  1  0.67488956  0.02203712  0.48416331  1
  H  H15  1  0.67488956  0.47796288  0.48416331  1
  H  H16  1  0.82511044  0.97796288  0.98416331  1
  H  H17  1  0.82511044  0.52203712  0.98416331  1
  H  H18  1  0.86748920  0.49276061  0.13436233  1
  H  H19  1  0.86748920  0.00723939  0.13436233  1
  Au  Au20  1  0.06307131  0.75000000  0.51182622  1
  Au  Au21  1  0.43692869  0.25000000  0.01182622  1
  Au  Au22  1  0.56307131  0.75000000  0.98817378  1
  Au  Au23  1  0.93692869  0.25000000  0.48817378  1
  Br  Br24  1  0.04625936  0.25000000  0.27825731  1
  Br  Br25  1  0.08673649  0.25000000  0.64218357  1
  Br  Br26  1  0.17298033  0.75000000  0.30159458  1
  Br  Br27  1  0.21191023  0.75000000  0.66796834  1
  Br  Br28  1  0.28808977  0.25000000  0.16796834  1
  Br  Br29  1  0.32701967  0.25000000  0.80159458  1
  Br  Br30  1  0.41326351  0.75000000  0.14218357  1
  Br  Br31  1  0.45374064  0.75000000  0.77825731  1
  Br  Br32  1  0.54625936  0.25000000  0.22174269  1
  Br  Br33  1  0.58673649  0.25000000  0.85781643  1
  Br  Br34  1  0.67298033  0.75000000  0.19840542  1
  Br  Br35  1  0.71191023  0.75000000  0.83203166  1
  Br  Br36  1  0.78808977  0.25000000  0.33203166  1
  Br  Br37  1  0.82701967  0.25000000  0.69840542  1
  Br  Br38  1  0.91326351  0.75000000  0.35781643  1
  Br  Br39  1  0.95374064  0.75000000  0.72174269  1
  O  O40  1  0.11274573  0.49884466  0.96524337  1
  O  O41  1  0.11274573  0.00115534  0.96524337  1
  O  O42  1  0.38725427  0.99884466  0.46524337  1
  O  O43  1  0.38725427  0.50115534  0.46524337  1
  O  O44  1  0.61274573  0.49884466  0.53475663  1
  O  O45  1  0.61274573  0.00115534  0.53475663  1
  O  O46  1  0.88725427  0.99884466  0.03475663  1
  O  O47  1  0.88725427  0.50115534  0.03475663  1
