# generated using pymatgen
data_Li2CoSiO4
_symmetry_space_group_name_H-M   'P 1'
_cell_length_a   5.01983239
_cell_length_b   6.18596385
_cell_length_c   10.91608878
_cell_angle_alpha   89.99992242
_cell_angle_beta   90.00000596
_cell_angle_gamma   89.99397221
_symmetry_Int_Tables_number   1
_chemical_formula_structural   Li2CoSiO4
_chemical_formula_sum   'Li8 Co4 Si4 O16'
_cell_volume   338.97186331
_cell_formula_units_Z   4
loop_
 _symmetry_equiv_pos_site_id
 _symmetry_equiv_pos_as_xyz
  1  'x, y, z'
loop_
 _atom_site_type_symbol
 _atom_site_label
 _atom_site_symmetry_multiplicity
 _atom_site_fract_x
 _atom_site_fract_y
 _atom_site_fract_z
 _atom_site_occupancy
  Li  Li0  1  0.81756452  0.99968430  0.41201013  1
  Li  Li1  1  0.18263387  0.99772014  0.58710243  1
  Li  Li2  1  0.68228812  0.00403649  0.91246313  1
  Li  Li3  1  0.81771411  0.49596289  0.41246365  1
  Li  Li4  1  0.68243721  0.50031459  0.91201039  1
  Li  Li5  1  0.31736812  0.50227848  0.08710290  1
  Li  Li6  1  0.18297980  0.50142287  0.58714265  1
  Li  Li7  1  0.31702305  0.99857699  0.08714256  1
  Co  Co8  1  0.67834914  0.75102539  0.66861908  1
  Co  Co9  1  0.82164850  0.74897597  0.16861892  1
  Co  Co10  1  0.17810748  0.25145615  0.83075879  1
  Co  Co11  1  0.32189271  0.24854048  0.33075816  1
  Si  Si12  1  0.17351266  0.75144730  0.83640591  1
  Si  Si13  1  0.32648572  0.74854935  0.33640385  1
  Si  Si14  1  0.82636591  0.24940900  0.16306029  1
  Si  Si15  1  0.67363248  0.25059125  0.66306134  1
  O  O16  1  0.28195638  0.96993194  0.90814093  1
  O  O17  1  0.21899422  0.96706627  0.40847009  1
  O  O18  1  0.84448918  0.75223654  0.83489154  1
  O  O19  1  0.21970185  0.74997352  0.19251502  1
  O  O20  1  0.28029647  0.75002866  0.69251657  1
  O  O21  1  0.65550863  0.74776081  0.33489115  1
  O  O22  1  0.28100594  0.53292919  0.90847112  1
  O  O23  1  0.21804466  0.53006411  0.40813906  1
  O  O24  1  0.71788397  0.46765521  0.09101329  1
  O  O25  1  0.78109933  0.46926531  0.59122998  1
  O  O26  1  0.71978835  0.24855818  0.30697896  1
  O  O27  1  0.34463604  0.24964891  0.66462094  1
  O  O28  1  0.78021059  0.25144200  0.80697945  1
  O  O29  1  0.15536176  0.25035159  0.16462056  1
  O  O30  1  0.71889886  0.03073546  0.09122893  1
  O  O31  1  0.78211436  0.03234567  0.59101326  1
