# generated using pymatgen
data_MgV2O4
_symmetry_space_group_name_H-M   'P 1'
_cell_length_a   2.96438393
_cell_length_b   9.16955388
_cell_length_c   10.55983446
_cell_angle_alpha   90.00743395
_cell_angle_beta   89.99991190
_cell_angle_gamma   90.00000363
_symmetry_Int_Tables_number   1
_chemical_formula_structural   MgV2O4
_chemical_formula_sum   'Mg4 V8 O16'
_cell_volume   287.03824335
_cell_formula_units_Z   4
loop_
 _symmetry_equiv_pos_site_id
 _symmetry_equiv_pos_as_xyz
  1  'x, y, z'
loop_
 _atom_site_type_symbol
 _atom_site_label
 _atom_site_symmetry_multiplicity
 _atom_site_fract_x
 _atom_site_fract_y
 _atom_site_fract_z
 _atom_site_occupancy
  Mg  Mg0  1  0.74999799  0.24519301  0.34882590  1
  Mg  Mg1  1  0.25000203  0.75485107  0.65115723  1
  Mg  Mg2  1  0.74999396  0.74514774  0.15122145  1
  Mg  Mg3  1  0.25000203  0.25482568  0.84877324  1
  V  V4  1  0.25000511  0.41140853  0.10297156  1
  V  V5  1  0.74999356  0.08858695  0.60298074  1
  V  V6  1  0.25000883  0.91143799  0.39700487  1
  V  V7  1  0.74999011  0.58856960  0.89704010  1
  V  V8  1  0.74999945  0.56412537  0.38204998  1
  V  V9  1  0.24999625  0.43588759  0.61796012  1
  V  V10  1  0.74999800  0.06413327  0.11795134  1
  V  V11  1  0.25000366  0.93585403  0.88204641  1
  O  O12  1  0.24999936  0.90960530  0.07336712  1
  O  O13  1  0.75000176  0.09037348  0.92662779  1
  O  O14  1  0.24999866  0.40960436  0.42661678  1
  O  O15  1  0.74999751  0.59042558  0.57339705  1
  O  O16  1  0.25000011  0.03160454  0.71572030  1
  O  O17  1  0.75000189  0.96840249  0.28427395  1
  O  O18  1  0.24999731  0.53150384  0.78434626  1
  O  O19  1  0.75000068  0.46846623  0.21567527  1
  O  O20  1  0.24999892  0.62568051  0.03448201  1
  O  O21  1  0.74999856  0.37428632  0.96552880  1
  O  O22  1  0.25000040  0.12570141  0.46555234  1
  O  O23  1  0.75000179  0.87432913  0.53443560  1
  O  O24  1  0.74999838  0.79347180  0.81542463  1
  O  O25  1  0.25000122  0.20651327  0.18457076  1
  O  O26  1  0.25000016  0.70649061  0.31547991  1
  O  O27  1  0.74999832  0.29351929  0.68451848  1
