# generated using pymatgen
data_LiP3(WO6)2
_symmetry_space_group_name_H-M   'P 1'
_cell_length_a   8.85683550
_cell_length_b   8.93516432
_cell_length_c   8.90648984
_cell_angle_alpha   119.89389634
_cell_angle_beta   59.81437076
_cell_angle_gamma   119.87582358
_symmetry_Int_Tables_number   1
_chemical_formula_structural   LiP3(WO6)2
_chemical_formula_sum   'Li2 P6 W4 O24'
_cell_volume   498.55288604
_cell_formula_units_Z   2
loop_
 _symmetry_equiv_pos_site_id
 _symmetry_equiv_pos_as_xyz
  1  'x, y, z'
loop_
 _atom_site_type_symbol
 _atom_site_label
 _atom_site_symmetry_multiplicity
 _atom_site_fract_x
 _atom_site_fract_y
 _atom_site_fract_z
 _atom_site_occupancy
  Li  Li0  1  0.52300163  0.49244290  0.39685346  1
  Li  Li1  1  0.97699837  0.00755710  0.92741219  1
  P  P2  1  0.04011012  0.25132375  0.45983985  1
  P  P3  1  0.54140916  0.74923852  0.24712599  1
  P  P4  1  0.25000000  0.75000000  0.96215466  1
  P  P5  1  0.75000000  0.25000000  0.03975162  1
  P  P6  1  0.45988988  0.24867625  0.74862622  1
  P  P7  1  0.95859084  0.75076148  0.53929662  1
  W  W8  1  0.14302356  0.42519976  0.14201289  1
  W  W9  1  0.35697644  0.07480024  0.35983669  1
  W  W10  1  0.64122624  0.92446604  0.64229174  1
  W  W11  1  0.85877376  0.57553396  0.85905194  1
  O  O12  1  0.29449531  0.92345577  0.12411563  1
  O  O13  1  0.11566443  0.92668147  0.51332430  1
  O  O14  1  0.05822498  0.25469822  0.27934643  1
  O  O15  1  0.00585805  0.42455481  0.62214268  1
  O  O16  1  0.08609533  0.74603145  0.93921391  1
  O  O17  1  0.50590336  0.92269375  0.29763919  1
  O  O18  1  0.38433557  0.57331853  0.20230727  1
  O  O19  1  0.22819620  0.25416509  0.43514890  1
  O  O20  1  0.56526405  0.74350743  0.40539251  1
  O  O21  1  0.72525569  0.75270129  0.07972228  1
  O  O22  1  0.20550469  0.57654423  0.99515416  1
  O  O23  1  0.41390467  0.75396855  0.77927778  1
  O  O24  1  0.58751195  0.25846221  0.22648579  1
  O  O25  1  0.79946108  0.42542976  0.00999576  1
  O  O26  1  0.27180380  0.24583491  0.90918101  1
  O  O27  1  0.44177502  0.24530178  0.58287419  1
  O  O28  1  0.77474431  0.74729871  0.55227568  1
  O  O29  1  0.49414195  0.07544519  0.70344592  1
  O  O30  1  0.62012671  0.42294173  0.79532862  1
  O  O31  1  0.91248805  0.24153779  0.05553553  1
  O  O32  1  0.99409664  0.57730625  0.38084879  1
  O  O33  1  0.93473595  0.75649257  0.72714912  1
  O  O34  1  0.87987329  0.07705827  0.49251259  1
  O  O35  1  0.70053892  0.07457024  0.88402708  1
