# generated using pymatgen
data_LiCr(SiO3)2
_symmetry_space_group_name_H-M   'P 1'
_cell_length_a   18.16659593
_cell_length_b   8.71333764
_cell_length_c   5.26452931
_cell_angle_alpha   90.00000000
_cell_angle_beta   90.00000000
_cell_angle_gamma   90.00000000
_symmetry_Int_Tables_number   1
_chemical_formula_structural   LiCr(SiO3)2
_chemical_formula_sum   'Li8 Cr8 Si16 O48'
_cell_volume   833.33121051
_cell_formula_units_Z   8
loop_
 _symmetry_equiv_pos_site_id
 _symmetry_equiv_pos_as_xyz
  1  'x, y, z'
loop_
 _atom_site_type_symbol
 _atom_site_label
 _atom_site_symmetry_multiplicity
 _atom_site_fract_x
 _atom_site_fract_y
 _atom_site_fract_z
 _atom_site_occupancy
  Li  Li0  1  0.12244820  0.98609000  0.36757111  1
  Li  Li1  1  0.12244820  0.51391000  0.86757111  1
  Li  Li2  1  0.37755180  0.01391000  0.86757111  1
  Li  Li3  1  0.37755180  0.48609000  0.36757111  1
  Li  Li4  1  0.62244820  0.51391000  0.63242889  1
  Li  Li5  1  0.62244820  0.98609000  0.13242889  1
  Li  Li6  1  0.87755180  0.01391000  0.63242889  1
  Li  Li7  1  0.87755180  0.48609000  0.13242889  1
  Cr  Cr8  1  0.12464568  0.34462657  0.37324336  1
  Cr  Cr9  1  0.12464568  0.15537343  0.87324336  1
  Cr  Cr10  1  0.37535432  0.65537343  0.87324336  1
  Cr  Cr11  1  0.37535432  0.84462657  0.37324336  1
  Cr  Cr12  1  0.62464568  0.15537343  0.62675664  1
  Cr  Cr13  1  0.62464568  0.34462657  0.12675664  1
  Cr  Cr14  1  0.87535432  0.65537343  0.62675664  1
  Cr  Cr15  1  0.87535432  0.84462657  0.12675664  1
  Si  Si16  1  0.02737117  0.83719215  0.79804429  1
  Si  Si17  1  0.02737117  0.66280785  0.29804429  1
  Si  Si18  1  0.22586994  0.65869370  0.55046521  1
  Si  Si19  1  0.22586994  0.84130630  0.05046521  1
  Si  Si20  1  0.27413006  0.15869370  0.55046521  1
  Si  Si21  1  0.27413006  0.34130630  0.05046521  1
  Si  Si22  1  0.47262883  0.16280785  0.29804429  1
  Si  Si23  1  0.47262883  0.33719215  0.79804429  1
  Si  Si24  1  0.52737117  0.66280785  0.20195571  1
  Si  Si25  1  0.52737117  0.83719215  0.70195571  1
  Si  Si26  1  0.72586994  0.65869370  0.94953479  1
  Si  Si27  1  0.72586994  0.84130630  0.44953479  1
  Si  Si28  1  0.77413006  0.15869370  0.94953479  1
  Si  Si29  1  0.77413006  0.34130630  0.44953479  1
  Si  Si30  1  0.97262883  0.16280785  0.20195571  1
  Si  Si31  1  0.97262883  0.33719215  0.70195571  1
  O  O32  1  0.05341169  0.70300542  0.59241059  1
  O  O33  1  0.05341169  0.79699458  0.09241059  1
  O  O34  1  0.06415424  0.16832791  0.19902516  1
  O  O35  1  0.06415424  0.33167209  0.69902516  1
  O  O36  1  0.06509908  0.50539778  0.20609445  1
  O  O37  1  0.06509908  0.99460222  0.70609445  1
  O  O38  1  0.18289424  0.16596971  0.54687694  1
  O  O39  1  0.18289424  0.33403029  0.04687694  1
  O  O40  1  0.19111928  0.01048391  0.04252031  1
  O  O41  1  0.19111928  0.48951609  0.54252031  1
  O  O42  1  0.19579737  0.77107233  0.32296195  1
  O  O43  1  0.19579737  0.72892767  0.82296195  1
  O  O44  1  0.30420263  0.22892767  0.82296195  1
  O  O45  1  0.30420263  0.27107233  0.32296195  1
  O  O46  1  0.30888072  0.51048391  0.04252031  1
  O  O47  1  0.30888072  0.98951609  0.54252031  1
  O  O48  1  0.31710576  0.66596971  0.54687694  1
  O  O49  1  0.31710576  0.83403029  0.04687694  1
  O  O50  1  0.43490092  0.00539778  0.20609445  1
  O  O51  1  0.43490092  0.49460222  0.70609445  1
  O  O52  1  0.43584576  0.66832791  0.19902516  1
  O  O53  1  0.43584576  0.83167209  0.69902516  1
  O  O54  1  0.44658831  0.20300542  0.59241059  1
  O  O55  1  0.44658831  0.29699458  0.09241059  1
  O  O56  1  0.55341169  0.70300542  0.90758941  1
  O  O57  1  0.55341169  0.79699458  0.40758941  1
  O  O58  1  0.56415424  0.16832791  0.30097484  1
  O  O59  1  0.56415424  0.33167209  0.80097484  1
  O  O60  1  0.56509908  0.50539778  0.29390555  1
  O  O61  1  0.56509908  0.99460222  0.79390555  1
  O  O62  1  0.68289424  0.16596971  0.95312306  1
  O  O63  1  0.68289424  0.33403029  0.45312306  1
  O  O64  1  0.69111928  0.01048391  0.45747969  1
  O  O65  1  0.69111928  0.48951609  0.95747969  1
  O  O66  1  0.69579737  0.72892767  0.67703805  1
  O  O67  1  0.69579737  0.77107233  0.17703805  1
  O  O68  1  0.80420263  0.22892767  0.67703805  1
  O  O69  1  0.80420263  0.27107233  0.17703805  1
  O  O70  1  0.80888072  0.51048391  0.45747969  1
  O  O71  1  0.80888072  0.98951609  0.95747969  1
  O  O72  1  0.81710576  0.66596971  0.95312306  1
  O  O73  1  0.81710576  0.83403029  0.45312306  1
  O  O74  1  0.93490092  0.00539778  0.29390555  1
  O  O75  1  0.93490092  0.49460222  0.79390555  1
  O  O76  1  0.93584576  0.66832791  0.30097484  1
  O  O77  1  0.93584576  0.83167209  0.80097484  1
  O  O78  1  0.94658831  0.20300542  0.90758941  1
  O  O79  1  0.94658831  0.29699458  0.40758941  1
