# generated using pymatgen
data_CrHSe3O8
_symmetry_space_group_name_H-M   'P 1'
_cell_length_a   8.99553737
_cell_length_b   11.43803510
_cell_length_c   7.73348775
_cell_angle_alpha   90.00000000
_cell_angle_beta   90.00000000
_cell_angle_gamma   90.00000000
_symmetry_Int_Tables_number   1
_chemical_formula_structural   CrHSe3O8
_chemical_formula_sum   'Cr4 H4 Se12 O32'
_cell_volume   795.70839300
_cell_formula_units_Z   4
loop_
 _symmetry_equiv_pos_site_id
 _symmetry_equiv_pos_as_xyz
  1  'x, y, z'
loop_
 _atom_site_type_symbol
 _atom_site_label
 _atom_site_symmetry_multiplicity
 _atom_site_fract_x
 _atom_site_fract_y
 _atom_site_fract_z
 _atom_site_occupancy
  Cr  Cr0  1  0.00000000  0.00000000  0.00000000  1
  Cr  Cr1  1  0.00000000  0.50000000  0.00000000  1
  Cr  Cr2  1  0.50000000  0.50000000  0.50000000  1
  Cr  Cr3  1  0.50000000  0.00000000  0.50000000  1
  H  H4  1  0.13336635  0.25000000  0.55522221  1
  H  H5  1  0.36663365  0.75000000  0.05522221  1
  H  H6  1  0.63336635  0.25000000  0.94477779  1
  H  H7  1  0.86663365  0.75000000  0.44477779  1
  Se  Se8  1  0.01296056  0.75000000  0.19556668  1
  Se  Se9  1  0.21812901  0.60673823  0.70600107  1
  Se  Se10  1  0.21812901  0.89326177  0.70600107  1
  Se  Se11  1  0.28187099  0.10673823  0.20600107  1
  Se  Se12  1  0.28187099  0.39326177  0.20600107  1
  Se  Se13  1  0.48703944  0.25000000  0.69556668  1
  Se  Se14  1  0.51296056  0.75000000  0.30443332  1
  Se  Se15  1  0.71812901  0.60673823  0.79399893  1
  Se  Se16  1  0.71812901  0.89326177  0.79399893  1
  Se  Se17  1  0.78187099  0.10673823  0.29399893  1
  Se  Se18  1  0.78187099  0.39326177  0.29399893  1
  Se  Se19  1  0.98703944  0.25000000  0.80443332  1
  O  O20  1  0.02533105  0.25000000  0.57589133  1
  O  O21  1  0.09543793  0.13431681  0.86884871  1
  O  O22  1  0.09543793  0.36568319  0.86884871  1
  O  O23  1  0.11994103  0.03045070  0.21592156  1
  O  O24  1  0.11994103  0.46954930  0.21592156  1
  O  O25  1  0.16515975  0.60470334  0.91796256  1
  O  O26  1  0.16515975  0.89529666  0.91796256  1
  O  O27  1  0.18830779  0.25000000  0.21395234  1
  O  O28  1  0.31169221  0.75000000  0.71395234  1
  O  O29  1  0.33484025  0.10470334  0.41796256  1
  O  O30  1  0.33484025  0.39529666  0.41796256  1
  O  O31  1  0.38005897  0.53045070  0.71592156  1
  O  O32  1  0.38005897  0.96954930  0.71592156  1
  O  O33  1  0.40456307  0.63431681  0.36884871  1
  O  O34  1  0.40456307  0.86568319  0.36884871  1
  O  O35  1  0.47466895  0.75000000  0.07589133  1
  O  O36  1  0.52533105  0.25000000  0.92410867  1
  O  O37  1  0.59543793  0.13431681  0.63115129  1
  O  O38  1  0.59543793  0.36568319  0.63115129  1
  O  O39  1  0.61994103  0.03045070  0.28407844  1
  O  O40  1  0.61994103  0.46954930  0.28407844  1
  O  O41  1  0.66515975  0.60470334  0.58203744  1
  O  O42  1  0.66515975  0.89529666  0.58203744  1
  O  O43  1  0.68830779  0.25000000  0.28604766  1
  O  O44  1  0.81169221  0.75000000  0.78604766  1
  O  O45  1  0.83484025  0.10470334  0.08203744  1
  O  O46  1  0.83484025  0.39529666  0.08203744  1
  O  O47  1  0.88005897  0.53045070  0.78407844  1
  O  O48  1  0.88005897  0.96954930  0.78407844  1
  O  O49  1  0.90456207  0.63431681  0.13115129  1
  O  O50  1  0.90456207  0.86568319  0.13115129  1
  O  O51  1  0.97466895  0.75000000  0.42410867  1
