# generated using pymatgen
data_LiFe(PO3)3
_symmetry_space_group_name_H-M   'P 1'
_cell_length_a   8.62083074
_cell_length_b   8.49623171
_cell_length_c   8.97880974
_cell_angle_alpha   90.00000000
_cell_angle_beta   90.00000000
_cell_angle_gamma   90.00000000
_symmetry_Int_Tables_number   1
_chemical_formula_structural   LiFe(PO3)3
_chemical_formula_sum   'Li4 Fe4 P12 O36'
_cell_volume   657.64910790
_cell_formula_units_Z   4
loop_
 _symmetry_equiv_pos_site_id
 _symmetry_equiv_pos_as_xyz
  1  'x, y, z'
loop_
 _atom_site_type_symbol
 _atom_site_label
 _atom_site_symmetry_multiplicity
 _atom_site_fract_x
 _atom_site_fract_y
 _atom_site_fract_z
 _atom_site_occupancy
  Li  Li0  1  0.10800788  0.87999197  0.41458900  1
  Li  Li1  1  0.39199212  0.12000803  0.91458900  1
  Li  Li2  1  0.60800788  0.62000803  0.58541100  1
  Li  Li3  1  0.89199212  0.37999197  0.08541100  1
  Fe  Fe4  1  0.12138773  0.09749946  0.14012287  1
  Fe  Fe5  1  0.37861227  0.90250054  0.64012287  1
  Fe  Fe6  1  0.62138773  0.40250054  0.85987713  1
  Fe  Fe7  1  0.87861227  0.59749946  0.35987713  1
  P  P8  1  0.05817174  0.94961397  0.81731628  1
  P  P9  1  0.06685021  0.72130936  0.06892146  1
  P  P10  1  0.22781176  0.56144917  0.55860939  1
  P  P11  1  0.27218824  0.43855083  0.05860939  1
  P  P12  1  0.43314979  0.27869064  0.56892146  1
  P  P13  1  0.44182826  0.05038603  0.31731628  1
  P  P14  1  0.55817174  0.55038603  0.18268372  1
  P  P15  1  0.56685021  0.77869064  0.93107854  1
  P  P16  1  0.72781176  0.93855083  0.44139061  1
  P  P17  1  0.77218824  0.06144917  0.94139061  1
  P  P18  1  0.93314979  0.22130936  0.43107854  1
  P  P19  1  0.94182826  0.44961397  0.68268372  1
  O  O20  1  0.01820165  0.78924804  0.90872329  1
  O  O21  1  0.06226989  0.11950503  0.37170624  1
  O  O22  1  0.11714142  0.90784784  0.66521997  1
  O  O23  1  0.11486812  0.52156980  0.69884077  1
  O  O24  1  0.12181441  0.85306557  0.16815760  1
  O  O25  1  0.13830504  0.34047394  0.11476686  1
  O  O26  1  0.13308484  0.62282499  0.43060467  1
  O  O27  1  0.15792849  0.05594934  0.91183012  1
  O  O28  1  0.20899042  0.61104413  0.01674006  1
  O  O29  1  0.29100958  0.38895587  0.51674006  1
  O  O30  1  0.34207151  0.94405066  0.41183012  1
  O  O31  1  0.36691516  0.37717501  0.93060467  1
  O  O32  1  0.36169496  0.65952606  0.61476686  1
  O  O33  1  0.37818559  0.14693443  0.66815760  1
  O  O34  1  0.38513188  0.47843020  0.19884077  1
  O  O35  1  0.38285858  0.09215216  0.16521997  1
  O  O36  1  0.43773011  0.88049497  0.87170624  1
  O  O37  1  0.48179835  0.21075196  0.40872329  1
  O  O38  1  0.51820165  0.71075196  0.09127671  1
  O  O39  1  0.56226989  0.38049497  0.62829376  1
  O  O40  1  0.61714142  0.59215216  0.33478003  1
  O  O41  1  0.61486812  0.97843020  0.30115923  1
  O  O42  1  0.62181441  0.64693443  0.83184240  1
  O  O43  1  0.63830504  0.15952606  0.88523314  1
  O  O44  1  0.63308484  0.87717501  0.56939533  1
  O  O45  1  0.65792849  0.44405066  0.08816988  1
  O  O46  1  0.70899042  0.88895587  0.98325994  1
  O  O47  1  0.79100958  0.11104413  0.48325994  1
  O  O48  1  0.84207151  0.55594934  0.58816988  1
  O  O49  1  0.86691516  0.12282499  0.06939533  1
  O  O50  1  0.86169496  0.84047394  0.38523314  1
  O  O51  1  0.87818559  0.35306557  0.33184240  1
  O  O52  1  0.88513188  0.02156980  0.80115923  1
  O  O53  1  0.88285858  0.40784784  0.83478003  1
  O  O54  1  0.93773011  0.61950503  0.12829276  1
  O  O55  1  0.98179835  0.28924804  0.59127671  1
