# generated using pymatgen
data_LiTi3Sb(PO4)6
_symmetry_space_group_name_H-M   'P 1'
_cell_length_a   8.83051573
_cell_length_b   8.83051562
_cell_length_c   8.83051520
_cell_angle_alpha   58.50239652
_cell_angle_beta   58.50240582
_cell_angle_gamma   58.50240437
_symmetry_Int_Tables_number   1
_chemical_formula_structural   LiTi3Sb(PO4)6
_chemical_formula_sum   'Li1 Ti3 Sb1 P6 O24'
_cell_volume   470.22328133
_cell_formula_units_Z   1
loop_
 _symmetry_equiv_pos_site_id
 _symmetry_equiv_pos_as_xyz
  1  'x, y, z'
loop_
 _atom_site_type_symbol
 _atom_site_label
 _atom_site_symmetry_multiplicity
 _atom_site_fract_x
 _atom_site_fract_y
 _atom_site_fract_z
 _atom_site_occupancy
  Li  Li0  1  0.00360973  0.00360973  0.00360973  1
  Ti  Ti1  1  0.14433126  0.14433126  0.14433126  1
  Ti  Ti2  1  0.35979978  0.35979978  0.35979978  1
  Ti  Ti3  1  0.63928361  0.63928361  0.63928361  1
  Sb  Sb4  1  0.85465564  0.85465564  0.85465564  1
  P  P5  1  0.03442711  0.74977377  0.45895388  1
  P  P6  1  0.45895388  0.03442711  0.74977377  1
  P  P7  1  0.74977377  0.45895388  0.03442711  1
  P  P8  1  0.24963479  0.53603007  0.96688526  1
  P  P9  1  0.53603007  0.96688526  0.24963479  1
  P  P10  1  0.96688526  0.24963479  0.53603007  1
  O  O11  1  0.13790271  0.27720176  0.50606191  1
  O  O12  1  0.27720176  0.50606191  0.13790271  1
  O  O13  1  0.05944841  0.92360187  0.27708025  1
  O  O14  1  0.50606191  0.13790271  0.27720176  1
  O  O15  1  0.21372511  0.57748424  0.43517599  1
  O  O16  1  0.01823735  0.77814880  0.62930914  1
  O  O17  1  0.27708025  0.05944841  0.92360187  1
  O  O18  1  0.43517599  0.21372511  0.57748424  1
  O  O19  1  0.57748424  0.43517599  0.21372511  1
  O  O20  1  0.21002660  0.37014622  0.99643959  1
  O  O21  1  0.07469088  0.72655452  0.94282878  1
  O  O22  1  0.37014622  0.99643959  0.21002660  1
  O  O23  1  0.62930914  0.01823735  0.77814880  1
  O  O24  1  0.92360187  0.27708025  0.05944841  1
  O  O25  1  0.77814880  0.62930914  0.01823735  1
  O  O26  1  0.41977680  0.56416034  0.78560965  1
  O  O27  1  0.56416034  0.78560965  0.41977680  1
  O  O28  1  0.72655452  0.94282878  0.07469088  1
  O  O29  1  0.99643959  0.21002660  0.37014622  1
  O  O30  1  0.78560965  0.41977680  0.56416034  1
  O  O31  1  0.49772320  0.86019361  0.72108739  1
  O  O32  1  0.94282878  0.07469088  0.72655452  1
  O  O33  1  0.72108739  0.49772320  0.86019361  1
  O  O34  1  0.86019361  0.72108739  0.49772320  1
