# generated using pymatgen
data_Li4Ni5O9
_symmetry_space_group_name_H-M   'P 1'
_cell_length_a   7.63425423
_cell_length_b   6.49469352
_cell_length_c   7.66377804
_cell_angle_alpha   85.57062355
_cell_angle_beta   64.64721627
_cell_angle_gamma   65.13682007
_symmetry_Int_Tables_number   1
_chemical_formula_structural   Li4Ni5O9
_chemical_formula_sum   'Li8 Ni10 O18'
_cell_volume   309.10353614
_cell_formula_units_Z   2
loop_
 _symmetry_equiv_pos_site_id
 _symmetry_equiv_pos_as_xyz
  1  'x, y, z'
loop_
 _atom_site_type_symbol
 _atom_site_label
 _atom_site_symmetry_multiplicity
 _atom_site_fract_x
 _atom_site_fract_y
 _atom_site_fract_z
 _atom_site_occupancy
  Li  Li0  1  0.72196471  0.44419575  0.94707656  1
  Li  Li1  1  0.83086364  0.66782020  0.16963663  1
  Li  Li2  1  0.60715734  0.22634756  0.72377352  1
  Li  Li3  1  0.38864096  0.77853419  0.27940330  1
  Li  Li4  1  0.16692429  0.33358225  0.83070144  1
  Li  Li5  1  0.50024704  0.99924381  0.49837470  1
  Li  Li6  1  0.28173166  0.55143044  0.05400448  1
  Li  Li7  1  0.05802536  0.10995680  0.60814137  1
  Ni  Ni8  1  0.89249774  0.77998245  0.77503319  1
  Ni  Ni9  1  0.94444400  0.88888900  0.38888900  1
  Ni  Ni10  1  0.44444400  0.88888900  0.88888900  1
  Ni  Ni11  1  0.77889712  0.55571477  0.55845802  1
  Ni  Ni12  1  0.33607947  0.66751879  0.66527127  1
  Ni  Ni13  1  0.66654395  0.33216292  0.33459735  1
  Ni  Ni14  1  0.22234505  0.44561408  0.44318065  1
  Ni  Ni15  1  0.55280953  0.11025921  0.11250673  1
  Ni  Ni16  1  0.10999188  0.22206223  0.21931998  1
  Ni  Ni17  1  0.99639126  0.99779555  0.00274381  1
  O  O18  1  0.96990979  0.46146420  0.68229947  1
  O  O19  1  0.71055038  0.88854807  0.65181822  1
  O  O20  1  0.80685837  0.09742569  0.88357650  1
  O  O21  1  0.54316007  0.57307414  0.79799363  1
  O  O22  1  0.26329437  0.97407031  0.75510497  1
  O  O23  1  0.87821864  0.22183856  0.45580516  1
  O  O24  1  0.58567457  0.65598411  0.43864550  1
  O  O25  1  0.34572893  0.20470386  0.97978437  1
  O  O26  1  0.08202963  0.68035231  0.89420150  1
  O  O27  1  0.91897921  0.31631380  0.09547853  1
  O  O28  1  0.62559463  0.80370769  0.02267303  1
  O  O29  1  0.41746146  0.35754346  0.58094085  1
  O  O30  1  0.14069457  0.77389988  0.52652249  1
  O  O31  1  0.74819443  0.00387812  0.25125451  1
  O  O32  1  0.47142754  0.42023454  0.19683715  1
  O  O33  1  0.17833762  0.88922993  0.12595878  1
  O  O34  1  0.30321443  0.12179389  0.33913150  1
  O  O35  1  0.01067036  0.55593944  0.32197284  1
