# generated using pymatgen
data_NaMnPCO7
_symmetry_space_group_name_H-M   'P 1'
_cell_length_a   9.20408156
_cell_length_b   6.23193484
_cell_length_c   10.50031581
_cell_angle_alpha   90.00000000
_cell_angle_beta   87.37097895
_cell_angle_gamma   90.00000000
_symmetry_Int_Tables_number   1
_chemical_formula_structural   NaMnPCO7
_chemical_formula_sum   'Na4 Mn4 P4 C4 O28'
_cell_volume   601.65616648
_cell_formula_units_Z   4
loop_
 _symmetry_equiv_pos_site_id
 _symmetry_equiv_pos_as_xyz
  1  'x, y, z'
loop_
 _atom_site_type_symbol
 _atom_site_label
 _atom_site_symmetry_multiplicity
 _atom_site_fract_x
 _atom_site_fract_y
 _atom_site_fract_z
 _atom_site_occupancy
  Na  Na0  1  0.23768155  0.46155725  0.62145685  1
  Na  Na1  1  0.23768155  0.03844275  0.12145685  1
  Na  Na2  1  0.76231845  0.96155725  0.87854315  1
  Na  Na3  1  0.76231845  0.53844275  0.37854315  1
  Mn  Mn4  1  0.34452154  0.74604858  0.89163956  1
  Mn  Mn5  1  0.34452154  0.75395142  0.39163956  1
  Mn  Mn6  1  0.65547846  0.24604858  0.60836044  1
  Mn  Mn7  1  0.65547846  0.25395142  0.10836044  1
  P  P8  1  0.43507612  0.24849800  0.86167508  1
  P  P9  1  0.43507612  0.25150200  0.36167508  1
  P  P10  1  0.56492388  0.74849800  0.63832492  1
  P  P11  1  0.56492388  0.75150200  0.13832492  1
  C  C12  1  0.08454691  0.74625605  0.86389656  1
  C  C13  1  0.08454691  0.75374395  0.36389656  1
  C  C14  1  0.91545309  0.24625605  0.63610344  1
  C  C15  1  0.91545309  0.25374395  0.13610344  1
  O  O16  1  0.04715330  0.24257331  0.65230637  1
  O  O17  1  0.04715330  0.25742669  0.15230637  1
  O  O18  1  0.14560802  0.75546712  0.97489905  1
  O  O19  1  0.14560802  0.74453288  0.47489905  1
  O  O20  1  0.18668456  0.74039455  0.77013381  1
  O  O21  1  0.18668456  0.75960545  0.27013381  1
  O  O22  1  0.33483731  0.05532245  0.89810371  1
  O  O23  1  0.33291407  0.44095838  0.89132252  1
  O  O24  1  0.33291407  0.05904162  0.39132252  1
  O  O25  1  0.33483731  0.44467755  0.39810371  1
  O  O26  1  0.47745081  0.24876601  0.71661278  1
  O  O27  1  0.42611321  0.74700760  0.56273239  1
  O  O28  1  0.47745081  0.25123399  0.21661278  1
  O  O29  1  0.42611321  0.75299240  0.06273239  1
  O  O30  1  0.57388679  0.24700760  0.93726761  1
  O  O31  1  0.52254919  0.74876601  0.78338722  1
  O  O32  1  0.57388679  0.25299240  0.43726761  1
  O  O33  1  0.52254919  0.75123399  0.28338722  1
  O  O34  1  0.66516269  0.55532245  0.60189629  1
  O  O35  1  0.66708593  0.94095838  0.60867748  1
  O  O36  1  0.66708593  0.55904162  0.10867748  1
  O  O37  1  0.66516269  0.94467755  0.10189629  1
  O  O38  1  0.81331544  0.24039455  0.72986619  1
  O  O39  1  0.81331544  0.25960545  0.22986619  1
  O  O40  1  0.85439198  0.25546712  0.52510095  1
  O  O41  1  0.85439198  0.24453288  0.02510095  1
  O  O42  1  0.95284670  0.74257331  0.84769363  1
  O  O43  1  0.95284670  0.75742669  0.34769363  1
