# generated using pymatgen
data_Li2VF5
_symmetry_space_group_name_H-M   'P 1'
_cell_length_a   5.11942260
_cell_length_b   5.79048656
_cell_length_c   7.30221187
_cell_angle_alpha   70.95361566
_cell_angle_beta   90.08310490
_cell_angle_gamma   63.69757463
_symmetry_Int_Tables_number   1
_chemical_formula_structural   Li2VF5
_chemical_formula_sum   'Li4 V2 F10'
_cell_volume   180.68644705
_cell_formula_units_Z   2
loop_
 _symmetry_equiv_pos_site_id
 _symmetry_equiv_pos_as_xyz
  1  'x, y, z'
loop_
 _atom_site_type_symbol
 _atom_site_label
 _atom_site_symmetry_multiplicity
 _atom_site_fract_x
 _atom_site_fract_y
 _atom_site_fract_z
 _atom_site_occupancy
  Li  Li0  1  0.34614705  0.28250589  0.75630460  1
  Li  Li1  1  0.36889279  0.27952435  0.25726558  1
  Li  Li2  1  0.62963201  0.71754088  0.74487606  1
  Li  Li3  1  0.65161161  0.71538154  0.24399504  1
  V  V4  1  0.99973294  0.99911398  0.00071930  1
  V  V5  1  0.00074142  0.99774809  0.50044505  1
  F  F6  1  0.18529179  0.99953890  0.25044311  1
  F  F7  1  0.23808579  0.16635564  0.54504742  1
  F  F8  1  0.02923420  0.63937437  0.14810824  1
  F  F9  1  0.33303661  0.63742822  0.64570148  1
  F  F10  1  0.59233707  0.16874190  0.04271357  1
  F  F11  1  0.81696247  0.99755054  0.75053343  1
  F  F12  1  0.40647898  0.82879520  0.95787482  1
  F  F13  1  0.66922255  0.35790526  0.35349162  1
  F  F14  1  0.97061366  0.35955180  0.85504559  1
  F  F15  1  0.76296007  0.82957443  0.45659610  1
