# generated using pymatgen
data_Ca2Nb2CoO9
_symmetry_space_group_name_H-M   'P 1'
_cell_length_a   5.36500131
_cell_length_b   9.41138276
_cell_length_c   13.64204068
_cell_angle_alpha   90.53059177
_cell_angle_beta   90.00000000
_cell_angle_gamma   90.00000000
_symmetry_Int_Tables_number   1
_chemical_formula_structural   Ca2Nb2CoO9
_chemical_formula_sum   'Ca8 Nb8 Co4 O36'
_cell_volume   688.78548548
_cell_formula_units_Z   4
loop_
 _symmetry_equiv_pos_site_id
 _symmetry_equiv_pos_as_xyz
  1  'x, y, z'
loop_
 _atom_site_type_symbol
 _atom_site_label
 _atom_site_symmetry_multiplicity
 _atom_site_fract_x
 _atom_site_fract_y
 _atom_site_fract_z
 _atom_site_occupancy
  Ca  Ca0  1  0.50771377  0.14988098  0.59382727  1
  Ca  Ca1  1  0.99228623  0.64988098  0.09382727  1
  Ca  Ca2  1  0.02334599  0.68462832  0.56491066  1
  Ca  Ca3  1  0.49228623  0.85011902  0.40617273  1
  Ca  Ca4  1  0.00771377  0.35011902  0.90617273  1
  Ca  Ca5  1  0.52334599  0.81537168  0.93508934  1
  Ca  Ca6  1  0.47665401  0.18462832  0.06491066  1
  Ca  Ca7  1  0.97665401  0.31537168  0.43508934  1
  Nb  Nb8  1  0.97981553  0.32661948  0.16582868  1
  Nb  Nb9  1  0.99805104  0.65786152  0.33318224  1
  Nb  Nb10  1  0.02018447  0.67338052  0.83417132  1
  Nb  Nb11  1  0.52018447  0.82661948  0.66582868  1
  Nb  Nb12  1  0.00194896  0.34213848  0.66681776  1
  Nb  Nb13  1  0.49805104  0.84213848  0.16681776  1
  Nb  Nb14  1  0.47981553  0.17338052  0.33417132  1
  Nb  Nb15  1  0.50194896  0.15786152  0.83318224  1
  Co  Co16  1  0.50000000  0.50000000  0.50000000  1
  Co  Co17  1  0.00000000  0.00000000  0.00000000  1
  Co  Co18  1  0.50000000  0.50000000  0.00000000  1
  Co  Co19  1  0.00000000  0.00000000  0.50000000  1
  O  O20  1  0.21123040  0.45415649  0.57510387  1
  O  O21  1  0.29054928  0.57292721  0.89882255  1
  O  O22  1  0.70686975  0.37652759  0.57469626  1
  O  O23  1  0.20686975  0.12347241  0.92530374  1
  O  O24  1  0.21406404  0.40626317  0.05307129  1
  O  O25  1  0.42539625  0.00470747  0.74279259  1
  O  O26  1  0.29313025  0.62347241  0.42530374  1
  O  O27  1  0.07460375  0.50470747  0.24279259  1
  O  O28  1  0.07649012  0.84086104  0.91878253  1
  O  O29  1  0.42928977  0.66859606  0.07303199  1
  O  O30  1  0.79313025  0.87652759  0.07469626  1
  O  O31  1  0.79054928  0.92707279  0.60117745  1
  O  O32  1  0.70438915  0.76567727  0.78012819  1
  O  O33  1  0.92350988  0.15913896  0.08121747  1
  O  O34  1  0.78876960  0.54584351  0.42489613  1
  O  O35  1  0.78014513  0.21537066  0.74855583  1
  O  O36  1  0.70945072  0.42707279  0.10117745  1
  O  O37  1  0.92928977  0.83140394  0.42696801  1
  O  O38  1  0.20438915  0.73432273  0.71987181  1
  O  O39  1  0.71406404  0.09373683  0.44692871  1
  O  O40  1  0.28593596  0.90626317  0.55307129  1
  O  O41  1  0.20945072  0.07292721  0.39882255  1
  O  O42  1  0.92539625  0.49529253  0.75720741  1
  O  O43  1  0.28014513  0.28462934  0.75144417  1
  O  O44  1  0.21985487  0.78462934  0.25144417  1
  O  O45  1  0.71123040  0.04584351  0.92489613  1
  O  O46  1  0.57649012  0.65913896  0.58121747  1
  O  O47  1  0.78593596  0.59373683  0.94692871  1
  O  O48  1  0.29561085  0.23432273  0.21987181  1
  O  O49  1  0.42350988  0.34086104  0.41878253  1
  O  O50  1  0.07071023  0.16859606  0.57303199  1
  O  O51  1  0.79561085  0.26567727  0.28012819  1
  O  O52  1  0.71985487  0.71537066  0.24855583  1
  O  O53  1  0.57460375  0.99529253  0.25720741  1
  O  O54  1  0.57071023  0.33140394  0.92696801  1
  O  O55  1  0.28876960  0.95415649  0.07510387  1
