# generated using pymatgen
data_GdErO3
_symmetry_space_group_name_H-M   'P 1'
_cell_length_a   9.27883048
_cell_length_b   9.27723086
_cell_length_c   9.27723086
_cell_angle_alpha   109.46136590
_cell_angle_beta   109.47400490
_cell_angle_gamma   109.47130528
_symmetry_Int_Tables_number   1
_chemical_formula_structural   GdErO3
_chemical_formula_sum   'Gd8 Er8 O24'
_cell_volume   614.81649409
_cell_formula_units_Z   8
loop_
 _symmetry_equiv_pos_site_id
 _symmetry_equiv_pos_as_xyz
  1  'x, y, z'
loop_
 _atom_site_type_symbol
 _atom_site_label
 _atom_site_symmetry_multiplicity
 _atom_site_fract_x
 _atom_site_fract_y
 _atom_site_fract_z
 _atom_site_occupancy
  Gd  Gd0  1  0.49781630  0.99879774  0.99898347  1
  Gd  Gd1  1  0.71883937  0.46887239  0.24922331  1
  Gd  Gd2  1  0.78116063  0.03038393  0.75003302  1
  Gd  Gd3  1  0.75000000  0.78088604  0.03088604  1
  Gd  Gd4  1  0.75000000  0.28171522  0.53171522  1
  Gd  Gd5  1  0.00437433  0.50169340  0.00169022  1
  Gd  Gd6  1  0.00218370  0.00116617  0.50098143  1
  Gd  Gd7  1  0.49562567  0.49731589  0.49731908  1
  Er  Er8  1  0.97063178  0.25108272  0.21897439  1
  Er  Er9  1  0.46489236  0.24838826  0.71601642  1
  Er  Er10  1  0.52936822  0.74834261  0.28045194  1
  Er  Er11  1  0.25000000  0.71791497  0.46791497  1
  Er  Er12  1  0.25000000  0.21722812  0.96722812  1
  Er  Er13  1  0.21855597  0.96793341  0.25006641  1
  Er  Er14  1  0.28144403  0.53151044  0.74937745  1
  Er  Er15  1  0.03510764  0.75112407  0.78349590  1
  O  O16  1  0.75495747  0.02505354  0.48412057  1
  O  O17  1  0.74504253  0.22916210  0.27009607  1
  O  O18  1  0.26917898  0.01289746  0.04347193  1
  O  O19  1  0.97478687  0.51279053  0.24355928  1
  O  O20  1  0.46479759  0.22539300  0.45637856  1
  O  O21  1  0.76922107  0.73086459  0.26072199  1
  O  O22  1  0.45389032  0.46934022  0.22444928  1
  O  O23  1  0.04610968  0.27055996  0.01544990  1
  O  O24  1  0.72605793  0.26137096  0.77308136  1
  O  O25  1  0.01765119  0.04642467  0.27162576  1
  O  O26  1  0.48234881  0.75397457  0.02877348  1
  O  O27  1  0.77394207  0.54702443  0.53531303  1
  O  O28  1  0.27497833  0.74547995  0.23329333  1
  O  O29  1  0.50597975  0.23817891  0.96418627  1
  O  O30  1  0.22502167  0.45831500  0.47050063  1
  O  O31  1  0.99402025  0.95820653  0.73219816  1
  O  O32  1  0.53716488  0.52568375  0.76909046  1
  O  O33  1  0.96283512  0.73192558  0.98851887  1
  O  O34  1  0.52521313  0.76877241  0.53800365  1
  O  O35  1  0.23082102  0.27429395  0.74371849  1
  O  O36  1  0.03520241  0.49158097  0.76059541  1
  O  O37  1  0.73077893  0.99150092  0.96164451  1
  O  O38  1  0.24326204  0.96876070  0.51135397  1
  O  O39  1  0.25673796  0.76809193  0.72549865  1
