# generated using pymatgen
data_NaV2O5
_symmetry_space_group_name_H-M   'P 1'
_cell_length_a   9.94142391
_cell_length_b   3.67515809
_cell_length_c   12.22197705
_cell_angle_alpha   90.00002432
_cell_angle_beta   90.01266638
_cell_angle_gamma   90.00004412
_symmetry_Int_Tables_number   1
_chemical_formula_structural   NaV2O5
_chemical_formula_sum   'Na4 V8 O20'
_cell_volume   446.54586413
_cell_formula_units_Z   4
loop_
 _symmetry_equiv_pos_site_id
 _symmetry_equiv_pos_as_xyz
  1  'x, y, z'
loop_
 _atom_site_type_symbol
 _atom_site_label
 _atom_site_symmetry_multiplicity
 _atom_site_fract_x
 _atom_site_fract_y
 _atom_site_fract_z
 _atom_site_occupancy
  Na  Na0  1  0.15811760  0.25000793  0.23031065  1
  Na  Na1  1  0.34196326  0.74999730  0.73031993  1
  Na  Na2  1  0.65803292  0.24999857  0.26966858  1
  Na  Na3  1  0.84189083  0.75000122  0.76968627  1
  V  V4  1  0.06746028  0.24999951  0.58783349  1
  V  V5  1  0.12241928  0.75000137  0.99642390  1
  V  V6  1  0.37748681  0.24999853  0.49632540  1
  V  V7  1  0.43259478  0.75000021  0.08784278  1
  V  V8  1  0.56742134  0.24999943  0.91211292  1
  V  V9  1  0.62250008  0.75000029  0.50366116  1
  V  V10  1  0.87755590  0.25000003  0.00361763  1
  V  V11  1  0.93254818  0.75000020  0.41216763  1
  O  O12  1  0.01432279  0.75000137  0.29467391  1
  O  O13  1  0.05639085  0.74999987  0.54145601  1
  O  O14  1  0.07182242  0.25000101  0.04071720  1
  O  O15  1  0.21287863  0.75000014  0.88321023  1
  O  O16  1  0.23943446  0.24999937  0.61777085  1
  O  O17  1  0.26055170  0.75000097  0.11773784  1
  O  O18  1  0.28715116  0.24999893  0.38327188  1
  O  O19  1  0.42822802  0.74999871  0.54075800  1
  O  O20  1  0.44362127  0.24999977  0.04141439  1
  O  O21  1  0.48570656  0.24999818  0.79466773  1
  O  O22  1  0.51433387  0.74999992  0.20536603  1
  O  O23  1  0.55638878  0.74999977  0.95854769  1
  O  O24  1  0.57178349  0.24999894  0.45925574  1
  O  O25  1  0.71285934  0.74999956  0.61673321  1
  O  O26  1  0.73936609  0.24999939  0.88223640  1
  O  O27  1  0.76054905  0.74999944  0.38224728  1
  O  O28  1  0.78713175  0.24999990  0.11679734  1
  O  O29  1  0.92820604  0.75000030  0.95926728  1
  O  O30  1  0.94360812  0.25000000  0.45855917  1
  O  O31  1  0.98567436  0.24999988  0.70534148  1
