# generated using pymatgen
data_Ce3Th4O14
_symmetry_space_group_name_H-M   'P 1'
_cell_length_a   8.78923610
_cell_length_b   5.55882897
_cell_length_c   6.80592367
_cell_angle_alpha   114.10321447
_cell_angle_beta   97.40810540
_cell_angle_gamma   90.00000000
_symmetry_Int_Tables_number   1
_chemical_formula_structural   Ce3Th4O14
_chemical_formula_sum   'Ce3 Th4 O14'
_cell_volume   300.48734807
_cell_formula_units_Z   1
loop_
 _symmetry_equiv_pos_site_id
 _symmetry_equiv_pos_as_xyz
  1  'x, y, z'
loop_
 _atom_site_type_symbol
 _atom_site_label
 _atom_site_symmetry_multiplicity
 _atom_site_fract_x
 _atom_site_fract_y
 _atom_site_fract_z
 _atom_site_occupancy
  Ce  Ce0  1  0.14333655  0.71375064  0.42750029  1
  Ce  Ce1  1  0.42857100  0.14285700  0.28571400  1
  Ce  Ce2  1  0.71380645  0.57196436  0.14392771  1
  Th  Th3  1  0.00048231  0.00094551  0.00189203  1
  Th  Th4  1  0.28675688  0.42890644  0.85781287  1
  Th  Th5  1  0.57038612  0.85680756  0.71361613  1
  Th  Th6  1  0.85665969  0.28476849  0.56953697  1
  O  O7  1  0.07245595  0.60827559  0.71170077  1
  O  O8  1  0.07245595  0.10342618  0.71170077  1
  O  O9  1  0.35622734  0.53352236  0.56768618  1
  O  O10  1  0.35622734  0.03416382  0.56768618  1
  O  O11  1  0.21567087  0.82363073  0.14694836  1
  O  O12  1  0.21567087  0.32331763  0.14694836  1
  O  O13  1  0.50091566  0.25155018  0.00374182  1
  O  O14  1  0.64147113  0.96239637  0.42448064  1
  O  O15  1  0.78468705  0.18228882  0.85972723  1
  O  O16  1  0.78468705  0.67743941  0.85972723  1
  O  O17  1  0.64147113  0.46208427  0.42448064  1
  O  O18  1  0.50091566  0.75219164  0.00374182  1
  O  O19  1  0.92857100  0.88775780  0.28571400  1
  O  O20  1  0.92857100  0.39795620  0.28571400  1
