# generated using pymatgen
data_Li3Sb11S18
_symmetry_space_group_name_H-M   'P 1'
_cell_length_a   7.86266626
_cell_length_b   6.89637697
_cell_length_c   15.48697109
_cell_angle_alpha   90.99203513
_cell_angle_beta   74.94294426
_cell_angle_gamma   73.29688568
_symmetry_Int_Tables_number   1
_chemical_formula_structural   Li3Sb11S18
_chemical_formula_sum   'Li3 Sb11 S18'
_cell_volume   772.86719587
_cell_formula_units_Z   1
loop_
 _symmetry_equiv_pos_site_id
 _symmetry_equiv_pos_as_xyz
  1  'x, y, z'
loop_
 _atom_site_type_symbol
 _atom_site_label
 _atom_site_symmetry_multiplicity
 _atom_site_fract_x
 _atom_site_fract_y
 _atom_site_fract_z
 _atom_site_occupancy
  Li  Li0  1  0.24648613  0.99745392  0.49269030  1
  Li  Li1  1  0.42996793  0.88861755  0.19381155  1
  Li  Li2  1  0.75627066  0.00953893  0.49844049  1
  Sb  Sb3  1  0.13576083  0.29156405  0.07415580  1
  Sb  Sb4  1  0.05843119  0.14324968  0.81373772  1
  Sb  Sb5  1  0.18844215  0.52701586  0.38245035  1
  Sb  Sb6  1  0.31887056  0.47712952  0.61662773  1
  Sb  Sb7  1  0.63785483  0.28956833  0.07600361  1
  Sb  Sb8  1  0.35694835  0.71473513  0.93375165  1
  Sb  Sb9  1  0.55309739  0.14346647  0.81499945  1
  Sb  Sb10  1  0.67061201  0.52278124  0.38350395  1
  Sb  Sb11  1  0.82200990  0.48275794  0.60972256  1
  Sb  Sb12  1  0.93221643  0.88533438  0.19133627  1
  Sb  Sb13  1  0.85058752  0.71630077  0.93205478  1
  S  S14  1  0.00766819  0.99071293  0.99703127  1
  S  S15  1  0.09872893  0.13400514  0.22196731  1
  S  S16  1  0.30405414  0.53930386  0.12637033  1
  S  S17  1  0.12834603  0.20710314  0.64679104  1
  S  S18  1  0.04870292  0.71336516  0.53624710  1
  S  S19  1  0.50703047  0.97264153  0.00109690  1
  S  S20  1  0.60623224  0.13366438  0.22395273  1
  S  S21  1  0.44733281  0.28520390  0.46403233  1
  S  S22  1  0.38367230  0.77458552  0.34752487  1
  S  S23  1  0.21024557  0.43932939  0.87054764  1
  S  S24  1  0.79797574  0.54604588  0.11904530  1
  S  S25  1  0.61530731  0.21056237  0.64962072  1
  S  S26  1  0.55615019  0.71345926  0.53633556  1
  S  S27  1  0.39916716  0.86673374  0.77924975  1
  S  S28  1  0.94878464  0.27313518  0.46453111  1
  S  S29  1  0.87581389  0.79412693  0.35317045  1
  S  S30  1  0.70729318  0.44787992  0.87176315  1
  S  S31  1  0.89994041  0.86862601  0.77743524  1
