# generated using pymatgen
data_Na2Cu(SO5)2
_symmetry_space_group_name_H-M   'P 1'
_cell_length_a   5.50205398
_cell_length_b   6.30150522
_cell_length_c   12.86141073
_cell_angle_alpha   90.00000000
_cell_angle_beta   90.00000000
_cell_angle_gamma   114.13019805
_symmetry_Int_Tables_number   1
_chemical_formula_structural   Na2Cu(SO5)2
_chemical_formula_sum   'Na4 Cu2 S4 O20'
_cell_volume   406.95574536
_cell_formula_units_Z   2
loop_
 _symmetry_equiv_pos_site_id
 _symmetry_equiv_pos_as_xyz
  1  'x, y, z'
loop_
 _atom_site_type_symbol
 _atom_site_label
 _atom_site_symmetry_multiplicity
 _atom_site_fract_x
 _atom_site_fract_y
 _atom_site_fract_z
 _atom_site_occupancy
  Na  Na0  1  0.28956502  0.42026718  0.63631361  1
  Na  Na1  1  0.21043498  0.57973282  0.13631361  1
  Na  Na2  1  0.71043498  0.57973282  0.36368639  1
  Na  Na3  1  0.78956502  0.42026718  0.86368639  1
  Cu  Cu4  1  0.50000000  0.00000000  0.50000000  1
  Cu  Cu5  1  0.00000000  0.00000000  -0.00000000  1
  S  S6  1  0.52059097  0.23758839  0.11979165  1
  S  S7  1  0.97940903  0.76241161  0.61979165  1
  S  S8  1  0.47940903  0.76241161  0.88020835  1
  S  S9  1  0.02059097  0.23758839  0.38020835  1
  O  O10  1  0.91915286  0.99637680  0.33973715  1
  O  O11  1  0.58084714  0.00362320  0.83973715  1
  O  O12  1  0.08084714  0.00362320  0.66026285  1
  O  O13  1  0.41915286  0.99637680  0.16026285  1
  O  O14  1  0.27899795  0.29985140  0.43231873  1
  O  O15  1  0.22100205  0.70014860  0.93231873  1
  O  O16  1  0.72100205  0.70014860  0.56768127  1
  O  O17  1  0.77899795  0.29985140  0.06768127  1
  O  O18  1  0.82422077  0.24778701  0.46632983  1
  O  O19  1  0.67577923  0.75221299  0.96632983  1
  O  O20  1  0.17577923  0.75221299  0.53367017  1
  O  O21  1  0.32422077  0.24778701  0.03367017  1
  O  O22  1  0.02525569  0.40848980  0.30202017  1
  O  O23  1  0.47474431  0.59151020  0.80202017  1
  O  O24  1  0.97474431  0.59151020  0.69797983  1
  O  O25  1  0.52525569  0.40848980  0.19797983  1
  O  O26  1  0.48525049  0.86418941  0.37873015  1
  O  O27  1  0.01474951  0.13581059  0.87873015  1
  O  O28  1  0.51474951  0.13581059  0.62126985  1
  O  O29  1  0.98525049  0.86418941  0.12126985  1
