# generated using pymatgen
data_Ba2Ce2O5
_symmetry_space_group_name_H-M   'P 1'
_cell_length_a   6.24336162
_cell_length_b   12.75001121
_cell_length_c   4.47663822
_cell_angle_alpha   90.00035971
_cell_angle_beta   89.99835602
_cell_angle_gamma   90.01359728
_symmetry_Int_Tables_number   1
_chemical_formula_structural   Ba2Ce2O5
_chemical_formula_sum   'Ba4 Ce4 O10'
_cell_volume   356.35351185
_cell_formula_units_Z   2
loop_
 _symmetry_equiv_pos_site_id
 _symmetry_equiv_pos_as_xyz
  1  'x, y, z'
loop_
 _atom_site_type_symbol
 _atom_site_label
 _atom_site_symmetry_multiplicity
 _atom_site_fract_x
 _atom_site_fract_y
 _atom_site_fract_z
 _atom_site_occupancy
  Ba  Ba0  1  0.24719707  0.89480363  0.49999654  1
  Ba  Ba1  1  0.25278729  0.39482247  0.50001333  1
  Ba  Ba2  1  0.74717679  0.60528246  0.49998679  1
  Ba  Ba3  1  0.75281705  0.10512545  0.50000039  1
  Ce  Ce4  1  0.24322086  0.63760366  0.00000770  1
  Ce  Ce5  1  0.25681080  0.13762572  0.99998562  1
  Ce  Ce6  1  0.74313219  0.86240223  0.00001028  1
  Ce  Ce7  1  0.75688776  0.36238447  -0.00000157  1
  O  O8  1  -0.00000731  0.99997528  0.00000265  1
  O  O9  1  0.10022566  0.29335698  0.99999835  1
  O  O10  1  0.19379246  0.60388549  0.50000611  1
  O  O11  1  0.30621076  0.10382830  0.49999111  1
  O  O12  1  0.39990055  0.79342223  0.00000810  1
  O  O13  1  0.49994654  0.50001912  -0.00001204  1
  O  O14  1  0.60011921  0.20654241  0.00001168  1
  O  O15  1  0.69378465  0.89612874  0.50000053  1
  O  O16  1  0.80618839  0.39615814  0.49999497  1
  O  O17  1  0.89980928  0.70663322  -0.00000053  1
