# generated using pymatgen
data_Li2CrO3
_symmetry_space_group_name_H-M   'P 1'
_cell_length_a   5.94482292
_cell_length_b   5.94482292
_cell_length_c   5.35454603
_cell_angle_alpha   56.51658813
_cell_angle_beta   123.48341187
_cell_angle_gamma   121.30186978
_symmetry_Int_Tables_number   1
_chemical_formula_structural   Li2CrO3
_chemical_formula_sum   'Li4 Cr2 O6'
_cell_volume   125.18148732
_cell_formula_units_Z   2
loop_
 _symmetry_equiv_pos_site_id
 _symmetry_equiv_pos_as_xyz
  1  'x, y, z'
loop_
 _atom_site_type_symbol
 _atom_site_label
 _atom_site_symmetry_multiplicity
 _atom_site_fract_x
 _atom_site_fract_y
 _atom_site_fract_z
 _atom_site_occupancy
  Li  Li0  1  0.26147933  0.58577908  0.75235604  1
  Li  Li1  1  0.41422092  0.73852067  0.25235604  1
  Li  Li2  1  0.58577908  0.26147933  0.74764396  1
  Li  Li3  1  0.73852067  0.41422092  0.24764396  1
  Cr  Cr4  1  0.91401652  0.91401652  0.75000000  1
  Cr  Cr5  1  0.08598348  0.08598348  0.25000000  1
  O  O6  1  0.21589399  0.91727056  0.73440807  1
  O  O7  1  0.08272944  0.78410601  0.23440807  1
  O  O8  1  0.61049637  0.61049637  0.75000000  1
  O  O9  1  0.38950363  0.38950363  0.25000000  1
  O  O10  1  0.91727056  0.21589399  0.76559193  1
  O  O11  1  0.78410601  0.08272944  0.26559193  1
