# generated using pymatgen
data_Mg(CoO2)4
_symmetry_space_group_name_H-M   'P 1'
_cell_length_a   2.85141399
_cell_length_b   6.79286194
_cell_length_c   6.98127289
_cell_angle_alpha   81.35869083
_cell_angle_beta   78.22066132
_cell_angle_gamma   77.89351687
_symmetry_Int_Tables_number   1
_chemical_formula_structural   Mg(CoO2)4
_chemical_formula_sum   'Mg1 Co4 O8'
_cell_volume   128.61252872
_cell_formula_units_Z   1
loop_
 _symmetry_equiv_pos_site_id
 _symmetry_equiv_pos_as_xyz
  1  'x, y, z'
loop_
 _atom_site_type_symbol
 _atom_site_label
 _atom_site_symmetry_multiplicity
 _atom_site_fract_x
 _atom_site_fract_y
 _atom_site_fract_z
 _atom_site_occupancy
  Mg  Mg0  1  0.35222610  0.12233101  0.18490643  1
  Co  Co1  1  0.63906174  0.16943828  0.56427232  1
  Co  Co2  1  0.15281977  0.50639400  0.20025914  1
  Co  Co3  1  0.84410095  0.48892537  0.83498069  1
  Co  Co4  1  0.35879981  0.80159783  0.49266901  1
  O  O5  1  0.86863419  0.66079548  0.61381016  1
  O  O6  1  0.46091753  0.32464151  0.76543422  1
  O  O7  1  0.53972247  0.66467882  0.26824904  1
  O  O8  1  0.14331909  0.30371828  0.42169538  1
  O  O9  1  0.16709452  0.00794792  0.66956272  1
  O  O10  1  0.79325895  0.33389042  0.09149687  1
  O  O11  1  0.83708428  0.97635884  0.36124863  1
  O  O12  1  0.22112359  0.62992023  0.94020739  1
