# generated using pymatgen
data_Li4VCr3O8
_symmetry_space_group_name_H-M   'P 1'
_cell_length_a   5.13936850
_cell_length_b   5.96145746
_cell_length_c   10.71017105
_cell_angle_alpha   106.02028764
_cell_angle_beta   85.33285277
_cell_angle_gamma   73.08513769
_symmetry_Int_Tables_number   1
_chemical_formula_structural   Li4VCr3O8
_chemical_formula_sum   'Li8 V2 Cr6 O16'
_cell_volume   297.05182540
_cell_formula_units_Z   2
loop_
 _symmetry_equiv_pos_site_id
 _symmetry_equiv_pos_as_xyz
  1  'x, y, z'
loop_
 _atom_site_type_symbol
 _atom_site_label
 _atom_site_symmetry_multiplicity
 _atom_site_fract_x
 _atom_site_fract_y
 _atom_site_fract_z
 _atom_site_occupancy
  Li  Li0  1  0.00313610  0.12345514  0.74987065  1
  Li  Li1  1  0.99715621  0.00146532  -0.00000748  1
  Li  Li2  1  0.99687390  0.25152374  0.50013083  1
  Li  Li3  1  0.00283579  0.37352183  0.24999407  1
  Li  Li4  1  0.00074192  0.62523410  0.74969203  1
  Li  Li5  1  0.99899380  0.49978303  0.00039563  1
  Li  Li6  1  0.99927918  0.74974329  0.50032688  1
  Li  Li7  1  0.00097491  0.87521996  0.24958133  1
  V  V8  1  0.49997103  0.56256525  0.87513521  1
  V  V9  1  0.50004145  0.81243317  0.37485645  1
  Cr  Cr10  1  0.50007205  0.06236940  0.87489248  1
  Cr  Cr11  1  0.50002766  0.18751640  0.62501606  1
  Cr  Cr12  1  0.49991823  0.31264466  0.37512347  1
  Cr  Cr13  1  0.49967440  0.43682890  0.12489388  1
  Cr  Cr14  1  0.50000549  0.68750431  0.62501436  1
  Cr  Cr15  1  0.50028688  0.93816597  0.12508757  1
  O  O16  1  0.27298047  0.08910528  0.31063594  1
  O  O17  1  0.72857197  0.04096337  0.44008321  1
  O  O18  1  0.27150528  0.33417322  0.80998162  1
  O  O19  1  0.72709377  0.28578742  0.93935972  1
  O  O20  1  0.72463260  0.16347138  0.18948962  1
  O  O21  1  0.27534302  0.21150832  0.06048898  1
  O  O22  1  0.27508265  0.46243600  0.56108037  1
  O  O23  1  0.72633310  0.41243843  0.68880231  1
  O  O24  1  0.27153225  0.58371301  0.30969117  1
  O  O25  1  0.72675077  0.53634692  0.43957942  1
  O  O26  1  0.27319787  0.83874182  0.81040100  1
  O  O27  1  0.72837285  0.79116603  0.94026073  1
  O  O28  1  0.27337521  0.71354994  0.06180261  1
  O  O29  1  0.27376128  0.96257884  0.56121055  1
  O  O30  1  0.72653946  0.66148519  0.18816844  1
  O  O31  1  0.72493646  0.91255938  0.68895891  1
