# generated using pymatgen
data_Ba4Sn3O10
_symmetry_space_group_name_H-M   'P 1'
_cell_length_a   5.93575650
_cell_length_b   15.42004588
_cell_length_c   30.26012550
_cell_angle_alpha   11.12917976
_cell_angle_beta   89.99990820
_cell_angle_gamma   89.99983245
_symmetry_Int_Tables_number   1
_chemical_formula_structural   Ba4Sn3O10
_chemical_formula_sum   'Ba8 Sn6 O20'
_cell_volume   534.61187008
_cell_formula_units_Z   2
loop_
 _symmetry_equiv_pos_site_id
 _symmetry_equiv_pos_as_xyz
  1  'x, y, z'
loop_
 _atom_site_type_symbol
 _atom_site_label
 _atom_site_symmetry_multiplicity
 _atom_site_fract_x
 _atom_site_fract_y
 _atom_site_fract_z
 _atom_site_occupancy
  Ba  Ba0  1  0.00000356  0.99996376  0.56935519  1
  Ba  Ba1  1  0.99998997  0.00000092  0.29679664  1
  Ba  Ba2  1  0.99998604  0.99998323  0.70319090  1
  Ba  Ba3  1  -0.00000428  0.99997318  0.43066252  1
  Ba  Ba4  1  0.50000435  0.00002500  0.06932441  1
  Ba  Ba5  1  0.49998940  0.00000932  0.20317694  1
  Ba  Ba6  1  0.49999053  0.00001880  0.79679076  1
  Ba  Ba7  1  0.49999920  0.00003188  0.93064408  1
  Sn  Sn8  1  0.00001985  0.99998311  0.00000478  1
  Sn  Sn9  1  0.99998331  -0.00000048  0.13925068  1
  Sn  Sn10  1  0.99998705  -0.00000388  0.86073810  1
  Sn  Sn11  1  0.50001876  0.00001510  0.49999083  1
  Sn  Sn12  1  0.49998519  0.00000559  0.36073448  1
  Sn  Sn13  1  0.49998783  0.00000068  0.63925440  1
  O  O14  1  0.99999783  0.99996944  0.06941358  1
  O  O15  1  0.99999647  0.00002527  0.20814135  1
  O  O16  1  0.99999888  0.00002753  0.79181597  1
  O  O17  1  0.99999902  0.99996935  0.93060614  1
  O  O18  1  0.22196441  0.55538290  0.72230755  1
  O  O19  1  0.23670351  0.47381781  0.12461036  1
  O  O20  1  0.23670386  0.47381138  0.40156881  1
  O  O21  1  0.26319078  0.47392334  0.90149546  1
  O  O22  1  0.26318787  0.47391775  0.62457946  1
  O  O23  1  0.27821199  0.55560171  0.22219851  1
  O  O24  1  0.49999595  0.00002379  0.56938824  1
  O  O25  1  0.49999908  0.99997878  0.29184053  1
  O  O26  1  0.49999325  0.99998293  0.70816751  1
  O  O27  1  0.49999900  0.00002274  0.43058290  1
  O  O28  1  0.72196187  0.44462018  0.77768936  1
  O  O29  1  0.73670734  0.52618152  0.09842954  1
  O  O30  1  0.73670520  0.52617863  0.37538539  1
  O  O31  1  0.76318687  0.52608310  0.87541594  1
  O  O32  1  0.76318951  0.52608071  0.59849666  1
  O  O33  1  0.77821056  0.44439492  0.27780306  1
