# generated using pymatgen
data_LiFeBO3
_symmetry_space_group_name_H-M   'P 1'
_cell_length_a   8.24054862
_cell_length_b   8.23664692
_cell_length_c   3.12530414
_cell_angle_alpha   90.00000000
_cell_angle_beta   90.00000000
_cell_angle_gamma   119.99831192
_symmetry_Int_Tables_number   1
_chemical_formula_structural   LiFeBO3
_chemical_formula_sum   'Li3 Fe3 B3 O9'
_cell_volume   183.71172782
_cell_formula_units_Z   3
loop_
 _symmetry_equiv_pos_site_id
 _symmetry_equiv_pos_as_xyz
  1  'x, y, z'
loop_
 _atom_site_type_symbol
 _atom_site_label
 _atom_site_symmetry_multiplicity
 _atom_site_fract_x
 _atom_site_fract_y
 _atom_site_fract_z
 _atom_site_occupancy
  Li  Li0  1  0.28613943  0.98407569  0.50000000  1
  Li  Li1  1  0.01586485  0.30211386  0.50000000  1
  Li  Li2  1  0.69792185  0.71377311  0.50000000  1
  Fe  Fe3  1  0.36729157  0.35950550  0.00000000  1
  Fe  Fe4  1  0.64047384  0.00783155  0.00000000  1
  Fe  Fe5  1  0.99215507  0.63258034  0.00000000  1
  B  B6  1  0.33358866  0.66673484  0.50000000  1
  B  B7  1  0.00036189  0.00050152  0.00000000  1
  B  B8  1  0.66666345  0.33336210  0.50000000  1
  O  O9  1  0.10975840  0.91535096  0.00000000  1
  O  O10  1  0.13909178  0.58054454  0.50000000  1
  O  O11  1  0.08438099  0.19405953  0.00000000  1
  O  O12  1  0.44134761  0.86082868  0.50000000  1
  O  O13  1  0.41945504  0.55877770  0.50000000  1
  O  O14  1  0.47253239  0.25388585  0.50000000  1
  O  O15  1  0.80538206  0.89005268  0.00000000  1
  O  O16  1  0.78144674  0.52746903  0.50000000  1
  O  O17  1  0.74614440  0.21855250  0.50000000  1
