# generated using pymatgen
data_Cr7Ni20Mo3
_symmetry_space_group_name_H-M   'P 1'
_cell_length_a   6.20316969
_cell_length_b   6.20333427
_cell_length_c   18.95314590
_cell_angle_alpha   90.11906711
_cell_angle_beta   96.30080498
_cell_angle_gamma   108.52057002
_symmetry_Int_Tables_number   1
_chemical_formula_structural   Cr7Ni20Mo3
_chemical_formula_sum   'Cr14 Ni40 Mo6'
_cell_volume   686.84598426
_cell_formula_units_Z   2
loop_
 _symmetry_equiv_pos_site_id
 _symmetry_equiv_pos_as_xyz
  1  'x, y, z'
loop_
 _atom_site_type_symbol
 _atom_site_label
 _atom_site_symmetry_multiplicity
 _atom_site_fract_x
 _atom_site_fract_y
 _atom_site_fract_z
 _atom_site_occupancy
  Cr  Cr0  1  0.79977997  0.60023652  0.79989224  1
  Cr  Cr1  1  0.30010316  0.09978993  0.79997593  1
  Cr  Cr2  1  0.54917346  0.84921472  0.79994735  1
  Cr  Cr3  1  0.05085568  0.35064258  0.79989700  1
  Cr  Cr4  1  0.59650499  0.20437007  0.60034549  1
  Cr  Cr5  1  0.35001146  0.44955485  0.60038924  1
  Cr  Cr6  1  0.10328976  0.69614384  0.60044524  1
  Cr  Cr7  1  0.89999260  0.30046262  0.40066221  1
  Cr  Cr8  1  0.65436942  0.54459628  0.40063841  1
  Cr  Cr9  1  0.14668969  0.05494153  0.40063270  1
  Cr  Cr10  1  0.44987350  0.15017701  0.19997609  1
  Cr  Cr11  1  0.49552566  0.50329480  0.99905473  1
  Cr  Cr12  1  0.00402865  0.99632473  0.99911539  1
  Cr  Cr13  1  0.24965348  0.75055673  0.99905143  1
  Ni  Ni14  1  0.40034192  0.46625880  0.73322439  1
  Ni  Ni15  1  0.90055771  0.96676729  0.73476635  1
  Ni  Ni16  1  0.14930071  0.71739333  0.73328958  1
  Ni  Ni17  1  0.65028805  0.21602661  0.73296892  1
  Ni  Ni18  1  0.20405714  0.06768100  0.53270473  1
  Ni  Ni19  1  0.44633832  0.81471469  0.53434732  1
  Ni  Ni20  1  0.95170021  0.32035060  0.53261558  1
  Ni  Ni21  1  0.69714161  0.56356006  0.53272003  1
  Ni  Ni22  1  0.50197791  0.17038488  0.33314301  1
  Ni  Ni23  1  0.24773561  0.41332430  0.33478397  1
  Ni  Ni24  1  0.75512410  0.91820214  0.33444479  1
  Ni  Ni25  1  0.99635679  0.66481650  0.33489479  1
  Ni  Ni26  1  0.54838809  0.51219341  0.13087874  1
  Ni  Ni27  1  0.05211354  0.01785604  0.13090414  1
  Ni  Ni28  1  0.29997483  0.76988639  0.13064080  1
  Ni  Ni29  1  0.79585163  0.26558139  0.13250482  1
  Ni  Ni30  1  0.34575792  0.11456783  0.93243602  1
  Ni  Ni31  1  0.10338877  0.36834803  0.93219267  1
  Ni  Ni32  1  0.59792068  0.86240435  0.93215295  1
  Ni  Ni33  1  0.85160654  0.62028682  0.93210679  1
  Ni  Ni34  1  0.74823953  0.57982143  0.66748886  1
  Ni  Ni35  1  0.25416372  0.08536361  0.66750990  1
  Ni  Ni36  1  0.49652299  0.83163507  0.66773518  1
  Ni  Ni37  1  0.00209920  0.33737016  0.66740725  1
  Ni  Ni38  1  0.55282090  0.18688033  0.46729998  1
  Ni  Ni39  1  0.80411763  0.93536170  0.46617130  1
  Ni  Ni40  1  0.29825419  0.42960511  0.46768534  1
  Ni  Ni41  1  0.04593151  0.68214757  0.46769970  1
  Ni  Ni42  1  0.84756768  0.28267469  0.26946802  1
  Ni  Ni43  1  0.59939122  0.53074276  0.26908227  1
  Ni  Ni44  1  0.10508939  0.03418481  0.26911819  1
  Ni  Ni45  1  0.35137510  0.78716932  0.26745749  1
  Ni  Ni46  1  0.90144668  0.63703672  0.06522425  1
  Ni  Ni47  1  0.39646073  0.13155478  0.06694966  1
  Ni  Ni48  1  0.64829637  0.87852956  0.06535129  1
  Ni  Ni49  1  0.15292668  0.38582378  0.06534709  1
  Ni  Ni50  1  0.69921552  0.23326247  0.86506205  1
  Ni  Ni51  1  0.45072889  0.48261564  0.86660460  1
  Ni  Ni52  1  0.94956109  0.98396508  0.86695067  1
  Ni  Ni53  1  0.19970360  0.73376778  0.86664473  1
  Mo  Mo54  1  0.85097479  0.95002161  0.60042290  1
  Mo  Mo55  1  0.39988255  0.80034734  0.40081274  1
  Mo  Mo56  1  0.94970268  0.65022439  0.19993905  1
  Mo  Mo57  1  0.69450576  0.90536356  0.19992604  1
  Mo  Mo58  1  0.20613267  0.39395198  0.19998371  1
  Mo  Mo59  1  0.74911539  0.24966808  0.99891390  1
