# generated using pymatgen
data_Li4V3CrO8
_symmetry_space_group_name_H-M   'P 1'
_cell_length_a   5.17035819
_cell_length_b   7.91484499
_cell_length_c   7.91002186
_cell_angle_alpha   81.97444144
_cell_angle_beta   70.96499892
_cell_angle_gamma   83.75237422
_symmetry_Int_Tables_number   1
_chemical_formula_structural   Li4V3CrO8
_chemical_formula_sum   'Li8 V6 Cr2 O16'
_cell_volume   302.30815002
_cell_formula_units_Z   2
loop_
 _symmetry_equiv_pos_site_id
 _symmetry_equiv_pos_as_xyz
  1  'x, y, z'
loop_
 _atom_site_type_symbol
 _atom_site_label
 _atom_site_symmetry_multiplicity
 _atom_site_fract_x
 _atom_site_fract_y
 _atom_site_fract_z
 _atom_site_occupancy
  Li  Li0  1  0.00027937  0.99961570  0.00091540  1
  Li  Li1  1  0.99759244  0.25000268  0.25196910  1
  Li  Li2  1  0.00228549  0.62495390  0.12312254  1
  Li  Li3  1  0.00020411  0.12753724  0.62443136  1
  Li  Li4  1  0.99786587  0.49848013  0.50222640  1
  Li  Li5  1  0.99960737  0.87533993  0.37412905  1
  Li  Li6  1  0.00217931  0.37657363  0.87275355  1
  Li  Li7  1  0.00001058  0.74742183  0.75046006  1
  V  V8  1  0.49983067  0.06277323  0.31254796  1
  V  V9  1  0.49997817  0.43751707  0.18750870  1
  V  V10  1  0.50024346  0.81225999  0.06238822  1
  V  V11  1  0.50110026  0.68764997  0.43674720  1
  V  V12  1  0.49891542  0.18734342  0.93825838  1
  V  V13  1  0.50001288  0.93749942  0.68750345  1
  Cr  Cr14  1  0.49958315  0.31349617  0.56353097  1
  Cr  Cr15  1  0.50024384  0.56147202  0.81155164  1
  O  O16  1  0.26677869  0.02934070  0.15439908  1
  O  O17  1  0.72952669  0.21959680  0.09848526  1
  O  O18  1  0.27295956  0.40537307  0.02431601  1
  O  O19  1  0.72575873  0.09648165  0.47520900  1
  O  O20  1  0.27322512  0.28172947  0.40284327  1
  O  O21  1  0.27050809  0.65546463  0.27654840  1
  O  O22  1  0.72700069  0.46965912  0.35074277  1
  O  O23  1  0.27309568  0.15727190  0.77648992  1
  O  O24  1  0.27425031  0.52898224  0.65239561  1
  O  O25  1  0.73329243  0.84571674  0.22048625  1
  O  O26  1  0.72565004  0.34596987  0.72267732  1
  O  O27  1  0.27038147  0.90547282  0.52649155  1
  O  O28  1  0.72689237  0.71768144  0.59851660  1
  O  O29  1  0.27424229  0.77851940  0.89978205  1
  O  O30  1  0.72676220  0.59328731  0.97213289  1
  O  O31  1  0.72974328  0.96951550  0.84844106  1
