# generated using pymatgen
data_Li4VCr3O8
_symmetry_space_group_name_H-M   'P 1'
_cell_length_a   5.14755987
_cell_length_b   5.95200772
_cell_length_c   10.28911967
_cell_angle_alpha   89.76496652
_cell_angle_beta   80.30404057
_cell_angle_gamma   73.00072135
_symmetry_Int_Tables_number   1
_chemical_formula_structural   Li4VCr3O8
_chemical_formula_sum   'Li8 V2 Cr6 O16'
_cell_volume   296.82068851
_cell_formula_units_Z   2
loop_
 _symmetry_equiv_pos_site_id
 _symmetry_equiv_pos_as_xyz
  1  'x, y, z'
loop_
 _atom_site_type_symbol
 _atom_site_label
 _atom_site_symmetry_multiplicity
 _atom_site_fract_x
 _atom_site_fract_y
 _atom_site_fract_z
 _atom_site_occupancy
  Li  Li0  1  -0.00001741  0.99969755  0.00110047  1
  Li  Li1  1  0.00203361  0.99850864  0.49934830  1
  Li  Li2  1  0.00000947  0.24999647  0.24998486  1
  Li  Li3  1  0.99997067  0.24997466  0.75003445  1
  Li  Li4  1  0.99802602  0.50144977  0.00062016  1
  Li  Li5  1  0.00003914  0.50033068  0.49885927  1
  Li  Li6  1  0.00000199  0.75000290  0.24999470  1
  Li  Li7  1  0.99993575  0.75005988  0.75002564  1
  V  V8  1  0.49974518  0.12750996  0.87361833  1
  V  V9  1  0.50024573  0.37251428  0.62637455  1
  Cr  Cr10  1  0.49979523  0.12412051  0.37513947  1
  Cr  Cr11  1  0.50021333  0.37586569  0.12485386  1
  Cr  Cr12  1  0.50029243  0.62393832  0.37492575  1
  Cr  Cr13  1  0.49961169  0.62795175  0.87555296  1
  Cr  Cr14  1  0.49971952  0.87605264  0.12507558  1
  Cr  Cr15  1  0.50037267  0.87207798  0.62444914  1
  O  O16  1  0.27457700  0.18325879  0.06046053  1
  O  O17  1  0.27273411  0.17754662  0.56010110  1
  O  O18  1  0.72491113  0.06845097  0.18934718  1
  O  O19  1  0.73165556  0.06292151  0.68774734  1
  O  O20  1  0.27508817  0.43152596  0.31065917  1
  O  O21  1  0.72545844  0.31671724  0.43953246  1
  O  O22  1  0.26834153  0.43706383  0.81228806  1
  O  O23  1  0.72730463  0.32251828  0.93992110  1
  O  O24  1  0.27465143  0.68333893  0.06099201  1
  O  O25  1  0.72467068  0.56882262  0.18964662  1
  O  O26  1  0.27513014  0.67976479  0.56042845  1
  O  O27  1  0.72769029  0.56896613  0.69118186  1
  O  O28  1  0.27533711  0.93114749  0.31036065  1
  O  O29  1  0.72534781  0.81665551  0.43900990  1
  O  O30  1  0.27226141  0.93099568  0.80879869  1
  O  O31  1  0.72484455  0.82025398  0.93956739  1
