# generated using pymatgen
data_Na3Mn2P2(CO7)2
_symmetry_space_group_name_H-M   'P 1'
_cell_length_a   8.97515106
_cell_length_b   8.35194885
_cell_length_c   8.46937191
_cell_angle_alpha   103.63135024
_cell_angle_beta   90.01530409
_cell_angle_gamma   88.09836477
_symmetry_Int_Tables_number   1
_chemical_formula_structural   Na3Mn2P2(CO7)2
_chemical_formula_sum   'Na6 Mn4 P4 C4 O28'
_cell_volume   616.62297297
_cell_formula_units_Z   2
loop_
 _symmetry_equiv_pos_site_id
 _symmetry_equiv_pos_as_xyz
  1  'x, y, z'
loop_
 _atom_site_type_symbol
 _atom_site_label
 _atom_site_symmetry_multiplicity
 _atom_site_fract_x
 _atom_site_fract_y
 _atom_site_fract_z
 _atom_site_occupancy
  Na  Na0  1  0.76335239  0.38184856  0.38293144  1
  Na  Na1  1  0.75921561  0.61376107  0.12510479  1
  Na  Na2  1  0.75418242  0.89253631  0.86008012  1
  Na  Na3  1  0.24581758  0.10746369  0.13991988  1
  Na  Na4  1  0.24078439  0.38623893  0.87489521  1
  Na  Na5  1  0.23664761  0.61815144  0.61706856  1
  Mn  Mn6  1  0.65811122  0.47171826  0.73280394  1
  Mn  Mn7  1  0.64766547  0.98182842  0.23852252  1
  Mn  Mn8  1  0.34188878  0.52828174  0.26719606  1
  Mn  Mn9  1  0.35233453  0.01817158  0.76147748  1
  P  P10  1  0.57422738  0.26629422  0.02900537  1
  P  P11  1  0.57353303  0.76948628  0.51132410  1
  P  P12  1  0.42646697  0.23051372  0.48867590  1
  P  P13  1  0.42577262  0.73370578  0.97099463  1
  C  C14  1  0.91939666  0.00531471  0.26009437  1
  C  C15  1  0.92532930  0.51192233  0.75833363  1
  C  C16  1  0.07467070  0.48807767  0.24166637  1
  C  C17  1  0.08060334  0.99468529  0.73990563  1
  O  O18  1  0.93751354  0.46922619  0.22862047  1
  O  O19  1  0.94552660  0.97696480  0.73086419  1
  O  O20  1  0.86307276  0.39645548  0.64932063  1
  O  O21  1  0.85150620  0.89110635  0.15106380  1
  O  O22  1  0.81936364  0.10010195  0.35724597  1
  O  O23  1  0.82493953  0.60682914  0.85498151  1
  O  O24  1  0.66516900  0.12865090  0.08883440  1
  O  O25  1  0.68103071  0.64832857  0.56608927  1
  O  O26  1  0.67344250  0.33167681  0.91534993  1
  O  O27  1  0.65944544  0.82854474  0.37550407  1
  O  O28  1  0.53203510  0.40940850  0.17969877  1
  O  O29  1  0.57545612  0.30595236  0.55367821  1
  O  O30  1  0.57358074  0.80543935  0.05136120  1
  O  O31  1  0.53546754  0.91548723  0.66241844  1
  O  O32  1  0.46453246  0.08451277  0.33758156  1
  O  O33  1  0.42641926  0.19456065  0.94863880  1
  O  O34  1  0.42454388  0.69404764  0.44632179  1
  O  O35  1  0.46796490  0.59059150  0.82030123  1
  O  O36  1  0.34055456  0.17145526  0.62449593  1
  O  O37  1  0.31896929  0.35167143  0.43391073  1
  O  O38  1  0.32655750  0.66832319  0.08465007  1
  O  O39  1  0.33483100  0.87134910  0.91116560  1
  O  O40  1  0.17506047  0.39317086  0.14501849  1
  O  O41  1  0.18063636  0.89989805  0.64275403  1
  O  O42  1  0.14849380  0.10889365  0.84893620  1
  O  O43  1  0.13692724  0.60354452  0.35067937  1
  O  O44  1  0.05447340  0.02303520  0.26913581  1
  O  O45  1  0.06248646  0.53077381  0.77137953  1
