# generated using pymatgen
data_Li2FePCO7
_symmetry_space_group_name_H-M   'P 1'
_cell_length_a   5.06302658
_cell_length_b   6.34313955
_cell_length_c   8.50646039
_cell_angle_alpha   96.09165341
_cell_angle_beta   93.04625948
_cell_angle_gamma   94.25287046
_symmetry_Int_Tables_number   1
_chemical_formula_structural   Li2FePCO7
_chemical_formula_sum   'Li4 Fe2 P2 C2 O14'
_cell_volume   270.38526987
_cell_formula_units_Z   2
loop_
 _symmetry_equiv_pos_site_id
 _symmetry_equiv_pos_as_xyz
  1  'x, y, z'
loop_
 _atom_site_type_symbol
 _atom_site_label
 _atom_site_symmetry_multiplicity
 _atom_site_fract_x
 _atom_site_fract_y
 _atom_site_fract_z
 _atom_site_occupancy
  Li  Li0  1  0.27644785  0.05654583  0.74476183  1
  Li  Li1  1  0.38397858  0.57413475  0.75849968  1
  Li  Li2  1  0.66965011  0.60732141  0.19071846  1
  Li  Li3  1  0.77690323  0.12524022  0.20441969  1
  Fe  Fe4  1  0.21689649  0.83910536  0.32437229  1
  Fe  Fe5  1  0.83677794  0.34278006  0.62464449  1
  P  P6  1  0.31531633  0.34848019  0.39692315  1
  P  P7  1  0.73838715  0.83333554  0.55213057  1
  C  C8  1  0.28373722  0.84260430  0.03411963  1
  C  C9  1  0.77048042  0.33897866  0.91489229  1
  O  O10  1  0.05244755  0.81054330  0.09075339  1
  O  O11  1  0.20176475  0.41713719  0.56026354  1
  O  O12  1  0.14334965  0.15012657  0.31682851  1
  O  O13  1  0.31239580  0.53242327  0.29187088  1
  O  O14  1  0.32383463  0.83988283  0.88817972  1
  O  O15  1  0.44536457  0.89098298  0.52711121  1
  O  O16  1  0.57030952  0.30535076  0.80361821  1
  O  O17  1  0.48394503  0.87620742  0.14538663  1
  O  O18  1  0.60837495  0.29083951  0.42181523  1
  O  O19  1  0.73010124  0.34180232  0.06088613  1
  O  O20  1  0.74129830  0.64948684  0.65727741  1
  O  O21  1  0.85209118  0.76446614  0.38884404  1
  O  O22  1  0.00176278  0.37101622  0.85835793  1
  O  O23  1  0.91030073  0.03175635  0.63209807  1
