# generated using pymatgen
data_MnP2O7
_symmetry_space_group_name_H-M   'P 1'
_cell_length_a   4.94368477
_cell_length_b   6.55284510
_cell_length_c   15.32018902
_cell_angle_alpha   90.00000000
_cell_angle_beta   90.20154520
_cell_angle_gamma   90.00000000
_symmetry_Int_Tables_number   1
_chemical_formula_structural   MnP2O7
_chemical_formula_sum   'Mn4 P8 O28'
_cell_volume   496.29752535
_cell_formula_units_Z   4
loop_
 _symmetry_equiv_pos_site_id
 _symmetry_equiv_pos_as_xyz
  1  'x, y, z'
loop_
 _atom_site_type_symbol
 _atom_site_label
 _atom_site_symmetry_multiplicity
 _atom_site_fract_x
 _atom_site_fract_y
 _atom_site_fract_z
 _atom_site_occupancy
  Mn  Mn0  1  0.25057641  0.41808930  0.63460600  1
  Mn  Mn1  1  0.25057641  0.08191070  0.13460600  1
  Mn  Mn2  1  0.74942359  0.91808930  0.86539400  1
  Mn  Mn3  1  0.74942359  0.58191070  0.36539400  1
  P  P4  1  0.25405864  0.19673389  0.92662173  1
  P  P5  1  0.25405864  0.30326611  0.42662173  1
  P  P6  1  0.26167284  0.60230026  0.83331228  1
  P  P7  1  0.26167284  0.89769974  0.33331228  1
  P  P8  1  0.73832716  0.10230026  0.66668772  1
  P  P9  1  0.73832716  0.39769974  0.16668772  1
  P  P10  1  0.74594136  0.69673389  0.57337827  1
  P  P11  1  0.74594136  0.80326611  0.07337827  1
  O  O12  1  0.06409619  0.75461354  0.87183921  1
  O  O13  1  0.04516718  0.64825794  0.58944417  1
  O  O14  1  0.06409619  0.74538646  0.37183921  1
  O  O15  1  0.04516718  0.85174206  0.08944417  1
  O  O16  1  0.15486499  0.49349913  0.75218384  1
  O  O17  1  0.15486499  0.00650087  0.25218384  1
  O  O18  1  0.28977765  0.43657534  0.91059492  1
  O  O19  1  0.28977765  0.06342466  0.41059492  1
  O  O20  1  0.34913623  0.32853874  0.52071576  1
  O  O21  1  0.34913623  0.17146126  0.02071576  1
  O  O22  1  0.45687758  0.19313488  0.68152472  1
  O  O23  1  0.45687758  0.30686512  0.18152472  1
  O  O24  1  0.44106887  0.09006179  0.86128059  1
  O  O25  1  0.44106887  0.40993821  0.36128059  1
  O  O26  1  0.55893213  0.59006179  0.63871941  1
  O  O27  1  0.55893213  0.90993821  0.13871941  1
  O  O28  1  0.54312242  0.69313488  0.81847528  1
  O  O29  1  0.54312242  0.80686512  0.31847528  1
  O  O30  1  0.65086377  0.82853874  0.97928424  1
  O  O31  1  0.65086377  0.67146126  0.47928424  1
  O  O32  1  0.71022235  0.93657534  0.58940508  1
  O  O33  1  0.71022235  0.56342466  0.08940508  1
  O  O34  1  0.84513501  0.99349913  0.74781616  1
  O  O35  1  0.84513501  0.50650087  0.24781616  1
  O  O36  1  0.95483282  0.14825794  0.91055583  1
  O  O37  1  0.93590381  0.25461354  0.62816079  1
  O  O38  1  0.95483282  0.35174206  0.41055583  1
  O  O39  1  0.93590381  0.24538646  0.12816079  1
