# generated using pymatgen
data_LiMnPHO5
_symmetry_space_group_name_H-M   'P 1'
_cell_length_a   5.41743559
_cell_length_b   7.42565993
_cell_length_c   5.20991580
_cell_angle_alpha   109.73173502
_cell_angle_beta   99.40969109
_cell_angle_gamma   105.46515589
_symmetry_Int_Tables_number   1
_chemical_formula_structural   LiMnPHO5
_chemical_formula_sum   'Li2 Mn2 P2 H2 O10'
_cell_volume   182.56068141
_cell_formula_units_Z   2
loop_
 _symmetry_equiv_pos_site_id
 _symmetry_equiv_pos_as_xyz
  1  'x, y, z'
loop_
 _atom_site_type_symbol
 _atom_site_label
 _atom_site_symmetry_multiplicity
 _atom_site_fract_x
 _atom_site_fract_y
 _atom_site_fract_z
 _atom_site_occupancy
  Li  Li0  1  0.39636184  0.82496641  0.74764348  1
  Li  Li1  1  0.60363816  0.17503359  0.25235652  1
  Mn  Mn2  1  0.00000000  0.50000000  0.00000000  1
  Mn  Mn3  1  0.00000000  0.00000000  0.00000000  1
  P  P4  1  0.37100000  0.23651532  0.68353729  1
  P  P5  1  0.62900000  0.76348468  0.31646271  1
  H  H6  1  0.06206921  0.32549113  0.35865631  1
  H  H7  1  0.93793079  0.67450887  0.64134369  1
  O  O8  1  0.05055173  0.73803610  0.84078358  1
  O  O9  1  0.21425383  0.38551740  0.72877797  1
  O  O10  1  0.33192908  0.65483951  0.30274132  1
  O  O11  1  0.26153475  0.07675542  0.37146095  1
  O  O12  1  0.35789344  0.12832403  0.88824038  1
  O  O13  1  0.64210656  0.87167597  0.11175962  1
  O  O14  1  0.73846525  0.92324458  0.62853905  1
  O  O15  1  0.66807092  0.34516049  0.69725868  1
  O  O16  1  0.78574617  0.61448260  0.27122203  1
  O  O17  1  0.94944827  0.26196390  0.15921642  1
