# generated using pymatgen
data_MnP2O7
_symmetry_space_group_name_H-M   'P 1'
_cell_length_a   4.91284616
_cell_length_b   12.47101830
_cell_length_c   7.91261637
_cell_angle_alpha   90.00000000
_cell_angle_beta   88.99044203
_cell_angle_gamma   90.00000000
_symmetry_Int_Tables_number   1
_chemical_formula_structural   MnP2O7
_chemical_formula_sum   'Mn4 P8 O28'
_cell_volume   484.71646330
_cell_formula_units_Z   4
loop_
 _symmetry_equiv_pos_site_id
 _symmetry_equiv_pos_as_xyz
  1  'x, y, z'
loop_
 _atom_site_type_symbol
 _atom_site_label
 _atom_site_symmetry_multiplicity
 _atom_site_fract_x
 _atom_site_fract_y
 _atom_site_fract_z
 _atom_site_occupancy
  Mn  Mn0  1  0.22123708  0.35109865  0.15409483  1
  Mn  Mn1  1  0.27876292  0.85109865  0.34590517  1
  Mn  Mn2  1  0.72123708  0.14890135  0.65409483  1
  Mn  Mn3  1  0.77876292  0.64890135  0.84590517  1
  P  P4  1  0.19915637  0.98032143  0.69829731  1
  P  P5  1  0.21959925  0.30528224  0.55621173  1
  P  P6  1  0.28040075  0.80528224  0.94378827  1
  P  P7  1  0.30084363  0.48032143  0.80170269  1
  P  P8  1  0.69915637  0.51967857  0.19829731  1
  P  P9  1  0.71959925  0.19471776  0.05621173  1
  P  P10  1  0.78040075  0.69471776  0.44378827  1
  P  P11  1  0.80084363  0.01967857  0.30170269  1
  O  O12  1  0.01685858  0.22996797  0.06529526  1
  O  O13  1  0.02826202  0.24043533  0.67180016  1
  O  O14  1  0.09002244  0.56034779  0.86317081  1
  O  O15  1  0.07522669  0.96781374  0.25188864  1
  O  O16  1  0.10704391  0.31253017  0.37825218  1
  O  O17  1  0.16054536  0.88906509  0.57109185  1
  O  O18  1  0.20443389  0.42709471  0.62806919  1
  O  O19  1  0.29556611  0.92709471  0.87193081  1
  O  O20  1  0.33945464  0.38906509  0.92890815  1
  O  O21  1  0.39295609  0.81253017  0.12174782  1
  O  O22  1  0.40997756  0.06034779  0.63682919  1
  O  O23  1  0.42477331  0.46781374  0.24811136  1
  O  O24  1  0.47173798  0.74043533  0.82819984  1
  O  O25  1  0.48314142  0.72996797  0.43470474  1
  O  O26  1  0.51685858  0.27003203  0.56529526  1
  O  O27  1  0.52826202  0.25956467  0.17180016  1
  O  O28  1  0.57522669  0.53218626  0.75188864  1
  O  O29  1  0.59002244  0.93965221  0.36317081  1
  O  O30  1  0.60704391  0.18746983  0.87825218  1
  O  O31  1  0.66054536  0.61093491  0.07109185  1
  O  O32  1  0.70443389  0.07290529  0.12806919  1
  O  O33  1  0.79556611  0.57290529  0.37193081  1
  O  O34  1  0.83945464  0.11093491  0.42890815  1
  O  O35  1  0.89295609  0.68746983  0.62174782  1
  O  O36  1  0.92477331  0.03218626  0.74811136  1
  O  O37  1  0.90997756  0.43965221  0.13682919  1
  O  O38  1  0.97173798  0.75956467  0.32819984  1
  O  O39  1  0.98314142  0.77003203  0.93470474  1
