# generated using pymatgen
data_Li4Fe3NiO8
_symmetry_space_group_name_H-M   'P 1'
_cell_length_a   10.41454390
_cell_length_b   10.35037309
_cell_length_c   14.70095819
_cell_angle_alpha   19.23253068
_cell_angle_beta   19.21379332
_cell_angle_gamma   33.12137301
_symmetry_Int_Tables_number   1
_chemical_formula_structural   Li4Fe3NiO8
_chemical_formula_sum   'Li4 Fe3 Ni1 O8'
_cell_volume   148.88268693
_cell_formula_units_Z   1
loop_
 _symmetry_equiv_pos_site_id
 _symmetry_equiv_pos_as_xyz
  1  'x, y, z'
loop_
 _atom_site_type_symbol
 _atom_site_label
 _atom_site_symmetry_multiplicity
 _atom_site_fract_x
 _atom_site_fract_y
 _atom_site_fract_z
 _atom_site_occupancy
  Li  Li0  1  0.99999300  0.99999640  0.50000711  1
  Li  Li1  1  0.99999099  0.49999858  0.50000643  1
  Li  Li2  1  0.49999203  0.00000411  0.50000334  1
  Li  Li3  1  0.49999683  0.50000645  0.49999839  1
  Fe  Fe4  1  0.00001184  0.49999452  -0.00000271  1
  Fe  Fe5  1  0.50001038  0.00000651  -0.00001158  1
  Fe  Fe6  1  0.50000891  0.50000097  0.99999133  1
  Ni  Ni7  1  -0.00000105  0.00000132  -0.00000132  1
  O  O8  1  0.00197850  -0.00071845  0.25505364  1
  O  O9  1  0.00108278  0.50146296  0.25635520  1
  O  O10  1  0.49244196  0.99753986  0.26341512  1
  O  O11  1  0.99801718  0.00071490  0.74495232  1
  O  O12  1  0.50530493  0.50337319  0.25145554  1
  O  O13  1  0.99891519  0.49853975  0.74364505  1
  O  O14  1  0.50755775  0.00245981  0.73658729  1
  O  O15  1  0.49469879  0.49661911  0.74854486  1
