# generated using pymatgen
data_Na3CrSiCO7
_symmetry_space_group_name_H-M   'P 1'
_cell_length_a   8.96778362
_cell_length_b   6.63856961
_cell_length_c   5.19683403
_cell_angle_alpha   90.00000000
_cell_angle_beta   88.59135597
_cell_angle_gamma   90.00000000
_symmetry_Int_Tables_number   1
_chemical_formula_structural   Na3CrSiCO7
_chemical_formula_sum   'Na6 Cr2 Si2 C2 O14'
_cell_volume   309.29095148
_cell_formula_units_Z   2
loop_
 _symmetry_equiv_pos_site_id
 _symmetry_equiv_pos_as_xyz
  1  'x, y, z'
loop_
 _atom_site_type_symbol
 _atom_site_label
 _atom_site_symmetry_multiplicity
 _atom_site_fract_x
 _atom_site_fract_y
 _atom_site_fract_z
 _atom_site_occupancy
  Na  Na0  1  0.08962110  0.25000000  0.76702742  1
  Na  Na1  1  0.27372706  0.01431252  0.25545841  1
  Na  Na2  1  0.27372706  0.48568748  0.25545841  1
  Na  Na3  1  0.72627294  0.51431252  0.74454159  1
  Na  Na4  1  0.72627294  0.98568748  0.74454159  1
  Na  Na5  1  0.91037890  0.75000000  0.23297258  1
  Cr  Cr6  1  0.34281960  0.75000000  0.78772795  1
  Cr  Cr7  1  0.65718040  0.25000000  0.21227205  1
  Si  Si8  1  0.42165309  0.25000000  0.70923499  1
  Si  Si9  1  0.57834691  0.75000000  0.29076501  1
  C  C10  1  0.06202927  0.75000000  0.72739748  1
  C  C11  1  0.93797073  0.25000000  0.27260252  1
  O  O12  1  0.07998032  0.25000000  0.29361815  1
  O  O13  1  0.12355588  0.75000000  0.95288066  1
  O  O14  1  0.15240495  0.75000000  0.52670074  1
  O  O15  1  0.31487128  0.05347316  0.77869773  1
  O  O16  1  0.31487128  0.44652684  0.77869773  1
  O  O17  1  0.46095557  0.25000000  0.39630283  1
  O  O18  1  0.42185130  0.75000000  0.13644238  1
  O  O19  1  0.57814870  0.25000000  0.86355762  1
  O  O20  1  0.53904443  0.75000000  0.60369717  1
  O  O21  1  0.68512872  0.55347316  0.22130227  1
  O  O22  1  0.68512872  0.94652684  0.22130227  1
  O  O23  1  0.84759505  0.25000000  0.47329926  1
  O  O24  1  0.87644412  0.25000000  0.04711934  1
  O  O25  1  0.92001968  0.75000000  0.70638185  1
