# generated using pymatgen
data_Co2(SO4)3
_symmetry_space_group_name_H-M   'P 1'
_cell_length_a   11.83307555
_cell_length_b   8.53711187
_cell_length_c   8.45040399
_cell_angle_alpha   90.00000000
_cell_angle_beta   90.00000000
_cell_angle_gamma   90.00000000
_symmetry_Int_Tables_number   1
_chemical_formula_structural   Co2(SO4)3
_chemical_formula_sum   'Co8 S12 O48'
_cell_volume   853.66225946
_cell_formula_units_Z   4
loop_
 _symmetry_equiv_pos_site_id
 _symmetry_equiv_pos_as_xyz
  1  'x, y, z'
loop_
 _atom_site_type_symbol
 _atom_site_label
 _atom_site_symmetry_multiplicity
 _atom_site_fract_x
 _atom_site_fract_y
 _atom_site_fract_z
 _atom_site_occupancy
  Co  Co0  1  0.12186424  0.25036857  0.96891705  1
  Co  Co1  1  0.12186424  0.74963143  0.46891705  1
  Co  Co2  1  0.37813576  0.75036857  0.96891705  1
  Co  Co3  1  0.37813576  0.24963143  0.46891705  1
  Co  Co4  1  0.62186424  0.24963143  0.03108295  1
  Co  Co5  1  0.62186424  0.75036857  0.53108295  1
  Co  Co6  1  0.87813576  0.25036857  0.53108295  1
  Co  Co7  1  0.87813576  0.74963143  0.03108295  1
  S  S8  1  0.00000000  0.46115204  0.25000000  1
  S  S9  1  0.00000000  0.53884796  0.75000000  1
  S  S10  1  0.14547620  0.10274009  0.60575641  1
  S  S11  1  0.14547620  0.89725991  0.10575641  1
  S  S12  1  0.35452380  0.39725991  0.10575641  1
  S  S13  1  0.35452380  0.60274009  0.60575641  1
  S  S14  1  0.50000000  0.03884796  0.75000000  1
  S  S15  1  0.50000000  0.96115204  0.25000000  1
  S  S16  1  0.64547620  0.39725991  0.39424359  1
  S  S17  1  0.64547620  0.60274009  0.89424359  1
  S  S18  1  0.85452380  0.10274009  0.89424359  1
  S  S19  1  0.85452380  0.89725991  0.39424359  1
  O  O20  1  0.02738067  0.14086135  0.56940744  1
  O  O21  1  0.02738067  0.85913865  0.06940644  1
  O  O22  1  0.06256629  0.55880063  0.36523057  1
  O  O23  1  0.06256629  0.44119937  0.86523057  1
  O  O24  1  0.08406944  0.36150059  0.16966531  1
  O  O25  1  0.08406944  0.63849941  0.66966531  1
  O  O26  1  0.16074154  0.07161246  0.10424338  1
  O  O27  1  0.16074154  0.92838754  0.60424338  1
  O  O28  1  0.18010194  0.15937781  0.76339810  1
  O  O29  1  0.18010194  0.84062219  0.26339810  1
  O  O30  1  0.21946961  0.82900543  0.98128203  1
  O  O31  1  0.21946961  0.17099457  0.48128203  1
  O  O32  1  0.28053039  0.32900543  0.98128203  1
  O  O33  1  0.28053039  0.67099457  0.48128203  1
  O  O34  1  0.31989806  0.65937781  0.76339810  1
  O  O35  1  0.31989806  0.34062219  0.26339810  1
  O  O36  1  0.33925846  0.42838754  0.60424338  1
  O  O37  1  0.33925846  0.57161246  0.10424338  1
  O  O38  1  0.41593056  0.13849941  0.66966531  1
  O  O39  1  0.41593056  0.86150059  0.16966531  1
  O  O40  1  0.43743371  0.05880063  0.36523057  1
  O  O41  1  0.43743371  0.94119937  0.86523057  1
  O  O42  1  0.47261933  0.64086135  0.56940744  1
  O  O43  1  0.47261933  0.35913865  0.06940644  1
  O  O44  1  0.52738067  0.35913865  0.43059356  1
  O  O45  1  0.52738067  0.64086135  0.93059256  1
  O  O46  1  0.56256629  0.05880063  0.13476943  1
  O  O47  1  0.56256629  0.94119937  0.63476943  1
  O  O48  1  0.58406944  0.13849941  0.83033469  1
  O  O49  1  0.58406944  0.86150059  0.33033469  1
  O  O50  1  0.66074154  0.42838754  0.89575662  1
  O  O51  1  0.66074154  0.57161246  0.39575662  1
  O  O52  1  0.68010194  0.34062219  0.23660190  1
  O  O53  1  0.68010194  0.65937781  0.73660190  1
  O  O54  1  0.71946961  0.32900543  0.51871797  1
  O  O55  1  0.71946961  0.67099457  0.01871797  1
  O  O56  1  0.78053039  0.17099457  0.01871797  1
  O  O57  1  0.78053039  0.82900543  0.51871797  1
  O  O58  1  0.81989806  0.15937781  0.73660190  1
  O  O59  1  0.81989806  0.84062219  0.23660190  1
  O  O60  1  0.83925846  0.07161246  0.39575662  1
  O  O61  1  0.83925846  0.92838754  0.89575662  1
  O  O62  1  0.91593056  0.36150059  0.33033469  1
  O  O63  1  0.91593056  0.63849941  0.83033469  1
  O  O64  1  0.93743371  0.44119937  0.63476943  1
  O  O65  1  0.93743371  0.55880063  0.13476943  1
  O  O66  1  0.97261933  0.14086135  0.93059256  1
  O  O67  1  0.97261933  0.85913865  0.43059356  1
