# generated using pymatgen
data_La2P4O13
_symmetry_space_group_name_H-M   'P 1'
_cell_length_a   7.05819332
_cell_length_b   7.07358647
_cell_length_c   13.46141752
_cell_angle_alpha   76.38332749
_cell_angle_beta   90.00000000
_cell_angle_gamma   60.07196021
_symmetry_Int_Tables_number   1
_chemical_formula_structural   La2P4O13
_chemical_formula_sum   'La4 P8 O26'
_cell_volume   560.56134604
_cell_formula_units_Z   2
loop_
 _symmetry_equiv_pos_site_id
 _symmetry_equiv_pos_as_xyz
  1  'x, y, z'
loop_
 _atom_site_type_symbol
 _atom_site_label
 _atom_site_symmetry_multiplicity
 _atom_site_fract_x
 _atom_site_fract_y
 _atom_site_fract_z
 _atom_site_occupancy
  La  La0  1  0.31486889  0.37444574  0.94894263  1
  La  La1  1  0.68931463  0.62555426  0.55105737  1
  La  La2  1  0.31068537  0.37444574  0.44894263  1
  La  La3  1  0.68513111  0.62555426  0.05105737  1
  P  P4  1  0.15058500  0.98237709  0.86247859  1
  P  P5  1  0.86703791  0.98237709  0.36247859  1
  P  P6  1  0.77500572  0.46421787  0.84122789  1
  P  P7  1  0.23922359  0.53578213  0.65877211  1
  P  P8  1  0.76077641  0.46421787  0.34122789  1
  P  P9  1  0.22499428  0.53578213  0.15877211  1
  P  P10  1  0.13296209  0.01762291  0.63752141  1
  P  P11  1  0.84941500  0.01762291  0.13752141  1
  O  O12  1  0.31154601  0.99696764  0.93199268  1
  O  O13  1  0.12078176  0.78212661  0.89428539  1
  O  O14  1  0.69148635  0.99696764  0.43199268  1
  O  O15  1  0.10511789  0.80267565  0.65476202  1
  O  O16  1  0.92311852  0.50812219  0.90451993  1
  O  O17  1  0.58200034  0.49644577  0.90241672  1
  O  O18  1  0.70805997  0.59718962  0.72925382  1
  O  O19  1  0.09709163  0.78212661  0.39428539  1
  O  O20  1  0.09220647  0.80267565  0.15476202  1
  O  O21  1  0.30525059  0.40281038  0.77074618  1
  O  O22  1  0.07844611  0.50355423  0.59758328  1
  O  O23  1  0.43124071  0.49187781  0.59548007  1
  O  O24  1  0.56875929  0.50812219  0.40451993  1
  O  O25  1  0.92155389  0.49644577  0.40241672  1
  O  O26  1  0.69474941  0.59718962  0.22925382  1
  O  O27  1  0.90779353  0.19732435  0.84523798  1
  O  O28  1  0.90290837  0.21787339  0.60571461  1
  O  O29  1  0.29194003  0.40281038  0.27074618  1
  O  O30  1  0.41799966  0.50355423  0.09758328  1
  O  O31  1  0.07688148  0.49187781  0.09548007  1
  O  O32  1  0.23057578  0.00000000  0.75000000  1
  O  O33  1  0.89488211  0.19732435  0.34523798  1
  O  O34  1  0.30851365  0.00303236  0.56800732  1
  O  O35  1  0.87921824  0.21787339  0.10571461  1
  O  O36  1  0.76942422  0.00000000  0.25000000  1
  O  O37  1  0.68845399  0.00303236  0.06800732  1
