# generated using pymatgen
data_Ca(NiO2)4
_symmetry_space_group_name_H-M   'P 1'
_cell_length_a   2.99399088
_cell_length_b   6.59632881
_cell_length_c   6.91737994
_cell_angle_alpha   83.40868237
_cell_angle_beta   77.49234489
_cell_angle_gamma   76.88641268
_symmetry_Int_Tables_number   1
_chemical_formula_structural   Ca(NiO2)4
_chemical_formula_sum   'Ca1 Ni4 O8'
_cell_volume   129.58346084
_cell_formula_units_Z   1
loop_
 _symmetry_equiv_pos_site_id
 _symmetry_equiv_pos_as_xyz
  1  'x, y, z'
loop_
 _atom_site_type_symbol
 _atom_site_label
 _atom_site_symmetry_multiplicity
 _atom_site_fract_x
 _atom_site_fract_y
 _atom_site_fract_z
 _atom_site_occupancy
  Ca  Ca0  1  0.45399022  0.02750393  0.06454707  1
  Ni  Ni1  1  0.62971266  0.17643085  0.56432686  1
  Ni  Ni2  1  0.14968509  0.49115548  0.20958397  1
  Ni  Ni3  1  0.82029647  0.50630136  0.85326266  1
  Ni  Ni4  1  0.34179376  0.81432319  0.50227174  1
  O  O5  1  0.85394974  0.67206313  0.62023105  1
  O  O6  1  0.44099595  0.34063823  0.77752811  1
  O  O7  1  0.52964287  0.65763842  0.28334635  1
  O  O8  1  0.13044412  0.30614255  0.43304321  1
  O  O9  1  0.14087547  0.01940624  0.69878403  1
  O  O10  1  0.79121485  0.32572541  0.09183744  1
  O  O11  1  0.83059149  0.97467206  0.36440566  1
  O  O12  1  0.18428932  0.66410515  0.96747785  1
