# generated using pymatgen
data_La20S29O
_symmetry_space_group_name_H-M   'P 1'
_cell_length_a   15.05830821
_cell_length_b   15.05830821
_cell_length_c   15.05830821
_cell_angle_alpha   117.83968388
_cell_angle_beta   117.83968388
_cell_angle_gamma   93.78436388
_symmetry_Int_Tables_number   1
_chemical_formula_structural   La20S29O
_chemical_formula_sum   'La40 S58 O2'
_cell_volume   2487.39335724
_cell_formula_units_Z   2
loop_
 _symmetry_equiv_pos_site_id
 _symmetry_equiv_pos_as_xyz
  1  'x, y, z'
loop_
 _atom_site_type_symbol
 _atom_site_label
 _atom_site_symmetry_multiplicity
 _atom_site_fract_x
 _atom_site_fract_y
 _atom_site_fract_z
 _atom_site_occupancy
  La  La0  1  0.76334667  0.00928307  0.02602767  1
  La  La1  1  0.92100693  0.07511226  0.40390581  1
  La  La2  1  0.71015725  0.30263600  0.11681667  1
  La  La3  1  0.98394706  0.32876342  0.40441451  1
  La  La4  1  0.40665943  0.28984275  0.09247775  1
  La  La5  1  0.92572225  0.81734638  0.12647771  1
  La  La6  1  0.80263600  0.21015725  0.61681667  1
  La  La7  1  0.69736400  0.31418067  0.40752225  1
  La  La8  1  0.48289889  0.07899307  0.65410533  1
  La  La9  1  0.42434891  0.57953255  0.09558549  1
  La  La10  1  0.07565109  0.17123658  0.15518464  1
  La  La11  1  0.99071693  0.51674460  0.75406360  1
  La  La12  1  0.50928307  0.26334667  0.52602767  1
  La  La13  1  0.73665333  0.76268200  0.24593640  1
  La  La14  1  0.20075545  0.07427775  0.39162413  1
  La  La15  1  0.68581933  0.59334057  0.38318333  1
  La  La16  1  0.81418067  0.19736400  0.90752225  1
  La  La17  1  0.42046745  0.01605294  0.84481536  1
  La  La18  1  0.32879355  0.42488774  0.34589467  1
  La  La19  1  0.17120645  0.51710111  0.09609419  1
  La  La20  1  0.67123658  0.57565109  0.65518464  1
  La  La21  1  0.57899307  0.98289889  0.15410533  1
  La  La22  1  0.82876342  0.48394706  0.90441451  1
  La  La23  1  0.18265362  0.80913132  0.10837587  1
  La  La24  1  0.78984275  0.90665943  0.59247775  1
  La  La25  1  0.31734638  0.42572225  0.62647771  1
  La  La26  1  0.26268200  0.23665333  0.74593640  1
  La  La27  1  0.48325540  0.73731800  0.47397233  1
  La  La28  1  0.01674460  0.49071693  0.25406360  1
  La  La29  1  0.92488774  0.82879355  0.84589467  1
  La  La30  1  0.51605294  0.92046745  0.34481536  1
  La  La31  1  0.57511226  0.42100693  0.90390581  1
  La  La32  1  0.09334157  0.18581933  0.88318333  1
  La  La33  1  0.19086868  0.79924455  0.37352229  1
  La  La34  1  0.30913132  0.68265362  0.60837587  1
  La  La35  1  0.57427775  0.70075545  0.89162413  1
  La  La36  1  0.01710111  0.67120645  0.59609419  1
  La  La37  1  0.29924455  0.69086868  0.87352229  1
  La  La38  1  0.07953255  0.92434891  0.59558549  1
  La  La39  1  0.23731800  0.98325540  0.97397233  1
  S  S40  1  0.98221972  0.06292612  0.23284330  1
  S  S41  1  0.90364362  0.25000000  0.15364362  1
  S  S42  1  0.79409312  0.40450427  0.03802450  1
  S  S43  1  0.75179857  0.16796791  0.23396645  1
  S  S44  1  0.46338370  0.10632115  0.08295247  1
  S  S45  1  0.90450427  0.29409312  0.53802450  1
  S  S46  1  0.59549573  0.13352023  0.38958785  1
  S  S47  1  0.74375630  0.63624926  0.03446114  1
  S  S48  1  0.89367885  0.47663032  0.35706256  1
  S  S49  1  0.62500000  0.37500000  0.25000000  1
  S  S50  1  0.87500000  0.12500000  0.75000000  1
  S  S51  1  0.88043123  0.02336968  0.91704753  1
  S  S52  1  0.38800491  0.03125562  0.41136192  1
  S  S53  1  0.61956877  0.53661630  0.14293744  1
  S  S54  1  0.24393238  0.20590688  0.11041215  1
  S  S55  1  0.97663032  0.39367885  0.85706256  1
  S  S56  1  0.52336968  0.38043123  0.41704753  1
  S  S57  1  0.96874438  0.88010729  0.35675029  1
  S  S58  1  0.75000000  0.40364362  0.65364362  1
  S  S59  1  0.75000000  0.90006486  0.15006486  1
  S  S60  1  0.51778028  0.75062358  0.08070640  1
  S  S61  1  0.66796791  0.25179857  0.73396645  1
  S  S62  1  0.83203209  0.56599754  0.58383066  1
  S  S63  1  0.25062358  0.01778028  0.58070640  1
  S  S64  1  0.06599754  0.33203209  0.08383066  1
  S  S65  1  0.43400246  0.51783312  0.26603355  1
  S  S66  1  0.86647977  0.75606762  0.46197550  1
  S  S67  1  0.63352023  0.09549573  0.88958785  1
  S  S68  1  0.29070584  0.25624370  0.39249296  1
  S  S69  1  0.40006486  0.25000000  0.65006486  1
  S  S70  1  0.59635638  0.75000000  0.34635638  1
  S  S71  1  0.13624926  0.24375630  0.53446114  1
  S  S72  1  0.70590688  0.74393238  0.61041215  1
  S  S73  1  0.36375074  0.89821189  0.10750704  1
  S  S74  1  0.56292612  0.48221972  0.73284330  1
  S  S75  1  0.93707388  0.66991718  0.91929360  1
  S  S76  1  0.74820143  0.98216688  0.41616934  1
  S  S77  1  0.48216688  0.24820143  0.91616934  1
  S  S78  1  0.33008282  0.74937642  0.26715670  1
  S  S79  1  0.16991718  0.43707388  0.41929360  1
  S  S80  1  0.25000000  0.59993514  0.34993514  1
  S  S81  1  0.25000000  0.09635638  0.84635638  1
  S  S82  1  0.47664299  0.61989271  0.58863808  1
  S  S83  1  0.02335701  0.61199509  0.14324971  1
  S  S84  1  0.03661630  0.11956877  0.64293744  1
  S  S85  1  0.75624370  0.79070584  0.89249296  1
  S  S86  1  0.38010729  0.46874438  0.85675029  1
  S  S87  1  0.60632115  0.96338370  0.58295247  1
  S  S88  1  0.11989271  0.97664299  0.08863808  1
  S  S89  1  0.11199509  0.52335701  0.64324971  1
  S  S90  1  0.25606762  0.36647977  0.96197550  1
  S  S91  1  0.10178811  0.70929416  0.46553886  1
  S  S92  1  0.39821189  0.86375074  0.60750704  1
  S  S93  1  0.53125562  0.88800491  0.91136192  1
  S  S94  1  0.24937642  0.83008282  0.76715670  1
  S  S95  1  0.20929416  0.60178811  0.96553886  1
  S  S96  1  0.09993514  0.75000000  0.84993514  1
  S  S97  1  0.01783312  0.93400246  0.76603355  1
  O  O98  1  0.12500000  0.87500000  0.25000000  1
  O  O99  1  0.37500000  0.62500000  0.75000000  1
