# generated using pymatgen
data_InP2H9(NO4)2
_symmetry_space_group_name_H-M   'P 1'
_cell_length_a   6.77397313
_cell_length_b   10.00523774
_cell_length_c   6.75538026
_cell_angle_alpha   108.86497487
_cell_angle_beta   87.26479805
_cell_angle_gamma   71.33575205
_symmetry_Int_Tables_number   1
_chemical_formula_structural   InP2H9(NO4)2
_chemical_formula_sum   'In2 P4 H18 N4 O16'
_cell_volume   404.58912341
_cell_formula_units_Z   2
loop_
 _symmetry_equiv_pos_site_id
 _symmetry_equiv_pos_as_xyz
  1  'x, y, z'
loop_
 _atom_site_type_symbol
 _atom_site_label
 _atom_site_symmetry_multiplicity
 _atom_site_fract_x
 _atom_site_fract_y
 _atom_site_fract_z
 _atom_site_occupancy
  In  In0  1  0.85356379  0.49886699  0.85414825  1
  In  In1  1  0.10310440  0.00172662  0.10576600  1
  P  P2  1  0.63724207  0.90791459  0.11635038  1
  P  P3  1  0.29278617  0.59431979  0.95810798  1
  P  P4  1  0.96049076  0.40744636  0.29647439  1
  P  P5  1  0.11657881  0.09463610  0.64015131  1
  H  H6  1  0.00675653  0.86456004  0.63132120  1
  H  H7  1  0.84884519  0.78682760  0.72099207  1
  H  H8  1  0.45326564  0.81653797  0.56753144  1
  H  H9  1  0.81840138  0.82442998  0.48842192  1
  H  H10  1  0.39153614  0.67383401  0.40880882  1
  H  H11  1  0.02412638  0.68204749  0.49989434  1
  H  H12  1  0.38456757  0.70916655  0.67931658  1
  H  H13  1  0.61961802  0.63466995  0.51279573  1
  H  H14  1  0.22381065  0.50539578  0.22234621  1
  H  H15  1  0.51870118  0.36566082  0.61782790  1
  H  H16  1  0.68257609  0.28465116  0.37940872  1
  H  H17  1  0.50646050  0.31750885  0.02730026  1
  H  H18  1  0.41109546  0.32293598  0.39212495  1
  H  H19  1  0.47970887  0.17981395  0.82069377  1
  H  H20  1  0.56680908  0.18319788  0.46040757  1
  H  H21  1  0.71764748  0.21306675  0.83996446  1
  H  H22  1  0.63362797  0.13427385  -0.00014047  1
  H  H23  1  0.48083306  0.99596771  0.46728507  1
  N  N24  1  0.92387457  0.78988251  0.58523506  1
  N  N25  1  0.46195221  0.70818751  0.54174754  1
  N  N26  1  0.54469937  0.28964341  0.46168965  1
  N  N27  1  0.58437839  0.21056244  0.92076226  1
  O  O28  1  0.42020302  0.99909667  0.08220711  1
  O  O29  1  0.77993835  0.00085252  0.10433806  1
  O  O30  1  0.61591874  0.90012400  0.34717448  1
  O  O31  1  0.22984816  0.75349747  0.94778798  1
  O  O32  1  0.73436688  0.74783951  0.94943842  1
  O  O33  1  0.26303504  0.60406386  0.19677005  1
  O  O34  1  0.16763829  0.50169961  0.83273454  1
  O  O35  1  0.52842329  0.50178595  0.85326168  1
  O  O36  1  0.83419876  0.49950636  0.17005124  1
  O  O37  1  0.84989274  0.50096761  0.53198596  1
  O  O38  1  0.19542860  0.39984482  0.27002588  1
  O  O39  1  0.94044000  0.25228589  0.73208157  1
  O  O40  1  0.94691734  0.24845790  0.23246857  1
  O  O41  1  0.34136167  0.10562323  0.62458520  1
  O  O42  1  0.08615309  0.99979769  0.42046246  1
  O  O43  1  0.09873730  0.00179029  0.78287542  1
