# generated using pymatgen
data_Li8Mn5Fe3(BO3)8
_symmetry_space_group_name_H-M   'P 1'
_cell_length_a   6.04379067
_cell_length_b   5.23191419
_cell_length_c   16.25217839
_cell_angle_alpha   91.20631049
_cell_angle_beta   97.74633408
_cell_angle_gamma   89.19839047
_symmetry_Int_Tables_number   1
_chemical_formula_structural   Li8Mn5Fe3(BO3)8
_chemical_formula_sum   'Li8 Mn5 Fe3 B8 O24'
_cell_volume   509.06880361
_cell_formula_units_Z   1
loop_
 _symmetry_equiv_pos_site_id
 _symmetry_equiv_pos_as_xyz
  1  'x, y, z'
loop_
 _atom_site_type_symbol
 _atom_site_label
 _atom_site_symmetry_multiplicity
 _atom_site_fract_x
 _atom_site_fract_y
 _atom_site_fract_z
 _atom_site_occupancy
  Li  Li0  1  0.06275632  0.84967390  0.60906437  1
  Li  Li1  1  0.43639232  0.15064358  0.89025080  1
  Li  Li2  1  0.18868253  0.65134681  0.14156246  1
  Li  Li3  1  0.31186035  0.34959916  0.36028991  1
  Li  Li4  1  0.68720588  0.65164329  0.64113994  1
  Li  Li5  1  0.81233352  0.34952099  0.85819434  1
  Li  Li6  1  0.56312169  0.84749635  0.10990169  1
  Li  Li7  1  0.93748694  0.15119462  0.39157624  1
  Mn  Mn8  1  0.27385687  0.66815703  0.95905489  1
  Mn  Mn9  1  0.02452124  0.16634041  0.21007190  1
  Mn  Mn10  1  0.52404446  0.16645219  0.70925818  1
  Mn  Mn11  1  0.77407589  0.66708718  0.45905783  1
  Mn  Mn12  1  0.72513996  0.33277843  0.03954419  1
  Fe  Fe13  1  0.22594057  0.32783182  0.53868503  1
  Fe  Fe14  1  0.47560671  0.83844123  0.28948360  1
  Fe  Fe15  1  0.97429197  0.83665402  0.78911932  1
  B  B16  1  0.03668966  0.32917799  0.70202499  1
  B  B17  1  0.28546371  0.82879427  0.45223357  1
  B  B18  1  0.46344822  0.67064425  0.79782998  1
  B  B19  1  0.21541286  0.16956444  0.04834029  1
  B  B20  1  0.78586057  0.83041145  0.95074296  1
  B  B21  1  0.53727189  0.32841947  0.20339179  1
  B  B22  1  0.71393774  0.17046452  0.54800353  1
  B  B23  1  0.96361616  0.67034871  0.29790384  1
  O  O24  1  0.01341949  0.58991200  0.69148636  1
  O  O25  1  0.16959474  0.18530320  0.65376400  1
  O  O26  1  0.16928908  0.70777982  0.50806281  1
  O  O27  1  0.33356336  0.28581252  0.99179717  1
  O  O28  1  0.08320522  0.78560775  0.24157719  1
  O  O29  1  0.32655452  0.82083726  0.84340232  1
  O  O30  1  0.08024963  0.32056750  0.09450423  1
  O  O31  1  0.26418289  0.09098062  0.44188107  1
  O  O32  1  0.48534429  0.41084231  0.81156942  1
  O  O33  1  0.23638969  0.90984004  0.06202888  1
  O  O34  1  0.41889787  0.68406295  0.40342747  1
  O  O35  1  0.42177530  0.20786493  0.26051876  1
  O  O36  1  0.58246188  0.78634268  0.74151145  1
  O  O37  1  0.57799137  0.32077816  0.59366079  1
  O  O38  1  0.76500033  0.09034217  0.93738196  1
  O  O39  1  0.51370486  0.58871381  0.19164337  1
  O  O40  1  0.73586695  0.91014214  0.56167957  1
  O  O41  1  0.91998946  0.68026322  0.90413232  1
  O  O42  1  0.66946707  0.18091411  0.15581878  1
  O  O43  1  0.92065041  0.20608526  0.75846001  1
  O  O44  1  0.66837281  0.71479240  0.00790380  1
  O  O45  1  0.83189770  0.28713111  0.49146324  1
  O  O46  1  0.82733929  0.82141973  0.34350163  1
  O  O47  1  0.98577575  0.41097721  0.31210075  1
