# generated using pymatgen
data_Li5Co2Ni3O10
_symmetry_space_group_name_H-M   'P 1'
_cell_length_a   5.02180033
_cell_length_b   5.04538661
_cell_length_c   7.59261875
_cell_angle_alpha   109.03091232
_cell_angle_beta   101.49987917
_cell_angle_gamma   100.76655595
_symmetry_Int_Tables_number   1
_chemical_formula_structural   Li5Co2Ni3O10
_chemical_formula_sum   'Li5 Co2 Ni3 O10'
_cell_volume   171.49766467
_cell_formula_units_Z   1
loop_
 _symmetry_equiv_pos_site_id
 _symmetry_equiv_pos_as_xyz
  1  'x, y, z'
loop_
 _atom_site_type_symbol
 _atom_site_label
 _atom_site_symmetry_multiplicity
 _atom_site_fract_x
 _atom_site_fract_y
 _atom_site_fract_z
 _atom_site_occupancy
  Li  Li0  1  0.20818298  0.90112007  0.40425401  1
  Li  Li1  1  0.38931221  0.29283592  0.78898041  1
  Li  Li2  1  0.50000000  0.50000000  0.50000000  1
  Li  Li3  1  0.61068779  0.70716408  0.21101959  1
  Li  Li4  1  0.79181702  0.09887993  0.59574599  1
  Co  Co5  1  0.10041585  0.69354556  0.69305199  1
  Co  Co6  1  0.89958415  0.30645444  0.30694801  1
  Ni  Ni7  1  0.00000000  0.50000000  0.00000000  1
  Ni  Ni8  1  0.69477257  0.89568945  0.89657447  1
  Ni  Ni9  1  0.30522743  0.10431055  0.10342553  1
  O  O10  1  0.04890295  0.06873224  0.84131047  1
  O  O11  1  0.32643074  0.69223539  0.93268480  1
  O  O12  1  0.13109362  0.32953729  0.54517654  1
  O  O13  1  0.21536319  0.48715312  0.23875808  1
  O  O14  1  0.42393367  0.88821021  0.65854977  1
  O  O15  1  0.57606633  0.11178979  0.34145023  1
  O  O16  1  0.78463681  0.51284688  0.76124192  1
  O  O17  1  0.86890638  0.67046271  0.45482346  1
  O  O18  1  0.67356926  0.30776461  0.06731520  1
  O  O19  1  0.95109705  0.93126776  0.15868953  1
