# generated using pymatgen
data_CaSi4(NiO6)2
_symmetry_space_group_name_H-M   'P 1'
_cell_length_a   5.29757961
_cell_length_b   6.55464181
_cell_length_c   6.55464202
_cell_angle_alpha   84.31804478
_cell_angle_beta   77.50187373
_cell_angle_gamma   77.50187769
_symmetry_Int_Tables_number   1
_chemical_formula_structural   CaSi4(NiO6)2
_chemical_formula_sum   'Ca1 Si4 Ni2 O12'
_cell_volume   216.61731543
_cell_formula_units_Z   1
loop_
 _symmetry_equiv_pos_site_id
 _symmetry_equiv_pos_as_xyz
  1  'x, y, z'
loop_
 _atom_site_type_symbol
 _atom_site_label
 _atom_site_symmetry_multiplicity
 _atom_site_fract_x
 _atom_site_fract_y
 _atom_site_fract_z
 _atom_site_occupancy
  Ca  Ca0  1  0.25000100  0.69804409  0.30195691  1
  Si  Si1  1  0.26974867  0.19965893  0.38358968  1
  Si  Si2  1  0.23025033  0.61641032  0.80034107  1
  Si  Si3  1  0.78092708  0.37945009  0.19974751  1
  Si  Si4  1  0.71907292  0.80025249  0.62054991  1
  Ni  Ni5  1  0.24999900  0.10225757  0.89774343  1
  Ni  Ni6  1  0.74999900  0.91241819  0.08758281  1
  O  O7  1  0.50115489  0.33960644  0.35669218  1
  O  O8  1  0.99884511  0.64330682  0.66039456  1
  O  O9  1  0.48958319  0.66472480  0.62280781  1
  O  O10  1  0.01041681  0.37719319  0.33527520  1
  O  O11  1  0.20631518  0.09239111  0.61584786  1
  O  O12  1  0.29368482  0.38415114  0.90760789  1
  O  O13  1  0.81328973  0.89344705  0.38296984  1
  O  O14  1  0.68670927  0.61703016  0.10655395  1
  O  O15  1  0.87894925  0.18869291  0.03593117  1
  O  O16  1  0.62105075  0.96406883  0.81130609  1
  O  O17  1  0.35432478  0.03006592  0.20018304  1
  O  O18  1  0.14567522  0.79981796  0.96993408  1
