# generated using pymatgen
data_Ti2Sn(PO4)3
_symmetry_space_group_name_H-M   'P 1'
_cell_length_a   9.04861587
_cell_length_b   9.04861581
_cell_length_c   9.04861580
_cell_angle_alpha   57.23965654
_cell_angle_beta   57.23965288
_cell_angle_gamma   57.23965373
_symmetry_Int_Tables_number   1
_chemical_formula_structural   Ti2Sn(PO4)3
_chemical_formula_sum   'Ti4 Sn2 P6 O24'
_cell_volume   490.57600880
_cell_formula_units_Z   2
loop_
 _symmetry_equiv_pos_site_id
 _symmetry_equiv_pos_as_xyz
  1  'x, y, z'
loop_
 _atom_site_type_symbol
 _atom_site_label
 _atom_site_symmetry_multiplicity
 _atom_site_fract_x
 _atom_site_fract_y
 _atom_site_fract_z
 _atom_site_occupancy
  Ti  Ti0  1  0.14862976  0.14862976  0.14862976  1
  Ti  Ti1  1  0.35137024  0.35137024  0.35137024  1
  Ti  Ti2  1  0.64862976  0.64862976  0.64862976  1
  Ti  Ti3  1  0.85137024  0.85137024  0.85137024  1
  Sn  Sn4  1  0.00000000  0.00000000  0.00000000  1
  Sn  Sn5  1  0.50000000  0.50000000  0.50000000  1
  P  P6  1  0.03806741  0.75000000  0.46193259  1
  P  P7  1  0.46193259  0.03806741  0.75000000  1
  P  P8  1  0.75000000  0.46193259  0.03806741  1
  P  P9  1  0.25000000  0.53806741  0.96193259  1
  P  P10  1  0.53806741  0.96193259  0.25000000  1
  P  P11  1  0.96193259  0.25000000  0.53806741  1
  O  O12  1  0.12633601  0.28723878  0.50591849  1
  O  O13  1  0.28723878  0.50591849  0.12633601  1
  O  O14  1  0.06171053  0.92269726  0.27854784  1
  O  O15  1  0.50591849  0.12633601  0.28723878  1
  O  O16  1  0.00591849  0.78723878  0.62633601  1
  O  O17  1  0.22145216  0.57730274  0.43828947  1
  O  O18  1  0.27854784  0.06171053  0.92269726  1
  O  O19  1  0.43828947  0.22145216  0.57730274  1
  O  O20  1  0.21276122  0.37366399  0.99408151  1
  O  O21  1  0.57730274  0.43828947  0.22145216  1
  O  O22  1  0.07730274  0.72145216  0.93828947  1
  O  O23  1  0.37366399  0.99408151  0.21276122  1
  O  O24  1  0.62633601  0.00591849  0.78723878  1
  O  O25  1  0.92269726  0.27854784  0.06171053  1
  O  O26  1  0.42269726  0.56171053  0.77854784  1
  O  O27  1  0.78723878  0.62633601  0.00591849  1
  O  O28  1  0.56171053  0.77854784  0.42269726  1
  O  O29  1  0.72145216  0.93828947  0.07730274  1
  O  O30  1  0.77854784  0.42269726  0.56171053  1
  O  O31  1  0.99408151  0.21276122  0.37366399  1
  O  O32  1  0.49408151  0.87366399  0.71276122  1
  O  O33  1  0.93828947  0.07730274  0.72145216  1
  O  O34  1  0.71276122  0.49408151  0.87366399  1
  O  O35  1  0.87366399  0.71276122  0.49408151  1
