# generated using pymatgen
data_LiCr3(FeO4)2
_symmetry_space_group_name_H-M   'P 1'
_cell_length_a   5.99744848
_cell_length_b   5.99744848
_cell_length_c   6.00355068
_cell_angle_alpha   60.03361759
_cell_angle_beta   60.03361759
_cell_angle_gamma   60.00000000
_symmetry_Int_Tables_number   1
_chemical_formula_structural   LiCr3(FeO4)2
_chemical_formula_sum   'Li1 Cr3 Fe2 O8'
_cell_volume   152.77304196
_cell_formula_units_Z   1
loop_
 _symmetry_equiv_pos_site_id
 _symmetry_equiv_pos_as_xyz
  1  'x, y, z'
loop_
 _atom_site_type_symbol
 _atom_site_label
 _atom_site_symmetry_multiplicity
 _atom_site_fract_x
 _atom_site_fract_y
 _atom_site_fract_z
 _atom_site_occupancy
  Li  Li0  1  0.24976393  0.24976393  0.25070921  1
  Cr  Cr1  1  0.62195468  0.13416575  0.62192490  1
  Cr  Cr2  1  0.13416575  0.62195468  0.62192490  1
  Cr  Cr3  1  0.62195468  0.62195468  0.62192490  1
  Fe  Fe4  1  0.00004909  0.00004909  -0.00014828  1
  Fe  Fe5  1  0.62051275  0.62051275  0.13846075  1
  O  O6  1  0.84016374  0.38576614  0.38830499  1
  O  O7  1  0.38576614  0.38576614  0.38830499  1
  O  O8  1  0.38576614  0.84016374  0.38830499  1
  O  O9  1  0.38793550  0.38793550  0.83619450  1
  O  O10  1  0.86696526  0.86696526  0.39910522  1
  O  O11  1  0.86923293  0.39653750  0.86499664  1
  O  O12  1  0.39653750  0.86923293  0.86499664  1
  O  O13  1  0.86923293  0.86923293  0.86499664  1
