# generated using pymatgen
data_LiTi2(PO4)3
_symmetry_space_group_name_H-M   'P 1'
_cell_length_a   12.02978595
_cell_length_b   8.65444802
_cell_length_c   8.70524223
_cell_angle_alpha   90.00000000
_cell_angle_beta   90.00000000
_cell_angle_gamma   90.00000000
_symmetry_Int_Tables_number   1
_chemical_formula_structural   LiTi2(PO4)3
_chemical_formula_sum   'Li4 Ti8 P12 O48'
_cell_volume   906.31284224
_cell_formula_units_Z   4
loop_
 _symmetry_equiv_pos_site_id
 _symmetry_equiv_pos_as_xyz
  1  'x, y, z'
loop_
 _atom_site_type_symbol
 _atom_site_label
 _atom_site_symmetry_multiplicity
 _atom_site_fract_x
 _atom_site_fract_y
 _atom_site_fract_z
 _atom_site_occupancy
  Li  Li0  1  0.68021121  0.21356721  0.77727365  1
  Li  Li1  1  0.68021121  0.78643279  0.27727365  1
  Li  Li2  1  0.81978879  0.28643279  0.27727365  1
  Li  Li3  1  0.81978879  0.71356721  0.77727365  1
  Ti  Ti4  1  0.12301379  0.25030272  0.53605298  1
  Ti  Ti5  1  0.12301379  0.74969728  0.03605298  1
  Ti  Ti6  1  0.37698621  0.75030272  0.53605298  1
  Ti  Ti7  1  0.37698621  0.24969728  0.03605298  1
  Ti  Ti8  1  0.61077579  0.25423161  0.45936512  1
  Ti  Ti9  1  0.61077579  0.74576839  0.95936512  1
  Ti  Ti10  1  0.88922421  0.24576839  0.95936512  1
  Ti  Ti11  1  0.88922421  0.75423161  0.45936512  1
  P  P12  1  0.00265215  0.03875746  0.25034735  1
  P  P13  1  0.00265215  0.96124254  0.75034735  1
  P  P14  1  0.14707621  0.60416859  0.39105561  1
  P  P15  1  0.14707621  0.39583141  0.89105561  1
  P  P16  1  0.35292379  0.10416859  0.39105561  1
  P  P17  1  0.35292379  0.89583141  0.89105561  1
  P  P18  1  0.49734785  0.46124254  0.75034735  1
  P  P19  1  0.49734785  0.53875746  0.25034735  1
  P  P20  1  0.64481847  0.10464291  0.10593171  1
  P  P21  1  0.64481847  0.89535709  0.60593171  1
  P  P22  1  0.85518153  0.39535709  0.60593171  1
  P  P23  1  0.85518153  0.60464291  0.10593171  1
  O  O24  1  0.02688435  0.66184332  0.43161625  1
  O  O25  1  0.02688435  0.33815668  0.93161625  1
  O  O26  1  0.07342387  0.85715201  0.85247590  1
  O  O27  1  0.07342387  0.14284799  0.35247590  1
  O  O28  1  0.07429227  0.06222972  0.64737738  1
  O  O29  1  0.07429227  0.93777028  0.14737738  1
  O  O30  1  0.15332369  0.42820417  0.40747323  1
  O  O31  1  0.15332369  0.57179583  0.90747323  1
  O  O32  1  0.17162806  0.34825653  0.72489127  1
  O  O33  1  0.17162806  0.65174347  0.22489127  1
  O  O34  1  0.22764069  0.32074035  0.00607125  1
  O  O35  1  0.22764069  0.67925965  0.50607125  1
  O  O36  1  0.27235931  0.17925965  0.50607125  1
  O  O37  1  0.27235931  0.82074035  0.00607125  1
  O  O38  1  0.32837194  0.15174347  0.22489127  1
  O  O39  1  0.32837194  0.84825653  0.72489127  1
  O  O40  1  0.34667631  0.07179583  0.90747323  1
  O  O41  1  0.34667631  0.92820417  0.40747323  1
  O  O42  1  0.42570773  0.56222972  0.64737738  1
  O  O43  1  0.42570773  0.43777028  0.14737738  1
  O  O44  1  0.42657613  0.64284799  0.35247590  1
  O  O45  1  0.42657613  0.35715201  0.85247590  1
  O  O46  1  0.47311565  0.16184332  0.43161625  1
  O  O47  1  0.47311565  0.83815668  0.93161625  1
  O  O48  1  0.52798622  0.15812387  0.06669408  1
  O  O49  1  0.52798622  0.84187613  0.56669408  1
  O  O50  1  0.57741906  0.35343649  0.65784732  1
  O  O51  1  0.57741906  0.64656351  0.15784732  1
  O  O52  1  0.57515949  0.43601819  0.35134578  1
  O  O53  1  0.57515949  0.56398181  0.85134578  1
  O  O54  1  0.65581385  0.07429236  0.60167205  1
  O  O55  1  0.65581385  0.92570764  0.10167205  1
  O  O56  1  0.67959935  0.15928207  0.27041575  1
  O  O57  1  0.67959935  0.84071793  0.77041575  1
  O  O58  1  0.72730029  0.17453922  0.98689232  1
  O  O59  1  0.72730029  0.82546078  0.48689232  1
  O  O60  1  0.77269971  0.32546078  0.48689232  1
  O  O61  1  0.77269971  0.67453922  0.98689232  1
  O  O62  1  0.82040065  0.34071793  0.77041575  1
  O  O63  1  0.82040065  0.65928207  0.27041575  1
  O  O64  1  0.84418615  0.42570764  0.10167205  1
  O  O65  1  0.84418615  0.57429236  0.60167205  1
  O  O66  1  0.92484051  0.06398181  0.85134578  1
  O  O67  1  0.92484051  0.93601819  0.35134578  1
  O  O68  1  0.92258094  0.14656351  0.15784732  1
  O  O69  1  0.92258094  0.85343649  0.65784732  1
  O  O70  1  0.97201378  0.34187613  0.56669408  1
  O  O71  1  0.97201378  0.65812387  0.06669408  1
