# generated using pymatgen
data_Li13Ti28O56
_symmetry_space_group_name_H-M   'P 1'
_cell_length_a   10.36522074
_cell_length_b   10.36415736
_cell_length_c   10.36526983
_cell_angle_alpha   80.46978747
_cell_angle_beta   99.55167731
_cell_angle_gamma   80.46200158
_symmetry_Int_Tables_number   1
_chemical_formula_structural   Li13Ti28O56
_chemical_formula_sum   'Li13 Ti28 O56'
_cell_volume   1061.33700202
_cell_formula_units_Z   1
loop_
 _symmetry_equiv_pos_site_id
 _symmetry_equiv_pos_as_xyz
  1  'x, y, z'
loop_
 _atom_site_type_symbol
 _atom_site_label
 _atom_site_symmetry_multiplicity
 _atom_site_fract_x
 _atom_site_fract_y
 _atom_site_fract_z
 _atom_site_occupancy
  Li  Li0  1  0.08912587  0.69724330  0.73239420  1
  Li  Li1  1  0.33925894  0.44637823  0.98217264  1
  Li  Li2  1  0.19646830  0.73215790  0.41074726  1
  Li  Li3  1  0.37418409  0.12475753  0.87484889  1
  Li  Li4  1  0.51775379  0.83948641  0.44643539  1
  Li  Li5  1  0.23193502  0.41070714  0.30346282  1
  Li  Li6  1  0.48216725  0.16058612  0.55367794  1
  Li  Li7  1  0.76796347  0.58924829  0.69656816  1
  Li  Li8  1  0.62503506  0.87496836  0.12496493  1
  Li  Li9  1  0.94668403  0.98230468  0.15988219  1
  Li  Li10  1  0.80425625  0.26717236  0.58998396  1
  Li  Li11  1  0.66073606  0.55367732  0.01764112  1
  Li  Li12  1  0.91085689  0.30346580  0.26786438  1
  Ti  Ti13  1  0.07099739  0.35505459  0.78670172  1
  Ti  Ti14  1  0.00069008  0.50008388  0.50031840  1
  Ti  Ti15  1  0.35510957  0.78696693  0.92871453  1
  Ti  Ti16  1  0.28371835  0.92958274  0.64358267  1
  Ti  Ti17  1  0.28515801  0.42881397  0.64253655  1
  Ti  Ti18  1  0.14228193  0.21255091  0.57282603  1
  Ti  Ti19  1  0.00093335  0.00038993  0.50206072  1
  Ti  Ti20  1  0.14292208  0.71630937  0.07014652  1
  Ti  Ti21  1  0.28443932  0.92848623  0.14084956  1
  Ti  Ti22  1  0.42895232  0.64318787  0.71447070  1
  Ti  Ti23  1  0.99984035  0.49998297  0.00045874  1
  Ti  Ti24  1  0.57144192  0.85669040  0.78553817  1
  Ti  Ti25  1  0.14185059  0.21350968  0.06939176  1
  Ti  Ti26  1  0.21480582  0.07162762  0.35707664  1
  Ti  Ti27  1  0.85790551  0.78771067  0.92755540  1
  Ti  Ti28  1  0.78706702  0.92911812  0.64468405  1
  Ti  Ti29  1  0.57141164  0.35682506  0.78634674  1
  Ti  Ti30  1  0.42828154  0.64313775  0.21407403  1
  Ti  Ti31  1  0.50001173  0.49990428  0.50017378  1
  Ti  Ti32  1  0.42814447  0.14270106  0.21466462  1
  Ti  Ti33  1  0.57149555  0.35703715  0.28563697  1
  Ti  Ti34  1  0.71446343  0.57142887  0.35728357  1
  Ti  Ti35  1  0.85681177  0.78623876  0.42832190  1
  Ti  Ti36  1  0.71638663  0.07048274  0.85682954  1
  Ti  Ti37  1  0.85895311  0.28433679  0.92799351  1
  Ti  Ti38  1  0.71455213  0.07077818  0.35707658  1
  Ti  Ti39  1  0.92869549  0.64247860  0.21387108  1
  Ti  Ti40  1  0.64259334  0.21464094  0.07083968  1
  O  O41  1  0.03004538  0.67659119  0.90903629  1
  O  O42  1  0.19452818  0.87694763  0.98025591  1
  O  O43  1  0.16271855  0.38778990  0.96272787  1
  O  O44  1  0.01958003  0.67305614  0.39107286  1
  O  O45  1  0.03363633  0.19892593  0.89992684  1
  O  O46  1  0.17703006  0.90872146  0.46932787  1
  O  O47  1  0.10887712  0.51972675  0.67287471  1
  O  O48  1  0.26626551  0.75529752  0.75150801  1
  O  O49  1  0.39487059  0.94810054  0.81573442  1
  O  O50  1  0.45885815  0.81958499  0.62336844  1
  O  O51  1  0.23758577  0.26271793  0.73740454  1
  O  O52  1  0.38031515  0.97701276  0.30898645  1
  O  O53  1  0.17309619  0.39129565  0.48042699  1
  O  O54  1  0.52325213  0.69109202  0.88012278  1
  O  O55  1  0.09440845  0.54814766  0.16602088  1
  O  O56  1  0.33395382  0.59465368  0.54822567  1
  O  O57  1  0.04808963  0.16631875  0.40484139  1
  O  O58  1  0.68364739  0.89441227  0.94842788  1
  O  O59  1  0.39837887  0.46599673  0.80529595  1
  O  O60  1  0.11414728  0.03782439  0.65816358  1
  O  O61  1  0.25565016  0.75127783  0.23455263  1
  O  O62  1  0.46258979  0.33754085  0.61268091  1
  O  O63  1  0.87246192  0.95732735  0.81930083  1
  O  O64  1  0.44884164  0.81569786  0.10569634  1
  O  O65  1  0.59109211  0.53008894  0.67687090  1
  O  O66  1  0.74804808  0.76561240  0.75537145  1
  O  O67  1  0.32014723  0.62254573  0.04151512  1
  O  O68  1  0.30578772  0.10180499  0.53374069  1
  O  O69  1  0.69471327  0.89835953  0.46583294  1
  O  O70  1  0.55170651  0.18427796  0.89460039  1
  O  O71  1  0.40901252  0.46976283  0.32323265  1
  O  O72  1  0.25181369  0.23379442  0.24457668  1
  O  O73  1  0.12331601  0.04137382  0.18064681  1
  O  O74  1  0.68010473  0.37671425  0.95878231  1
  O  O75  1  0.53734632  0.66247257  0.38723876  1
  O  O76  1  0.95168124  0.83385513  0.59439557  1
  O  O77  1  0.74417304  0.24852004  0.76599477  1
  O  O78  1  0.31614236  0.10564747  0.05199757  1
  O  O79  1  0.60169654  0.53405203  0.19473332  1
  O  O80  1  0.88720033  0.96257615  0.33744359  1
  O  O81  1  0.66609060  0.40527834  0.45185149  1
  O  O82  1  0.54132526  0.18024136  0.37681037  1
  O  O83  1  0.76250773  0.73751936  0.26248731  1
  O  O84  1  0.47678043  0.30893506  0.11963558  1
  O  O85  1  0.61911423  0.02333882  0.69080727  1
  O  O86  1  0.90510065  0.45234349  0.83380271  1
  O  O87  1  0.82694381  0.60884488  0.51958901  1
  O  O88  1  0.73390588  0.24447890  0.24822682  1
  O  O89  1  0.89114088  0.48031324  0.32707983  1
  O  O90  1  0.60541309  0.05186849  0.18410558  1
  O  O91  1  0.82290505  0.09113149  0.52985936  1
  O  O92  1  0.83766741  0.61256122  0.03755886  1
  O  O93  1  0.96578906  0.80517734  0.10182170  1
  O  O94  1  0.98030964  0.32724029  0.60868185  1
  O  O95  1  0.80871510  0.11974702  0.02331559  1
  O  O96  1  0.96957396  0.32340418  0.09145505  1
