# generated using pymatgen
data_Hg2W2O7
_symmetry_space_group_name_H-M   'P 1'
_cell_length_a   6.29007584
_cell_length_b   3.87525564
_cell_length_c   14.55698072
_cell_angle_alpha   90.00000000
_cell_angle_beta   80.60963858
_cell_angle_gamma   90.00000000
_symmetry_Int_Tables_number   1
_chemical_formula_structural   Hg2W2O7
_chemical_formula_sum   'Hg4 W4 O14'
_cell_volume   350.08095952
_cell_formula_units_Z   2
loop_
 _symmetry_equiv_pos_site_id
 _symmetry_equiv_pos_as_xyz
  1  'x, y, z'
loop_
 _atom_site_type_symbol
 _atom_site_label
 _atom_site_symmetry_multiplicity
 _atom_site_fract_x
 _atom_site_fract_y
 _atom_site_fract_z
 _atom_site_occupancy
  Hg  Hg0  1  0.08521951  0.32902774  0.56183814  1
  Hg  Hg1  1  0.58521951  0.67097226  0.06183814  1
  Hg  Hg2  1  0.41478049  0.32902774  0.93816186  1
  Hg  Hg3  1  0.91478049  0.67097226  0.43816186  1
  W  W4  1  0.00128272  0.01511899  0.18766054  1
  W  W5  1  0.49871728  0.01511899  0.31233946  1
  W  W6  1  0.50128272  0.98488101  0.68766054  1
  W  W7  1  0.99871728  0.98488101  0.81233946  1
  O  O8  1  0.13297906  0.99565095  0.07060024  1
  O  O9  1  0.01109248  0.50104430  0.80006686  1
  O  O10  1  0.25000000  0.98749330  0.25000000  1
  O  O11  1  0.19589131  0.01039337  0.66853510  1
  O  O12  1  0.36702094  0.99565095  0.42939976  1
  O  O13  1  0.30410869  0.01039337  0.83146490  1
  O  O14  1  0.51109248  0.49895570  0.30006686  1
  O  O15  1  0.48890752  0.50104430  0.69993314  1
  O  O16  1  0.69589131  0.98960663  0.16853510  1
  O  O17  1  0.63297906  0.00434905  0.57060024  1
  O  O18  1  0.80410869  0.98960663  0.33146490  1
  O  O19  1  0.75000000  0.01250670  0.75000000  1
  O  O20  1  0.98890752  0.49895570  0.19993314  1
  O  O21  1  0.86702094  0.00434905  0.92939976  1
