# generated using pymatgen
data_Na5Ni2P2(CO7)2
_symmetry_space_group_name_H-M   'P 1'
_cell_length_a   8.82797775
_cell_length_b   5.18796804
_cell_length_c   6.66840753
_cell_angle_alpha   90.00000000
_cell_angle_beta   90.00000000
_cell_angle_gamma   88.37193491
_symmetry_Int_Tables_number   1
_chemical_formula_structural   Na5Ni2P2(CO7)2
_chemical_formula_sum   'Na5 Ni2 P2 C2 O14'
_cell_volume   305.28488563
_cell_formula_units_Z   1
loop_
 _symmetry_equiv_pos_site_id
 _symmetry_equiv_pos_as_xyz
  1  'x, y, z'
loop_
 _atom_site_type_symbol
 _atom_site_label
 _atom_site_symmetry_multiplicity
 _atom_site_fract_x
 _atom_site_fract_y
 _atom_site_fract_z
 _atom_site_occupancy
  Na  Na0  1  0.26588149  0.25392262  0.01297721  1
  Na  Na1  1  0.26588149  0.25392262  0.48702279  1
  Na  Na2  1  0.73234946  0.74563776  0.50916583  1
  Na  Na3  1  0.73234946  0.74563776  0.99083417  1
  Na  Na4  1  0.91981513  0.22269373  0.75000000  1
  Ni  Ni5  1  0.34592988  0.77741598  0.75000000  1
  Ni  Ni6  1  0.65436815  0.22163306  0.25000000  1
  P  P7  1  0.41924522  0.72138555  0.25000000  1
  P  P8  1  0.58280710  0.28215964  0.75000000  1
  C  C9  1  0.06337826  0.71124505  0.75000000  1
  C  C10  1  0.93175191  0.28763715  0.25000000  1
  O  O11  1  0.07319284  0.31683197  0.25000000  1
  O  O12  1  0.12296037  0.93677146  0.75000000  1
  O  O13  1  0.15583550  0.51094311  0.75000000  1
  O  O14  1  0.32424560  0.78821573  0.06230801  1
  O  O15  1  0.32424560  0.78821573  0.43769199  1
  O  O16  1  0.43111919  0.14228479  0.75000000  1
  O  O17  1  0.45914244  0.42387644  0.25000000  1
  O  O18  1  0.54890991  0.57909415  0.75000000  1
  O  O19  1  0.57151228  0.86478567  0.25000000  1
  O  O20  1  0.68287930  0.21035660  0.56496971  1
  O  O21  1  0.68287930  0.21035660  0.93503029  1
  O  O22  1  0.83348841  0.48027906  0.25000000  1
  O  O23  1  0.87216938  0.06169469  0.25000000  1
  O  O24  1  0.91862331  0.68605309  0.75000000  1
