# generated using pymatgen
data_Hf2N2O
_symmetry_space_group_name_H-M   'P 1'
_cell_length_a   8.74673347
_cell_length_b   8.75444045
_cell_length_c   8.67821868
_cell_angle_alpha   109.33319135
_cell_angle_beta   109.16305278
_cell_angle_gamma   109.67206586
_symmetry_Int_Tables_number   1
_chemical_formula_structural   Hf2N2O
_chemical_formula_sum   'Hf16 N16 O8'
_cell_volume   513.07919858
_cell_formula_units_Z   8
loop_
 _symmetry_equiv_pos_site_id
 _symmetry_equiv_pos_as_xyz
  1  'x, y, z'
loop_
 _atom_site_type_symbol
 _atom_site_label
 _atom_site_symmetry_multiplicity
 _atom_site_fract_x
 _atom_site_fract_y
 _atom_site_fract_z
 _atom_site_occupancy
  Hf  Hf0  1  0.49082231  0.00072563  0.98933696  1
  Hf  Hf1  1  0.74880561  0.29171340  0.53439181  1
  Hf  Hf2  1  0.21314133  0.96533793  0.25068412  1
  Hf  Hf3  1  0.72051237  0.47174729  0.24641450  1
  Hf  Hf4  1  0.23846229  0.20990496  0.95249655  1
  Hf  Hf5  1  0.00003741  0.99940229  0.49778322  1
  Hf  Hf6  1  0.50322643  0.49944927  0.51066842  1
  Hf  Hf7  1  0.46325229  0.25960637  0.71914662  1
  Hf  Hf8  1  0.97634590  0.25994960  0.22069953  1
  Hf  Hf9  1  0.01163841  0.51111482  0.00782803  1
  Hf  Hf10  1  0.53265286  0.74708293  0.29289106  1
  Hf  Hf11  1  0.02531961  0.73693361  0.77339064  1
  Hf  Hf12  1  0.76042121  0.78669533  0.04263604  1
  Hf  Hf13  1  0.79021478  0.03298225  0.75223337  1
  Hf  Hf14  1  0.28329326  0.53522484  0.74808133  1
  Hf  Hf15  1  0.25169603  0.70758965  0.46592022  1
  N  N16  1  0.51410327  0.23682878  0.96724723  1
  N  N17  1  0.76694657  0.72810242  0.26084404  1
  N  N18  1  0.76948434  0.53935221  0.52460202  1
  N  N19  1  0.04471190  0.27165327  0.01305327  1
  N  N20  1  0.01117242  0.04617895  0.27322587  1
  N  N21  1  0.46434758  0.22455171  0.45505965  1
  N  N22  1  0.95577259  0.72781625  0.98722172  1
  N  N23  1  0.96570750  0.51135220  0.24149465  1
  N  N24  1  0.54108020  0.77410164  0.54785765  1
  N  N25  1  0.22973227  0.45596073  0.46803924  1
  N  N26  1  0.98691793  0.95362015  0.72742857  1
  N  N27  1  0.22550443  0.26892736  0.73503341  1
  N  N28  1  0.54730083  0.53611265  0.77741011  1
  N  N29  1  0.27592333  0.74041875  0.22638405  1
  N  N30  1  0.03032450  0.48210130  0.75690446  1
  N  N31  1  0.26690870  0.77966269  0.73168458  1
  O  O32  1  0.72210307  0.99077761  0.95494599  1
  O  O33  1  0.76387842  0.03763198  0.49137862  1
  O  O34  1  0.27734726  0.01299181  0.04885671  1
  O  O35  1  0.73536277  0.21432813  0.27221758  1
  O  O36  1  0.44732762  0.46613595  0.22197212  1
  O  O37  1  0.72453546  0.25443206  0.76665285  1
  O  O38  1  0.49343890  0.77114798  0.03920162  1
  O  O39  1  0.23022506  0.96035426  0.50667956  1
