# generated using pymatgen
data_ZnP4O11
_symmetry_space_group_name_H-M   'P 1'
_cell_length_a   9.25156164
_cell_length_b   9.31048119
_cell_length_c   10.73581994
_cell_angle_alpha   70.87032803
_cell_angle_beta   108.30502008
_cell_angle_gamma   89.27708012
_symmetry_Int_Tables_number   1
_chemical_formula_structural   ZnP4O11
_chemical_formula_sum   'Zn4 P16 O44'
_cell_volume   822.56030783
_cell_formula_units_Z   4
loop_
 _symmetry_equiv_pos_site_id
 _symmetry_equiv_pos_as_xyz
  1  'x, y, z'
loop_
 _atom_site_type_symbol
 _atom_site_label
 _atom_site_symmetry_multiplicity
 _atom_site_fract_x
 _atom_site_fract_y
 _atom_site_fract_z
 _atom_site_occupancy
  Zn  Zn0  1  0.25444304  0.71902509  0.02109430  1
  Zn  Zn1  1  0.77227406  0.77133438  0.49755899  1
  Zn  Zn2  1  0.22772594  0.22866562  0.50244101  1
  Zn  Zn3  1  0.74555696  0.28097491  0.97890570  1
  P  P4  1  0.09538219  0.59688735  0.75882884  1
  P  P5  1  0.23856043  0.92408698  0.38811287  1
  P  P6  1  0.56713288  0.74839051  0.92693110  1
  P  P7  1  0.09526843  0.27166232  0.91031485  1
  P  P8  1  0.26257191  0.58463481  0.55670700  1
  P  P9  1  0.44310530  0.91158457  0.22662171  1
  P  P10  1  0.58722109  0.60900297  0.71371500  1
  P  P11  1  0.09034387  0.04989615  0.75352739  1
  P  P12  1  0.90965613  0.95010385  0.24647261  1
  P  P13  1  0.41277891  0.39099703  0.28628500  1
  P  P14  1  0.55689470  0.08841543  0.77337829  1
  P  P15  1  0.73742809  0.41536519  0.44329300  1
  P  P16  1  0.90473157  0.72833768  0.08968515  1
  P  P17  1  0.43286712  0.25160949  0.07306890  1
  P  P18  1  0.76143957  0.07591302  0.61188713  1
  P  P19  1  0.90461781  0.40311265  0.24117116  1
  O  O20  1  0.18908794  0.89992081  0.82236447  1
  O  O21  1  0.24297205  0.98498690  0.49944055  1
  O  O22  1  0.08782957  0.97540183  0.25358371  1
  O  O23  1  0.51616610  0.92620902  0.86338668  1
  O  O24  1  0.20317937  0.58988570  0.89715749  1
  O  O25  1  0.18569277  0.64041903  0.64611444  1
  O  O26  1  0.07814222  0.41559424  0.77510864  1
  O  O27  1  0.37028908  0.97231823  0.32469314  1
  O  O28  1  0.25964406  0.74030743  0.43388033  1
  O  O29  1  0.51502959  0.68926116  0.80053384  1
  O  O30  1  0.03115455  0.74142261  0.03374596  1
  O  O31  1  0.75004693  0.72913962  0.96873534  1
  O  O32  1  0.19373109  0.46730155  0.50152505  1
  O  O33  1  0.13717851  0.13318806  0.87058956  1
  O  O34  1  0.31701891  0.86069890  0.13147560  1
  O  O35  1  0.43698636  0.53258980  0.64854451  1
  O  O36  1  0.61173719  0.73580764  0.59749159  1
  O  O37  1  0.49556231  0.32368037  0.96028342  1
  O  O38  1  0.08058661  0.16108661  0.61365298  1
  O  O39  1  0.05631369  0.30673107  0.30951455  1
  O  O40  1  0.59211775  0.81370147  0.31281736  1
  O  O41  1  0.70895961  0.48018218  0.80905268  1
  O  O42  1  0.29104039  0.51981782  0.19094732  1
  O  O43  1  0.40788225  0.18629853  0.68718264  1
  O  O44  1  0.94368631  0.69326893  0.69048545  1
  O  O45  1  0.91941339  0.83891339  0.38634702  1
  O  O46  1  0.50443769  0.67631963  0.03971658  1
  O  O47  1  0.38826281  0.26419236  0.40250841  1
  O  O48  1  0.56301364  0.46741020  0.35145549  1
  O  O49  1  0.68298109  0.13930110  0.86852440  1
  O  O50  1  0.86282149  0.86681194  0.12941044  1
  O  O51  1  0.80626891  0.53269845  0.49847495  1
  O  O52  1  0.24995307  0.27086038  0.03126466  1
  O  O53  1  0.96884545  0.25857739  0.96625404  1
  O  O54  1  0.48497041  0.31073884  0.19946616  1
  O  O55  1  0.74035594  0.25969257  0.56611967  1
  O  O56  1  0.62971092  0.02768177  0.67530686  1
  O  O57  1  0.92185778  0.58440576  0.22489136  1
  O  O58  1  0.81430723  0.35958097  0.35388556  1
  O  O59  1  0.79682063  0.41011430  0.10284251  1
  O  O60  1  0.48383390  0.07379098  0.13661332  1
  O  O61  1  0.91217043  0.02459817  0.74641629  1
  O  O62  1  0.75702795  0.01501310  0.50055945  1
  O  O63  1  0.81091206  0.10007919  0.17763553  1
