# generated using pymatgen
data_Li2MnV(P2O7)2
_symmetry_space_group_name_H-M   'P 1'
_cell_length_a   4.86305719
_cell_length_b   8.29630721
_cell_length_c   13.36461703
_cell_angle_alpha   90.00000000
_cell_angle_beta   88.52683278
_cell_angle_gamma   90.00000000
_symmetry_Int_Tables_number   1
_chemical_formula_structural   Li2MnV(P2O7)2
_chemical_formula_sum   'Li4 Mn2 V2 P8 O28'
_cell_volume   539.02281988
_cell_formula_units_Z   2
loop_
 _symmetry_equiv_pos_site_id
 _symmetry_equiv_pos_as_xyz
  1  'x, y, z'
loop_
 _atom_site_type_symbol
 _atom_site_label
 _atom_site_symmetry_multiplicity
 _atom_site_fract_x
 _atom_site_fract_y
 _atom_site_fract_z
 _atom_site_occupancy
  Li  Li0  1  0.16438626  0.35947101  0.66294001  1
  Li  Li1  1  0.33561374  0.85947101  0.83705999  1
  Li  Li2  1  0.66088911  0.36235019  0.16227309  1
  Li  Li3  1  0.83911089  0.86235019  0.33772691  1
  Mn  Mn4  1  0.15167269  0.99767589  0.63442714  1
  Mn  Mn5  1  0.34832731  0.49767589  0.86557286  1
  V  V6  1  0.64886115  0.00108421  0.13666868  1
  V  V7  1  0.85113885  0.50108421  0.36333132  1
  P  P8  1  0.13987947  0.18136432  0.26167370  1
  P  P9  1  0.16793053  0.78719716  0.04366748  1
  P  P10  1  0.33206947  0.28719716  0.45633252  1
  P  P11  1  0.36012053  0.68136432  0.23832630  1
  P  P12  1  0.64171525  0.17646149  0.75829760  1
  P  P13  1  0.66923128  0.78412059  0.54435151  1
  P  P14  1  0.83076872  0.28412059  0.95564849  1
  P  P15  1  0.85828475  0.67646149  0.74170240  1
  O  O16  1  0.99742307  0.83935943  0.75245065  1
  O  O17  1  0.05096800  0.53265781  0.75919621  1
  O  O18  1  0.09447467  0.67918772  0.30224690  1
  O  O19  1  0.14505532  0.43684395  0.45638129  1
  O  O20  1  0.13085687  0.32506252  0.92766270  1
  O  O21  1  0.21897073  0.15440052  0.37681272  1
  O  O22  1  0.18340950  0.70264421  0.94285114  1
  O  O23  1  0.28102927  0.65440052  0.12318728  1
  O  O24  1  0.31659050  0.20264421  0.55714886  1
  O  O25  1  0.35494468  0.93684395  0.04361871  1
  O  O26  1  0.36914313  0.82506252  0.57233730  1
  O  O27  1  0.40552533  0.17918772  0.19775310  1
  O  O28  1  0.44903200  0.03265781  0.74080379  1
  O  O29  1  0.50485033  0.84507624  0.24705703  1
  O  O30  1  0.50257693  0.33935943  0.74754935  1
  O  O31  1  0.55429377  0.53988667  0.25830733  1
  O  O32  1  0.58796534  0.67082222  0.80495933  1
  O  O33  1  0.62449824  0.32632091  0.42266770  1
  O  O34  1  0.64416610  0.43361978  0.95788766  1
  O  O35  1  0.68754147  0.69587441  0.44414973  1
  O  O36  1  0.72258996  0.15409676  0.87473702  1
  O  O37  1  0.81245853  0.19587441  0.05585027  1
  O  O38  1  0.77741004  0.65409676  0.62526298  1
  O  O39  1  0.87550176  0.82632091  0.07733230  1
  O  O40  1  0.85583390  0.93361978  0.54211234  1
  O  O41  1  0.91203466  0.17082222  0.69504067  1
  O  O42  1  0.94570623  0.03988667  0.24169267  1
  O  O43  1  0.99514967  0.34507624  0.25294297  1
