# generated using pymatgen
data_Li3Cr2(PO4)3
_symmetry_space_group_name_H-M   'P 1'
_cell_length_a   8.68440061
_cell_length_b   12.12361816
_cell_length_c   8.72633666
_cell_angle_alpha   90.00000000
_cell_angle_beta   90.00000000
_cell_angle_gamma   89.95785982
_symmetry_Int_Tables_number   1
_chemical_formula_structural   Li3Cr2(PO4)3
_chemical_formula_sum   'Li12 Cr8 P12 O48'
_cell_volume   918.76394785
_cell_formula_units_Z   4
loop_
 _symmetry_equiv_pos_site_id
 _symmetry_equiv_pos_as_xyz
  1  'x, y, z'
loop_
 _atom_site_type_symbol
 _atom_site_label
 _atom_site_symmetry_multiplicity
 _atom_site_fract_x
 _atom_site_fract_y
 _atom_site_fract_z
 _atom_site_occupancy
  Li  Li0  1  0.08535494  0.69670860  0.09210037  1
  Li  Li1  1  0.08126202  0.75268993  0.71021868  1
  Li  Li2  1  0.21136685  0.17734926  0.77156172  1
  Li  Li3  1  0.28863315  0.32265074  0.27156172  1
  Li  Li4  1  0.41873798  0.74731007  0.21021868  1
  Li  Li5  1  0.41464506  0.80329140  0.59210037  1
  Li  Li6  1  0.58535494  0.19670860  0.40789963  1
  Li  Li7  1  0.58126202  0.25268993  0.78978132  1
  Li  Li8  1  0.71136685  0.67734926  0.72843828  1
  Li  Li9  1  0.78863315  0.82265074  0.22843828  1
  Li  Li10  1  0.91873798  0.24731007  0.28978132  1
  Li  Li11  1  0.91464506  0.30329140  0.90789963  1
  Cr  Cr12  1  0.24781042  0.11315857  0.45719908  1
  Cr  Cr13  1  0.25110988  0.88793925  0.03614362  1
  Cr  Cr14  1  0.24889012  0.61206075  0.53614362  1
  Cr  Cr15  1  0.25218958  0.38684143  0.95719908  1
  Cr  Cr16  1  0.74781042  0.61315857  0.04280092  1
  Cr  Cr17  1  0.75110988  0.38793925  0.46385638  1
  Cr  Cr18  1  0.74889012  0.11206075  0.96385638  1
  Cr  Cr19  1  0.75218958  0.88684143  0.54280092  1
  P  P20  1  0.03744064  0.49434961  0.24928054  1
  P  P21  1  0.10349699  0.85212546  0.39050589  1
  P  P22  1  0.10453378  0.14799170  0.09983966  1
  P  P23  1  0.39546622  0.35200830  0.59983966  1
  P  P24  1  0.39650301  0.64787454  0.89050589  1
  P  P25  1  0.46255936  0.00565039  0.74928054  1
  P  P26  1  0.53744064  0.99434961  0.25071946  1
  P  P27  1  0.60349699  0.35212546  0.10949411  1
  P  P28  1  0.60453378  0.64799170  0.40016034  1
  P  P29  1  0.89546622  0.85200830  0.90016034  1
  P  P30  1  0.89650301  0.14787454  0.60949411  1
  P  P31  1  0.96255936  0.50565039  0.75071946  1
  O  O32  1  0.05033678  0.42518675  0.85809986  1
  O  O33  1  0.07057452  0.59252541  0.67800606  1
  O  O34  1  0.07446964  0.83723219  0.90076158  1
  O  O35  1  0.07295834  0.16279694  0.59503340  1
  O  O36  1  0.12122369  0.56796356  0.36344489  1
  O  O37  1  0.14790017  0.81431261  0.22552978  1
  O  O38  1  0.15847724  0.42618396  0.15935128  1
  O  O39  1  0.15441921  0.96969326  0.41944177  1
  O  O40  1  0.15617485  0.03263181  0.06221795  1
  O  O41  1  0.15324147  0.18635651  0.26363015  1
  O  O42  1  0.16499084  0.23011198  0.97617215  1
  O  O43  1  0.18390390  0.77653305  0.51330015  1
  O  O44  1  0.31609610  0.72346695  0.01330015  1
  O  O45  1  0.33500916  0.26988802  0.47617215  1
  O  O46  1  0.34675853  0.31364349  0.76363015  1
  O  O47  1  0.34382515  0.46736819  0.56221795  1
  O  O48  1  0.34558079  0.53030674  0.91944177  1
  O  O49  1  0.34152276  0.07381604  0.65935128  1
  O  O50  1  0.35209983  0.68568739  0.72552978  1
  O  O51  1  0.37877631  0.93203644  0.86344489  1
  O  O52  1  0.42704166  0.33720306  0.09503340  1
  O  O53  1  0.42553036  0.66276781  0.40076158  1
  O  O54  1  0.42942548  0.90747459  0.17800606  1
  O  O55  1  0.44966322  0.07481325  0.35809986  1
  O  O56  1  0.55033678  0.92518675  0.64190014  1
  O  O57  1  0.57057452  0.09252541  0.82199394  1
  O  O58  1  0.57446964  0.33723219  0.59923842  1
  O  O59  1  0.57295834  0.66279694  0.90496660  1
  O  O60  1  0.62122369  0.06796356  0.13655511  1
  O  O61  1  0.64790017  0.31431261  0.27447022  1
  O  O62  1  0.65847724  0.92618396  0.34064872  1
  O  O63  1  0.65441921  0.46969326  0.08055823  1
  O  O64  1  0.65617485  0.53263181  0.43778205  1
  O  O65  1  0.65324147  0.68635651  0.23636985  1
  O  O66  1  0.66499084  0.73011198  0.52382785  1
  O  O67  1  0.68390390  0.27653305  0.98669985  1
  O  O68  1  0.81609610  0.22346695  0.48669985  1
  O  O69  1  0.83500916  0.76988802  0.02382785  1
  O  O70  1  0.84675853  0.81364349  0.73636985  1
  O  O71  1  0.84382515  0.96736819  0.93778205  1
  O  O72  1  0.84558079  0.03030674  0.58055823  1
  O  O73  1  0.84152276  0.57381604  0.84064872  1
  O  O74  1  0.85209983  0.18568739  0.77447022  1
  O  O75  1  0.87877631  0.43203644  0.63655511  1
  O  O76  1  0.92704166  0.83720306  0.40496660  1
  O  O77  1  0.92553036  0.16276781  0.09923842  1
  O  O78  1  0.92942548  0.40747459  0.32199394  1
  O  O79  1  0.94966322  0.57481325  0.14190014  1
