# generated using pymatgen
data_Li2VCrO4
_symmetry_space_group_name_H-M   'P 1'
_cell_length_a   2.97261467
_cell_length_b   5.14873308
_cell_length_c   5.19818475
_cell_angle_alpha   80.61608138
_cell_angle_beta   90.01173192
_cell_angle_gamma   106.80234204
_symmetry_Int_Tables_number   1
_chemical_formula_structural   Li2VCrO4
_chemical_formula_sum   'Li2 V1 Cr1 O4'
_cell_volume   75.05066451
_cell_formula_units_Z   1
loop_
 _symmetry_equiv_pos_site_id
 _symmetry_equiv_pos_as_xyz
  1  'x, y, z'
loop_
 _atom_site_type_symbol
 _atom_site_label
 _atom_site_symmetry_multiplicity
 _atom_site_fract_x
 _atom_site_fract_y
 _atom_site_fract_z
 _atom_site_occupancy
  Li  Li0  1  0.49849163  0.99699002  0.50438878  1
  Li  Li1  1  0.00151461  0.00300277  0.99558201  1
  V  V2  1  0.25000575  0.50000566  0.25002068  1
  Cr  Cr3  1  0.74999360  0.49999325  0.75003396  1
  O  O4  1  0.86356621  0.72697541  0.38145885  1
  O  O5  1  0.63643549  0.27302228  0.11852400  1
  O  O6  1  0.36339123  0.72635882  0.87607967  1
  O  O7  1  0.13660149  0.27365079  0.62391106  1
