# generated using pymatgen
data_CaTi2O4
_symmetry_space_group_name_H-M   'P 1'
_cell_length_a   6.20497241
_cell_length_b   6.20497280
_cell_length_c   6.31177706
_cell_angle_alpha   119.44180638
_cell_angle_beta   119.44180765
_cell_angle_gamma   89.99999648
_symmetry_Int_Tables_number   1
_chemical_formula_structural   CaTi2O4
_chemical_formula_sum   'Ca2 Ti4 O8'
_cell_volume   174.69621192
_cell_formula_units_Z   2
loop_
 _symmetry_equiv_pos_site_id
 _symmetry_equiv_pos_as_xyz
  1  'x, y, z'
loop_
 _atom_site_type_symbol
 _atom_site_label
 _atom_site_symmetry_multiplicity
 _atom_site_fract_x
 _atom_site_fract_y
 _atom_site_fract_z
 _atom_site_occupancy
  Ca  Ca0  1  0.37500000  0.62500000  0.75000000  1
  Ca  Ca1  1  0.62500000  0.37500000  0.25000000  1
  Ti  Ti2  1  0.00000000  0.00000000  0.50000000  1
  Ti  Ti3  1  0.00000000  0.50000000  0.00000000  1
  Ti  Ti4  1  0.50000000  0.00000000  0.50000000  1
  Ti  Ti5  1  0.00000000  0.00000000  0.00000000  1
  O  O6  1  0.77117615  0.80112444  0.54235231  1
  O  O7  1  0.75877414  0.22882385  0.95764769  1
  O  O8  1  0.19887556  0.22882385  0.95764769  1
  O  O9  1  0.22882385  0.19887556  0.45764769  1
  O  O10  1  0.22882385  0.75877414  0.45764769  1
  O  O11  1  0.24122586  0.77117615  0.04235231  1
  O  O12  1  0.77117615  0.24122586  0.54235231  1
  O  O13  1  0.80112444  0.77117615  0.04235231  1
