# generated using pymatgen
data_Zr2N2O
_symmetry_space_group_name_H-M   'P 1'
_cell_length_a   8.88022006
_cell_length_b   8.89369873
_cell_length_c   8.87849084
_cell_angle_alpha   109.61925198
_cell_angle_beta   109.47510430
_cell_angle_gamma   109.50774556
_symmetry_Int_Tables_number   1
_chemical_formula_structural   Zr2N2O
_chemical_formula_sum   'Zr16 N16 O8'
_cell_volume   538.52852711
_cell_formula_units_Z   8
loop_
 _symmetry_equiv_pos_site_id
 _symmetry_equiv_pos_as_xyz
  1  'x, y, z'
loop_
 _atom_site_type_symbol
 _atom_site_label
 _atom_site_symmetry_multiplicity
 _atom_site_fract_x
 _atom_site_fract_y
 _atom_site_fract_z
 _atom_site_occupancy
  Zr  Zr0  1  0.49415531  0.01045095  0.00190382  1
  Zr  Zr1  1  0.96017100  0.24102569  0.21346222  1
  Zr  Zr2  1  0.78629486  0.03678501  0.75022844  1
  Zr  Zr3  1  0.70474951  0.46070372  0.24299287  1
  Zr  Zr4  1  0.75161781  0.78164898  0.04225793  1
  Zr  Zr5  1  0.75744153  0.28881561  0.54111424  1
  Zr  Zr6  1  0.00165812  0.48841217  0.99155077  1
  Zr  Zr7  1  0.50197204  0.50986694  0.50402015  1
  Zr  Zr8  1  0.52921768  0.73970287  0.28674861  1
  Zr  Zr9  1  0.01082608  0.00048687  0.50312211  1
  Zr  Zr10  1  0.46516743  0.25516186  0.72038035  1
  Zr  Zr11  1  0.25557999  0.72694753  0.46538924  1
  Zr  Zr12  1  0.24304554  0.21193457  0.95985922  1
  Zr  Zr13  1  0.21443323  0.96284759  0.24887494  1
  Zr  Zr14  1  0.28835315  0.53745867  0.75124338  1
  Zr  Zr15  1  0.04881523  0.75895605  0.78786093  1
  N  N16  1  0.01144024  0.04555245  0.26924294  1
  N  N17  1  0.74078690  0.22788746  0.27438795  1
  N  N18  1  0.45570188  0.46556918  0.23206613  1
  N  N19  1  0.77038391  0.72387359  0.25630580  1
  N  N20  1  0.72693635  0.25936694  0.76836528  1
  N  N21  1  0.27253628  0.73728621  0.22216753  1
  N  N22  1  0.51304297  0.23944876  0.96635489  1
  N  N23  1  0.53446066  0.77205537  0.54712641  1
  N  N24  1  0.22319547  0.27390685  0.73727821  1
  N  N25  1  0.27281014  0.00809488  0.04535482  1
  N  N26  1  0.54597428  0.53774836  0.77129216  1
  N  N27  1  0.24147973  0.96914557  0.51155345  1
  N  N28  1  0.04175944  0.27177747  0.01455334  1
  N  N29  1  0.26349914  0.77193991  0.72761713  1
  N  N30  1  0.03147284  0.48907032  0.76013508  1
  N  N31  1  0.98233124  0.94708488  0.72047781  1
  O  O32  1  0.97049314  0.51525231  0.24449884  1
  O  O33  1  0.95346200  0.72580491  0.99186428  1
  O  O34  1  0.76043156  0.03395668  0.48866094  1
  O  O35  1  0.72435204  0.98670920  0.95346224  1
  O  O36  1  0.46491266  0.22957474  0.45247112  1
  O  O37  1  0.49234489  0.76363966  0.03403638  1
  O  O38  1  0.76597243  0.54031728  0.53655979  1
  O  O39  1  0.22671932  0.45373094  0.46315525  1
