# generated using pymatgen
data_LiLaNdSbO6
_symmetry_space_group_name_H-M   'P 1'
_cell_length_a   5.61503903
_cell_length_b   5.79327925
_cell_length_c   8.04449915
_cell_angle_alpha   89.97871179
_cell_angle_beta   89.65384086
_cell_angle_gamma   89.61370089
_symmetry_Int_Tables_number   1
_chemical_formula_structural   LiLaNdSbO6
_chemical_formula_sum   'Li2 La2 Nd2 Sb2 O12'
_cell_volume   261.67270979
_cell_formula_units_Z   2
loop_
 _symmetry_equiv_pos_site_id
 _symmetry_equiv_pos_as_xyz
  1  'x, y, z'
loop_
 _atom_site_type_symbol
 _atom_site_label
 _atom_site_symmetry_multiplicity
 _atom_site_fract_x
 _atom_site_fract_y
 _atom_site_fract_z
 _atom_site_occupancy
  Li  Li0  1  0.00000000  0.50000000  0.00000000  1
  Li  Li1  1  0.50000000  0.00000000  0.50000000  1
  La  La2  1  0.98546799  0.05124934  0.24870027  1
  La  La3  1  0.01453201  0.94875066  0.75129973  1
  Nd  Nd4  1  0.51541910  0.55470773  0.25099557  1
  Nd  Nd5  1  0.48458090  0.44529227  0.74900443  1
  Sb  Sb6  1  0.00000000  0.50000000  0.50000000  1
  Sb  Sb7  1  0.50000000  0.00000000  0.00000000  1
  O  O8  1  0.10605564  0.46964872  0.26183360  1
  O  O9  1  0.21257825  0.19540893  0.95145399  1
  O  O10  1  0.19269104  0.21584381  0.55635894  1
  O  O11  1  0.31378754  0.71428891  0.94265625  1
  O  O12  1  0.28596049  0.69132148  0.55317872  1
  O  O13  1  0.40307352  0.96059901  0.23895916  1
  O  O14  1  0.59692648  0.03940099  0.76104084  1
  O  O15  1  0.71403951  0.30867852  0.44682128  1
  O  O16  1  0.68621246  0.28571109  0.05734375  1
  O  O17  1  0.80730896  0.78415619  0.44364106  1
  O  O18  1  0.78742175  0.80459107  0.04854601  1
  O  O19  1  0.89394436  0.53035128  0.73816640  1
