# generated using pymatgen
data_Li8Mn5Fe3(BO3)8
_symmetry_space_group_name_H-M   'P 1'
_cell_length_a   6.03076077
_cell_length_b   9.84769552
_cell_length_c   9.73821045
_cell_angle_alpha   64.43309521
_cell_angle_beta   78.49231118
_cell_angle_gamma   79.23444175
_symmetry_Int_Tables_number   1
_chemical_formula_structural   Li8Mn5Fe3(BO3)8
_chemical_formula_sum   'Li8 Mn5 Fe3 B8 O24'
_cell_volume   507.89798598
_cell_formula_units_Z   1
loop_
 _symmetry_equiv_pos_site_id
 _symmetry_equiv_pos_as_xyz
  1  'x, y, z'
loop_
 _atom_site_type_symbol
 _atom_site_label
 _atom_site_symmetry_multiplicity
 _atom_site_fract_x
 _atom_site_fract_y
 _atom_site_fract_z
 _atom_site_occupancy
  Li  Li0  1  0.95369513  0.18318953  0.53293823  1
  Li  Li1  1  0.95506500  0.68529567  0.03293599  1
  Li  Li2  1  0.54436922  0.81493914  0.96529335  1
  Li  Li3  1  0.45521274  0.68666902  0.53423801  1
  Li  Li4  1  0.54567543  0.31420887  0.46656115  1
  Li  Li5  1  0.45544624  0.18474301  0.03361676  1
  Li  Li6  1  0.04590503  0.31618118  0.96621495  1
  Li  Li7  1  0.04735770  0.81737338  0.46748897  1
  Mn  Mn8  1  0.68569485  0.37492651  0.70647651  1
  Mn  Mn9  1  0.68696395  0.87547205  0.20671576  1
  Mn  Mn10  1  0.31311872  0.12428265  0.79303956  1
  Mn  Mn11  1  0.31421964  0.62692060  0.29445446  1
  Mn  Mn12  1  0.18541918  0.37286419  0.20643123  1
  Fe  Fe13  1  0.81734157  0.62564368  0.79748235  1
  Fe  Fe14  1  0.81669150  0.12807796  0.29098528  1
  Fe  Fe15  1  0.18042845  0.87029517  0.70968389  1
  B  B16  1  0.66500834  0.96059691  0.63215313  1
  B  B17  1  0.83339818  0.03462941  0.86664015  1
  B  B18  1  0.83264924  0.53649473  0.36756590  1
  B  B19  1  0.66727565  0.46113870  0.13181613  1
  B  B20  1  0.33654372  0.53836540  0.86645584  1
  B  B21  1  0.16642422  0.46568891  0.63214927  1
  B  B22  1  0.16585754  0.96550879  0.13261462  1
  B  B23  1  0.33315689  0.03690664  0.36955745  1
  O  O24  1  0.82350502  0.89210253  0.98485435  1
  O  O25  1  0.98547897  0.43933303  0.75282819  1
  O  O26  1  0.98511815  0.93893405  0.25449819  1
  O  O27  1  0.83995472  0.84418098  0.63694279  1
  O  O28  1  0.82462398  0.39243840  0.48435512  1
  O  O29  1  0.48274013  0.93437534  0.75231036  1
  O  O30  1  0.83728893  0.34221931  0.13813108  1
  O  O31  1  0.66292727  0.15209347  0.86432460  1
  O  O32  1  0.65964060  0.65215150  0.36535496  1
  O  O33  1  0.51695874  0.56593710  0.74654414  1
  O  O34  1  0.67395771  0.10416183  0.51467123  1
  O  O35  1  0.68098690  0.60300218  0.01127636  1
  O  O36  1  0.32436662  0.39504264  0.98339675  1
  O  O37  1  0.32358651  0.89460469  0.48732863  1
  O  O38  1  0.48733602  0.43690750  0.25131692  1
  O  O39  1  0.33705136  0.34796450  0.63501207  1
  O  O40  1  0.33719312  0.84882062  0.13437151  1
  O  O41  1  0.16385423  0.65511064  0.86420772  1
  O  O42  1  0.51429752  0.06502593  0.24838167  1
  O  O43  1  0.17592295  0.60864067  0.51509185  1
  O  O44  1  0.15800240  0.15271520  0.36533555  1
  O  O45  1  0.01367352  0.06060715  0.74535465  1
  O  O46  1  0.01319769  0.56460143  0.24623058  1
  O  O47  1  0.17541681  0.10861421  0.01436680  1
