# generated using pymatgen
data_V4(OF3)3
_symmetry_space_group_name_H-M   'P 1'
_cell_length_a   5.23734027
_cell_length_b   5.43917934
_cell_length_c   17.50069996
_cell_angle_alpha   91.57133993
_cell_angle_beta   99.43243683
_cell_angle_gamma   60.60020213
_symmetry_Int_Tables_number   1
_chemical_formula_structural   V4(OF3)3
_chemical_formula_sum   'V8 O6 F18'
_cell_volume   427.64656217
_cell_formula_units_Z   2
loop_
 _symmetry_equiv_pos_site_id
 _symmetry_equiv_pos_as_xyz
  1  'x, y, z'
loop_
 _atom_site_type_symbol
 _atom_site_label
 _atom_site_symmetry_multiplicity
 _atom_site_fract_x
 _atom_site_fract_y
 _atom_site_fract_z
 _atom_site_occupancy
  V  V0  1  0.74111008  0.63219399  0.12475967  1
  V  V1  1  0.78721514  0.08703183  0.62195414  1
  V  V2  1  0.45491447  0.27997617  0.24816928  1
  V  V3  1  0.48403515  0.75077414  0.74751880  1
  V  V4  1  0.21809088  0.91136411  0.37908390  1
  V  V5  1  0.28178660  0.35606535  0.88228957  1
  V  V6  1  0.02666861  0.98561841  0.00163907  1
  V  V7  1  0.00116246  0.50058667  0.50020384  1
  O  O8  1  0.95176178  0.82272074  0.56450098  1
  O  O9  1  0.39002646  0.80119463  0.04069902  1
  O  O10  1  0.57426971  0.21081643  0.95562212  1
  O  O11  1  0.09292776  0.46024489  0.20883838  1
  O  O12  1  0.11852450  0.93499301  0.70855182  1
  O  O13  1  0.04899723  0.17834988  0.43508443  1
  F  F14  1  0.90460542  0.85195633  0.08479355  1
  F  F15  1  0.96023236  0.32203163  0.05903793  1
  F  F16  1  0.52705080  0.94157891  0.19013838  1
  F  F17  1  0.90544134  0.04999498  0.28778019  1
  F  F18  1  0.93019699  0.33346027  0.58673371  1
  F  F19  1  0.92077874  0.53701369  0.79288415  1
  F  F20  1  0.58273719  0.40889385  0.16536612  1
  F  F21  1  0.59085959  0.90509459  0.66484080  1
  F  F22  1  0.57606941  0.70318270  0.45978301  1
  F  F23  1  0.45677422  0.57352666  0.31510675  1
  F  F24  1  0.56077058  0.41490504  0.68836912  1
  F  F25  1  0.42502756  0.08585045  0.33667102  1
  F  F26  1  0.42489106  0.29673354  0.54064584  1
  F  F27  1  0.41942993  0.59080866  0.83771264  1
  F  F28  1  0.06909281  0.66908368  0.41296404  1
  F  F29  1  0.47511270  0.06380405  0.81042132  1
  F  F30  1  0.02131923  0.68359939  0.93700092  1
  F  F31  1  0.07811724  0.15655233  0.91083651  1
