# generated using pymatgen
data_Zr2N2O
_symmetry_space_group_name_H-M   'P 1'
_cell_length_a   8.88088409
_cell_length_b   8.87573839
_cell_length_c   8.86223376
_cell_angle_alpha   109.24776287
_cell_angle_beta   109.45969529
_cell_angle_gamma   109.63509938
_symmetry_Int_Tables_number   1
_chemical_formula_structural   Zr2N2O
_chemical_formula_sum   'Zr16 N16 O8'
_cell_volume   538.21871022
_cell_formula_units_Z   8
loop_
 _symmetry_equiv_pos_site_id
 _symmetry_equiv_pos_as_xyz
  1  'x, y, z'
loop_
 _atom_site_type_symbol
 _atom_site_label
 _atom_site_symmetry_multiplicity
 _atom_site_fract_x
 _atom_site_fract_y
 _atom_site_fract_z
 _atom_site_occupancy
  Zr  Zr0  1  0.75345859  0.96807621  0.20669033  1
  Zr  Zr1  1  0.99560085  0.98886334  0.98956032  1
  Zr  Zr2  1  0.03416244  0.77680914  0.24545406  1
  Zr  Zr3  1  0.50204715  0.50363385  0.00290660  1
  Zr  Zr4  1  0.53038592  0.28029717  0.24624844  1
  Zr  Zr5  1  0.49861339  0.99202180  0.50089447  1
  Zr  Zr6  1  0.25704416  0.54234806  0.28809451  1
  Zr  Zr7  1  0.29304808  0.26752807  0.55176130  1
  Zr  Zr8  1  0.71305494  0.74448212  0.45955327  1
  Zr  Zr9  1  0.78644940  0.25029217  0.03763701  1
  Zr  Zr10  1  0.20739525  0.74807769  0.96143987  1
  Zr  Zr11  1  0.75512403  0.46325353  0.72383109  1
  Zr  Zr12  1  0.00840885  0.49875867  0.49961682  1
  Zr  Zr13  1  0.46420114  0.71530067  0.74398971  1
  Zr  Zr14  1  0.96413835  0.21687936  0.74982647  1
  Zr  Zr15  1  0.24003292  0.02903154  0.78715563  1
  N  N16  1  0.73221156  0.96781860  0.96021336  1
  N  N17  1  0.75587670  0.22470747  0.27466035  1
  N  N18  1  0.45255779  0.48330031  0.22439251  1
  N  N19  1  0.72278779  0.23503606  0.77149061  1
  N  N20  1  0.77183391  0.73298316  0.24047993  1
  N  N21  1  0.22830112  0.27191023  0.76219208  1
  N  N22  1  0.98705192  0.53185605  0.25746482  1
  N  N23  1  0.51219766  0.77553763  0.54438644  1
  N  N24  1  0.95385708  0.72869722  0.96798715  1
  N  N25  1  0.54581270  0.51258511  0.77464700  1
  N  N26  1  0.22404888  0.45041859  0.48576165  1
  N  N27  1  0.27890979  0.76744787  0.22936898  1
  N  N28  1  0.96249069  0.95090654  0.72641127  1
  N  N29  1  0.24009888  0.77453745  0.72437897  1
  N  N30  1  0.01052554  0.46637982  0.73882782  1
  N  N31  1  0.27273749  0.03864851  0.04599321  1
  O  O32  1  0.53719074  0.26550470  0.99097476  1
  O  O33  1  0.73712647  0.01200021  0.46637765  1
  O  O34  1  0.04369370  0.27233182  0.03037864  1
  O  O35  1  0.76761274  0.54310436  0.51224079  1
  O  O36  1  0.03788619  0.04753377  0.27587197  1
  O  O37  1  0.46679051  0.73927802  0.01302407  1
  O  O38  1  0.26532111  0.99292347  0.53222392  1
  O  O39  1  0.48991457  0.22890069  0.45559315  1
