# generated using pymatgen
data_Li8NbFe7(PO4)12
_symmetry_space_group_name_H-M   'P 1'
_cell_length_a   8.69150969
_cell_length_b   8.81186586
_cell_length_c   12.23817037
_cell_angle_alpha   90.13395041
_cell_angle_beta   90.10039145
_cell_angle_gamma   90.10449236
_symmetry_Int_Tables_number   1
_chemical_formula_structural   Li8NbFe7(PO4)12
_chemical_formula_sum   'Li8 Nb1 Fe7 P12 O48'
_cell_volume   937.29653551
_cell_formula_units_Z   1
loop_
 _symmetry_equiv_pos_site_id
 _symmetry_equiv_pos_as_xyz
  1  'x, y, z'
loop_
 _atom_site_type_symbol
 _atom_site_label
 _atom_site_symmetry_multiplicity
 _atom_site_fract_x
 _atom_site_fract_y
 _atom_site_fract_z
 _atom_site_occupancy
  Li  Li0  1  0.21722224  0.72285220  0.18161475  1
  Li  Li1  1  0.21808542  0.77800194  0.81877562  1
  Li  Li2  1  0.28269629  0.22246716  0.31788304  1
  Li  Li3  1  0.28218571  0.27706348  0.68271564  1
  Li  Li4  1  0.71653238  0.72495066  0.31640064  1
  Li  Li5  1  0.71737134  0.78474180  0.68247140  1
  Li  Li6  1  0.78399224  0.22193026  0.18140501  1
  Li  Li7  1  0.78532535  0.27514830  0.82450410  1
  Nb  Nb8  1  0.75307790  0.46153855  0.61312289  1
  Fe  Fe9  1  0.24841081  0.96022184  0.61288198  1
  Fe  Fe10  1  0.24863719  0.54174084  0.38644210  1
  Fe  Fe11  1  0.25104387  0.04102496  0.11284015  1
  Fe  Fe12  1  0.25154171  0.45872657  0.88785387  1
  Fe  Fe13  1  0.74887098  0.54135617  0.11239363  1
  Fe  Fe14  1  0.74812870  0.96005359  0.88909867  1
  Fe  Fe15  1  0.75081125  0.03817461  0.38663150  1
  P  P16  1  0.04430808  0.24575498  0.49664474  1
  P  P17  1  0.46129061  0.74976347  0.00034728  1
  P  P18  1  0.53916488  0.25030896  0.00073383  1
  P  P19  1  0.96333781  0.75349043  0.49757675  1
  P  P20  1  0.10519240  0.39268389  0.14694477  1
  P  P21  1  0.10575382  0.10677867  0.85314796  1
  P  P22  1  0.38990513  0.60625552  0.64672087  1
  P  P23  1  0.39407280  0.89322950  0.35347380  1
  P  P24  1  0.60291160  0.10286166  0.64608242  1
  P  P25  1  0.60303516  0.39189883  0.34923196  1
  P  P26  1  0.89713164  0.60962483  0.85472619  1
  P  P27  1  0.89491442  0.89258987  0.14705114  1
  O  O28  1  0.05599319  0.64071779  0.43030277  1
  O  O29  1  0.05496630  0.85764670  0.57204220  1
  O  O30  1  0.07323632  0.89582523  0.15588152  1
  O  O31  1  0.07337116  0.60492203  0.84314921  1
  O  O32  1  0.14559247  0.16431775  0.58115768  1
  O  O33  1  0.14772595  0.33837644  0.42000379  1
  O  O34  1  0.15468456  0.43419700  0.03054526  1
  O  O35  1  0.15557204  0.06626904  0.96951757  1
  O  O36  1  0.16193575  0.23257322  0.17940086  1
  O  O37  1  0.16158123  0.26771802  0.82068136  1
  O  O38  1  0.17375680  0.51430838  0.22535273  1
  O  O39  1  0.17405073  0.98608599  0.77441798  1
  O  O40  1  0.32592945  0.01370949  0.27428494  1
  O  O41  1  0.32577342  0.48529260  0.72543241  1
  O  O42  1  0.34017694  0.76749440  0.68042486  1
  O  O43  1  0.33704896  0.73264811  0.32018837  1
  O  O44  1  0.34657107  0.56692063  0.52923686  1
  O  O45  1  0.34401938  0.93473345  0.46971172  1
  O  O46  1  0.35259249  0.83743980  0.07926109  1
  O  O47  1  0.35291097  0.66191244  0.92107886  1
  O  O48  1  0.42689387  0.10728357  0.65713528  1
  O  O49  1  0.42681521  0.39424123  0.34512212  1
  O  O50  1  0.44324434  0.14274070  0.07106097  1
  O  O51  1  0.44390354  0.35742937  0.92929450  1
  O  O52  1  0.55670933  0.64299471  0.07157794  1
  O  O53  1  0.55676958  0.85694621  0.92920715  1
  O  O54  1  0.57266560  0.60075960  0.65544921  1
  O  O55  1  0.57227533  0.89589197  0.34393869  1
  O  O56  1  0.64690609  0.33838864  0.08031398  1
  O  O57  1  0.64708594  0.16286274  0.92112622  1
  O  O58  1  0.65511787  0.06789624  0.53010496  1
  O  O59  1  0.65688356  0.42989869  0.47126383  1
  O  O60  1  0.66359477  0.23309751  0.32041954  1
  O  O61  1  0.66360627  0.26847155  0.67788929  1
  O  O62  1  0.67552468  0.51544361  0.27726088  1
  O  O63  1  0.67512525  0.98863675  0.72628727  1
  O  O64  1  0.82615614  0.01331111  0.22578848  1
  O  O65  1  0.82780931  0.48639401  0.77227378  1
  O  O66  1  0.83824416  0.73203490  0.17921727  1
  O  O67  1  0.83617302  0.76642142  0.81919883  1
  O  O68  1  0.84298793  0.56390871  0.96815017  1
  O  O69  1  0.84496462  0.93314901  0.03065753  1
  O  O70  1  0.85233831  0.65956865  0.57799207  1
  O  O71  1  0.84975939  0.83617252  0.42147473  1
  O  O72  1  0.92707809  0.10412437  0.84455378  1
  O  O73  1  0.92677344  0.39570536  0.15559947  1
  O  O74  1  0.94280874  0.14089976  0.42934974  1
  O  O75  1  0.93934667  0.35698606  0.56650460  1
