# generated using pymatgen
data_B10H13
_symmetry_space_group_name_H-M   'P 1'
_cell_length_a   10.86115272
_cell_length_b   10.72918424
_cell_length_c   14.80590194
_cell_angle_alpha   90.00000000
_cell_angle_beta   90.00000000
_cell_angle_gamma   90.00000000
_symmetry_Int_Tables_number   1
_chemical_formula_structural   B10H13
_chemical_formula_sum   'B80 H104'
_cell_volume   1725.35112795
_cell_formula_units_Z   8
loop_
 _symmetry_equiv_pos_site_id
 _symmetry_equiv_pos_as_xyz
  1  'x, y, z'
loop_
 _atom_site_type_symbol
 _atom_site_label
 _atom_site_symmetry_multiplicity
 _atom_site_fract_x
 _atom_site_fract_y
 _atom_site_fract_z
 _atom_site_occupancy
  B  B0  1  0.00874071  0.06801867  0.34355105  1
  B  B1  1  0.00874071  0.43198133  0.84355105  1
  B  B2  1  0.01376582  0.22657481  0.31529635  1
  B  B3  1  0.01376582  0.27342519  0.81529635  1
  B  B4  1  0.02388091  0.31567515  0.41656247  1
  B  B5  1  0.02388091  0.18432485  0.91656247  1
  B  B6  1  0.03334843  0.05215253  0.46267299  1
  B  B7  1  0.03334843  0.44784747  0.96267299  1
  B  B8  1  0.05643459  0.29480521  0.00316779  1
  B  B9  1  0.05643459  0.20519479  0.50316779  1
  B  B10  1  0.05693717  0.67793616  0.08155946  1
  B  B11  1  0.05693717  0.82206384  0.58155946  1
  B  B12  1  0.14707381  0.49968728  0.88315604  1
  B  B13  1  0.14707381  0.00031272  0.38315604  1
  B  B14  1  0.14801223  0.10875046  0.29172215  1
  B  B15  1  0.14801223  0.39124954  0.79172215  1
  B  B16  1  0.19040343  0.08819151  0.47987037  1
  B  B17  1  0.19040343  0.41180849  0.97987037  1
  B  B18  1  0.23269689  0.60429883  0.37400074  1
  B  B19  1  0.23269689  0.89570117  0.87400074  1
  B  B20  1  0.26730311  0.10429883  0.37400074  1
  B  B21  1  0.26730311  0.39570117  0.87400074  1
  B  B22  1  0.30959657  0.58819151  0.47987037  1
  B  B23  1  0.30959657  0.91180849  0.97987037  1
  B  B24  1  0.35198777  0.60875046  0.29172215  1
  B  B25  1  0.35198777  0.89124954  0.79172215  1
  B  B26  1  0.35292619  0.99968728  0.88315604  1
  B  B27  1  0.35292619  0.50031272  0.38315604  1
  B  B28  1  0.44306283  0.17793616  0.08155946  1
  B  B29  1  0.44306283  0.32206384  0.58155946  1
  B  B30  1  0.44356541  0.79480521  0.00316779  1
  B  B31  1  0.44356541  0.70519479  0.50316779  1
  B  B32  1  0.46665157  0.55215253  0.46267299  1
  B  B33  1  0.46665157  0.94784747  0.96267299  1
  B  B34  1  0.47611909  0.68432485  0.91656247  1
  B  B35  1  0.47611909  0.81567515  0.41656247  1
  B  B36  1  0.48623418  0.72657481  0.31529635  1
  B  B37  1  0.48623418  0.77342519  0.81529635  1
  B  B38  1  0.49125929  0.56801867  0.34355105  1
  B  B39  1  0.49125929  0.93198133  0.84355105  1
  B  B40  1  0.50874071  0.06801867  0.15644895  1
  B  B41  1  0.50874071  0.43198133  0.65644895  1
  B  B42  1  0.51376582  0.22657481  0.18470365  1
  B  B43  1  0.51376582  0.27342519  0.68470365  1
  B  B44  1  0.52388091  0.31567515  0.08343753  1
  B  B45  1  0.52388091  0.18432485  0.58343753  1
  B  B46  1  0.53334843  0.05215253  0.03732701  1
  B  B47  1  0.53334843  0.44784747  0.53732701  1
  B  B48  1  0.55643459  0.29480521  0.49683221  1
  B  B49  1  0.55643459  0.20519479  0.99683221  1
  B  B50  1  0.55693717  0.67793616  0.41844054  1
  B  B51  1  0.55693717  0.82206384  0.91844054  1
  B  B52  1  0.64707381  0.49968728  0.61684396  1
  B  B53  1  0.64707381  0.00031272  0.11684396  1
  B  B54  1  0.64801223  0.10875046  0.20827785  1
  B  B55  1  0.64801223  0.39124954  0.70827785  1
  B  B56  1  0.69040343  0.08819151  0.02012963  1
  B  B57  1  0.69040343  0.41180849  0.52012963  1
  B  B58  1  0.73269689  0.60429883  0.12599926  1
  B  B59  1  0.73269689  0.89570117  0.62599926  1
  B  B60  1  0.76730311  0.10429883  0.12599926  1
  B  B61  1  0.76730311  0.39570117  0.62599926  1
  B  B62  1  0.80959657  0.58819151  0.02012963  1
  B  B63  1  0.80959657  0.91180849  0.52012963  1
  B  B64  1  0.85198777  0.60875046  0.20827785  1
  B  B65  1  0.85198777  0.89124954  0.70827785  1
  B  B66  1  0.85292619  0.99968728  0.61684396  1
  B  B67  1  0.85292619  0.50031272  0.11684396  1
  B  B68  1  0.94306283  0.17793616  0.41844054  1
  B  B69  1  0.94306283  0.32206384  0.91844054  1
  B  B70  1  0.94356541  0.70519479  0.99683221  1
  B  B71  1  0.94356541  0.79480521  0.49683221  1
  B  B72  1  0.96665157  0.55215253  0.03732701  1
  B  B73  1  0.96665157  0.94784747  0.53732701  1
  B  B74  1  0.97611909  0.68432485  0.58343753  1
  B  B75  1  0.97611909  0.81567515  0.08343753  1
  B  B76  1  0.98623418  0.72657481  0.18470365  1
  B  B77  1  0.98623418  0.77342519  0.68470365  1
  B  B78  1  0.99125929  0.56801867  0.15644895  1
  B  B79  1  0.99125929  0.93198133  0.65644895  1
  H  H80  1  0.01083722  0.91984644  0.07143671  1
  H  H81  1  0.01083722  0.58015356  0.57143671  1
  H  H82  1  0.03721509  0.76876594  0.24924638  1
  H  H83  1  0.03721509  0.73123406  0.74924638  1
  H  H84  1  0.03818323  0.26449396  0.07970144  1
  H  H85  1  0.03818323  0.23550604  0.57970144  1
  H  H86  1  0.05889037  0.50602066  0.20168136  1
  H  H87  1  0.05889037  0.99397934  0.70168136  1
  H  H88  1  0.09130412  0.31592310  0.34029068  1
  H  H89  1  0.09130412  0.18407690  0.84029068  1
  H  H90  1  0.12199346  0.29945725  0.46990527  1
  H  H91  1  0.12199346  0.20054275  0.96990527  1
  H  H92  1  0.12637741  0.58784060  0.35934557  1
  H  H93  1  0.12637741  0.91215940  0.85934557  1
  H  H94  1  0.16545467  0.68100210  0.06879322  1
  H  H95  1  0.16545467  0.81899790  0.56879322  1
  H  H96  1  0.16672311  0.89158138  0.37317480  1
  H  H97  1  0.16672311  0.60841862  0.87317480  1
  H  H98  1  0.17182684  0.08345952  0.21505920  1
  H  H99  1  0.17182684  0.41654048  0.71505920  1
  H  H100  1  0.23120659  0.19305007  0.31528712  1
  H  H101  1  0.23120659  0.30694993  0.81528712  1
  H  H102  1  0.23965532  0.67902443  0.44615230  1
  H  H103  1  0.23965532  0.82097557  0.94615230  1
  H  H104  1  0.24856380  0.05140826  0.54292683  1
  H  H105  1  0.24856380  0.44859174  0.04292683  1
  H  H106  1  0.25143620  0.94859174  0.04292683  1
  H  H107  1  0.25143620  0.55140826  0.54292683  1
  H  H108  1  0.26034468  0.17902443  0.44615230  1
  H  H109  1  0.26034468  0.32097557  0.94615230  1
  H  H110  1  0.26879341  0.69305007  0.31528712  1
  H  H111  1  0.26879341  0.80694993  0.81528712  1
  H  H112  1  0.32817316  0.58345952  0.21505920  1
  H  H113  1  0.32817316  0.91654048  0.71505920  1
  H  H114  1  0.33327689  0.10841862  0.87317480  1
  H  H115  1  0.33327689  0.39158138  0.37317480  1
  H  H116  1  0.33454533  0.18100210  0.06879322  1
  H  H117  1  0.33454533  0.31899790  0.56879322  1
  H  H118  1  0.37362259  0.08784060  0.35934557  1
  H  H119  1  0.37362259  0.41215940  0.85934557  1
  H  H120  1  0.37800654  0.79945725  0.46990527  1
  H  H121  1  0.37800654  0.70054275  0.96990527  1
  H  H122  1  0.40869588  0.68407690  0.84029068  1
  H  H123  1  0.40869588  0.81592310  0.34029068  1
  H  H124  1  0.44110963  0.00602066  0.20168136  1
  H  H125  1  0.44110963  0.49397934  0.70168136  1
  H  H126  1  0.46181677  0.76449396  0.07970144  1
  H  H127  1  0.46181677  0.73550604  0.57970144  1
  H  H128  1  0.46278491  0.26876594  0.24924638  1
  H  H129  1  0.46278491  0.23123406  0.74924638  1
  H  H130  1  0.48916278  0.41984644  0.07143671  1
  H  H131  1  0.48916278  0.08015356  0.57143671  1
  H  H132  1  0.51083722  0.58015356  0.92856329  1
  H  H133  1  0.51083722  0.91984644  0.42856329  1
  H  H134  1  0.53721509  0.76876594  0.25075362  1
  H  H135  1  0.53721509  0.73123406  0.75075362  1
  H  H136  1  0.53818323  0.26449396  0.42029856  1
  H  H137  1  0.53818323  0.23550604  0.92029856  1
  H  H138  1  0.55889037  0.50602066  0.29831864  1
  H  H139  1  0.55889037  0.99397934  0.79831864  1
  H  H140  1  0.59130412  0.31592310  0.15970932  1
  H  H141  1  0.59130412  0.18407690  0.65970932  1
  H  H142  1  0.62199346  0.29945725  0.03009473  1
  H  H143  1  0.62199346  0.20054275  0.53009473  1
  H  H144  1  0.62637741  0.58784060  0.14065443  1
  H  H145  1  0.62637741  0.91215940  0.64065443  1
  H  H146  1  0.66545467  0.68100210  0.43120678  1
  H  H147  1  0.66545467  0.81899790  0.93120678  1
  H  H148  1  0.66672311  0.60841862  0.62682520  1
  H  H149  1  0.66672311  0.89158138  0.12682520  1
  H  H150  1  0.67182684  0.08345952  0.28494080  1
  H  H151  1  0.67182684  0.41654048  0.78494080  1
  H  H152  1  0.73120659  0.19305007  0.18471288  1
  H  H153  1  0.73120659  0.30694993  0.68471288  1
  H  H154  1  0.73965532  0.67902443  0.05384770  1
  H  H155  1  0.73965532  0.82097557  0.55384770  1
  H  H156  1  0.74856380  0.44859174  0.45707317  1
  H  H157  1  0.74856380  0.05140826  0.95707317  1
  H  H158  1  0.75143620  0.55140826  0.95707317  1
  H  H159  1  0.75143620  0.94859174  0.45707317  1
  H  H160  1  0.76034468  0.17902443  0.05384770  1
  H  H161  1  0.76034468  0.32097557  0.55384770  1
  H  H162  1  0.76879341  0.69305007  0.18471288  1
  H  H163  1  0.76879341  0.80694993  0.68471288  1
  H  H164  1  0.82817316  0.58345952  0.28494080  1
  H  H165  1  0.82817316  0.91654048  0.78494080  1
  H  H166  1  0.83327689  0.10841862  0.62682520  1
  H  H167  1  0.83327689  0.39158138  0.12682520  1
  H  H168  1  0.83454533  0.18100210  0.43120678  1
  H  H169  1  0.83454533  0.31899790  0.93120678  1
  H  H170  1  0.87362259  0.08784060  0.14065443  1
  H  H171  1  0.87362259  0.41215940  0.64065443  1
  H  H172  1  0.87800654  0.70054275  0.53009473  1
  H  H173  1  0.87800654  0.79945725  0.03009473  1
  H  H174  1  0.90869588  0.68407690  0.65970932  1
  H  H175  1  0.90869588  0.81592310  0.15970932  1
  H  H176  1  0.94110963  0.00602066  0.29831864  1
  H  H177  1  0.94110963  0.49397934  0.79831864  1
  H  H178  1  0.96181677  0.73550604  0.92029856  1
  H  H179  1  0.96181677  0.76449396  0.42029856  1
  H  H180  1  0.96278491  0.23123406  0.75075362  1
  H  H181  1  0.96278491  0.26876594  0.25075362  1
  H  H182  1  0.98916278  0.08015356  0.92856329  1
  H  H183  1  0.98916278  0.41984644  0.42856329  1
