# generated using pymatgen
data_Hf2N2O
_symmetry_space_group_name_H-M   'P 1'
_cell_length_a   8.70837079
_cell_length_b   8.73775555
_cell_length_c   8.74286068
_cell_angle_alpha   109.42236659
_cell_angle_beta   109.43455132
_cell_angle_gamma   109.52239310
_symmetry_Int_Tables_number   1
_chemical_formula_structural   Hf2N2O
_chemical_formula_sum   'Hf16 N16 O8'
_cell_volume   512.33278831
_cell_formula_units_Z   8
loop_
 _symmetry_equiv_pos_site_id
 _symmetry_equiv_pos_as_xyz
  1  'x, y, z'
loop_
 _atom_site_type_symbol
 _atom_site_label
 _atom_site_symmetry_multiplicity
 _atom_site_fract_x
 _atom_site_fract_y
 _atom_site_fract_z
 _atom_site_occupancy
  Hf  Hf0  1  0.75073342  0.96603881  0.20668830  1
  Hf  Hf1  1  0.03091603  0.77512888  0.24297466  1
  Hf  Hf2  1  0.99547213  0.98750162  0.99023468  1
  Hf  Hf3  1  0.53355425  0.27692592  0.25567618  1
  Hf  Hf4  1  0.50230609  0.50219264  0.99334264  1
  Hf  Hf5  1  0.49673544  0.99946890  0.49873514  1
  Hf  Hf6  1  0.25228412  0.54268804  0.28816494  1
  Hf  Hf7  1  0.29349698  0.26434837  0.54624418  1
  Hf  Hf8  1  0.71936618  0.75297958  0.46706907  1
  Hf  Hf9  1  0.78559642  0.25012566  0.03791727  1
  Hf  Hf10  1  0.20632031  0.74850528  0.96093388  1
  Hf  Hf11  1  0.74914733  0.45692743  0.71834947  1
  Hf  Hf12  1  0.00962815  0.49924004  0.50137752  1
  Hf  Hf13  1  0.96566292  0.21871748  0.75134089  1
  Hf  Hf14  1  0.46603393  0.71737017  0.74147518  1
  Hf  Hf15  1  0.24278505  0.03128893  0.78892711  1
  N  N16  1  0.73161730  0.96814070  0.96026634  1
  N  N17  1  0.75516499  0.22354330  0.27556297  1
  N  N18  1  0.72468181  0.23349683  0.77489773  1
  N  N19  1  0.76977725  0.73097575  0.24057971  1
  N  N20  1  0.48943549  0.22829084  0.45743846  1
  N  N21  1  0.23063013  0.27297985  0.76581109  1
  N  N22  1  0.98819598  0.53175840  0.25824713  1
  N  N23  1  0.51341601  0.77172352  0.54098091  1
  N  N24  1  0.95296578  0.72906532  0.96716550  1
  N  N25  1  0.54759809  0.51533418  0.77871301  1
  N  N26  1  0.22463719  0.44941032  0.48353128  1
  N  N27  1  0.27755066  0.76469660  0.22700914  1
  N  N28  1  0.96136295  0.95154165  0.72606471  1
  N  N29  1  0.24156517  0.77489044  0.72441719  1
  N  N30  1  0.00882279  0.46496535  0.73621850  1
  N  N31  1  0.27249288  0.03878635  0.04353907  1
  O  O32  1  0.53926760  0.26978213  0.99345074  1
  O  O33  1  0.74006898  0.01495760  0.46774592  1
  O  O34  1  0.05032563  0.27526893  0.03474002  1
  O  O35  1  0.45121250  0.48153160  0.22432872  1
  O  O36  1  0.76837179  0.54698117  0.50850053  1
  O  O37  1  0.03573818  0.04638599  0.27638912  1
  O  O38  1  0.46514201  0.73802274  0.01367339  1
  O  O39  1  0.25992008  0.98802369  0.53127873  1
