# generated using pymatgen
data_Zr2N2O
_symmetry_space_group_name_H-M   'P 1'
_cell_length_a   8.87085945
_cell_length_b   8.87714681
_cell_length_c   8.86589434
_cell_angle_alpha   109.27898485
_cell_angle_beta   109.40271658
_cell_angle_gamma   109.59068889
_symmetry_Int_Tables_number   1
_chemical_formula_structural   Zr2N2O
_chemical_formula_sum   'Zr16 N16 O8'
_cell_volume   538.38406273
_cell_formula_units_Z   8
loop_
 _symmetry_equiv_pos_site_id
 _symmetry_equiv_pos_as_xyz
  1  'x, y, z'
loop_
 _atom_site_type_symbol
 _atom_site_label
 _atom_site_symmetry_multiplicity
 _atom_site_fract_x
 _atom_site_fract_y
 _atom_site_fract_z
 _atom_site_occupancy
  Zr  Zr0  1  0.75200600  0.96750788  0.20686622  1
  Zr  Zr1  1  0.03047921  0.77594303  0.24405499  1
  Zr  Zr2  1  0.99615787  0.98892106  0.99021167  1
  Zr  Zr3  1  0.52927798  0.27974898  0.25354401  1
  Zr  Zr4  1  0.50235805  0.50295274  0.00333618  1
  Zr  Zr5  1  0.48909542  0.99130600  0.48882398  1
  Zr  Zr6  1  0.25925157  0.54208801  0.29009258  1
  Zr  Zr7  1  0.29756199  0.26647670  0.54762990  1
  Zr  Zr8  1  0.71231572  0.74661095  0.46087822  1
  Zr  Zr9  1  0.78564032  0.25105565  0.04437573  1
  Zr  Zr10  1  0.20547943  0.74701734  0.95958319  1
  Zr  Zr11  1  0.74957823  0.46103796  0.71497145  1
  Zr  Zr12  1  0.01030652  0.49952493  0.50103573  1
  Zr  Zr13  1  0.97295935  0.21631080  0.75013688  1
  Zr  Zr14  1  0.46525494  0.71553566  0.74388859  1
  Zr  Zr15  1  0.24075213  0.02822430  0.78739651  1
  N  N16  1  0.73202887  0.96928131  0.96152946  1
  N  N17  1  0.75753943  0.22635105  0.27386444  1
  N  N18  1  0.45289652  0.48272560  0.22519938  1
  N  N19  1  0.77114273  0.73381342  0.24094860  1
  N  N20  1  0.49321457  0.22942812  0.46032854  1
  N  N21  1  0.22860611  0.27107213  0.76372880  1
  N  N22  1  0.98709349  0.53182714  0.25744658  1
  N  N23  1  0.51226546  0.77630143  0.54488453  1
  N  N24  1  0.95365004  0.72946376  0.96785878  1
  N  N25  1  0.54792015  0.51471319  0.77801307  1
  N  N26  1  0.22531096  0.45058473  0.48541428  1
  N  N27  1  0.27893000  0.76756691  0.22889538  1
  N  N28  1  0.96252763  0.95104145  0.72671385  1
  N  N29  1  0.23975486  0.77265421  0.72494102  1
  N  N30  1  0.00629364  0.46374673  0.73749206  1
  N  N31  1  0.27193348  0.03737395  0.04291932  1
  O  O32  1  0.53890625  0.26444245  0.98474182  1
  O  O33  1  0.73907153  0.01591995  0.46985105  1
  O  O34  1  0.04089961  0.27299294  0.02731990  1
  O  O35  1  0.72480816  0.23507386  0.77430166  1
  O  O36  1  0.77247781  0.54875556  0.51547026  1
  O  O37  1  0.03658360  0.04724629  0.27594536  1
  O  O38  1  0.46592745  0.73883031  0.01376223  1
  O  O39  1  0.26174494  0.98853350  0.53160381  1
