# generated using pymatgen
data_Hf2N2O
_symmetry_space_group_name_H-M   'P 1'
_cell_length_a   8.74816724
_cell_length_b   8.73039211
_cell_length_c   8.71234914
_cell_angle_alpha   109.37040263
_cell_angle_beta   109.32310666
_cell_angle_gamma   109.68498381
_symmetry_Int_Tables_number   1
_chemical_formula_structural   Hf2N2O
_chemical_formula_sum   'Hf16 N16 O8'
_cell_volume   512.44672045
_cell_formula_units_Z   8
loop_
 _symmetry_equiv_pos_site_id
 _symmetry_equiv_pos_as_xyz
  1  'x, y, z'
loop_
 _atom_site_type_symbol
 _atom_site_label
 _atom_site_symmetry_multiplicity
 _atom_site_fract_x
 _atom_site_fract_y
 _atom_site_fract_z
 _atom_site_occupancy
  Hf  Hf0  1  0.50030503  0.99940737  0.98769010  1
  Hf  Hf1  1  0.74852479  0.28559001  0.53624842  1
  Hf  Hf2  1  0.21430699  0.96670643  0.25084741  1
  Hf  Hf3  1  0.71836110  0.46823702  0.24148291  1
  Hf  Hf4  1  0.23896558  0.20888157  0.95151468  1
  Hf  Hf5  1  0.01206770  0.51173596  0.00878393  1
  Hf  Hf6  1  0.99914727  0.99826681  0.49614424  1
  Hf  Hf7  1  0.49244694  0.49877189  0.50994791  1
  Hf  Hf8  1  0.53266431  0.74567119  0.29205399  1
  Hf  Hf9  1  0.96994035  0.25216498  0.21183643  1
  Hf  Hf10  1  0.46313991  0.25959526  0.71953698  1
  Hf  Hf11  1  0.03425406  0.74712162  0.78343733  1
  Hf  Hf12  1  0.75987129  0.78984927  0.04030552  1
  Hf  Hf13  1  0.78945323  0.03146493  0.75900380  1
  Hf  Hf14  1  0.28085138  0.53427668  0.74735544  1
  Hf  Hf15  1  0.25141742  0.70814366  0.46530606  1
  N  N16  1  0.72603833  0.99152265  0.95786577  1
  N  N17  1  0.51590211  0.24023956  0.96817949  1
  N  N18  1  0.76648295  0.72773090  0.26230355  1
  N  N19  1  0.46793872  0.22757861  0.45562163  1
  N  N20  1  0.01585467  0.04893931  0.27809599  1
  N  N21  1  0.04997043  0.27594276  0.01317979  1
  N  N22  1  0.53885824  0.77124377  0.54324327  1
  N  N23  1  0.22952109  0.45604502  0.46852986  1
  N  N24  1  0.95626687  0.72926326  0.98738543  1
  N  N25  1  0.98539446  0.94970231  0.72508409  1
  N  N26  1  0.22520953  0.26905082  0.73569976  1
  N  N27  1  0.96446254  0.51005598  0.23939138  1
  N  N28  1  0.54628058  0.53619388  0.77636362  1
  N  N29  1  0.27540896  0.74064473  0.22695605  1
  N  N30  1  0.02625262  0.48285525  0.75427024  1
  N  N31  1  0.26583388  0.77982205  0.73115250  1
  O  O32  1  0.76206814  0.03815069  0.48639114  1
  O  O33  1  0.27377377  0.01042713  0.04586080  1
  O  O34  1  0.73413799  0.22357157  0.27675728  1
  O  O35  1  0.77212791  0.54101795  0.52666716  1
  O  O36  1  0.45267997  0.46379146  0.22742960  1
  O  O37  1  0.48780163  0.76667599  0.03847260  1
  O  O38  1  0.72318991  0.25138325  0.76555553  1
  O  O39  1  0.23282737  0.96226644  0.50804932  1
