# generated using pymatgen
data_Hf2N2O
_symmetry_space_group_name_H-M   'P 1'
_cell_length_a   8.72431661
_cell_length_b   8.73437387
_cell_length_c   8.72327759
_cell_angle_alpha   109.29064335
_cell_angle_beta   109.41605348
_cell_angle_gamma   109.57742705
_symmetry_Int_Tables_number   1
_chemical_formula_structural   Hf2N2O
_chemical_formula_sum   'Hf16 N16 O8'
_cell_volume   512.52057282
_cell_formula_units_Z   8
loop_
 _symmetry_equiv_pos_site_id
 _symmetry_equiv_pos_as_xyz
  1  'x, y, z'
loop_
 _atom_site_type_symbol
 _atom_site_label
 _atom_site_symmetry_multiplicity
 _atom_site_fract_x
 _atom_site_fract_y
 _atom_site_fract_z
 _atom_site_occupancy
  Hf  Hf0  1  0.75186198  0.96736762  0.20744798  1
  Hf  Hf1  1  0.99570857  0.98851261  0.99000333  1
  Hf  Hf2  1  0.02992463  0.77554579  0.24370488  1
  Hf  Hf3  1  0.52847784  0.27896720  0.25379589  1
  Hf  Hf4  1  0.50219080  0.50274096  0.00321919  1
  Hf  Hf5  1  0.48916941  0.99138464  0.48876974  1
  Hf  Hf6  1  0.25894320  0.54192171  0.28974725  1
  Hf  Hf7  1  0.29722761  0.26674625  0.54773300  1
  Hf  Hf8  1  0.71236941  0.74640252  0.46157752  1
  Hf  Hf9  1  0.78563422  0.25131634  0.04447512  1
  Hf  Hf10  1  0.20592549  0.74728121  0.95980407  1
  Hf  Hf11  1  0.74979406  0.46219637  0.71574816  1
  Hf  Hf12  1  0.01026181  0.49904175  0.50092466  1
  Hf  Hf13  1  0.97291109  0.21650191  0.75010614  1
  Hf  Hf14  1  0.46623635  0.71637415  0.74395914  1
  Hf  Hf15  1  0.24077643  0.02809297  0.78718085  1
  N  N16  1  0.73179669  0.96872543  0.96077774  1
  N  N17  1  0.75710908  0.22617720  0.27419113  1
  N  N18  1  0.45252138  0.48196314  0.22481288  1
  N  N19  1  0.77198824  0.73439254  0.24131828  1
  N  N20  1  0.49311566  0.22913290  0.46056929  1
  N  N21  1  0.22883238  0.27096739  0.76368556  1
  N  N22  1  0.98654720  0.53171089  0.25718359  1
  N  N23  1  0.51301461  0.77690702  0.54516346  1
  N  N24  1  0.95314492  0.72909982  0.96740100  1
  N  N25  1  0.54853825  0.51544412  0.77854044  1
  N  N26  1  0.22536998  0.44987608  0.48433313  1
  N  N27  1  0.27897631  0.76721070  0.22801034  1
  N  N28  1  0.96161223  0.95057630  0.72598209  1
  N  N29  1  0.24026370  0.77301812  0.72484147  1
  N  N30  1  0.00620233  0.46280507  0.73702979  1
  N  N31  1  0.27233634  0.03753849  0.04321254  1
  O  O32  1  0.53927365  0.26440966  0.98365058  1
  O  O33  1  0.73906574  0.01650160  0.46950339  1
  O  O34  1  0.04122444  0.27354453  0.02758037  1
  O  O35  1  0.72478115  0.23478614  0.77489097  1
  O  O36  1  0.77260046  0.54950902  0.51646421  1
  O  O37  1  0.03705508  0.04796404  0.27661556  1
  O  O38  1  0.46595614  0.73933348  0.01448592  1
  O  O39  1  0.26126317  0.98801432  0.53155735  1
