# generated using pymatgen
data_MgWF5
_symmetry_space_group_name_H-M   'P 1'
_cell_length_a   5.53232431
_cell_length_b   5.53232385
_cell_length_c   7.79584682
_cell_angle_alpha   98.00322997
_cell_angle_beta   111.21653600
_cell_angle_gamma   107.08832921
_symmetry_Int_Tables_number   1
_chemical_formula_structural   MgWF5
_chemical_formula_sum   'Mg2 W2 F10'
_cell_volume   204.37854214
_cell_formula_units_Z   2
loop_
 _symmetry_equiv_pos_site_id
 _symmetry_equiv_pos_as_xyz
  1  'x, y, z'
loop_
 _atom_site_type_symbol
 _atom_site_label
 _atom_site_symmetry_multiplicity
 _atom_site_fract_x
 _atom_site_fract_y
 _atom_site_fract_z
 _atom_site_occupancy
  Mg  Mg0  1  0.26493234  0.51493234  0.75000000  1
  Mg  Mg1  1  0.73506766  0.48506766  0.25000000  1
  W  W2  1  0.00000000  0.00000000  0.00000000  1
  W  W3  1  0.50000000  0.00000000  0.50000000  1
  F  F4  1  0.39406108  0.14406108  0.25000000  1
  F  F5  1  0.60593892  0.85593892  0.75000000  1
  F  F6  1  0.59325072  0.70815603  0.36486637  1
  F  F7  1  0.84328867  0.22838435  0.13513363  1
  F  F8  1  0.75185855  0.67938134  0.05548983  1
  F  F9  1  0.12389151  0.69636873  0.44451017  1
  F  F10  1  0.24814145  0.32061866  0.94451017  1
  F  F11  1  0.87610849  0.30363127  0.55548983  1
  F  F12  1  0.15671133  0.77161565  0.86486637  1
  F  F13  1  0.40674928  0.29184397  0.63513363  1
