# generated using pymatgen
data_Li2FeF6
_symmetry_space_group_name_H-M   'P 1'
_cell_length_a   8.73247406
_cell_length_b   8.58873652
_cell_length_c   4.69317492
_cell_angle_alpha   89.47607327
_cell_angle_beta   90.00000000
_cell_angle_gamma   120.55517030
_symmetry_Int_Tables_number   1
_chemical_formula_structural   Li2FeF6
_chemical_formula_sum   'Li6 Fe3 F18'
_cell_volume   303.09769068
_cell_formula_units_Z   3
loop_
 _symmetry_equiv_pos_site_id
 _symmetry_equiv_pos_as_xyz
  1  'x, y, z'
loop_
 _atom_site_type_symbol
 _atom_site_label
 _atom_site_symmetry_multiplicity
 _atom_site_fract_x
 _atom_site_fract_y
 _atom_site_fract_z
 _atom_site_occupancy
  Li  Li0  1  0.99456780  0.62992915  0.97175280  1
  Li  Li1  1  0.99421323  0.30330602  0.51219246  1
  Li  Li2  1  0.36463866  0.37007085  0.02824720  1
  Li  Li3  1  0.30206946  0.00000000  0.50000000  1
  Li  Li4  1  0.69090721  0.69669498  0.48780754  1
  Li  Li5  1  0.64242247  0.00000000  0.00000000  1
  Fe  Fe6  1  0.33299235  0.66659935  0.51198981  1
  Fe  Fe7  1  0.00239572  0.00000000  0.00000000  1
  Fe  Fe8  1  0.66639300  0.33340065  0.48801019  1
  F  F9  1  0.10058446  0.88650610  0.77710207  1
  F  F10  1  0.22787578  0.76594220  0.28930719  1
  F  F11  1  0.11794118  0.54147823  0.73638099  1
  F  F12  1  0.42112263  0.87260037  0.73607943  1
  F  F13  1  0.11146310  0.20332796  0.77895204  1
  F  F14  1  0.23239164  0.45760775  0.29190440  1
  F  F15  1  0.21407936  0.11349390  0.22289793  1
  F  F16  1  0.44466536  0.57542833  0.73493738  1
  F  F17  1  0.54620637  0.78173175  0.28455541  1
  F  F18  1  0.46193458  0.23405780  0.71069281  1
  F  F19  1  0.57646294  0.45852177  0.26361901  1
  F  F20  1  0.79381560  0.89821044  0.77618609  1
  F  F21  1  0.54852227  0.12739963  0.26392057  1
  F  F22  1  0.77478389  0.54239225  0.70809560  1
  F  F23  1  0.90813514  0.79667204  0.22104796  1
  F  F24  1  0.76447362  0.21826825  0.71544459  1
  F  F25  1  0.86923703  0.42457167  0.26506262  1
  F  F26  1  0.89560616  0.10178956  0.22381391  1
