# generated using pymatgen
data_Li2MnP2HO8
_symmetry_space_group_name_H-M   'P 1'
_cell_length_a   4.77163967
_cell_length_b   8.32631772
_cell_length_c   7.61765105
_cell_angle_alpha   90.00000000
_cell_angle_beta   104.42224735
_cell_angle_gamma   90.00000000
_symmetry_Int_Tables_number   1
_chemical_formula_structural   Li2MnP2HO8
_chemical_formula_sum   'Li4 Mn2 P4 H2 O16'
_cell_volume   293.11313231
_cell_formula_units_Z   2
loop_
 _symmetry_equiv_pos_site_id
 _symmetry_equiv_pos_as_xyz
  1  'x, y, z'
loop_
 _atom_site_type_symbol
 _atom_site_label
 _atom_site_symmetry_multiplicity
 _atom_site_fract_x
 _atom_site_fract_y
 _atom_site_fract_z
 _atom_site_occupancy
  Li  Li0  1  0.11272601  0.36610958  0.65197098  1
  Li  Li1  1  0.38727399  0.86610958  0.84802902  1
  Li  Li2  1  0.60184322  0.13676895  0.15640912  1
  Li  Li3  1  0.89815678  0.63676795  0.34359088  1
  Mn  Mn4  1  0.00038980  -0.00005216  0.49620826  1
  Mn  Mn5  1  0.49961020  0.49994784  0.00379174  1
  P  P6  1  0.12922894  0.35386567  0.26266989  1
  P  P7  1  0.37077106  0.85386567  0.23733011  1
  P  P8  1  0.62696507  0.14909905  0.75538201  1
  P  P9  1  0.87303493  0.64909905  0.74461799  1
  H  H10  1  0.53348942  0.51074331  0.51277209  1
  H  H11  1  0.96651058  0.01074331  0.98722791  1
  O  O12  1  0.11563288  0.53374815  0.84323761  1
  O  O13  1  0.01109662  0.18942609  0.29745452  1
  O  O14  1  0.14561045  0.83260000  0.35417536  1
  O  O15  1  0.25847090  0.44177461  0.44294569  1
  O  O16  1  0.38436712  0.03374815  0.65676239  1
  O  O17  1  0.51337098  0.31102967  0.79865380  1
  O  O18  1  0.24152910  0.94177461  0.05705431  1
  O  O19  1  0.35438955  0.33260000  0.14582464  1
  O  O20  1  0.64051473  0.66754568  0.85350432  1
  O  O21  1  0.75298544  0.05997480  0.94241312  1
  O  O22  1  0.48890338  0.68942609  0.20254548  1
  O  O23  1  0.61638726  0.96726859  0.34234134  1
  O  O24  1  0.74701456  0.55997480  0.55758688  1
  O  O25  1  0.85948527  0.16754568  0.64649568  1
  O  O26  1  0.98662902  0.81102967  0.70134620  1
  O  O27  1  0.88361274  0.46726859  0.15765866  1
