# generated using pymatgen
data_Gd3NbO7
_symmetry_space_group_name_H-M   'P 1'
_cell_length_a   6.56404422
_cell_length_b   6.56404422
_cell_length_c   7.61974468
_cell_angle_alpha   90.00000000
_cell_angle_beta   90.00000000
_cell_angle_gamma   109.34346277
_symmetry_Int_Tables_number   1
_chemical_formula_structural   Gd3NbO7
_chemical_formula_sum   'Gd6 Nb2 O14'
_cell_volume   309.77639248
_cell_formula_units_Z   2
loop_
 _symmetry_equiv_pos_site_id
 _symmetry_equiv_pos_as_xyz
  1  'x, y, z'
loop_
 _atom_site_type_symbol
 _atom_site_label
 _atom_site_symmetry_multiplicity
 _atom_site_fract_x
 _atom_site_fract_y
 _atom_site_fract_z
 _atom_site_occupancy
  Gd  Gd0  1  0.00024082  0.46502640  0.49652021  1
  Gd  Gd1  1  0.53497360  0.99975918  0.50347979  1
  Gd  Gd2  1  0.47681907  0.47681907  0.75000000  1
  Gd  Gd3  1  0.52318093  0.52318093  0.25000000  1
  Gd  Gd4  1  0.99975918  0.53497360  0.99652021  1
  Gd  Gd5  1  0.46502640  0.00024082  0.00347979  1
  Nb  Nb6  1  0.00280924  0.00280924  0.25000000  1
  Nb  Nb7  1  0.99719076  0.99719076  0.75000000  1
  O  O8  1  0.06620490  0.93379510  0.00000000  1
  O  O9  1  0.36253046  0.63746954  0.00000000  1
  O  O10  1  0.06101435  0.31358260  0.21270121  1
  O  O11  1  0.68641740  0.93898565  0.78729879  1
  O  O12  1  0.37121624  0.62878376  0.50000000  1
  O  O13  1  0.67437999  0.92001274  0.22205584  1
  O  O14  1  0.07998726  0.32562001  0.77794416  1
  O  O15  1  0.32562001  0.07998726  0.72205584  1
  O  O16  1  0.92001274  0.67437999  0.27794416  1
  O  O17  1  0.62878376  0.37121624  0.00000000  1
  O  O18  1  0.93898565  0.68641740  0.71270121  1
  O  O19  1  0.31358260  0.06101435  0.28729879  1
  O  O20  1  0.63746954  0.36253046  0.50000000  1
  O  O21  1  0.93379510  0.06620490  0.50000000  1
