# generated using pymatgen
data_MgCr7(SO4)12
_symmetry_space_group_name_H-M   'P 1'
_cell_length_a   8.29758605
_cell_length_b   8.85046874
_cell_length_c   14.70612193
_cell_angle_alpha   85.80567747
_cell_angle_beta   73.64259324
_cell_angle_gamma   117.97917193
_symmetry_Int_Tables_number   1
_chemical_formula_structural   MgCr7(SO4)12
_chemical_formula_sum   'Mg1 Cr7 S12 O48'
_cell_volume   887.89083167
_cell_formula_units_Z   1
loop_
 _symmetry_equiv_pos_site_id
 _symmetry_equiv_pos_as_xyz
  1  'x, y, z'
loop_
 _atom_site_type_symbol
 _atom_site_label
 _atom_site_symmetry_multiplicity
 _atom_site_fract_x
 _atom_site_fract_y
 _atom_site_fract_z
 _atom_site_occupancy
  Mg  Mg0  1  0.35766255  0.39285919  0.67815954  1
  Cr  Cr1  1  0.15273209  0.37629215  0.07505259  1
  Cr  Cr2  1  0.35422172  0.88941480  0.17817827  1
  Cr  Cr3  1  0.15007141  0.87810125  0.57477523  1
  Cr  Cr4  1  0.64341259  0.60846372  0.32320413  1
  Cr  Cr5  1  0.84872373  0.12237443  0.42449268  1
  Cr  Cr6  1  0.64515566  0.11088794  0.82026384  1
  Cr  Cr7  1  0.84845902  0.62332631  0.92438505  1
  S  S8  1  0.04122891  0.02123355  0.23153522  1
  S  S9  1  0.04072018  0.52358764  0.72976051  1
  S  S10  1  0.46170911  0.87602090  0.37401413  1
  S  S11  1  0.53822646  0.62158469  0.12605158  1
  S  S12  1  0.25176939  0.27120140  0.47809230  1
  S  S13  1  0.25147802  0.76887889  0.97913012  1
  S  S14  1  0.74893868  0.23162594  0.01976352  1
  S  S15  1  0.75021046  0.73211690  0.52049991  1
  S  S16  1  0.46087413  0.37780453  0.87546898  1
  S  S17  1  0.53939008  0.12197893  0.62518878  1
  S  S18  1  0.95835611  0.47834450  0.26867361  1
  S  S19  1  0.95682914  0.97859933  0.76948013  1
  O  O20  1  0.29741679  0.86698568  0.05440443  1
  O  O21  1  0.10744038  0.66411310  0.25760059  1
  O  O22  1  0.01345146  0.13155920  0.16358257  1
  O  O23  1  0.00936564  0.63376419  0.66324562  1
  O  O24  1  0.37844265  0.92446332  0.30789570  1
  O  O25  1  0.02657382  0.07106820  0.32664348  1
  O  O26  1  0.01941324  0.56780786  0.82738443  1
  O  O27  1  0.32614518  0.81850090  0.47645500  1
  O  O28  1  0.34810983  0.45937120  0.14196787  1
  O  O29  1  0.34644815  0.95929627  0.64016816  1
  O  O30  1  0.04564521  0.21198084  0.48934903  1
  O  O31  1  0.04614199  0.71039333  0.99190855  1
  O  O32  1  0.50997111  0.76916572  0.14943589  1
  O  O33  1  0.48511636  0.72585521  0.35038792  1
  O  O34  1  0.23945911  0.04651590  0.18912743  1
  O  O35  1  0.23469001  0.54763448  0.68982422  1
  O  O36  1  0.67314664  0.68078881  0.02343045  1
  O  O37  1  0.38414597  0.38234392  0.37753986  1
  O  O38  1  0.38232248  0.88672147  0.88072608  1
  O  O39  1  0.29661849  0.36682474  0.55249458  1
  O  O40  1  0.10645566  0.15955315  0.75798658  1
  O  O41  1  0.62552937  0.57802516  0.19099762  1
  O  O42  1  0.28099806  0.11566872  0.48725187  1
  O  O43  1  0.28500001  0.61784389  0.98715343  1
  O  O44  1  0.71620430  0.38305720  0.01191624  1
  O  O45  1  0.71687111  0.88407705  0.50931424  1
  O  O46  1  0.37895992  0.42650336  0.81150699  1
  O  O47  1  0.89170085  0.83518843  0.24471700  1
  O  O48  1  0.70238033  0.63334874  0.44481299  1
  O  O49  1  0.61692822  0.11383947  0.11808457  1
  O  O50  1  0.62287521  0.62047238  0.61800444  1
  O  O51  1  0.32721070  0.31422116  0.97971212  1
  O  O52  1  0.76008658  0.45285440  0.30965991  1
  O  O53  1  0.75647491  0.95079877  0.81067624  1
  O  O54  1  0.51422209  0.26908367  0.64740682  1
  O  O55  1  0.49023261  0.23036002  0.85124463  1
  O  O56  1  0.95990488  0.79457149  0.50337730  1
  O  O57  1  0.95405823  0.28928145  0.00769963  1
  O  O58  1  0.65449304  0.03535731  0.35747936  1
  O  O59  1  0.65343320  0.53762645  0.86072885  1
  O  O60  1  0.67431121  0.17699122  0.52222539  1
  O  O61  1  0.97773163  0.43203778  0.17206262  1
  O  O62  1  0.97222448  0.92832772  0.67363648  1
  O  O63  1  0.62118413  0.06908317  0.69120416  1
  O  O64  1  0.98347403  0.36602741  0.33625434  1
  O  O65  1  0.97954669  0.86251047  0.83676818  1
  O  O66  1  0.88771046  0.33784644  0.74269564  1
  O  O67  1  0.70356415  0.13435121  0.94410938  1
