# generated using pymatgen
data_Li2MnNi(PO4)2
_symmetry_space_group_name_H-M   'P 1'
_cell_length_a   10.29504033
_cell_length_b   6.04606757
_cell_length_c   4.74647329
_cell_angle_alpha   90.00000000
_cell_angle_beta   89.91115570
_cell_angle_gamma   90.00000000
_symmetry_Int_Tables_number   1
_chemical_formula_structural   Li2MnNi(PO4)2
_chemical_formula_sum   'Li4 Mn2 Ni2 P4 O16'
_cell_volume   295.44154614
_cell_formula_units_Z   2
loop_
 _symmetry_equiv_pos_site_id
 _symmetry_equiv_pos_as_xyz
  1  'x, y, z'
loop_
 _atom_site_type_symbol
 _atom_site_label
 _atom_site_symmetry_multiplicity
 _atom_site_fract_x
 _atom_site_fract_y
 _atom_site_fract_z
 _atom_site_occupancy
  Li  Li0  1  0.00000000  0.00000000  0.00000000  1
  Li  Li1  1  0.00000000  0.50000000  0.00000000  1
  Li  Li2  1  0.50000000  0.00000000  0.50000000  1
  Li  Li3  1  0.50000000  0.50000000  0.50000000  1
  Mn  Mn4  1  0.27648278  0.25000000  0.97813059  1
  Mn  Mn5  1  0.72351722  0.75000000  0.02186941  1
  Ni  Ni6  1  0.22168768  0.75000000  0.48638962  1
  Ni  Ni7  1  0.77831232  0.25000000  0.51361038  1
  P  P8  1  0.08901697  0.25000000  0.42019005  1
  P  P9  1  0.40429836  0.75000000  0.91181744  1
  P  P10  1  0.59570164  0.25000000  0.08818256  1
  P  P11  1  0.91098303  0.75000000  0.57980995  1
  O  O12  1  0.05011780  0.75000000  0.70764551  1
  O  O13  1  0.09140021  0.25000000  0.74359764  1
  O  O14  1  0.16074931  0.04477704  0.28898578  1
  O  O15  1  0.16074931  0.45522296  0.28898578  1
  O  O16  1  0.33367925  0.54791555  0.77270726  1
  O  O17  1  0.33367925  0.95208445  0.77270726  1
  O  O18  1  0.40006574  0.75000000  0.23541200  1
  O  O19  1  0.45560188  0.25000000  0.20899355  1
  O  O20  1  0.54439812  0.75000000  0.79100645  1
  O  O21  1  0.59993426  0.25000000  0.76458800  1
  O  O22  1  0.66632075  0.04791555  0.22729274  1
  O  O23  1  0.66632075  0.45208445  0.22729274  1
  O  O24  1  0.83925069  0.54477704  0.71101422  1
  O  O25  1  0.83925069  0.95522296  0.71101422  1
  O  O26  1  0.90859979  0.75000000  0.25640236  1
  O  O27  1  0.94988220  0.25000000  0.29235449  1
