# generated using pymatgen
data_Na2ZnS2
_symmetry_space_group_name_H-M   'P 1'
_cell_length_a   5.97689577
_cell_length_b   6.46268289
_cell_length_c   7.11687098
_cell_angle_alpha   117.00315920
_cell_angle_beta   114.82892857
_cell_angle_gamma   89.99999997
_symmetry_Int_Tables_number   1
_chemical_formula_structural   Na2ZnS2
_chemical_formula_sum   'Na4 Zn2 S4'
_cell_volume   216.02514085
_cell_formula_units_Z   2
loop_
 _symmetry_equiv_pos_site_id
 _symmetry_equiv_pos_as_xyz
  1  'x, y, z'
loop_
 _atom_site_type_symbol
 _atom_site_label
 _atom_site_symmetry_multiplicity
 _atom_site_fract_x
 _atom_site_fract_y
 _atom_site_fract_z
 _atom_site_occupancy
  Na  Na0  1  0.14238311  0.49141146  0.28476622  1
  Na  Na1  1  0.85761689  0.50858854  0.71523378  1
  Na  Na2  1  0.35761689  0.20664523  0.71523378  1
  Na  Na3  1  0.64238311  0.79335477  0.28476622  1
  S  S4  1  0.61090644  0.32440292  0.22181288  1
  S  S5  1  0.38909356  0.67559708  0.77818712  1
  S  S6  1  0.88909356  0.10259004  0.77818712  1
  S  S7  1  0.11090644  0.89740996  0.22181288  1
  Zn  Zn8  1  0.25000000  0.00000000  0.00000000  1
  Zn  Zn9  1  0.75000000  0.00000000  0.00000000  1
