# generated using pymatgen
data_MgCoF4
_symmetry_space_group_name_H-M   'P 1'
_cell_length_a   5.01902595
_cell_length_b   5.02930059
_cell_length_c   6.14769937
_cell_angle_alpha   113.57672345
_cell_angle_beta   114.39446308
_cell_angle_gamma   90.16527706
_symmetry_Int_Tables_number   1
_chemical_formula_structural   MgCoF4
_chemical_formula_sum   'Mg2 Co2 F8'
_cell_volume   126.87677579
_cell_formula_units_Z   2
loop_
 _symmetry_equiv_pos_site_id
 _symmetry_equiv_pos_as_xyz
  1  'x, y, z'
loop_
 _atom_site_type_symbol
 _atom_site_label
 _atom_site_symmetry_multiplicity
 _atom_site_fract_x
 _atom_site_fract_y
 _atom_site_fract_z
 _atom_site_occupancy
  Mg  Mg0  1  0.25187568  0.24814085  0.49837642  1
  Mg  Mg1  1  0.75287293  0.74643053  0.49726713  1
  Co  Co2  1  0.00330688  0.49963531  0.00110313  1
  Co  Co3  1  0.49999679  0.99684444  0.99498265  1
  F  F4  1  0.88844031  0.39368547  0.26327697  1
  F  F5  1  0.62821933  0.14522431  0.75692102  1
  F  F6  1  0.13129454  0.61541067  0.75652036  1
  F  F7  1  0.11792630  0.10489877  0.73464536  1
  F  F8  1  0.38092006  0.86308939  0.26327710  1
  F  F9  1  0.37625744  0.35175082  0.24097242  1
  F  F10  1  0.87114792  0.88251677  0.24109644  1
  F  F11  1  0.61904583  0.63354367  0.73422099  1
