# generated using pymatgen
data_Zn(NO3)2
_symmetry_space_group_name_H-M   'P 1'
_cell_length_a   7.45483322
_cell_length_b   15.15329377
_cell_length_c   7.47836529
_cell_angle_alpha   90.00000000
_cell_angle_beta   90.00000000
_cell_angle_gamma   90.00000000
_symmetry_Int_Tables_number   1
_chemical_formula_structural   Zn(NO3)2
_chemical_formula_sum   'Zn8 N16 O48'
_cell_volume   844.79561239
_cell_formula_units_Z   8
loop_
 _symmetry_equiv_pos_site_id
 _symmetry_equiv_pos_as_xyz
  1  'x, y, z'
loop_
 _atom_site_type_symbol
 _atom_site_label
 _atom_site_symmetry_multiplicity
 _atom_site_fract_x
 _atom_site_fract_y
 _atom_site_fract_z
 _atom_site_occupancy
  Zn  Zn0  1  0.01799611  0.37718905  0.78638390  1
  Zn  Zn1  1  0.02351419  0.87354098  0.76014880  1
  Zn  Zn2  1  0.47648581  0.87354098  0.26014880  1
  Zn  Zn3  1  0.48200389  0.37718905  0.28638390  1
  Zn  Zn4  1  0.51799611  0.62281095  0.78638390  1
  Zn  Zn5  1  0.52351419  0.12645902  0.76014880  1
  Zn  Zn6  1  0.97648581  0.12645902  0.26014880  1
  Zn  Zn7  1  0.98200389  0.62281095  0.28638390  1
  N  N8  1  0.13555499  0.78629506  0.09371917  1
  N  N9  1  0.15948019  0.29380766  0.13039086  1
  N  N10  1  0.17073741  0.55161867  0.93656302  1
  N  N11  1  0.17418901  0.04608023  0.91948397  1
  N  N12  1  0.32581099  0.04608023  0.41948397  1
  N  N13  1  0.32926259  0.55161867  0.43656302  1
  N  N14  1  0.34051981  0.29380766  0.63039086  1
  N  N15  1  0.36444501  0.78629506  0.59371917  1
  N  N16  1  0.63555499  0.21370494  0.09371917  1
  N  N17  1  0.65948019  0.70619234  0.13039086  1
  N  N18  1  0.67073741  0.44838133  0.93656302  1
  N  N19  1  0.67418901  0.95391977  0.91948397  1
  N  N20  1  0.82581099  0.95391977  0.41948397  1
  N  N21  1  0.82926259  0.44838133  0.43656302  1
  N  N22  1  0.84051981  0.70619234  0.63039086  1
  N  N23  1  0.86444501  0.21370494  0.59371917  1
  O  O24  1  0.03460973  0.76775096  0.96198437  1
  O  O25  1  0.04337937  0.04576489  0.02589154  1
  O  O26  1  0.03506580  0.55286927  0.03835489  1
  O  O27  1  0.03542862  0.23885746  0.09922220  1
  O  O28  1  0.14370143  0.73650351  0.22906247  1
  O  O29  1  0.16432408  0.36571945  0.04633126  1
  O  O30  1  0.18044044  0.49601475  0.81039995  1
  O  O31  1  0.18644220  0.98768827  0.79891783  1
  O  O32  1  0.22881366  0.85564788  0.08853197  1
  O  O33  1  0.20309883  0.60632136  0.45969828  1
  O  O34  1  0.20472414  0.10488149  0.43179288  1
  O  O35  1  0.22012373  0.27685143  0.74499764  1
  O  O36  1  0.27987627  0.27685143  0.24499764  1
  O  O37  1  0.29527586  0.10488149  0.93179288  1
  O  O38  1  0.29690117  0.60632136  0.95969828  1
  O  O39  1  0.27118634  0.85564788  0.58853197  1
  O  O40  1  0.31355780  0.98768827  0.29891783  1
  O  O41  1  0.31955956  0.49601475  0.31039995  1
  O  O42  1  0.33567592  0.36571945  0.54633126  1
  O  O43  1  0.35629857  0.73650351  0.72906247  1
  O  O44  1  0.46457138  0.23885746  0.59922220  1
  O  O45  1  0.46493420  0.55286927  0.53835489  1
  O  O46  1  0.45662063  0.04576489  0.52589154  1
  O  O47  1  0.46539027  0.76775096  0.46198437  1
  O  O48  1  0.53460973  0.23224904  0.96198437  1
  O  O49  1  0.54337937  0.95423511  0.02589154  1
  O  O50  1  0.53506580  0.44713073  0.03835489  1
  O  O51  1  0.53542862  0.76114254  0.09922220  1
  O  O52  1  0.64370143  0.26349649  0.22906247  1
  O  O53  1  0.66432408  0.63428055  0.04633126  1
  O  O54  1  0.68044044  0.50398525  0.81039995  1
  O  O55  1  0.68644220  0.01231173  0.79891783  1
  O  O56  1  0.72881366  0.14435212  0.08853197  1
  O  O57  1  0.70309883  0.39367864  0.45969828  1
  O  O58  1  0.70472414  0.89511851  0.43179288  1
  O  O59  1  0.72012373  0.72314857  0.74499764  1
  O  O60  1  0.77987627  0.72314857  0.24499764  1
  O  O61  1  0.79527586  0.89511851  0.93179288  1
  O  O62  1  0.79690117  0.39367864  0.95969828  1
  O  O63  1  0.77118634  0.14435212  0.58853197  1
  O  O64  1  0.81355780  0.01231173  0.29891783  1
  O  O65  1  0.81955956  0.50398525  0.31039995  1
  O  O66  1  0.83567592  0.63428055  0.54633126  1
  O  O67  1  0.85629857  0.26349649  0.72906247  1
  O  O68  1  0.96457138  0.76114254  0.59922220  1
  O  O69  1  0.96493420  0.44713073  0.53835489  1
  O  O70  1  0.95662063  0.95423511  0.52589154  1
  O  O71  1  0.96539027  0.23224904  0.46198437  1
