# generated using pymatgen
data_Hf2N2O
_symmetry_space_group_name_H-M   'P 1'
_cell_length_a   8.74878841
_cell_length_b   8.76708229
_cell_length_c   8.68941084
_cell_angle_alpha   109.34604815
_cell_angle_beta   109.33947963
_cell_angle_gamma   109.76273384
_symmetry_Int_Tables_number   1
_chemical_formula_structural   Hf2N2O
_chemical_formula_sum   'Hf16 N16 O8'
_cell_volume   512.83777945
_cell_formula_units_Z   8
loop_
 _symmetry_equiv_pos_site_id
 _symmetry_equiv_pos_as_xyz
  1  'x, y, z'
loop_
 _atom_site_type_symbol
 _atom_site_label
 _atom_site_symmetry_multiplicity
 _atom_site_fract_x
 _atom_site_fract_y
 _atom_site_fract_z
 _atom_site_occupancy
  Hf  Hf0  1  0.48989358  0.99872491  0.98875245  1
  Hf  Hf1  1  0.75786594  0.29300886  0.54488838  1
  Hf  Hf2  1  0.20985001  0.95922705  0.25110496  1
  Hf  Hf3  1  0.72196268  0.47277440  0.24895528  1
  Hf  Hf4  1  0.24501097  0.21201322  0.95373011  1
  Hf  Hf5  1  0.02638020  0.74062874  0.77280978  1
  Hf  Hf6  1  0.46696887  0.25208057  0.72190689  1
  Hf  Hf7  1  0.99815574  0.50871525  0.99827084  1
  Hf  Hf8  1  0.01119779  0.00011878  0.50114351  1
  Hf  Hf9  1  0.50388307  0.50811400  0.51351386  1
  Hf  Hf10  1  0.97230568  0.25845828  0.22541827  1
  Hf  Hf11  1  0.53238804  0.74687696  0.28949962  1
  Hf  Hf12  1  0.75866496  0.78582789  0.04218209  1
  Hf  Hf13  1  0.78111955  0.03148943  0.74495896  1
  Hf  Hf14  1  0.28530881  0.53464959  0.74594537  1
  Hf  Hf15  1  0.24941194  0.71421811  0.46204614  1
  N  N16  1  0.50950952  0.23714042  0.97099306  1
  N  N17  1  0.76713418  0.53639724  0.52486955  1
  N  N18  1  0.76563718  0.72539401  0.25868397  1
  N  N19  1  0.23961629  0.96769484  0.51096911  1
  N  N20  1  0.72602279  0.25647100  0.76820899  1
  N  N21  1  0.00959673  0.04508315  0.27017145  1
  N  N22  1  0.95648076  0.72791529  0.98805672  1
  N  N23  1  0.96394703  0.50724993  0.23762699  1
  N  N24  1  0.27513116  0.73697606  0.22243612  1
  N  N25  1  0.54100936  0.77231925  0.54645478  1
  N  N26  1  0.98854818  0.95769079  0.73218406  1
  N  N27  1  0.22542850  0.27417350  0.74174079  1
  N  N28  1  0.54716257  0.53562616  0.77395067  1
  N  N29  1  0.22893027  0.45412299  0.46611171  1
  N  N30  1  0.03255072  0.48400737  0.75744656  1
  N  N31  1  0.26555021  0.77780275  0.73226994  1
  O  O32  1  0.72297904  0.99398848  0.95401292  1
  O  O33  1  0.75700257  0.03290795  0.48420687  1
  O  O34  1  0.73951539  0.21462290  0.27373514  1
  O  O35  1  0.28212835  0.01458036  0.05408356  1
  O  O36  1  0.46182640  0.22649264  0.44816180  1
  O  O37  1  0.04652064  0.26882318  0.01839376  1
  O  O38  1  0.44152986  0.46388617  0.22177081  1
  O  O39  1  0.49587550  0.77170849  0.03833616  1
