# generated using pymatgen
data_Li2NiP2O7
_symmetry_space_group_name_H-M   'P 1'
_cell_length_a   4.99221799
_cell_length_b   7.07314658
_cell_length_c   8.25068600
_cell_angle_alpha   90.00000000
_cell_angle_beta   90.00000000
_cell_angle_gamma   70.94044118
_symmetry_Int_Tables_number   1
_chemical_formula_structural   Li2NiP2O7
_chemical_formula_sum   'Li4 Ni2 P4 O14'
_cell_volume   275.36618994
_cell_formula_units_Z   2
loop_
 _symmetry_equiv_pos_site_id
 _symmetry_equiv_pos_as_xyz
  1  'x, y, z'
loop_
 _atom_site_type_symbol
 _atom_site_label
 _atom_site_symmetry_multiplicity
 _atom_site_fract_x
 _atom_site_fract_y
 _atom_site_fract_z
 _atom_site_occupancy
  Li  Li0  1  0.16525665  0.34919502  0.14613181  1
  Li  Li1  1  0.65489729  0.07860995  0.32158443  1
  Li  Li2  1  0.34510471  0.92139205  0.82158543  1
  Li  Li3  1  0.83474335  0.65080498  0.64613181  1
  Ni  Ni4  1  0.20561439  0.27894503  0.50377102  1
  Ni  Ni5  1  0.79438561  0.72105497  0.00377102  1
  P  P6  1  0.38971141  0.48396250  0.81438937  1
  P  P7  1  0.21122491  0.91376951  0.20793543  1
  P  P8  1  0.78877509  0.08623049  0.70793543  1
  P  P9  1  0.61028859  0.51603750  0.31438937  1
  O  O10  1  0.07424240  0.11754548  0.68023081  1
  O  O11  1  0.17027253  0.10946010  0.30028309  1
  O  O12  1  0.19584216  0.51469133  0.96184604  1
  O  O13  1  0.23245228  0.49759412  0.65410511  1
  O  O14  1  0.42953516  0.37680038  0.31238307  1
  O  O15  1  0.61762932  0.09069701  0.55346851  1
  O  O16  1  0.60260558  0.25545799  0.83304132  1
  O  O17  1  0.39739442  0.74454201  0.33304132  1
  O  O18  1  0.38237068  0.90930299  0.05346851  1
  O  O19  1  0.57046484  0.62319962  0.81238307  1
  O  O20  1  0.76754772  0.50240588  0.15410511  1
  O  O21  1  0.80415784  0.48530867  0.46184604  1
  O  O22  1  0.82972747  0.89053990  0.80028309  1
  O  O23  1  0.92575760  0.88245452  0.18023081  1
