# generated using pymatgen
data_LiNiO2
_symmetry_space_group_name_H-M   'P 1'
_cell_length_a   4.99209716
_cell_length_b   5.81369382
_cell_length_c   6.50577970
_cell_angle_alpha   102.98356875
_cell_angle_beta   97.63717086
_cell_angle_gamma   105.76109109
_symmetry_Int_Tables_number   1
_chemical_formula_structural   LiNiO2
_chemical_formula_sum   'Li5 Ni5 O10'
_cell_volume   173.24235454
_cell_formula_units_Z   5
loop_
 _symmetry_equiv_pos_site_id
 _symmetry_equiv_pos_as_xyz
  1  'x, y, z'
loop_
 _atom_site_type_symbol
 _atom_site_label
 _atom_site_symmetry_multiplicity
 _atom_site_fract_x
 _atom_site_fract_y
 _atom_site_fract_z
 _atom_site_occupancy
  Li  Li0  1  0.20004201  0.40000428  0.39993684  1
  Li  Li1  1  0.40158238  0.79932571  0.79698700  1
  Li  Li2  1  0.59523020  0.19532170  0.19708981  1
  Li  Li3  1  0.80476297  0.60471971  0.60292103  1
  Li  Li4  1  0.99849547  0.00074910  0.00310868  1
  Ni  Ni5  1  0.60126969  0.70227739  0.19946432  1
  Ni  Ni6  1  0.79865768  0.09767523  0.60048152  1
  Ni  Ni7  1  0.00146696  0.50113269  -0.00016175  1
  Ni  Ni8  1  0.19992962  0.89996942  0.39987865  1
  Ni  Ni9  1  0.39856243  0.29889801  0.80024302  1
  O  O10  1  0.10526212  0.95077225  0.67687456  1
  O  O11  1  0.10980621  0.43880532  0.71909575  1
  O  O12  1  0.29481465  0.84929568  0.12311914  1
  O  O13  1  0.29017841  0.36122789  0.08109148  1
  O  O14  1  0.48473426  0.76262609  0.48986594  1
  O  O15  1  0.47806027  0.22436754  0.50468891  1
  O  O16  1  0.71262051  0.63355133  0.90417689  1
  O  O17  1  0.68728048  0.16627595  0.89579227  1
  O  O18  1  0.92191599  0.57561400  0.29523384  1
  O  O19  1  0.91526469  0.03732371  0.31006810  1
