# generated using pymatgen
data_Ca2CuRhO6
_symmetry_space_group_name_H-M   'P 1'
_cell_length_a   6.49526031
_cell_length_b   6.49525949
_cell_length_c   6.36209963
_cell_angle_alpha   91.35453132
_cell_angle_beta   91.35453300
_cell_angle_gamma   91.17965133
_symmetry_Int_Tables_number   1
_chemical_formula_structural   Ca2CuRhO6
_chemical_formula_sum   'Ca4 Cu2 Rh2 O12'
_cell_volume   268.19677632
_cell_formula_units_Z   2
loop_
 _symmetry_equiv_pos_site_id
 _symmetry_equiv_pos_as_xyz
  1  'x, y, z'
loop_
 _atom_site_type_symbol
 _atom_site_label
 _atom_site_symmetry_multiplicity
 _atom_site_fract_x
 _atom_site_fract_y
 _atom_site_fract_z
 _atom_site_occupancy
  Ca  Ca0  1  0.75868036  0.61353228  0.37177305  1
  Ca  Ca1  1  0.09869757  0.90130243  0.75000000  1
  Ca  Ca2  1  0.38646772  0.24131964  0.12822695  1
  Ca  Ca3  1  0.89874656  0.10125344  0.25000000  1
  Cu  Cu4  1  0.31362540  0.68637460  0.25000000  1
  Cu  Cu5  1  0.66683917  0.33316083  0.75000000  1
  Rh  Rh6  1  0.50098636  0.99903046  0.51019676  1
  Rh  Rh7  1  0.00096954  0.49901364  0.98980324  1
  O  O8  1  0.79079441  0.92114920  0.54923347  1
  O  O9  1  0.48264924  0.11914046  0.79335735  1
  O  O10  1  0.92870526  0.77854496  0.07096359  1
  O  O11  1  0.07885080  0.20920559  0.95076653  1
  O  O12  1  0.70839077  0.37593449  0.04139882  1
  O  O13  1  0.38577904  0.71473538  0.53476363  1
  O  O14  1  0.11569136  0.47781626  0.28506679  1
  O  O15  1  0.22145504  0.07129474  0.42903641  1
  O  O16  1  0.52218374  0.88430864  0.21493321  1
  O  O17  1  0.62406551  0.29160923  0.45860118  1
  O  O18  1  0.28526462  0.61422096  0.96523637  1
  O  O19  1  0.88085954  0.51735076  0.70664265  1
