# generated using pymatgen
data_BaBiBS4
_symmetry_space_group_name_H-M   'P 1'
_cell_length_a   6.27665229
_cell_length_b   7.73514961
_cell_length_c   8.21798480
_cell_angle_alpha   99.79158194
_cell_angle_beta   112.45049674
_cell_angle_gamma   90.00000000
_symmetry_Int_Tables_number   1
_chemical_formula_structural   BaBiBS4
_chemical_formula_sum   'Ba2 Bi2 B2 S8'
_cell_volume   362.45385972
_cell_formula_units_Z   2
loop_
 _symmetry_equiv_pos_site_id
 _symmetry_equiv_pos_as_xyz
  1  'x, y, z'
loop_
 _atom_site_type_symbol
 _atom_site_label
 _atom_site_symmetry_multiplicity
 _atom_site_fract_x
 _atom_site_fract_y
 _atom_site_fract_z
 _atom_site_occupancy
  Ba  Ba0  1  0.18140013  0.68876126  0.36280027  1
  Ba  Ba1  1  0.81860087  0.31123974  0.63719973  1
  Bi  Bi2  1  0.54597836  0.25894822  0.09195572  1
  Bi  Bi3  1  0.45402164  0.74105278  0.90804428  1
  B  B4  1  0.10401890  0.15492859  0.20803880  1
  B  B5  1  0.89598110  0.84507041  0.79196120  1
  S  S6  1  0.03489920  0.32031365  0.06979841  1
  S  S7  1  0.38754401  0.06997805  0.27858137  1
  S  S8  1  0.89103736  0.06997805  0.27858137  1
  S  S9  1  0.65753875  0.54705487  0.31507550  1
  S  S10  1  0.34246225  0.45294613  0.68492450  1
  S  S11  1  0.10896164  0.93002195  0.72141863  1
  S  S12  1  0.61245599  0.93002195  0.72141863  1
  S  S13  1  0.96510080  0.67968635  0.93020159  1
