# generated using pymatgen
data_HoTa7O19
_symmetry_space_group_name_H-M   'P 1'
_cell_length_a   6.26360321
_cell_length_b   6.26361665
_cell_length_c   20.09300389
_cell_angle_alpha   89.99995105
_cell_angle_beta   89.99983764
_cell_angle_gamma   120.00012994
_symmetry_Int_Tables_number   1
_chemical_formula_structural   HoTa7O19
_chemical_formula_sum   'Ho2 Ta14 O38'
_cell_volume   682.69125412
_cell_formula_units_Z   2
loop_
 _symmetry_equiv_pos_site_id
 _symmetry_equiv_pos_as_xyz
  1  'x, y, z'
loop_
 _atom_site_type_symbol
 _atom_site_label
 _atom_site_symmetry_multiplicity
 _atom_site_fract_x
 _atom_site_fract_y
 _atom_site_fract_z
 _atom_site_occupancy
  Ho  Ho0  1  0.33333495  0.66669273  0.00000204  1
  Ho  Ho1  1  0.33332475  0.66664461  0.49999829  1
  Ta  Ta2  1  0.36036041  0.36041096  0.15537696  1
  Ta  Ta3  1  0.36035975  0.36041046  0.34462077  1
  Ta  Ta4  1  0.63959324  0.63964871  0.65537838  1
  Ta  Ta5  1  0.63959236  0.63963913  0.84462335  1
  Ta  Ta6  1  0.36036662  -0.00005172  0.84461825  1
  Ta  Ta7  1  0.36036208  -0.00004746  0.65537546  1
  Ta  Ta8  1  0.66665723  0.33333814  0.49999907  1
  Ta  Ta9  1  0.66667393  0.33333442  0.99999931  1
  Ta  Ta10  1  0.63959010  -0.00005113  0.15538100  1
  Ta  Ta11  1  0.63959438  -0.00004431  0.34462515  1
  Ta  Ta12  1  0.00004902  0.63964201  0.15538070  1
  Ta  Ta13  1  0.00004869  0.63964127  0.34462294  1
  Ta  Ta14  1  0.00005218  0.36040647  0.84462018  1
  Ta  Ta15  1  0.00004627  0.36040648  0.65537698  1
  O  O16  1  0.99969106  0.75252966  0.65322486  1
  O  O17  1  0.99969072  0.75253050  0.84677603  1
  O  O18  1  0.04261283  0.62645194  0.24999864  1
  O  O19  1  0.24747177  0.00031489  0.34677570  1
  O  O20  1  0.24747073  0.00031055  0.15322643  1
  O  O21  1  0.04261251  0.41615640  0.75000227  1
  O  O22  1  0.99969167  0.24715690  0.15322391  1
  O  O23  1  0.99968715  0.24717031  0.34677585  1
  O  O24  1  0.37355506  0.95739265  0.74999919  1
  O  O25  1  0.33333071  0.66666631  0.13071793  1
  O  O26  1  0.33333450  0.66666656  0.86928095  1
  O  O27  1  0.33333416  0.66666443  0.63071954  1
  O  O28  1  0.33333916  0.66667084  0.36927907  1
  O  O29  1  0.58384216  0.95738602  0.24999920  1
  O  O30  1  0.24747404  0.24715945  0.65322619  1
  O  O31  1  0.24747358  0.24715883  0.84677362  1
  O  O32  1  0.37355078  0.41615929  0.24999787  1
  O  O33  1  0.42757642  0.38409924  0.05542991  1
  O  O34  1  0.42756102  0.38409421  0.44457263  1
  O  O35  1  0.75282452  0.00030793  0.84677382  1
  O  O36  1  0.75282789  0.00031502  0.65322364  1
  O  O37  1  0.58383956  0.62645648  0.75000239  1
  O  O38  1  0.61589906  0.57243028  0.94456987  1
  O  O39  1  0.61590467  0.57243533  0.55543128  1
  O  O40  1  0.75282457  0.75250975  0.15322517  1
  O  O41  1  0.75284159  0.75252527  0.34677407  1
  O  O42  1  0.42757216  0.04347036  0.55543126  1
  O  O43  1  0.42756564  0.04346555  0.94457059  1
  O  O44  1  0.66666657  0.33333179  0.33365873  1
  O  O45  1  0.66666875  0.33333431  0.83365949  1
  O  O46  1  0.66667004  0.33333815  0.66634031  1
  O  O47  1  0.66666505  0.33332822  0.16634110  1
  O  O48  1  0.61590862  0.04347385  0.05542947  1
  O  O49  1  0.61589613  0.04346933  0.44456957  1
  O  O50  1  0.95653214  0.57243534  0.05542817  1
  O  O51  1  0.95653124  0.57242351  0.44457023  1
  O  O52  1  0.95653307  0.38409419  0.55543119  1
  O  O53  1  0.95652574  0.38409159  0.94457107  1
