# generated using pymatgen
data_Dy2S3
_symmetry_space_group_name_H-M   'P 1'
_cell_length_a   3.88881081
_cell_length_b   7.31103432
_cell_length_c   15.19958529
_cell_angle_alpha   90.00000000
_cell_angle_beta   90.00000000
_cell_angle_gamma   90.00000000
_symmetry_Int_Tables_number   1
_chemical_formula_structural   Dy2S3
_chemical_formula_sum   'Dy8 S12'
_cell_volume   432.14289458
_cell_formula_units_Z   4
loop_
 _symmetry_equiv_pos_site_id
 _symmetry_equiv_pos_as_xyz
  1  'x, y, z'
loop_
 _atom_site_type_symbol
 _atom_site_label
 _atom_site_symmetry_multiplicity
 _atom_site_fract_x
 _atom_site_fract_y
 _atom_site_fract_z
 _atom_site_occupancy
  S  S0  1  0.25000000  0.65007098  0.71822193  1
  S  S1  1  0.75000000  0.34992902  0.28177807  1
  S  S2  1  0.25000000  0.15007098  0.78177807  1
  S  S3  1  0.75000000  0.84992902  0.21822193  1
  S  S4  1  0.75000000  0.62316048  0.43227593  1
  S  S5  1  0.25000000  0.37683952  0.56772407  1
  S  S6  1  0.75000000  0.12316048  0.06772407  1
  S  S7  1  0.25000000  0.87683952  0.93227593  1
  S  S8  1  0.25000000  0.51002924  0.10778528  1
  S  S9  1  0.75000000  0.48997076  0.89221472  1
  S  S10  1  0.25000000  0.01002924  0.39221472  1
  S  S11  1  0.75000000  0.98997076  0.60778528  1
  Dy  Dy12  1  0.25000000  0.76638674  0.54260668  1
  Dy  Dy13  1  0.75000000  0.23361326  0.45739332  1
  Dy  Dy14  1  0.25000000  0.26638674  0.95739332  1
  Dy  Dy15  1  0.75000000  0.73361326  0.04260668  1
  Dy  Dy16  1  0.75000000  0.85864753  0.79539865  1
  Dy  Dy17  1  0.25000000  0.14135247  0.20460135  1
  Dy  Dy18  1  0.75000000  0.35864753  0.70460135  1
  Dy  Dy19  1  0.25000000  0.64135247  0.29539865  1
