# generated using pymatgen
data_LiVCrP2(O4F)2
_symmetry_space_group_name_H-M   'P 1'
_cell_length_a   5.16152115
_cell_length_b   5.34133227
_cell_length_c   7.32677812
_cell_angle_alpha   109.59474722
_cell_angle_beta   106.04766577
_cell_angle_gamma   97.96970204
_symmetry_Int_Tables_number   1
_chemical_formula_structural   LiVCrP2(O4F)2
_chemical_formula_sum   'Li1 V1 Cr1 P2 O8 F2'
_cell_volume   176.80973519
_cell_formula_units_Z   1
loop_
 _symmetry_equiv_pos_site_id
 _symmetry_equiv_pos_as_xyz
  1  'x, y, z'
loop_
 _atom_site_type_symbol
 _atom_site_label
 _atom_site_symmetry_multiplicity
 _atom_site_fract_x
 _atom_site_fract_y
 _atom_site_fract_z
 _atom_site_occupancy
  Li  Li0  1  0.92584391  0.56852575  0.18262037  1
  V  V1  1  0.99839458  0.99709260  0.99374599  1
  Cr  Cr2  1  0.50354491  0.50086897  0.50243692  1
  P  P3  1  0.43522262  0.11744403  0.75677386  1
  P  P4  1  0.56060821  0.88655138  0.24250101  1
  O  O5  1  0.26730610  0.13116598  0.91025344  1
  O  O6  1  0.35144306  0.82158309  0.59967321  1
  O  O7  1  0.35762227  0.32220010  0.66293035  1
  O  O8  1  0.24018115  0.79252177  0.12331362  1
  O  O9  1  0.74862249  0.21290168  0.90053176  1
  O  O10  1  0.65156152  0.67959607  0.33641415  1
  O  O11  1  0.65459617  0.18488270  0.39358457  1
  O  O12  1  0.72466571  0.85287902  0.08590832  1
  F  F13  1  0.14298762  0.32581337  0.26121621  1
  F  F14  1  0.85546968  0.67944249  0.73704023  1
