# generated using pymatgen
data_CeTlAg2
_symmetry_space_group_name_H-M   'P 1'
_cell_length_a   5.10581941
_cell_length_b   5.10569093
_cell_length_c   5.10569036
_cell_angle_alpha   60.02688617
_cell_angle_beta   60.02710254
_cell_angle_gamma   60.02703212
_symmetry_Int_Tables_number   1
_chemical_formula_structural   CeTlAg2
_chemical_formula_sum   'Ce1 Tl1 Ag2'
_cell_volume   94.17274839
_cell_formula_units_Z   1
loop_
 _symmetry_equiv_pos_site_id
 _symmetry_equiv_pos_as_xyz
  1  'x, y, z'
loop_
 _atom_site_type_symbol
 _atom_site_label
 _atom_site_symmetry_multiplicity
 _atom_site_fract_x
 _atom_site_fract_y
 _atom_site_fract_z
 _atom_site_occupancy
  Ce  Ce0  1  0.25000047  0.24999946  0.24999964  1
  Tl  Tl1  1  0.74999973  0.74999999  0.75000008  1
  Ag  Ag2  1  0.49997306  0.49997328  0.49997333  1
  Ag  Ag3  1  0.00002573  0.00002627  0.00002596  1
