# generated using pymatgen
data_LiNiO2
_symmetry_space_group_name_H-M   'P 1'
_cell_length_a   4.98891523
_cell_length_b   5.03069434
_cell_length_c   5.04334494
_cell_angle_alpha   80.96602413
_cell_angle_beta   71.53834249
_cell_angle_gamma   60.27434180
_symmetry_Int_Tables_number   1
_chemical_formula_structural   LiNiO2
_chemical_formula_sum   'Li3 Ni3 O6'
_cell_volume   104.26319737
_cell_formula_units_Z   3
loop_
 _symmetry_equiv_pos_site_id
 _symmetry_equiv_pos_as_xyz
  1  'x, y, z'
loop_
 _atom_site_type_symbol
 _atom_site_label
 _atom_site_symmetry_multiplicity
 _atom_site_fract_x
 _atom_site_fract_y
 _atom_site_fract_z
 _atom_site_occupancy
  Li  Li0  1  0.00298681  0.00000000  0.99918556  1
  Li  Li1  1  0.66518248  0.66735058  0.00033800  1
  Li  Li2  1  0.33253305  0.33264942  0.00033800  1
  Ni  Ni3  1  0.49894175  1.00000000  0.50009918  1
  Ni  Ni4  1  0.16723690  0.66687228  0.49995244  1
  Ni  Ni5  1  0.83410918  0.33312772  0.49995244  1
  O  O6  1  0.23384564  1.00000000  0.26487305  1
  O  O7  1  0.77411504  0.00000000  0.72592643  1
  O  O8  1  0.92570259  0.65262875  0.28033051  1
  O  O9  1  0.57833134  0.34737125  0.28033051  1
  O  O10  1  0.07218585  0.34253651  0.72442395  1
  O  O11  1  0.41472236  0.65746349  0.72442395  1
