# generated using pymatgen
data_Ba3Y5(CuO5)3
_symmetry_space_group_name_H-M   'P 1'
_cell_length_a   16.99178839
_cell_length_b   7.39579383
_cell_length_c   11.97608509
_cell_angle_alpha   90.00000000
_cell_angle_beta   90.00000000
_cell_angle_gamma   89.91781057
_symmetry_Int_Tables_number   1
_chemical_formula_structural   Ba3Y5(CuO5)3
_chemical_formula_sum   'Ba12 Y20 Cu12 O60'
_cell_volume   1505.00628359
_cell_formula_units_Z   4
loop_
 _symmetry_equiv_pos_site_id
 _symmetry_equiv_pos_as_xyz
  1  'x, y, z'
loop_
 _atom_site_type_symbol
 _atom_site_label
 _atom_site_symmetry_multiplicity
 _atom_site_fract_x
 _atom_site_fract_y
 _atom_site_fract_z
 _atom_site_occupancy
  Ba  Ba0  1  0.24195926  0.06437139  0.09920999  1
  Ba  Ba1  1  0.58282105  0.03340336  0.10399578  1
  Ba  Ba2  1  0.92527902  0.06721222  0.10795830  1
  Ba  Ba3  1  0.07472098  0.93278778  0.89204170  1
  Ba  Ba4  1  0.41717895  0.96659664  0.89600422  1
  Ba  Ba5  1  0.75804074  0.93562861  0.90079001  1
  Ba  Ba6  1  0.08282105  0.53340336  0.39600422  1
  Ba  Ba7  1  0.42527902  0.56721222  0.39204170  1
  Ba  Ba8  1  0.74195926  0.56437139  0.40079001  1
  Ba  Ba9  1  0.25804074  0.43562861  0.59920999  1
  Ba  Ba10  1  0.57472098  0.43278778  0.60795830  1
  Ba  Ba11  1  0.91717895  0.46659664  0.60399578  1
  Y  Y12  1  0.41617922  0.11399651  0.28721811  1
  Y  Y13  1  0.75002276  0.10855914  0.28529338  1
  Y  Y14  1  0.24997724  0.89144086  0.71470662  1
  Y  Y15  1  0.58382078  0.88600349  0.71278189  1
  Y  Y16  1  0.25002276  0.60855914  0.21470662  1
  Y  Y17  1  0.91617922  0.61399651  0.21278189  1
  Y  Y18  1  0.08382078  0.38600349  0.78721811  1
  Y  Y19  1  0.74997724  0.39144086  0.78529338  1
  Y  Y20  1  0.08269550  0.37045884  0.08825783  1
  Y  Y21  1  0.42083098  0.38606183  0.06046788  1
  Y  Y22  1  0.74542977  0.39034389  0.07473815  1
  Y  Y23  1  0.25457023  0.60965611  0.92526185  1
  Y  Y24  1  0.57916902  0.61393817  0.93953212  1
  Y  Y25  1  0.91730450  0.62954116  0.91174217  1
  Y  Y26  1  0.24542977  0.89034389  0.42526185  1
  Y  Y27  1  0.58269550  0.87045884  0.41174217  1
  Y  Y28  1  0.92083098  0.88606183  0.43953212  1
  Y  Y29  1  0.07916902  0.11393817  0.56046788  1
  Y  Y30  1  0.41730450  0.12954116  0.58825783  1
  Y  Y31  1  0.75457023  0.10965611  0.57473815  1
  Cu  Cu32  1  0.24838071  0.27163147  0.34013788  1
  Cu  Cu33  1  0.58374819  0.28034745  0.33508239  1
  Cu  Cu34  1  0.91657567  0.27534447  0.34097781  1
  Cu  Cu35  1  0.08342433  0.72465553  0.65902219  1
  Cu  Cu36  1  0.41625181  0.71965255  0.66491761  1
  Cu  Cu37  1  0.75161929  0.72836853  0.65986212  1
  Cu  Cu38  1  0.08374819  0.78034745  0.16491761  1
  Cu  Cu39  1  0.41657567  0.77534447  0.15902219  1
  Cu  Cu40  1  0.74838071  0.77163147  0.15986212  1
  Cu  Cu41  1  0.25161929  0.22836853  0.84013788  1
  Cu  Cu42  1  0.58342433  0.22465553  0.84097781  1
  Cu  Cu43  1  0.91625181  0.21965255  0.83508239  1
  O  O44  1  0.17779940  0.17375396  0.44096467  1
  O  O45  1  0.50668866  0.16153408  0.43025642  1
  O  O46  1  0.83869368  0.15468788  0.42778640  1
  O  O47  1  0.01265242  0.82333719  0.56126499  1
  O  O48  1  0.33764274  0.83929958  0.57089094  1
  O  O49  1  0.67352094  0.84679814  0.56996549  1
  O  O50  1  0.16235726  0.66070042  0.07089094  1
  O  O51  1  0.48734758  0.67666281  0.06126499  1
  O  O52  1  0.82647906  0.65320186  0.06996549  1
  O  O53  1  0.32220060  0.32624604  0.94096467  1
  O  O54  1  0.66130632  0.34531212  0.92778640  1
  O  O55  1  0.99331134  0.33846592  0.93025642  1
  O  O56  1  0.16130632  0.84531212  0.57221360  1
  O  O57  1  0.49331134  0.83846592  0.56974358  1
  O  O58  1  0.82220060  0.82624604  0.55903533  1
  O  O59  1  0.32647906  0.15320186  0.43003451  1
  O  O60  1  0.66235726  0.16070042  0.42910906  1
  O  O61  1  0.98734758  0.17666281  0.43873501  1
  O  O62  1  0.17352094  0.34679814  0.93003451  1
  O  O63  1  0.51265242  0.32333719  0.93873501  1
  O  O64  1  0.83764274  0.33929958  0.92910906  1
  O  O65  1  0.00668866  0.66153408  0.06974358  1
  O  O66  1  0.33869368  0.65468788  0.07221360  1
  O  O67  1  0.67779940  0.67375396  0.05903533  1
  O  O68  1  0.17459542  0.35871510  0.23184665  1
  O  O69  1  0.50229212  0.32914445  0.23226527  1
  O  O70  1  0.83612368  0.35066061  0.23621858  1
  O  O71  1  0.00922849  0.63795220  0.76759023  1
  O  O72  1  0.33508590  0.66892166  0.76869665  1
  O  O73  1  0.67140224  0.65221104  0.76255145  1
  O  O74  1  0.16491410  0.83107834  0.26869665  1
  O  O75  1  0.49077151  0.86204780  0.26759023  1
  O  O76  1  0.82859776  0.84778896  0.26255145  1
  O  O77  1  0.32540458  0.14128490  0.73184665  1
  O  O78  1  0.66387632  0.14933939  0.73621858  1
  O  O79  1  0.99770788  0.17085555  0.73226527  1
  O  O80  1  0.16387632  0.64933939  0.76378142  1
  O  O81  1  0.49770788  0.67085555  0.76773473  1
  O  O82  1  0.82540458  0.64128490  0.76815335  1
  O  O83  1  0.32859776  0.34778896  0.23744855  1
  O  O84  1  0.66491410  0.33107834  0.23130335  1
  O  O85  1  0.99077151  0.36204780  0.23240977  1
  O  O86  1  0.17140224  0.15221104  0.73744855  1
  O  O87  1  0.50922849  0.13795220  0.73240977  1
  O  O88  1  0.83508590  0.16892166  0.73130335  1
  O  O89  1  0.00229212  0.82914445  0.26773473  1
  O  O90  1  0.33612368  0.85066061  0.26378142  1
  O  O91  1  0.67459542  0.85871510  0.26815335  1
  O  O92  1  0.08404450  0.08145760  0.08129208  1
  O  O93  1  0.41429005  0.09046179  0.09858756  1
  O  O94  1  0.75154761  0.09105930  0.09590552  1
  O  O95  1  0.24845239  0.90894070  0.90409448  1
  O  O96  1  0.58570995  0.90953821  0.90141244  1
  O  O97  1  0.91595550  0.91854240  0.91870792  1
  O  O98  1  0.25154761  0.59105930  0.40409448  1
  O  O99  1  0.58404450  0.58145760  0.41870792  1
  O  O100  1  0.91429005  0.59046179  0.40141244  1
  O  O101  1  0.08570995  0.40953821  0.59858756  1
  O  O102  1  0.41595550  0.41854240  0.58129208  1
  O  O103  1  0.74845239  0.40894070  0.59590552  1
