# generated using pymatgen
data_As2Se3
_symmetry_space_group_name_H-M   'P 1'
_cell_length_a   4.50495841
_cell_length_b   10.96764885
_cell_length_c   12.13567362
_cell_angle_alpha   90.00000000
_cell_angle_beta   90.39908626
_cell_angle_gamma   90.00000000
_symmetry_Int_Tables_number   1
_chemical_formula_structural   As2Se3
_chemical_formula_sum   'As8 Se12'
_cell_volume   599.59454934
_cell_formula_units_Z   4
loop_
 _symmetry_equiv_pos_site_id
 _symmetry_equiv_pos_as_xyz
  1  'x, y, z'
loop_
 _atom_site_type_symbol
 _atom_site_label
 _atom_site_symmetry_multiplicity
 _atom_site_fract_x
 _atom_site_fract_y
 _atom_site_fract_z
 _atom_site_occupancy
  As  As0  1  0.11462940  0.80487756  0.73690660  1
  As  As1  1  0.38537060  0.30487756  0.76309340  1
  As  As2  1  0.88537060  0.19512244  0.26309340  1
  As  As3  1  0.61462940  0.69512244  0.23690660  1
  As  As4  1  0.61878200  0.68206154  0.51664456  1
  As  As5  1  0.88121800  0.18206154  0.98335544  1
  As  As6  1  0.38121800  0.31793846  0.48335544  1
  As  As7  1  0.11878200  0.81793846  0.01664456  1
  Se  Se8  1  0.47084302  0.87374628  0.59760148  1
  Se  Se9  1  0.02915698  0.37374628  0.90239852  1
  Se  Se10  1  0.52915698  0.12625372  0.40239852  1
  Se  Se11  1  0.97084302  0.62625372  0.09760148  1
  Se  Se12  1  0.97168194  0.60961682  0.65853436  1
  Se  Se13  1  0.52831806  0.10961682  0.84146564  1
  Se  Se14  1  0.02831806  0.39038318  0.34146564  1
  Se  Se15  1  0.47168194  0.89038318  0.15853436  1
  Se  Se16  1  0.43173120  0.71185993  0.88045727  1
  Se  Se17  1  0.06826880  0.21185993  0.61954273  1
  Se  Se18  1  0.56826880  0.28814007  0.11954273  1
  Se  Se19  1  0.93173120  0.78814007  0.38045727  1
