# generated using pymatgen
data_Sr6YGa3(Cu2O7)3
_symmetry_space_group_name_H-M   'P 1'
_cell_length_a   15.69706023
_cell_length_b   5.37230601
_cell_length_c   12.60544896
_cell_angle_alpha   102.31313833
_cell_angle_beta   101.96845804
_cell_angle_gamma   90.00038350
_symmetry_Int_Tables_number   1
_chemical_formula_structural   Sr6YGa3(Cu2O7)3
_chemical_formula_sum   'Sr12 Y2 Ga6 Cu12 O42'
_cell_volume   1014.89260232
_cell_formula_units_Z   2
loop_
 _symmetry_equiv_pos_site_id
 _symmetry_equiv_pos_as_xyz
  1  'x, y, z'
loop_
 _atom_site_type_symbol
 _atom_site_label
 _atom_site_symmetry_multiplicity
 _atom_site_fract_x
 _atom_site_fract_y
 _atom_site_fract_z
 _atom_site_occupancy
  Sr  Sr0  1  0.05295170  0.16074553  0.29873132  1
  Sr  Sr1  1  0.38279778  0.16247810  0.30086845  1
  Sr  Sr2  1  0.71896099  0.16485592  0.30570756  1
  Sr  Sr3  1  0.28202231  0.83907678  0.70024534  1
  Sr  Sr4  1  0.61738432  0.83530324  0.69449059  1
  Sr  Sr5  1  0.95323068  0.83794224  0.70023037  1
  Sr  Sr6  1  0.21887926  0.64086059  0.30554332  1
  Sr  Sr7  1  0.55295270  0.63807754  0.29878286  1
  Sr  Sr8  1  0.88279224  0.63851109  0.30092760  1
  Sr  Sr9  1  0.11738021  0.35898125  0.69426856  1
  Sr  Sr10  1  0.45319888  0.36228997  0.70026856  1
  Sr  Sr11  1  0.78196534  0.36121035  0.70042743  1
  Y  Y12  1  0.16691547  0.49999149  0.00017585  1
  Y  Y13  1  0.66683779  0.99985903  0.99961629  1
  Ga  Ga14  1  0.06875484  0.81713229  0.49954966  1
  Ga  Ga15  1  0.40332625  0.81925117  0.50090338  1
  Ga  Ga16  1  0.73662154  0.81824279  0.49930131  1
  Ga  Ga17  1  0.23667323  0.18108924  0.49956648  1
  Ga  Ga18  1  0.56877112  0.18242530  0.49973166  1
  Ga  Ga19  1  0.90333730  0.18172893  0.50094198  1
  Cu  Cu20  1  0.14630852  0.93926912  0.87362860  1
  Cu  Cu21  1  0.47342567  0.94106177  0.87639665  1
  Cu  Cu22  1  0.81983813  0.94065447  0.87648003  1
  Cu  Cu23  1  0.01437382  0.56443411  0.12341738  1
  Cu  Cu24  1  0.36117503  0.56449406  0.12378103  1
  Cu  Cu25  1  0.68866974  0.56570408  0.12660753  1
  Cu  Cu26  1  0.32005270  0.43582378  0.87637566  1
  Cu  Cu27  1  0.64616283  0.43393232  0.87352182  1
  Cu  Cu28  1  0.97326355  0.43522560  0.87632844  1
  Cu  Cu29  1  0.18864791  0.06111216  0.12660141  1
  Cu  Cu30  1  0.51436571  0.05884415  0.12332045  1
  Cu  Cu31  1  0.86117535  0.05942590  0.12357091  1
  O  O32  1  0.26795623  0.33398945  0.12973873  1
  O  O33  1  0.60921106  0.29816711  0.12917336  1
  O  O34  1  0.94198579  0.32708964  0.15160987  1
  O  O35  1  0.28154017  0.85406903  0.50292512  1
  O  O36  1  0.61399648  0.85294641  0.49726294  1
  O  O37  1  0.94675564  0.85061943  0.49979444  1
  O  O38  1  0.10916890  0.33118955  0.12919041  1
  O  O39  1  0.44199167  0.32453328  0.15156194  1
  O  O40  1  0.76785839  0.29546890  0.12978441  1
  O  O41  1  0.27951141  0.36014092  0.64217284  1
  O  O42  1  0.61394330  0.35261307  0.64551134  1
  O  O43  1  0.95076412  0.35870171  0.64368513  1
  O  O44  1  0.22309653  0.20366479  0.86416960  1
  O  O45  1  0.56608648  0.16067425  0.86394350  1
  O  O46  1  0.89057541  0.16908660  0.83829144  1
  O  O47  1  0.06623844  0.20328957  0.86392358  1
  O  O48  1  0.39036484  0.16977780  0.83818745  1
  O  O49  1  0.72319955  0.16064707  0.86424040  1
  O  O50  1  0.11394552  0.14430631  0.49723662  1
  O  O51  1  0.44680827  0.14924070  0.49973905  1
  O  O52  1  0.78156709  0.14917590  0.50303438  1
  O  O53  1  0.06611331  0.66855264  0.87067913  1
  O  O54  1  0.39153392  0.67502979  0.84836684  1
  O  O55  1  0.72469776  0.70372765  0.87031365  1
  O  O56  1  0.22465104  0.66621881  0.87022445  1
  O  O57  1  0.56594743  0.70188938  0.87074523  1
  O  O58  1  0.89175884  0.67253110  0.84828158  1
  O  O59  1  0.11397764  0.79268416  0.64553016  1
  O  O60  1  0.45077484  0.78489227  0.64361440  1
  O  O61  1  0.77952502  0.78191120  0.64233047  1
  O  O62  1  0.06825242  0.63943046  0.35758604  1
  O  O63  1  0.39899116  0.64233853  0.35731078  1
  O  O64  1  0.73312277  0.64680169  0.35385927  1
  O  O65  1  0.23310276  0.20729536  0.35369353  1
  O  O66  1  0.56833493  0.21825123  0.35753657  1
  O  O67  1  0.89890282  0.21492684  0.35740919  1
  O  O68  1  0.26838724  0.79618626  0.13587310  1
  O  O69  1  0.61148203  0.83927693  0.13603780  1
  O  O70  1  0.94408549  0.83083386  0.16163953  1
  O  O71  1  0.11146999  0.79688339  0.13605188  1
  O  O72  1  0.44403469  0.83088324  0.16157125  1
  O  O73  1  0.76830270  0.84002036  0.13587912  1
