# generated using pymatgen
data_Tm(Al2Cr)4
_symmetry_space_group_name_H-M   'P 1'
_cell_length_a   5.05169266
_cell_length_b   6.77139275
_cell_length_c   6.77139275
_cell_angle_alpha   97.99819313
_cell_angle_beta   68.09818005
_cell_angle_gamma   111.90181995
_symmetry_Int_Tables_number   1
_chemical_formula_structural   Tm(Al2Cr)4
_chemical_formula_sum   'Tm1 Al8 Cr4'
_cell_volume   199.39970562
_cell_formula_units_Z   1
loop_
 _symmetry_equiv_pos_site_id
 _symmetry_equiv_pos_as_xyz
  1  'x, y, z'
loop_
 _atom_site_type_symbol
 _atom_site_label
 _atom_site_symmetry_multiplicity
 _atom_site_fract_x
 _atom_site_fract_y
 _atom_site_fract_z
 _atom_site_occupancy
  Tm  Tm0  1  0.00000000  0.00000000  -0.00000000  1
  Al  Al1  1  0.49999900  0.22123999  0.22123999  1
  Al  Al2  1  0.27876101  0.77876101  0.22123999  1
  Al  Al3  1  0.00000000  0.33560285  0.33560285  1
  Al  Al4  1  0.66439715  0.66439815  0.33560285  1
  Al  Al5  1  0.00000000  0.66439815  0.66439815  1
  Al  Al6  1  0.33560085  0.33560285  0.66439815  1
  Al  Al7  1  0.72123999  0.22123999  0.77876101  1
  Al  Al8  1  0.49999900  0.77876101  0.77876101  1
  Cr  Cr9  1  -0.00000000  0.49999900  0.00000000  1
  Cr  Cr10  1  0.49999900  0.49999900  -0.00000000  1
  Cr  Cr11  1  -0.00000000  -0.00000000  0.49999900  1
  Cr  Cr12  1  0.50000100  0.00000000  0.49999900  1
