# generated using pymatgen
data_LiLuPd2
_symmetry_space_group_name_H-M   'P 1'
_cell_length_a   4.63193466
_cell_length_b   4.63193415
_cell_length_c   4.63194747
_cell_angle_alpha   60.00010176
_cell_angle_beta   59.99972342
_cell_angle_gamma   60.00009948
_symmetry_Int_Tables_number   1
_chemical_formula_structural   LiLuPd2
_chemical_formula_sum   'Li1 Lu1 Pd2'
_cell_volume   70.27052235
_cell_formula_units_Z   1
loop_
 _symmetry_equiv_pos_site_id
 _symmetry_equiv_pos_as_xyz
  1  'x, y, z'
loop_
 _atom_site_type_symbol
 _atom_site_label
 _atom_site_symmetry_multiplicity
 _atom_site_fract_x
 _atom_site_fract_y
 _atom_site_fract_z
 _atom_site_occupancy
  Li  Li0  1  0.25000020  0.24999974  0.24999993  1
  Lu  Lu1  1  0.75000054  0.75000025  0.75000153  1
  Pd  Pd2  1  0.00000165  0.00000071  -0.00000252  1
  Pd  Pd3  1  0.49999761  0.49999929  0.50000106  1
