# generated using pymatgen
data_KP2AuS7
_symmetry_space_group_name_H-M   'P 1'
_cell_length_a   6.32102283
_cell_length_b   6.32102600
_cell_length_c   15.26320400
_cell_angle_alpha   89.92446667
_cell_angle_beta   90.07550012
_cell_angle_gamma   79.39134851
_symmetry_Int_Tables_number   1
_chemical_formula_structural   KP2AuS7
_chemical_formula_sum   'K2 P4 Au2 S14'
_cell_volume   599.42160992
_cell_formula_units_Z   2
loop_
 _symmetry_equiv_pos_site_id
 _symmetry_equiv_pos_as_xyz
  1  'x, y, z'
loop_
 _atom_site_type_symbol
 _atom_site_label
 _atom_site_symmetry_multiplicity
 _atom_site_fract_x
 _atom_site_fract_y
 _atom_site_fract_z
 _atom_site_occupancy
  K  K0  1  0.24262710  0.24263974  0.74999914  1
  K  K1  1  0.75736635  0.75737493  0.24999910  1
  P  P2  1  0.64877996  0.67910529  0.63983290  1
  P  P3  1  0.67910218  0.64878200  0.86016640  1
  P  P4  1  0.35121612  0.32089707  0.36016736  1
  P  P5  1  0.32089552  0.35121771  0.13983211  1
  Au  Au6  1  0.00000077  0.49999927  0.49999834  1
  Au  Au7  1  0.49999969  0.00000436  0.00000086  1
  S  S8  1  0.33601739  0.72529192  0.65645466  1
  S  S9  1  0.66397917  0.27470972  0.34355507  1
  S  S10  1  0.72529362  0.33602149  0.84355433  1
  S  S11  1  0.27471110  0.66398345  0.15644951  1
  S  S12  1  0.79952079  0.36417824  0.61256164  1
  S  S13  1  0.36418746  0.79951664  0.88743207  1
  S  S14  1  0.20046119  0.63581760  0.38744277  1
  S  S15  1  0.63582229  0.20045824  0.11255962  1
  S  S16  1  0.76999836  0.83140326  0.53570068  1
  S  S17  1  0.83141139  0.76999664  0.96429712  1
  S  S18  1  0.22999352  0.16860405  0.46429770  1
  S  S19  1  0.16860717  0.22999278  0.03570018  1
  S  S20  1  0.80282982  0.80282734  0.74999977  1
  S  S21  1  0.19718206  0.19718026  0.24999966  1
