# generated using pymatgen
data_RbMgPO4
_symmetry_space_group_name_H-M   'P 1'
_cell_length_a   8.77967477
_cell_length_b   9.37891564
_cell_length_c   5.47236068
_cell_angle_alpha   90.00000000
_cell_angle_beta   90.00000000
_cell_angle_gamma   90.00000000
_symmetry_Int_Tables_number   1
_chemical_formula_structural   RbMgPO4
_chemical_formula_sum   'Rb4 Mg4 P4 O16'
_cell_volume   450.61513214
_cell_formula_units_Z   4
loop_
 _symmetry_equiv_pos_site_id
 _symmetry_equiv_pos_as_xyz
  1  'x, y, z'
loop_
 _atom_site_type_symbol
 _atom_site_label
 _atom_site_symmetry_multiplicity
 _atom_site_fract_x
 _atom_site_fract_y
 _atom_site_fract_z
 _atom_site_occupancy
  Rb  Rb0  1  0.49674738  0.22201528  0.23242476  1
  Rb  Rb1  1  0.99674638  0.27798572  0.23242476  1
  Rb  Rb2  1  0.00325362  0.72201528  0.73242476  1
  Rb  Rb3  1  0.50325362  0.77798472  0.73242476  1
  Mg  Mg4  1  0.31298307  0.58516263  0.24821535  1
  Mg  Mg5  1  0.81298407  0.91483737  0.24821535  1
  Mg  Mg6  1  0.18701593  0.08516263  0.74821535  1
  Mg  Mg7  1  0.68701593  0.41483737  0.74821535  1
  P  P8  1  0.70920319  0.57680428  0.24582676  1
  P  P9  1  0.20920219  0.92319572  0.24582676  1
  P  P10  1  0.79079681  0.07680428  0.74582676  1
  P  P11  1  0.29079781  0.42319572  0.74582676  1
  O  O12  1  0.77629113  0.55077373  0.98606977  1
  O  O13  1  0.27629113  0.94922627  0.98606977  1
  O  O14  1  0.53347531  0.57811820  0.22952495  1
  O  O15  1  0.03347531  0.92188280  0.22952495  1
  O  O16  1  0.76503164  0.72092833  0.35192742  1
  O  O17  1  0.26503064  0.77907167  0.35192742  1
  O  O18  1  0.26288725  0.04524976  0.41821199  1
  O  O19  1  0.76288825  0.45475024  0.41821199  1
  O  O20  1  0.72370887  0.05077373  0.48606977  1
  O  O21  1  0.22370987  0.44922627  0.48606977  1
  O  O22  1  0.96652469  0.07811720  0.72952595  1
  O  O23  1  0.46652569  0.42188180  0.72952595  1
  O  O24  1  0.73496836  0.22092733  0.85192742  1
  O  O25  1  0.23496836  0.27907267  0.85192742  1
  O  O26  1  0.23711275  0.54524976  0.91821199  1
  O  O27  1  0.73711175  0.95475024  0.91821199  1
