# generated using pymatgen
data_Ca2VN2
_symmetry_space_group_name_H-M   'P 1'
_cell_length_a   5.07560516
_cell_length_b   6.02743076
_cell_length_c   6.84998870
_cell_angle_alpha   62.04800150
_cell_angle_beta   68.25461109
_cell_angle_gamma   65.09960147
_symmetry_Int_Tables_number   1
_chemical_formula_structural   Ca2VN2
_chemical_formula_sum   'Ca4 V2 N4'
_cell_volume   163.93899308
_cell_formula_units_Z   2
loop_
 _symmetry_equiv_pos_site_id
 _symmetry_equiv_pos_as_xyz
  1  'x, y, z'
loop_
 _atom_site_type_symbol
 _atom_site_label
 _atom_site_symmetry_multiplicity
 _atom_site_fract_x
 _atom_site_fract_y
 _atom_site_fract_z
 _atom_site_occupancy
  Ca  Ca0  1  0.67897071  0.25497553  0.38708404  1
  Ca  Ca1  1  0.32102929  0.74502447  0.61291596  1
  Ca  Ca2  1  0.03018048  0.70896286  0.23067518  1
  Ca  Ca3  1  0.96981952  0.29103714  0.76932482  1
  V  V4  1  0.36368860  0.14422754  0.12839626  1
  V  V5  1  0.63631140  0.85577246  0.87160374  1
  N  N6  1  0.19197508  0.24198516  0.37406568  1
  N  N7  1  0.80802492  0.75801484  0.62593432  1
  N  N8  1  0.49289241  0.21930093  0.79491426  1
  N  N9  1  0.50710759  0.78069907  0.20508574  1
