# generated using pymatgen
data_Mo2H2O7
_symmetry_space_group_name_H-M   'P 1'
_cell_length_a   9.63562579
_cell_length_b   3.78006132
_cell_length_c   7.51951754
_cell_angle_alpha   90.00000000
_cell_angle_beta   105.16664317
_cell_angle_gamma   90.00000000
_symmetry_Int_Tables_number   1
_chemical_formula_structural   Mo2H2O7
_chemical_formula_sum   'Mo4 H4 O14'
_cell_volume   264.34560837
_cell_formula_units_Z   2
loop_
 _symmetry_equiv_pos_site_id
 _symmetry_equiv_pos_as_xyz
  1  'x, y, z'
loop_
 _atom_site_type_symbol
 _atom_site_label
 _atom_site_symmetry_multiplicity
 _atom_site_fract_x
 _atom_site_fract_y
 _atom_site_fract_z
 _atom_site_occupancy
  Mo  Mo0  1  0.97282851  0.25000000  0.18342116  1
  Mo  Mo1  1  0.02717149  0.75000000  0.81657884  1
  Mo  Mo2  1  0.44137623  0.75000000  0.16005101  1
  Mo  Mo3  1  0.55862377  0.25000000  0.83994899  1
  H  H4  1  0.74201704  0.75000000  0.33125137  1
  H  H5  1  0.25798296  0.25000000  0.66874863  1
  H  H6  1  0.29173300  0.75000000  0.38602214  1
  H  H7  1  0.70826700  0.25000000  0.61397786  1
  O  O8  1  0.63707859  0.75000000  0.29386411  1
  O  O9  1  0.36292141  0.25000000  0.70613589  1
  O  O10  1  0.87923140  0.25000000  0.35050758  1
  O  O11  1  0.12076860  0.75000000  0.64949242  1
  O  O12  1  0.96355758  0.75000000  0.09967925  1
  O  O13  1  0.03644242  0.25000000  0.90032075  1
  O  O14  1  0.14937222  0.25000000  0.31556494  1
  O  O15  1  0.85062778  0.75000000  0.68443506  1
  O  O16  1  0.46684372  0.25000000  0.09656830  1
  O  O17  1  0.53315628  0.75000000  0.90343170  1
  O  O18  1  0.74112029  0.25000000  0.97281861  1
  O  O19  1  0.25887971  0.75000000  0.02718139  1
  O  O20  1  0.39367147  0.75000000  0.38466905  1
  O  O21  1  0.60632853  0.25000000  0.61533095  1
