# generated using pymatgen
data_Be3Fe
_symmetry_space_group_name_H-M   'P 1'
_cell_length_a   3.24094298
_cell_length_b   3.24093869
_cell_length_c   3.24093359
_cell_angle_alpha   90.00004685
_cell_angle_beta   89.99998780
_cell_angle_gamma   90.00003182
_symmetry_Int_Tables_number   1
_chemical_formula_structural   Be3Fe
_chemical_formula_sum   'Be3 Fe1'
_cell_volume   34.04178603
_cell_formula_units_Z   1
loop_
 _symmetry_equiv_pos_site_id
 _symmetry_equiv_pos_as_xyz
  1  'x, y, z'
loop_
 _atom_site_type_symbol
 _atom_site_label
 _atom_site_symmetry_multiplicity
 _atom_site_fract_x
 _atom_site_fract_y
 _atom_site_fract_z
 _atom_site_occupancy
  Be  Be0  1  0.00000012  0.49999994  0.49999947  1
  Be  Be1  1  0.50000019  -0.00000053  0.49999837  1
  Be  Be2  1  0.49999819  0.49999915  0.00000048  1
  Fe  Fe3  1  0.99999950  0.99999943  -0.00000032  1
