# generated using pymatgen
data_TmScHg2
_symmetry_space_group_name_H-M   'P 1'
_cell_length_a   5.09720982
_cell_length_b   5.09723416
_cell_length_c   5.09725497
_cell_angle_alpha   60.00078640
_cell_angle_beta   60.00019801
_cell_angle_gamma   60.00047193
_symmetry_Int_Tables_number   1
_chemical_formula_structural   TmScHg2
_chemical_formula_sum   'Tm1 Sc1 Hg2'
_cell_volume   93.64686354
_cell_formula_units_Z   1
loop_
 _symmetry_equiv_pos_site_id
 _symmetry_equiv_pos_as_xyz
  1  'x, y, z'
loop_
 _atom_site_type_symbol
 _atom_site_label
 _atom_site_symmetry_multiplicity
 _atom_site_fract_x
 _atom_site_fract_y
 _atom_site_fract_z
 _atom_site_occupancy
  Tm  Tm0  1  0.75000319  0.74999640  0.74999786  1
  Sc  Sc1  1  0.24999169  0.25000792  0.25000419  1
  Hg  Hg2  1  0.00000164  0.99999747  -0.00000024  1
  Hg  Hg3  1  0.50000348  0.49999821  0.49999819  1
