# generated using pymatgen
data_AgAu3
_symmetry_space_group_name_H-M   'P 1'
_cell_length_a   5.86267873
_cell_length_b   5.86308363
_cell_length_c   4.85609225
_cell_angle_alpha   90.00482222
_cell_angle_beta   89.99277901
_cell_angle_gamma   120.09661303
_symmetry_Int_Tables_number   1
_chemical_formula_structural   AgAu3
_chemical_formula_sum   'Ag2 Au6'
_cell_volume   144.41626730
_cell_formula_units_Z   2
loop_
 _symmetry_equiv_pos_site_id
 _symmetry_equiv_pos_as_xyz
  1  'x, y, z'
loop_
 _atom_site_type_symbol
 _atom_site_label
 _atom_site_symmetry_multiplicity
 _atom_site_fract_x
 _atom_site_fract_y
 _atom_site_fract_z
 _atom_site_occupancy
  Ag  Ag0  1  0.33332757  0.66667344  0.74999496  1
  Ag  Ag1  1  0.66668105  0.33333786  0.25000950  1
  Au  Au2  1  0.16720899  0.33442362  0.24999345  1
  Au  Au3  1  0.66559321  0.83279454  0.24999299  1
  Au  Au4  1  0.16720198  0.83279693  0.25002536  1
  Au  Au5  1  0.83278344  0.66558050  0.75000787  1
  Au  Au6  1  0.33441489  0.16720491  0.75000933  1
  Au  Au7  1  0.83278887  0.16718821  0.74997854  1
