# generated using pymatgen
data_La2ZnFeO6
_symmetry_space_group_name_H-M   'P 1'
_cell_length_a   5.53660339
_cell_length_b   5.53660303
_cell_length_c   5.53660360
_cell_angle_alpha   61.27811798
_cell_angle_beta   61.27811905
_cell_angle_gamma   61.27812192
_symmetry_Int_Tables_number   1
_chemical_formula_structural   La2ZnFeO6
_chemical_formula_sum   'La2 Zn1 Fe1 O6'
_cell_volume   123.45783876
_cell_formula_units_Z   1
loop_
 _symmetry_equiv_pos_site_id
 _symmetry_equiv_pos_as_xyz
  1  'x, y, z'
loop_
 _atom_site_type_symbol
 _atom_site_label
 _atom_site_symmetry_multiplicity
 _atom_site_fract_x
 _atom_site_fract_y
 _atom_site_fract_z
 _atom_site_occupancy
  La  La0  1  0.75118802  0.75118802  0.75118802  1
  La  La1  1  0.24881198  0.24881198  0.24881198  1
  Zn  Zn2  1  0.50000000  0.50000000  0.50000000  1
  Fe  Fe3  1  0.00000000  0.00000000  0.00000000  1
  O  O4  1  0.31521079  0.75956325  0.17387025  1
  O  O5  1  0.75956325  0.17387025  0.31521079  1
  O  O6  1  0.17387025  0.31521079  0.75956325  1
  O  O7  1  0.68478921  0.24043675  0.82612975  1
  O  O8  1  0.82612975  0.68478921  0.24043675  1
  O  O9  1  0.24043675  0.82612975  0.68478921  1
