# generated using pymatgen
data_Ca2MoWO6
_symmetry_space_group_name_H-M   'P 1'
_cell_length_a   5.53560897
_cell_length_b   5.75698472
_cell_length_c   7.99318185
_cell_angle_alpha   90.00000000
_cell_angle_beta   89.82608729
_cell_angle_gamma   90.00000000
_symmetry_Int_Tables_number   1
_chemical_formula_structural   Ca2MoWO6
_chemical_formula_sum   'Ca4 Mo2 W2 O12'
_cell_volume   254.72887276
_cell_formula_units_Z   2
loop_
 _symmetry_equiv_pos_site_id
 _symmetry_equiv_pos_as_xyz
  1  'x, y, z'
loop_
 _atom_site_type_symbol
 _atom_site_label
 _atom_site_symmetry_multiplicity
 _atom_site_fract_x
 _atom_site_fract_y
 _atom_site_fract_z
 _atom_site_occupancy
  Ca  Ca0  1  0.98530701  0.05461817  0.25108179  1
  Ca  Ca1  1  0.51469299  0.55461917  0.24891821  1
  Ca  Ca2  1  0.01469399  0.94538283  0.74891821  1
  Ca  Ca3  1  0.48530601  0.44538183  0.75108179  1
  Mo  Mo4  1  0.50000000  0.00000000  0.00000000  1
  Mo  Mo5  1  0.00000100  0.49999900  0.50000000  1
  W  W6  1  0.50000000  0.00000000  0.49999900  1
  W  W7  1  0.00000000  0.49999900  0.00000000  1
  O  O8  1  0.68260289  0.28887937  0.44716002  1
  O  O9  1  0.81739711  0.78888037  0.05283998  1
  O  O10  1  0.31739611  0.71112063  0.55283998  1
  O  O11  1  0.18260389  0.21111963  0.94716002  1
  O  O12  1  0.20853780  0.19544416  0.55632623  1
  O  O13  1  0.29146220  0.69544316  0.94367377  1
  O  O14  1  0.79146320  0.80455584  0.44367377  1
  O  O15  1  0.70853680  0.30455684  0.05632623  1
  O  O16  1  0.10759934  0.45962245  0.24226187  1
  O  O17  1  0.39240166  0.95962345  0.25773713  1
  O  O18  1  0.60759934  0.04037655  0.74226287  1
  O  O19  1  0.89240166  0.54037755  0.75773813  1
