# generated using pymatgen
data_Ba9Y2(SiO4)6
_symmetry_space_group_name_H-M   'P 1'
_cell_length_a   9.52047306
_cell_length_b   9.52044465
_cell_length_c   9.52048241
_cell_angle_alpha   64.49540611
_cell_angle_beta   64.49557028
_cell_angle_gamma   64.49530445
_symmetry_Int_Tables_number   1
_chemical_formula_structural   Ba9Y2(SiO4)6
_chemical_formula_sum   'Ba9 Y2 Si6 O24'
_cell_volume   670.34384862
_cell_formula_units_Z   1
loop_
 _symmetry_equiv_pos_site_id
 _symmetry_equiv_pos_as_xyz
  1  'x, y, z'
loop_
 _atom_site_type_symbol
 _atom_site_label
 _atom_site_symmetry_multiplicity
 _atom_site_fract_x
 _atom_site_fract_y
 _atom_site_fract_z
 _atom_site_occupancy
  Ba  Ba0  1  -0.00000000  -0.00000000  0.00000000  1
  Ba  Ba1  1  0.66219084  0.66220875  0.66220855  1
  Ba  Ba2  1  0.33780916  0.33779125  0.33779145  1
  Ba  Ba3  1  0.25170574  0.56184043  0.85993348  1
  Ba  Ba4  1  0.56184154  0.85992625  0.25171188  1
  Ba  Ba5  1  0.85992858  0.25171508  0.56184159  1
  Ba  Ba6  1  0.74829426  0.43815957  0.14006652  1
  Ba  Ba7  1  0.43815846  0.14007375  0.74828812  1
  Ba  Ba8  1  0.14007142  0.74828492  0.43815841  1
  Y  Y9  1  0.83586988  0.83587230  0.83586877  1
  Y  Y10  1  0.16413012  0.16412770  0.16413123  1
  Si  Si11  1  0.24408476  0.94762940  0.58738709  1
  Si  Si12  1  0.94763049  0.58738749  0.24408420  1
  Si  Si13  1  0.58738616  0.24408601  0.94763070  1
  Si  Si14  1  0.75591524  0.05237060  0.41261291  1
  Si  Si15  1  0.05236951  0.41261251  0.75591580  1
  Si  Si16  1  0.41261384  0.75591399  0.05236930  1
  O  O17  1  0.29135634  0.06174214  0.63562425  1
  O  O18  1  0.06175127  0.63562615  0.29134305  1
  O  O19  1  0.63562540  0.29135279  0.06174554  1
  O  O20  1  0.70864366  0.93825786  0.36437575  1
  O  O21  1  0.93824873  0.36437385  0.70865695  1
  O  O22  1  0.36437460  0.70864721  0.93825446  1
  O  O23  1  0.21351888  0.04778154  0.40386754  1
  O  O24  1  0.04777816  0.40386760  0.21351721  1
  O  O25  1  0.40386717  0.21351871  0.04778531  1
  O  O26  1  0.78648112  0.95221846  0.59613246  1
  O  O27  1  0.95222184  0.59613240  0.78648279  1
  O  O28  1  0.59613283  0.78648129  0.95221469  1
  O  O29  1  0.71904528  0.07028772  0.90745549  1
  O  O30  1  0.07028596  0.90745711  0.71904611  1
  O  O31  1  0.90745298  0.71904580  0.07028734  1
  O  O32  1  0.28095472  0.92971228  0.09254451  1
  O  O33  1  0.92971404  0.09254289  0.28095389  1
  O  O34  1  0.09254702  0.28095420  0.92971266  1
  O  O35  1  0.57046507  0.38045468  0.77065509  1
  O  O36  1  0.38045031  0.77065065  0.57046897  1
  O  O37  1  0.77065506  0.57047146  0.38045406  1
  O  O38  1  0.42953493  0.61954532  0.22934491  1
  O  O39  1  0.61954969  0.22934935  0.42953103  1
  O  O40  1  0.22934494  0.42952854  0.61954594  1
