# generated using pymatgen
data_CaCrNiP2O9
_symmetry_space_group_name_H-M   'P 1'
_cell_length_a   6.46135350
_cell_length_b   7.51246503
_cell_length_c   14.18058259
_cell_angle_alpha   89.99489992
_cell_angle_beta   90.00064717
_cell_angle_gamma   89.99699013
_symmetry_Int_Tables_number   1
_chemical_formula_structural   CaCrNiP2O9
_chemical_formula_sum   'Ca4 Cr4 Ni4 P8 O36'
_cell_volume   688.33529167
_cell_formula_units_Z   4
loop_
 _symmetry_equiv_pos_site_id
 _symmetry_equiv_pos_as_xyz
  1  'x, y, z'
loop_
 _atom_site_type_symbol
 _atom_site_label
 _atom_site_symmetry_multiplicity
 _atom_site_fract_x
 _atom_site_fract_y
 _atom_site_fract_z
 _atom_site_occupancy
  Ca  Ca0  1  0.74991054  0.87930633  0.77891178  1
  Ca  Ca1  1  0.74990826  0.62073420  0.27893357  1
  Ca  Ca2  1  0.25008480  0.12069724  0.22108864  1
  Ca  Ca3  1  0.25008826  0.37927108  0.72105487  1
  Cr  Cr4  1  0.75001130  0.34862785  0.88356453  1
  Cr  Cr5  1  0.24998524  0.65141533  0.11649919  1
  Cr  Cr6  1  0.24996780  0.84846912  0.61647453  1
  Cr  Cr7  1  0.75002112  0.15141779  0.38349481  1
  Ni  Ni8  1  0.50002189  0.99997054  0.99999542  1
  Ni  Ni9  1  0.50000233  0.49993056  0.49999000  1
  Ni  Ni10  1  -0.00000738  0.49992962  0.49998601  1
  Ni  Ni11  1  -0.00002423  0.99997190  0.99999559  1
  P  P12  1  0.25003251  0.34911678  0.93904872  1
  P  P13  1  0.74997597  0.65088714  0.06097262  1
  P  P14  1  0.74997034  0.84918220  0.56094094  1
  P  P15  1  0.25002591  0.15086392  0.43905693  1
  P  P16  1  0.75007690  0.38913927  0.69383309  1
  P  P17  1  0.24992568  0.61085045  0.30617610  1
  P  P18  1  0.24992799  0.88912952  0.80619708  1
  P  P19  1  0.75006799  0.11090223  0.19379987  1
  O  O20  1  0.05203478  0.60621667  0.36613247  1
  O  O21  1  0.55222999  0.39375294  0.63384497  1
  O  O22  1  0.94796442  0.10625124  0.13383785  1
  O  O23  1  0.44780237  0.89370111  0.86618514  1
  O  O24  1  0.94793804  0.39379928  0.63385778  1
  O  O25  1  0.44778923  0.60625699  0.36615211  1
  O  O26  1  0.05203116  0.89377162  0.86616522  1
  O  O27  1  0.55219467  0.10632280  0.13381982  1
  O  O28  1  0.25008446  0.33411830  0.48717526  1
  O  O29  1  0.74990583  0.66597339  0.51281350  1
  O  O30  1  0.74991046  0.83413552  0.01284587  1
  O  O31  1  0.25009334  0.16586891  0.98718100  1
  O  O32  1  0.75002006  0.14506757  0.94417461  1
  O  O33  1  0.24999172  0.85494567  0.05583534  1
  O  O34  1  0.24998704  0.64501644  0.55581452  1
  O  O35  1  0.75000218  0.35491502  0.44416491  1
  O  O36  1  0.75005201  0.21795202  0.75876015  1
  O  O37  1  0.24995683  0.78205607  0.24123836  1
  O  O38  1  0.24996986  0.71792111  0.74128631  1
  O  O39  1  0.75002678  0.28206572  0.25871861  1
  O  O40  1  0.43779825  0.13263017  0.37112434  1
  O  O41  1  0.93773619  0.86719169  0.62888728  1
  O  O42  1  0.56218772  0.63258712  0.12887761  1
  O  O43  1  0.06224613  0.36721798  0.87110133  1
  O  O44  1  0.56219915  0.86739028  0.62887130  1
  O  O45  1  0.06226730  0.13282402  0.37110672  1
  O  O46  1  0.43784682  0.36738595  0.87111945  1
  O  O47  1  0.93774798  0.63276354  0.12889191  1
  O  O48  1  0.75004335  0.96242485  0.27201724  1
  O  O49  1  0.24994632  0.03758567  0.72799444  1
  O  O50  1  0.24996890  0.46239988  0.22797718  1
  O  O51  1  0.75003868  0.53762606  0.77202119  1
  O  O52  1  0.75005507  0.99120953  0.48408895  1
  O  O53  1  0.24994259  0.00882970  0.51589266  1
  O  O54  1  0.24996433  0.49113158  0.01587491  1
  O  O55  1  0.75005276  0.50888051  0.98413238  1
