# generated using pymatgen
data_Cu2PPd2
_symmetry_space_group_name_H-M   'P 1'
_cell_length_a   5.04314087
_cell_length_b   5.04314087
_cell_length_c   5.49003811
_cell_angle_alpha   90.00000000
_cell_angle_beta   90.00000000
_cell_angle_gamma   91.87758211
_symmetry_Int_Tables_number   1
_chemical_formula_structural   Cu2PPd2
_chemical_formula_sum   'Cu4 P2 Pd4'
_cell_volume   139.55465495
_cell_formula_units_Z   2
loop_
 _symmetry_equiv_pos_site_id
 _symmetry_equiv_pos_as_xyz
  1  'x, y, z'
loop_
 _atom_site_type_symbol
 _atom_site_label
 _atom_site_symmetry_multiplicity
 _atom_site_fract_x
 _atom_site_fract_y
 _atom_site_fract_z
 _atom_site_occupancy
  Cu  Cu0  1  0.73325539  0.85647393  0.66332994  1
  Cu  Cu1  1  0.26674461  0.14352607  0.66332994  1
  Cu  Cu2  1  0.35647393  0.23325539  0.16332994  1
  Cu  Cu3  1  0.64352607  0.76674461  0.16332994  1
  P  P4  1  0.00000000  0.00000000  0.99232955  1
  P  P5  1  0.50000000  0.50000000  0.49232955  1
  Pd  Pd6  1  0.14505836  0.75146716  0.34050528  1
  Pd  Pd7  1  0.85494164  0.24853284  0.34050528  1
  Pd  Pd8  1  0.74853284  0.35494164  0.84050528  1
  Pd  Pd9  1  0.25146716  0.64505836  0.84050528  1
