# generated using pymatgen
data_WO2
_symmetry_space_group_name_H-M   'P 1'
_cell_length_a   3.30221279
_cell_length_b   7.69889799
_cell_length_c   7.68453187
_cell_angle_alpha   87.90255094
_cell_angle_beta   78.30247022
_cell_angle_gamma   78.10282419
_symmetry_Int_Tables_number   1
_chemical_formula_structural   WO2
_chemical_formula_sum   'W4 O8'
_cell_volume   187.19721072
_cell_formula_units_Z   4
loop_
 _symmetry_equiv_pos_site_id
 _symmetry_equiv_pos_as_xyz
  1  'x, y, z'
loop_
 _atom_site_type_symbol
 _atom_site_label
 _atom_site_symmetry_multiplicity
 _atom_site_fract_x
 _atom_site_fract_y
 _atom_site_fract_z
 _atom_site_occupancy
  W  W0  1  0.65710317  0.18455681  0.50820310  1
  W  W1  1  0.16529565  0.49139497  0.18555002  1
  W  W2  1  0.83847367  0.50897904  0.81658863  1
  W  W3  1  0.34682070  0.81579110  0.49393110  1
  O  O4  1  0.84597140  0.70009777  0.62589012  1
  O  O5  1  0.46549877  0.37764298  0.69879141  1
  O  O6  1  0.53805901  0.62272379  0.30333498  1
  O  O7  1  0.15759637  0.30025014  0.37624488  1
  O  O8  1  0.16597155  0.05344083  0.62851262  1
  O  O9  1  0.78934867  0.37257989  0.05224828  1
  O  O10  1  0.83815685  0.94691847  0.37361779  1
  O  O11  1  0.21455620  0.62780021  0.94990307  1
