# generated using pymatgen
data_Cs3Li4(BO2)7
_symmetry_space_group_name_H-M   'P 1'
_cell_length_a   7.02894146
_cell_length_b   7.02896044
_cell_length_c   27.18276579
_cell_angle_alpha   90.00027792
_cell_angle_beta   89.99995553
_cell_angle_gamma   119.99997147
_symmetry_Int_Tables_number   1
_chemical_formula_structural   Cs3Li4(BO2)7
_chemical_formula_sum   'Cs9 Li12 B21 O42'
_cell_volume   1163.06885247
_cell_formula_units_Z   3
loop_
 _symmetry_equiv_pos_site_id
 _symmetry_equiv_pos_as_xyz
  1  'x, y, z'
loop_
 _atom_site_type_symbol
 _atom_site_label
 _atom_site_symmetry_multiplicity
 _atom_site_fract_x
 _atom_site_fract_y
 _atom_site_fract_z
 _atom_site_occupancy
  Cs  Cs0  1  0.52770736  0.99537779  0.55798758  1
  Cs  Cs1  1  0.46768559  0.47229890  0.22465432  1
  Cs  Cs2  1  0.00463619  0.53232093  0.89132087  1
  Cs  Cs3  1  0.47232449  0.46768013  0.77534149  1
  Cs  Cs4  1  0.99538039  0.52769346  0.44200761  1
  Cs  Cs5  1  0.53233042  0.00463133  0.10867431  1
  Cs  Cs6  1  0.00001485  0.92218732  0.66666839  1
  Cs  Cs7  1  0.92126981  0.00000086  0.33333457  1
  Cs  Cs8  1  0.07782748  0.07781368  0.00000100  1
  Li  Li9  1  0.63967100  0.39174186  0.64462571  1
  Li  Li10  1  0.75209375  0.36038930  0.31128988  1
  Li  Li11  1  0.60827021  0.24791557  0.97795891  1
  Li  Li12  1  0.36036247  0.75207899  0.68870485  1
  Li  Li13  1  0.39168993  0.63960328  0.35537309  1
  Li  Li14  1  0.24793486  0.60827210  0.02203759  1
  Li  Li15  1  0.65495777  0.53738119  0.54440727  1
  Li  Li16  1  0.88245160  0.34506143  0.21107236  1
  Li  Li17  1  0.46263297  0.11756507  0.87774032  1
  Li  Li18  1  0.34507645  0.88243029  0.78891829  1
  Li  Li19  1  0.53738002  0.65493193  0.45558569  1
  Li  Li20  1  0.11758266  0.46263073  0.12225125  1
  B  B21  1  0.02972579  0.48886540  0.58460552  1
  B  B22  1  0.45915311  0.97028506  0.25127140  1
  B  B23  1  0.51114614  0.54084779  0.91793871  1
  B  B24  1  0.97028806  0.45914340  0.74872492  1
  B  B25  1  0.48886822  0.02972421  0.41539156  1
  B  B26  1  0.54086953  0.51113350  0.08205778  1
  B  B27  1  0.35481745  0.50414029  0.62550013  1
  B  B28  1  0.14934255  0.64520855  0.29216816  1
  B  B29  1  0.49587175  0.85066431  0.95883333  1
  B  B30  1  0.64519233  0.14934364  0.70782674  1
  B  B31  1  0.50415588  0.35480617  0.37449136  1
  B  B32  1  0.85066992  0.49583711  0.04115963  1
  B  B33  1  0.22211089  0.30868284  0.54256536  1
  B  B34  1  0.08658937  0.77790041  0.20923265  1
  B  B35  1  0.69132856  0.91341552  0.87589889  1
  B  B36  1  0.77789019  0.08656610  0.79075930  1
  B  B37  1  0.30869383  0.22212196  0.45742517  1
  B  B38  1  0.91344599  0.69131146  0.12409254  1
  B  B39  1  0.96653674  0.96652066  0.49999170  1
  B  B40  1  0.00000703  0.03347454  0.16665785  1
  B  B41  1  0.03349369  0.00000453  0.83332490  1
  O  O42  1  0.06963022  0.07045957  0.54438863  1
  O  O43  1  0.00084884  0.93037927  0.21105407  1
  O  O44  1  0.92955196  0.99915882  0.87772128  1
  O  O45  1  0.93037484  0.00082752  0.78893014  1
  O  O46  1  0.07047510  0.06963719  0.45559713  1
  O  O47  1  0.99918276  0.92953444  0.12226254  1
  O  O48  1  0.84263639  0.49326769  0.58924822  1
  O  O49  1  0.65065653  0.15736957  0.25591686  1
  O  O50  1  0.50674354  0.34935794  0.92258097  1
  O  O51  1  0.15738462  0.65062370  0.74408329  1
  O  O52  1  0.49326955  0.84263189  0.41074665  1
  O  O53  1  0.34938888  0.50675110  0.07741567  1
  O  O54  1  0.77538531  0.77535154  0.49998985  1
  O  O55  1  0.99998419  0.22462305  0.16665629  1
  O  O56  1  0.22466269  0.00002630  0.83332309  1
  O  O57  1  0.36968046  0.38059810  0.58710798  1
  O  O58  1  0.01094472  0.63032782  0.25377354  1
  O  O59  1  0.61941357  0.98906793  0.92044155  1
  O  O60  1  0.63032278  0.01093071  0.74621680  1
  O  O61  1  0.38063699  0.36969370  0.41288420  1
  O  O62  1  0.98908383  0.61938078  0.07954990  1
  O  O63  1  0.09026645  0.42236828  0.54202283  1
  O  O64  1  0.33212583  0.90974816  0.20868909  1
  O  O65  1  0.57764345  0.66788673  0.87535622  1
  O  O66  1  0.90973199  0.33209655  0.79130645  1
  O  O67  1  0.42238750  0.09027800  0.45797322  1
  O  O68  1  0.66791426  0.57762198  0.12463970  1
  O  O69  1  0.50276904  0.07696973  0.67018744  1
  O  O70  1  0.57422041  0.49724159  0.33685459  1
  O  O71  1  0.92304326  0.42578825  0.00352010  1
  O  O72  1  0.49724484  0.57419095  0.66313899  1
  O  O73  1  0.07696759  0.50276851  0.32980437  1
  O  O74  1  0.42581910  0.92304115  0.99647179  1
  O  O75  1  0.18552525  0.55843057  0.62426085  1
  O  O76  1  0.37293909  0.81448234  0.29092672  1
  O  O77  1  0.44158242  0.62708406  0.95759369  1
  O  O78  1  0.81448617  0.37292276  0.70906961  1
  O  O79  1  0.55847252  0.18552804  0.37573545  1
  O  O80  1  0.62708864  0.44155089  0.04240197  1
  O  O81  1  0.37112553  0.37113290  0.49999512  1
  O  O82  1  0.00003247  0.62888642  0.16666160  1
  O  O83  1  0.62887916  0.99997986  0.83332862  1
