# generated using pymatgen
data_LiMnO2
_symmetry_space_group_name_H-M   'P 1'
_cell_length_a   2.87324287
_cell_length_b   5.30166484
_cell_length_c   10.08612826
_cell_angle_alpha   90.00100139
_cell_angle_beta   90.02437503
_cell_angle_gamma   90.00041178
_symmetry_Int_Tables_number   1
_chemical_formula_structural   LiMnO2
_chemical_formula_sum   'Li4 Mn4 O8'
_cell_volume   153.64168249
_cell_formula_units_Z   4
loop_
 _symmetry_equiv_pos_site_id
 _symmetry_equiv_pos_as_xyz
  1  'x, y, z'
loop_
 _atom_site_type_symbol
 _atom_site_label
 _atom_site_symmetry_multiplicity
 _atom_site_fract_x
 _atom_site_fract_y
 _atom_site_fract_z
 _atom_site_occupancy
  Li  Li0  1  0.67788810  0.60246616  0.10565855  1
  Li  Li1  1  0.17692152  0.39748558  0.89428887  1
  Li  Li2  1  0.67631849  0.89747743  0.60569901  1
  Li  Li3  1  0.17519367  0.10246018  0.39433273  1
  Mn  Mn4  1  0.17690619  0.10664662  0.13242484  1
  Mn  Mn5  1  0.67659803  0.89343105  0.86763575  1
  Mn  Mn6  1  0.67587135  0.60663200  0.36758777  1
  Mn  Mn7  1  0.17607214  0.39335656  0.63237904  1
  O  O8  1  0.67694173  0.95370824  0.23774063  1
  O  O9  1  0.17637389  0.04639511  0.76232632  1
  O  O10  1  0.17582134  0.45369357  0.26226675  1
  O  O11  1  0.67625495  0.54635490  0.73767455  1
  O  O12  1  0.67677019  0.24563291  0.02046762  1
  O  O13  1  0.17682203  0.75431355  0.97954032  1
  O  O14  1  0.67588216  0.25429539  0.52044510  1
  O  O15  1  0.17602723  0.74564374  0.47953215  1
