# generated using pymatgen
data_KBe2B3O7
_symmetry_space_group_name_H-M   'P 1'
_cell_length_a   7.57093556
_cell_length_b   9.43330739
_cell_length_c   13.41525326
_cell_angle_alpha   90.00000000
_cell_angle_beta   90.00000000
_cell_angle_gamma   111.43277681
_symmetry_Int_Tables_number   1
_chemical_formula_structural   KBe2B3O7
_chemical_formula_sum   'K6 Be12 B18 O42'
_cell_volume   891.84767203
_cell_formula_units_Z   6
loop_
 _symmetry_equiv_pos_site_id
 _symmetry_equiv_pos_as_xyz
  1  'x, y, z'
loop_
 _atom_site_type_symbol
 _atom_site_label
 _atom_site_symmetry_multiplicity
 _atom_site_fract_x
 _atom_site_fract_y
 _atom_site_fract_z
 _atom_site_occupancy
  K  K0  1  0.37005833  0.76680317  0.94166319  1
  K  K1  1  0.62994167  0.23319683  0.44166319  1
  K  K2  1  0.37911718  0.76623380  0.58872587  1
  K  K3  1  0.62088282  0.23376620  0.08872587  1
  K  K4  1  0.00190005  0.00548132  0.01712732  1
  K  K5  1  0.99809995  0.99451868  0.51712732  1
  Be  Be6  1  0.97501588  0.58586825  0.10398104  1
  Be  Be7  1  0.02498412  0.41413175  0.60398104  1
  Be  Be8  1  0.02988956  0.42364656  0.93699793  1
  Be  Be9  1  0.97011044  0.57635344  0.43699793  1
  Be  Be10  1  0.39609065  0.41627342  0.93622112  1
  Be  Be11  1  0.60390935  0.58372658  0.43622112  1
  Be  Be12  1  0.59881968  0.57648291  0.10447550  1
  Be  Be13  1  0.40118032  0.42351709  0.60447550  1
  Be  Be14  1  0.39868974  0.40907676  0.27187986  1
  Be  Be15  1  0.60131026  0.59092324  0.77187986  1
  Be  Be16  1  0.02654322  0.40988808  0.26937582  1
  Be  Be17  1  0.97345678  0.59011192  0.76937582  1
  B  B18  1  0.23550430  0.46423859  0.10425005  1
  B  B19  1  0.76449570  0.53576141  0.60425005  1
  B  B20  1  0.23598942  0.47442841  0.77114682  1
  B  B21  1  0.76401058  0.52557159  0.27114682  1
  B  B22  1  0.76730183  0.53949173  0.93546428  1
  B  B23  1  0.23269817  0.46050827  0.43546428  1
  B  B24  1  0.34579655  0.15215828  0.85574450  1
  B  B25  1  0.65420345  0.84784172  0.35574450  1
  B  B26  1  0.19130013  0.91296993  0.76236075  1
  B  B27  1  0.80869987  0.08703007  0.26236075  1
  B  B28  1  0.35640330  0.15750633  0.67663930  1
  B  B29  1  0.64359670  0.84249367  0.17663930  1
  B  B30  1  0.30983547  0.08726404  0.27122252  1
  B  B31  1  0.69016453  0.91273596  0.77122252  1
  B  B32  1  0.15459316  0.85031258  0.17702511  1
  B  B33  1  0.84540684  0.14968742  0.67702511  1
  B  B34  1  0.15559490  0.84283240  0.35859227  1
  B  B35  1  0.84440510  0.15716760  0.85859227  1
  O  O36  1  0.91865350  0.52594797  0.98768750  1
  O  O37  1  0.08134650  0.47405203  0.48768750  1
  O  O38  1  0.08652679  0.48185609  0.15487431  1
  O  O39  1  0.91347321  0.51814391  0.65487431  1
  O  O40  1  0.22119866  0.43084836  0.33469723  1
  O  O41  1  0.77880134  0.56915164  0.83469723  1
  O  O42  1  0.39499409  0.46348786  0.15406434  1
  O  O43  1  0.60500591  0.53651214  0.65406434  1
  O  O44  1  0.60125992  0.51627985  0.98790191  1
  O  O45  1  0.39874008  0.48372015  0.48790191  1
  O  O46  1  0.22844629  0.45194372  0.00093771  1
  O  O47  1  0.77155371  0.54805628  0.50093771  1
  O  O48  1  0.39782463  0.48379750  0.82268417  1
  O  O49  1  0.60217537  0.51620250  0.32268417  1
  O  O50  1  0.09285421  0.49797509  0.82432137  1
  O  O51  1  0.90714579  0.50202491  0.32432137  1
  O  O52  1  0.22706372  0.45317880  0.66829753  1
  O  O53  1  0.77293628  0.54682120  0.16829753  1
  O  O54  1  0.11130657  0.76376545  0.75922219  1
  O  O55  1  0.88869343  0.23623455  0.25922219  1
  O  O56  1  0.23301159  0.99429105  0.85379563  1
  O  O57  1  0.76698841  0.00570895  0.35379563  1
  O  O58  1  0.24486599  0.99965804  0.67327762  1
  O  O59  1  0.75513401  0.00034196  0.17327762  1
  O  O60  1  0.35589899  0.23473603  0.93805919  1
  O  O61  1  0.64410101  0.76526397  0.43805919  1
  O  O62  1  0.43879512  0.21512793  0.76784583  1
  O  O63  1  0.56120488  0.78487207  0.26784583  1
  O  O64  1  0.37529556  0.24570266  0.59636410  1
  O  O65  1  0.62470444  0.75429734  0.09636410  1
  O  O66  1  0.39639132  0.23699818  0.27430807  1
  O  O67  1  0.60360868  0.76300182  0.77430807  1
  O  O68  1  0.27047103  0.99977609  0.36064689  1
  O  O69  1  0.72952897  0.00022391  0.86064689  1
  O  O70  1  0.26612915  0.00782208  0.17877374  1
  O  O71  1  0.73387085  0.99217792  0.67877374  1
  O  O72  1  0.10793918  0.75655106  0.44062614  1
  O  O73  1  0.89206082  0.24344894  0.94062614  1
  O  O74  1  0.08260581  0.78345598  0.26697415  1
  O  O75  1  0.91739419  0.21654402  0.76697415  1
  O  O76  1  0.10799691  0.76772414  0.09332716  1
  O  O77  1  0.89200309  0.23227586  0.59332716  1
