# generated using pymatgen
data_La5S4NO2
_symmetry_space_group_name_H-M   'P 1'
_cell_length_a   4.09704958
_cell_length_b   8.13279491
_cell_length_c   16.83536056
_cell_angle_alpha   100.72472964
_cell_angle_beta   90.00000000
_cell_angle_gamma   104.58905386
_symmetry_Int_Tables_number   1
_chemical_formula_structural   La5S4NO2
_chemical_formula_sum   'La10 S8 N2 O4'
_cell_volume   532.74397254
_cell_formula_units_Z   2
loop_
 _symmetry_equiv_pos_site_id
 _symmetry_equiv_pos_as_xyz
  1  'x, y, z'
loop_
 _atom_site_type_symbol
 _atom_site_label
 _atom_site_symmetry_multiplicity
 _atom_site_fract_x
 _atom_site_fract_y
 _atom_site_fract_z
 _atom_site_occupancy
  La  La0  1  0.12447479  0.24894957  0.02413350  1
  La  La1  1  0.87552521  0.75105043  0.97586650  1
  La  La2  1  0.48201882  0.96403765  0.83170651  1
  La  La3  1  0.51798118  0.03596235  0.16829349  1
  La  La4  1  0.23211923  0.46423845  0.79433024  1
  La  La5  1  0.76788077  0.53576155  0.20566976  1
  La  La6  1  0.42149323  0.84298645  0.40729722  1
  La  La7  1  0.57850677  0.15701355  0.59270278  1
  La  La8  1  0.14058359  0.28116717  0.41432474  1
  La  La9  1  0.85941641  0.71883283  0.58567526  1
  S  S10  1  0.32250928  0.64501857  0.09918058  1
  S  S11  1  0.67749072  0.35498143  0.90081942  1
  S  S12  1  0.15956551  0.31913103  0.24419978  1
  S  S13  1  0.84043449  0.68086897  0.75580022  1
  S  S14  1  0.04582169  0.09164338  0.71556684  1
  S  S15  1  0.95417831  0.90835662  0.28443316  1
  S  S16  1  0.21296574  0.42593149  0.59299752  1
  S  S17  1  0.78703426  0.57406851  0.40700248  1
  N  N18  1  0.42734687  0.85469375  0.54968651  1
  N  N19  1  0.57265313  0.14530625  0.45031349  1
  O  O20  1  0.00248086  0.00496172  0.91381861  1
  O  O21  1  0.99751914  0.99503828  0.08618139  1
  O  O22  1  0.36059907  0.72119815  0.90353313  1
  O  O23  1  0.63940093  0.27880185  0.09646687  1
