# generated using pymatgen
data_CeGaGe
_symmetry_space_group_name_H-M   'P 1'
_cell_length_a   4.25953324
_cell_length_b   4.25953324
_cell_length_c   7.94563974
_cell_angle_alpha   105.54779847
_cell_angle_beta   105.54779847
_cell_angle_gamma   90.00000000
_symmetry_Int_Tables_number   1
_chemical_formula_structural   CeGaGe
_chemical_formula_sum   'Ce2 Ga2 Ge2'
_cell_volume   133.40361061
_cell_formula_units_Z   2
loop_
 _symmetry_equiv_pos_site_id
 _symmetry_equiv_pos_as_xyz
  1  'x, y, z'
loop_
 _atom_site_type_symbol
 _atom_site_label
 _atom_site_symmetry_multiplicity
 _atom_site_fract_x
 _atom_site_fract_y
 _atom_site_fract_z
 _atom_site_occupancy
  Ce  Ce0  1  0.58209226  0.58209226  0.16418452  1
  Ce  Ce1  1  0.83209226  0.33209226  0.66418452  1
  Ga  Ga2  1  0.16563748  0.16563748  0.33127495  1
  Ga  Ga3  1  0.41563748  0.91563748  0.83127495  1
  Ge  Ge4  1  0.99927026  0.99927026  0.99854053  1
  Ge  Ge5  1  0.24927026  0.74927026  0.49854053  1
