# generated using pymatgen
data_Y(PO3)3
_symmetry_space_group_name_H-M   'P 1'
_cell_length_a   14.32198302
_cell_length_b   20.31421598
_cell_length_c   10.25497245
_cell_angle_alpha   90.00000000
_cell_angle_beta   127.39641265
_cell_angle_gamma   90.00000000
_symmetry_Int_Tables_number   1
_chemical_formula_structural   Y(PO3)3
_chemical_formula_sum   'Y12 P36 O108'
_cell_volume   2370.31319607
_cell_formula_units_Z   12
loop_
 _symmetry_equiv_pos_site_id
 _symmetry_equiv_pos_as_xyz
  1  'x, y, z'
loop_
 _atom_site_type_symbol
 _atom_site_label
 _atom_site_symmetry_multiplicity
 _atom_site_fract_x
 _atom_site_fract_y
 _atom_site_fract_z
 _atom_site_occupancy
  Y  Y0  1  0.50254065  0.17676003  0.02846615  1
  Y  Y1  1  0.49745935  0.67676003  0.47153385  1
  Y  Y2  1  0.49745935  0.82323997  0.97153385  1
  Y  Y3  1  0.50254065  0.32323997  0.52846615  1
  Y  Y4  1  0.00002814  0.65458022  0.98238717  1
  Y  Y5  1  -0.00002814  0.15458022  0.51761283  1
  Y  Y6  1  -0.00002814  0.34541978  0.01761283  1
  Y  Y7  1  0.00002814  0.84541978  0.48238717  1
  Y  Y8  1  0.50000000  0.00000000  0.50000000  1
  Y  Y9  1  0.50000000  0.50000000  0.00000000  1
  Y  Y10  1  0.00000000  0.00000000  0.00000000  1
  Y  Y11  1  0.00000000  0.50000000  0.50000000  1
  P  P12  1  0.27024663  0.55161668  0.23943125  1
  P  P13  1  0.72975337  0.05161668  0.26056875  1
  P  P14  1  0.72975337  0.44838332  0.76056875  1
  P  P15  1  0.27024663  0.94838332  0.73943125  1
  P  P16  1  0.82154092  0.54114767  0.63903693  1
  P  P17  1  0.17845908  0.04114767  0.86096307  1
  P  P18  1  0.17845908  0.45885233  0.36096307  1
  P  P19  1  0.82154092  0.95885233  0.13903693  1
  P  P20  1  0.34632038  0.37537618  0.66872576  1
  P  P21  1  0.65367962  0.87537618  0.83127424  1
  P  P22  1  0.65367962  0.62462382  0.33127424  1
  P  P23  1  0.34632038  0.12462382  0.16872576  1
  P  P24  1  0.23850678  0.27342002  0.74725632  1
  P  P25  1  0.76149322  0.77342002  0.75274368  1
  P  P26  1  0.76149322  0.72657998  0.25274368  1
  P  P27  1  0.23850678  0.22657998  0.24725632  1
  P  P28  1  0.14647652  0.11718534  0.33881842  1
  P  P29  1  0.85352348  0.61718534  0.16118158  1
  P  P30  1  0.85352348  0.88281466  0.66118158  1
  P  P31  1  0.14647652  0.38281466  0.83881842  1
  P  P32  1  0.36034823  0.06537210  0.66908532  1
  P  P33  1  0.63965177  0.56537210  0.83091468  1
  P  P34  1  0.63965177  0.93462790  0.33091468  1
  P  P35  1  0.36034823  0.43462790  0.16908532  1
  P  P36  1  0.67637205  0.20859066  0.87390705  1
  P  P37  1  0.32362795  0.70859066  0.62609295  1
  P  P38  1  0.32362795  0.79140934  0.12609295  1
  P  P39  1  0.67637205  0.29140934  0.37390705  1
  P  P40  1  0.13366197  0.77829663  0.31019039  1
  P  P41  1  0.86633803  0.27829663  0.18980961  1
  P  P42  1  0.86633803  0.22170337  0.68980961  1
  P  P43  1  0.13366197  0.72170337  0.81019039  1
  P  P44  1  0.24651221  0.88847840  0.26813475  1
  P  P45  1  0.75348779  0.38847840  0.23186525  1
  P  P46  1  0.75348779  0.11152160  0.73186525  1
  P  P47  1  0.24651221  0.61152160  0.76813475  1
  O  O48  1  0.38462389  0.58784221  0.33610731  1
  O  O49  1  0.61537611  0.08784221  0.16389269  1
  O  O50  1  0.61537611  0.41215779  0.66389269  1
  O  O51  1  0.38462389  0.91215779  0.83610731  1
  O  O52  1  0.15958302  0.58967059  0.12180331  1
  O  O53  1  0.84041698  0.08967059  0.37819669  1
  O  O54  1  0.84041698  0.41032941  0.87819669  1
  O  O55  1  0.15958302  0.91032941  0.62180331  1
  O  O56  1  0.88461900  0.51343451  0.57711508  1
  O  O57  1  0.11538100  0.01343451  0.92288492  1
  O  O58  1  0.11538100  0.48656549  0.42288492  1
  O  O59  1  0.88461900  0.98656549  0.07711508  1
  O  O60  1  0.89231881  0.57249643  0.80521177  1
  O  O61  1  0.10768119  0.07249643  0.69478823  1
  O  O62  1  0.10768119  0.42750357  0.19478823  1
  O  O63  1  0.89231881  0.92750357  0.30521177  1
  O  O64  1  0.37995952  0.42549815  0.79783414  1
  O  O65  1  0.62004048  0.92549815  0.70216586  1
  O  O66  1  0.62004048  0.57450185  0.20216586  1
  O  O67  1  0.37995952  0.07450185  0.29783414  1
  O  O68  1  0.44136022  0.33536216  0.68644448  1
  O  O69  1  0.55863978  0.83536216  0.81355552  1
  O  O70  1  0.55863978  0.66463784  0.31355552  1
  O  O71  1  0.44136022  0.16463784  0.18644448  1
  O  O72  1  0.36077395  0.25737244  0.89689865  1
  O  O73  1  0.63922605  0.75737244  0.60310135  1
  O  O74  1  0.63922605  0.74262756  0.10310135  1
  O  O75  1  0.36077395  0.24262756  0.39689865  1
  O  O76  1  0.16304427  0.21742036  0.63932553  1
  O  O77  1  0.83695573  0.71742036  0.86067447  1
  O  O78  1  0.83695573  0.78257964  0.36067447  1
  O  O79  1  0.16304427  0.28257964  0.13932553  1
  O  O80  1  0.12459127  0.06777577  0.21445048  1
  O  O81  1  0.87540873  0.56777577  0.28554952  1
  O  O82  1  0.87540873  0.93222423  0.78554952  1
  O  O83  1  0.12459127  0.43222423  0.71445048  1
  O  O84  1  0.05535607  0.12114679  0.36637289  1
  O  O85  1  0.94464393  0.62114679  0.13362711  1
  O  O86  1  0.94464393  0.87885321  0.63362711  1
  O  O87  1  0.05535607  0.37885321  0.86637289  1
  O  O88  1  0.39303339  0.10446362  0.81530186  1
  O  O89  1  0.60696661  0.60446362  0.68469814  1
  O  O90  1  0.60696661  0.89553638  0.18469814  1
  O  O91  1  0.39303339  0.39553638  0.31530186  1
  O  O92  1  0.45666405  0.04015966  0.66407033  1
  O  O93  1  0.54333595  0.54015966  0.83592967  1
  O  O94  1  0.54333595  0.95984034  0.33592967  1
  O  O95  1  0.45666405  0.45984034  0.16407033  1
  O  O96  1  0.73738510  0.48530001  0.62823997  1
  O  O97  1  0.26261490  0.98530001  0.87176003  1
  O  O98  1  0.26261490  0.51469999  0.37176003  1
  O  O99  1  0.73738510  0.01469999  0.12823997  1
  O  O100  1  0.72401476  0.59311581  0.51107227  1
  O  O101  1  0.27598524  0.09311581  0.98892773  1
  O  O102  1  0.27598524  0.40688419  0.48892773  1
  O  O103  1  0.72401476  0.90688419  0.01107227  1
  O  O104  1  0.24441051  0.32755411  0.63779559  1
  O  O105  1  0.75558949  0.82755411  0.86220441  1
  O  O106  1  0.75558949  0.67244589  0.36220441  1
  O  O107  1  0.24441051  0.17244589  0.13779559  1
  O  O108  1  0.16193649  0.18984951  0.29254946  1
  O  O109  1  0.83806351  0.68984951  0.20745054  1
  O  O110  1  0.83806351  0.81015049  0.70745054  1
  O  O111  1  0.16193649  0.31015049  0.79254946  1
  O  O112  1  0.27546632  0.10891107  0.50793947  1
  O  O113  1  0.72453368  0.60891107  0.99206053  1
  O  O114  1  0.72453368  0.89108893  0.49206053  1
  O  O115  1  0.27546632  0.39108893  0.00793947  1
  O  O116  1  0.27233710  0.49368035  0.13443547  1
  O  O117  1  0.72766290  0.99368035  0.36556453  1
  O  O118  1  0.72766290  0.50631965  0.86556453  1
  O  O119  1  0.27233710  0.00631965  0.63443547  1
  O  O120  1  0.59685923  0.19311698  0.91861151  1
  O  O121  1  0.40314077  0.69311698  0.58138849  1
  O  O122  1  0.40314077  0.80688302  0.08138849  1
  O  O123  1  0.59685923  0.30688302  0.41861151  1
  O  O124  1  0.63516350  0.25665138  0.73794204  1
  O  O125  1  0.36483650  0.75665138  0.76205796  1
  O  O126  1  0.36483650  0.74334862  0.26205796  1
  O  O127  1  0.63516350  0.24334862  0.23794204  1
  O  O128  1  0.09463904  0.74051860  0.15928799  1
  O  O129  1  0.90536096  0.24051860  0.34071201  1
  O  O130  1  0.90536096  0.25948140  0.84071201  1
  O  O131  1  0.09463904  0.75948140  0.65928799  1
  O  O132  1  0.04315185  0.81495101  0.31132872  1
  O  O133  1  0.95684815  0.31495101  0.18867128  1
  O  O134  1  0.95684815  0.18504899  0.68867128  1
  O  O135  1  0.04315185  0.68504899  0.81132872  1
  O  O136  1  0.34450039  0.93214684  0.39616176  1
  O  O137  1  0.65549961  0.43214684  0.10383824  1
  O  O138  1  0.65549961  0.06785316  0.60383824  1
  O  O139  1  0.34450039  0.56785316  0.89616176  1
  O  O140  1  0.12501137  0.91621188  0.15169718  1
  O  O141  1  0.87498863  0.41621188  0.34830282  1
  O  O142  1  0.87498863  0.08378812  0.84830282  1
  O  O143  1  0.12501137  0.58378812  0.65169718  1
  O  O144  1  0.80284402  0.22946480  0.03602653  1
  O  O145  1  0.19715598  0.72946480  0.46397347  1
  O  O146  1  0.19715598  0.77053520  0.96397347  1
  O  O147  1  0.80284402  0.27053520  0.53602653  1
  O  O148  1  0.24162721  0.82646228  0.36217333  1
  O  O149  1  0.75837279  0.32646228  0.13782667  1
  O  O150  1  0.75837279  0.17353772  0.63782667  1
  O  O151  1  0.24162721  0.67353772  0.86217333  1
  O  O152  1  0.71335276  0.14093964  0.83664903  1
  O  O153  1  0.28664724  0.64093964  0.66335097  1
  O  O154  1  0.28664724  0.85906036  0.16335097  1
  O  O155  1  0.71335276  0.35906036  0.33664903  1
