# generated using pymatgen
data_Ba2Co2F11
_symmetry_space_group_name_H-M   'P 1'
_cell_length_a   7.63776483
_cell_length_b   7.63776445
_cell_length_c   14.13993176
_cell_angle_alpha   90.00000000
_cell_angle_beta   90.00000000
_cell_angle_gamma   119.99999698
_symmetry_Int_Tables_number   1
_chemical_formula_structural   Ba2Co2F11
_chemical_formula_sum   'Ba6 Co6 F33'
_cell_volume   714.34909836
_cell_formula_units_Z   3
loop_
 _symmetry_equiv_pos_site_id
 _symmetry_equiv_pos_as_xyz
  1  'x, y, z'
loop_
 _atom_site_type_symbol
 _atom_site_label
 _atom_site_symmetry_multiplicity
 _atom_site_fract_x
 _atom_site_fract_y
 _atom_site_fract_z
 _atom_site_occupancy
  Ba  Ba0  1  0.53655335  0.17964027  0.67041227  1
  Ba  Ba1  1  0.14515063  0.47267283  0.82654930  1
  Ba  Ba2  1  0.64308692  0.46344665  0.00374527  1
  Ba  Ba3  1  0.52732717  0.67247680  0.49321530  1
  Ba  Ba4  1  0.32752320  0.85484937  0.15988230  1
  Ba  Ba5  1  0.82035973  0.35691308  0.33707827  1
  Co  Co6  1  0.64254993  0.97472432  0.88306484  1
  Co  Co7  1  0.85325312  0.77455539  0.72705056  1
  Co  Co8  1  0.22544461  0.07869674  0.39371656  1
  Co  Co9  1  0.33217539  0.35745007  0.21639784  1
  Co  Co10  1  0.92130326  0.14674688  0.06038356  1
  Co  Co11  1  0.02527568  0.66782461  0.54973084  1
  F  F12  1  0.63484052  0.05818318  0.01701362  1
  F  F13  1  0.51628661  0.71541482  0.93386536  1
  F  F14  1  0.42334466  0.36515948  0.35034662  1
  F  F15  1  0.11292434  0.49948485  0.48967004  1
  F  F16  1  0.52420973  0.27906100  0.18167583  1
  F  F17  1  0.94785365  0.60141816  0.17859059  1
  F  F18  1  0.50051515  0.61343949  0.15633704  1
  F  F19  1  0.39858184  0.34643549  0.84525759  1
  F  F20  1  0.75485226  0.47579027  0.51500883  1
  F  F21  1  0.21262874  0.28406401  0.08800471  1
  F  F22  1  0.38656051  0.88707566  0.82300404  1
  F  F23  1  0.94181682  0.57665534  0.68368062  1
  F  F24  1  0.32580289  0.05952871  0.00733312  1
  F  F25  1  0.98665628  0.41013035  0.01337935  1
  F  F26  1  0.73372482  0.67419711  0.34066612  1
  F  F27  1  0.28458518  0.80087279  0.60053136  1
  F  F28  1  0.92945033  0.09249639  0.91609216  1
  F  F29  1  0.07143527  0.78737126  0.42133771  1
  F  F30  1  0.01261731  0.11568034  0.40426954  1
  F  F31  1  0.94047129  0.26627518  0.67399912  1
  F  F32  1  0.10306303  0.98738269  0.73760354  1
  F  F33  1  0.58986965  0.57652593  0.68004635  1
  F  F34  1  0.42347407  0.01334372  0.34671235  1
  F  F35  1  0.16304605  0.07054967  0.24942516  1
  F  F36  1  0.71593599  0.92856473  0.75467171  1
  F  F37  1  0.72093800  0.24514774  0.84834283  1
  F  F38  1  0.19912721  0.48371339  0.26719836  1
  F  F39  1  0.84298023  0.66891924  0.84909372  1
  F  F40  1  0.82593901  0.15701977  0.18242672  1
  F  F41  1  0.88431966  0.89693697  0.07093654  1
  F  F42  1  0.65356451  0.05214635  0.51192359  1
  F  F43  1  0.90750361  0.83695395  0.58275816  1
  F  F44  1  0.33108076  0.17406099  0.51575972  1
