# generated using pymatgen
data_MgAgF5
_symmetry_space_group_name_H-M   'P 1'
_cell_length_a   5.22641412
_cell_length_b   8.06095363
_cell_length_c   9.98512202
_cell_angle_alpha   90.00000000
_cell_angle_beta   90.00000000
_cell_angle_gamma   110.69547038
_symmetry_Int_Tables_number   1
_chemical_formula_structural   MgAgF5
_chemical_formula_sum   'Mg4 Ag4 F20'
_cell_volume   393.52687576
_cell_formula_units_Z   4
loop_
 _symmetry_equiv_pos_site_id
 _symmetry_equiv_pos_as_xyz
  1  'x, y, z'
loop_
 _atom_site_type_symbol
 _atom_site_label
 _atom_site_symmetry_multiplicity
 _atom_site_fract_x
 _atom_site_fract_y
 _atom_site_fract_z
 _atom_site_occupancy
  Mg  Mg0  1  0.47351534  0.75926533  0.00761552  1
  Mg  Mg1  1  0.52648466  0.74073467  0.50761552  1
  Mg  Mg2  1  0.52648466  0.24073467  0.99238448  1
  Mg  Mg3  1  0.47351534  0.25926533  0.49238448  1
  Ag  Ag4  1  0.88600048  0.60872809  0.75302270  1
  Ag  Ag5  1  0.11399952  0.89127191  0.25302270  1
  Ag  Ag6  1  0.11399952  0.39127191  0.24697730  1
  Ag  Ag7  1  0.88600048  0.10872809  0.74697730  1
  F  F8  1  0.57026321  0.58925136  0.88816027  1
  F  F9  1  0.42973679  0.91074864  0.38816027  1
  F  F10  1  0.42973679  0.41074864  0.11183973  1
  F  F11  1  0.57026321  0.08925136  0.61183973  1
  F  F12  1  0.63119291  0.49504304  0.59814193  1
  F  F13  1  0.36880709  0.00495696  0.09814193  1
  F  F14  1  0.36880709  0.50495696  0.40185807  1
  F  F15  1  0.63119291  0.99504304  0.90185807  1
  F  F16  1  0.86565957  0.77555616  0.40575592  1
  F  F17  1  0.13434043  0.72444384  0.90575592  1
  F  F18  1  0.13434043  0.22444384  0.59424408  1
  F  F19  1  0.86565957  0.27555616  0.09424408  1
  F  F20  1  0.78461974  0.84970719  0.12986685  1
  F  F21  1  0.21538026  0.65029281  0.62986685  1
  F  F22  1  0.21538026  0.15029281  0.87013315  1
  F  F23  1  0.78461974  0.34970719  0.37013315  1
  F  F24  1  0.80140864  0.83881257  0.66014884  1
  F  F25  1  0.19859136  0.66118743  0.16014884  1
  F  F26  1  0.19859136  0.16118743  0.33985116  1
  F  F27  1  0.80140864  0.33881257  0.83985116  1
