# generated using pymatgen
data_RbY(PO3)4
_symmetry_space_group_name_H-M   'P 1'
_cell_length_a   10.46548931
_cell_length_b   8.98021241
_cell_length_c   11.11310470
_cell_angle_alpha   90.00000000
_cell_angle_beta   106.58838412
_cell_angle_gamma   90.00000000
_symmetry_Int_Tables_number   1
_chemical_formula_structural   RbY(PO3)4
_chemical_formula_sum   'Rb4 Y4 P16 O48'
_cell_volume   1000.96642444
_cell_formula_units_Z   4
loop_
 _symmetry_equiv_pos_site_id
 _symmetry_equiv_pos_as_xyz
  1  'x, y, z'
loop_
 _atom_site_type_symbol
 _atom_site_label
 _atom_site_symmetry_multiplicity
 _atom_site_fract_x
 _atom_site_fract_y
 _atom_site_fract_z
 _atom_site_occupancy
  Rb  Rb0  1  0.30700960  0.56630928  0.04179952  1
  Rb  Rb1  1  0.80700960  0.93369072  0.54179952  1
  Rb  Rb2  1  0.69299040  0.43369072  0.95820048  1
  Rb  Rb3  1  0.19299040  0.06630928  0.45820048  1
  Y  Y4  1  0.49847440  0.72699833  0.68301320  1
  Y  Y5  1  0.99847440  0.77300167  0.18301320  1
  Y  Y6  1  0.50152560  0.27300167  0.31698680  1
  Y  Y7  1  0.00152560  0.22699833  0.81698680  1
  P  P8  1  0.14722812  0.40844899  0.25853339  1
  P  P9  1  0.64722812  0.09155101  0.75853339  1
  P  P10  1  0.85277188  0.59155101  0.74146661  1
  P  P11  1  0.35277188  0.90844899  0.24146661  1
  P  P12  1  0.54027462  0.67148303  0.36482139  1
  P  P13  1  0.04027462  0.82851697  0.86482139  1
  P  P14  1  0.45972538  0.32851697  0.63517861  1
  P  P15  1  0.95972538  0.17148303  0.13517861  1
  P  P16  1  0.24772924  0.47425654  0.72117882  1
  P  P17  1  0.74772924  0.02574346  0.22117882  1
  P  P18  1  0.75227076  0.52574346  0.27882118  1
  P  P19  1  0.25227076  0.97425654  0.77882118  1
  P  P20  1  0.32411353  0.10985749  0.02328852  1
  P  P21  1  0.82411353  0.39014251  0.52328852  1
  P  P22  1  0.67588647  0.89014251  0.97671148  1
  P  P23  1  0.17588647  0.60985749  0.47671148  1
  O  O24  1  0.13975245  0.54705702  0.59983537  1
  O  O25  1  0.63975245  0.95294298  0.09983537  1
  O  O26  1  0.86024755  0.45294298  0.40016463  1
  O  O27  1  0.36024755  0.04705702  0.90016463  1
  O  O28  1  0.35445737  0.58508572  0.78265816  1
  O  O29  1  0.85445737  0.91491428  0.28265816  1
  O  O30  1  0.64554263  0.41491428  0.21734184  1
  O  O31  1  0.14554263  0.08508572  0.71734184  1
  O  O32  1  0.47433862  0.79116116  0.25456001  1
  O  O33  1  0.97433862  0.70883884  0.75456001  1
  O  O34  1  0.52566138  0.20883884  0.74543999  1
  O  O35  1  0.02566138  0.29116116  0.24543999  1
  O  O36  1  0.09948070  0.54099022  0.17558391  1
  O  O37  1  0.59948070  0.95900978  0.67558391  1
  O  O38  1  0.90051930  0.45900978  0.82441609  1
  O  O39  1  0.40051930  0.04099022  0.32441609  1
  O  O40  1  0.56222658  0.74158715  0.49122292  1
  O  O41  1  0.06222658  0.75841285  0.99122292  1
  O  O42  1  0.43777342  0.25841285  0.50877708  1
  O  O43  1  0.93777342  0.24158715  0.00877708  1
  O  O44  1  0.16983284  0.40628006  0.80114956  1
  O  O45  1  0.66983284  0.09371994  0.30114956  1
  O  O46  1  0.83016716  0.59371994  0.19885044  1
  O  O47  1  0.33016716  0.90628006  0.69885044  1
  O  O48  1  0.26614595  0.32487910  0.24533795  1
  O  O49  1  0.76614595  0.17512090  0.74533795  1
  O  O50  1  0.73385405  0.67512090  0.75466205  1
  O  O51  1  0.23385405  0.82487910  0.25466205  1
  O  O52  1  0.43190060  0.21235133  0.09628434  1
  O  O53  1  0.93190060  0.28764867  0.59628434  1
  O  O54  1  0.56809940  0.78764867  0.90371566  1
  O  O55  1  0.06809940  0.71235133  0.40371566  1
  O  O56  1  0.18399600  0.16723253  0.98194327  1
  O  O57  1  0.68399600  0.33276747  0.48194327  1
  O  O58  1  0.81600400  0.83276747  0.01805673  1
  O  O59  1  0.31600400  0.66723253  0.51805673  1
  O  O60  1  0.46455766  0.52859417  0.33116654  1
  O  O61  1  0.96455766  0.97140583  0.83116654  1
  O  O62  1  0.53544234  0.47140583  0.66883346  1
  O  O63  1  0.03544234  0.02859417  0.16883346  1
  O  O64  1  0.18639875  0.84187799  0.84161917  1
  O  O65  1  0.68639875  0.65812201  0.34161917  1
  O  O66  1  0.81360125  0.15812201  0.15838083  1
  O  O67  1  0.31360125  0.34187799  0.65838083  1
  O  O68  1  0.32966559  0.95270444  0.09657411  1
  O  O69  1  0.82966559  0.54729556  0.59657411  1
  O  O70  1  0.67033441  0.04729556  0.90342589  1
  O  O71  1  0.17033441  0.45270444  0.40342589  1
