# generated using pymatgen
data_Ca3Si3(AgO6)2
_symmetry_space_group_name_H-M   'P 1'
_cell_length_a   10.82386641
_cell_length_b   10.82386672
_cell_length_c   10.82386635
_cell_angle_alpha   109.47122192
_cell_angle_beta   109.47122254
_cell_angle_gamma   109.47121819
_symmetry_Int_Tables_number   1
_chemical_formula_structural   Ca3Si3(AgO6)2
_chemical_formula_sum   'Ca12 Si12 Ag8 O48'
_cell_volume   976.16984104
_cell_formula_units_Z   4
loop_
 _symmetry_equiv_pos_site_id
 _symmetry_equiv_pos_as_xyz
  1  'x, y, z'
loop_
 _atom_site_type_symbol
 _atom_site_label
 _atom_site_symmetry_multiplicity
 _atom_site_fract_x
 _atom_site_fract_y
 _atom_site_fract_z
 _atom_site_occupancy
  Ca  Ca0  1  0.37500000  0.75000000  0.12500000  1
  Ca  Ca1  1  0.12500000  0.25000000  0.37500000  1
  Ca  Ca2  1  0.37500000  0.12500000  0.25000000  1
  Ca  Ca3  1  0.12500000  0.37500000  0.75000000  1
  Ca  Ca4  1  0.87500000  0.75000000  0.62500000  1
  Ca  Ca5  1  0.75000000  0.12500000  0.37500000  1
  Ca  Ca6  1  0.75000000  0.62500000  0.87500000  1
  Ca  Ca7  1  0.62500000  0.25000000  0.87500000  1
  Ca  Ca8  1  0.25000000  0.87500000  0.62500000  1
  Ca  Ca9  1  0.87500000  0.62500000  0.25000000  1
  Ca  Ca10  1  0.62500000  0.87500000  0.75000000  1
  Ca  Ca11  1  0.25000000  0.37500000  0.12500000  1
  Si  Si12  1  0.25000000  0.12500000  0.87500000  1
  Si  Si13  1  0.75000000  0.87500000  0.12500000  1
  Si  Si14  1  0.37500000  0.25000000  0.62500000  1
  Si  Si15  1  0.62500000  0.37500000  0.25000000  1
  Si  Si16  1  0.12500000  0.75000000  0.87500000  1
  Si  Si17  1  0.87500000  0.12500000  0.75000000  1
  Si  Si18  1  0.75000000  0.37500000  0.62500000  1
  Si  Si19  1  0.37500000  0.62500000  0.75000000  1
  Si  Si20  1  0.12500000  0.87500000  0.25000000  1
  Si  Si21  1  0.87500000  0.25000000  0.12500000  1
  Si  Si22  1  0.62500000  0.75000000  0.37500000  1
  Si  Si23  1  0.25000000  0.62500000  0.37500000  1
  Ag  Ag24  1  0.00000000  0.00000000  0.00000000  1
  Ag  Ag25  1  0.00000000  0.50000000  0.00000000  1
  Ag  Ag26  1  0.00000000  0.00000000  0.50000000  1
  Ag  Ag27  1  0.00000000  0.50000000  0.50000000  1
  Ag  Ag28  1  0.50000000  0.00000000  0.50000000  1
  Ag  Ag29  1  0.50000000  0.50000000  0.00000000  1
  Ag  Ag30  1  0.50000000  0.50000000  0.50000000  1
  Ag  Ag31  1  0.50000000  0.00000000  0.00000000  1
  O  O32  1  0.28077136  0.48489407  0.37669627  1
  O  O33  1  0.01510593  0.29587729  0.89180220  1
  O  O34  1  0.12330373  0.60819780  0.90407509  1
  O  O35  1  0.21922864  0.59592491  0.20412271  1
  O  O36  1  0.21922864  0.12330373  0.01510593  1
  O  O37  1  0.59592491  0.20412271  0.21922864  1
  O  O38  1  0.60819780  0.20412271  0.48489407  1
  O  O39  1  0.20412271  0.21922864  0.59592491  1
  O  O40  1  0.89180220  0.37669627  0.59592491  1
  O  O41  1  0.29587729  0.90407509  0.28077136  1
  O  O42  1  0.90407509  0.28077136  0.29587729  1
  O  O43  1  0.01510593  0.21922864  0.12330373  1
  O  O44  1  0.20412271  0.48489407  0.60819780  1
  O  O45  1  0.59592491  0.89180220  0.37669627  1
  O  O46  1  0.12330373  0.01510593  0.21922864  1
  O  O47  1  0.48489407  0.60819780  0.20412271  1
  O  O48  1  0.37669627  0.59592491  0.89180220  1
  O  O49  1  0.89180220  0.01510593  0.29587729  1
  O  O50  1  0.60819780  0.90407509  0.12330373  1
  O  O51  1  0.10819780  0.62330373  0.40407509  1
  O  O52  1  0.90407509  0.12330373  0.60819780  1
  O  O53  1  0.37669627  0.28077136  0.48489407  1
  O  O54  1  0.29587729  0.89180220  0.01510593  1
  O  O55  1  0.28077136  0.29587729  0.90407509  1
  O  O56  1  0.71922864  0.51510593  0.62330373  1
  O  O57  1  0.98489407  0.70412271  0.10819780  1
  O  O58  1  0.87669627  0.39180220  0.09592491  1
  O  O59  1  0.78077136  0.40407509  0.79587729  1
  O  O60  1  0.78077136  0.87669627  0.98489407  1
  O  O61  1  0.40407509  0.79587729  0.78077136  1
  O  O62  1  0.39180220  0.79587729  0.51510593  1
  O  O63  1  0.79587729  0.78077136  0.40407509  1
  O  O64  1  0.71922864  0.70412271  0.09592491  1
  O  O65  1  0.70412271  0.10819780  0.98489407  1
  O  O66  1  0.62330373  0.71922864  0.51510593  1
  O  O67  1  0.51510593  0.62330373  0.71922864  1
  O  O68  1  0.09592491  0.87669627  0.39180220  1
  O  O69  1  0.39180220  0.09592491  0.87669627  1
  O  O70  1  0.10819780  0.98489407  0.70412271  1
  O  O71  1  0.62330373  0.40407509  0.10819780  1
  O  O72  1  0.51510593  0.39180220  0.79587729  1
  O  O73  1  0.87669627  0.98489407  0.78077136  1
  O  O74  1  0.40407509  0.10819780  0.62330373  1
  O  O75  1  0.79587729  0.51510593  0.39180220  1
  O  O76  1  0.98489407  0.78077136  0.87669627  1
  O  O77  1  0.09592491  0.71922864  0.70412271  1
  O  O78  1  0.70412271  0.09592491  0.71922864  1
  O  O79  1  0.48489407  0.37669627  0.28077136  1
