# generated using pymatgen
data_In3Pt2
_symmetry_space_group_name_H-M   'P 1'
_cell_length_a   4.62819675
_cell_length_b   4.62930720
_cell_length_c   5.62194653
_cell_angle_alpha   89.99999995
_cell_angle_beta   89.96865811
_cell_angle_gamma   120.00794117
_symmetry_Int_Tables_number   1
_chemical_formula_structural   In3Pt2
_chemical_formula_sum   'In3 Pt2'
_cell_volume   104.30624535
_cell_formula_units_Z   1
loop_
 _symmetry_equiv_pos_site_id
 _symmetry_equiv_pos_as_xyz
  1  'x, y, z'
loop_
 _atom_site_type_symbol
 _atom_site_label
 _atom_site_symmetry_multiplicity
 _atom_site_fract_x
 _atom_site_fract_y
 _atom_site_fract_z
 _atom_site_occupancy
  In  In0  1  0.00000000  0.00000000  0.00000000  1
  In  In1  1  0.33335146  0.66667573  0.64855771  1
  In  In2  1  0.66664854  0.33332427  0.35144229  1
  Pt  Pt3  1  0.33339486  0.66669743  0.15916506  1
  Pt  Pt4  1  0.66660514  0.33330257  0.84083494  1
