# generated using pymatgen
data_Ca3Co3(AsO4)4
_symmetry_space_group_name_H-M   'P 1'
_cell_length_a   5.16979987
_cell_length_b   9.24604961
_cell_length_c   15.45211128
_cell_angle_alpha   95.20826961
_cell_angle_beta   90.00000000
_cell_angle_gamma   90.00000000
_symmetry_Int_Tables_number   1
_chemical_formula_structural   Ca3Co3(AsO4)4
_chemical_formula_sum   'Ca6 Co6 As8 O32'
_cell_volume   735.56490064
_cell_formula_units_Z   2
loop_
 _symmetry_equiv_pos_site_id
 _symmetry_equiv_pos_as_xyz
  1  'x, y, z'
loop_
 _atom_site_type_symbol
 _atom_site_label
 _atom_site_symmetry_multiplicity
 _atom_site_fract_x
 _atom_site_fract_y
 _atom_site_fract_z
 _atom_site_occupancy
  Ca  Ca0  1  0.96262108  0.04105396  0.73146442  1
  Ca  Ca1  1  0.46262108  0.45894604  0.76853558  1
  Ca  Ca2  1  0.03737892  0.95894604  0.26853558  1
  Ca  Ca3  1  0.53737892  0.54105396  0.23146442  1
  Ca  Ca4  1  0.00000000  0.00000000  -0.00000000  1
  Ca  Ca5  1  0.50000000  0.50000000  0.50000000  1
  Co  Co6  1  0.02327082  0.32257845  0.12192799  1
  Co  Co7  1  0.97672918  0.67742155  0.87807201  1
  Co  Co8  1  0.52327082  0.17742155  0.37807201  1
  Co  Co9  1  0.47672918  0.82257845  0.62192799  1
  Co  Co10  1  0.50000000  0.50000000  -0.00000000  1
  Co  Co11  1  0.00000000  0.00000000  0.50000000  1
  As  As12  1  0.49112577  0.88051376  0.84226821  1
  As  As13  1  0.00974167  0.34013585  0.90422437  1
  As  As14  1  0.50974167  0.15986415  0.59577563  1
  As  As15  1  0.49025833  0.84013585  0.40422437  1
  As  As16  1  0.50887423  0.11948624  0.15773179  1
  As  As17  1  0.99025833  0.65986415  0.09577563  1
  As  As18  1  0.00887423  0.38051376  0.34226821  1
  As  As19  1  0.99112577  0.61948624  0.65773179  1
  O  O20  1  0.05381231  0.57474643  0.76275310  1
  O  O21  1  0.55294624  0.25387963  0.50629672  1
  O  O22  1  0.11599632  0.24824658  0.81148197  1
  O  O23  1  0.09570823  0.79585213  0.64849776  1
  O  O24  1  0.88400368  0.75175342  0.18851803  1
  O  O25  1  0.44618769  0.07474643  0.26275310  1
  O  O26  1  0.61599632  0.25175342  0.68851803  1
  O  O27  1  0.80093904  0.90744402  0.39607788  1
  O  O28  1  0.84476114  0.50736272  0.40583736  1
  O  O29  1  0.94618769  0.42525357  0.23724690  1
  O  O30  1  0.40429177  0.29585213  0.14849776  1
  O  O31  1  0.19906096  0.09255598  0.60392212  1
  O  O32  1  0.20122598  0.49794757  0.91933893  1
  O  O33  1  0.15523886  0.49263728  0.59416264  1
  O  O34  1  0.84240118  0.11340815  0.14205667  1
  O  O35  1  0.34240118  0.38659185  0.35794333  1
  O  O36  1  0.70122598  0.00205243  0.58066107  1
  O  O37  1  0.38400368  0.74824658  0.31148197  1
  O  O38  1  0.34476114  0.99263728  0.09416264  1
  O  O39  1  0.30093904  0.59255598  0.10392212  1
  O  O40  1  0.65759882  0.61340815  0.64205667  1
  O  O41  1  0.15759882  0.88659185  0.85794333  1
  O  O42  1  0.44705376  0.74612037  0.49370328  1
  O  O43  1  0.05294624  0.24612037  0.99370328  1
  O  O44  1  0.79877402  0.50205243  0.08066107  1
  O  O45  1  0.55381231  0.92525357  0.73724690  1
  O  O46  1  0.90429177  0.20414787  0.35150224  1
  O  O47  1  0.65523886  0.00736272  0.90583736  1
  O  O48  1  0.94705376  0.75387963  0.00629672  1
  O  O49  1  0.69906096  0.40744402  0.89607788  1
  O  O50  1  0.29877402  0.99794757  0.41933893  1
  O  O51  1  0.59570823  0.70414787  0.85150224  1
