# generated using pymatgen
data_CaLaVCrO6
_symmetry_space_group_name_H-M   'P 1'
_cell_length_a   5.45730038
_cell_length_b   5.53352563
_cell_length_c   7.83045044
_cell_angle_alpha   90.00000000
_cell_angle_beta   90.30609554
_cell_angle_gamma   90.00000000
_symmetry_Int_Tables_number   1
_chemical_formula_structural   CaLaVCrO6
_chemical_formula_sum   'Ca2 La2 V2 Cr2 O12'
_cell_volume   236.46144137
_cell_formula_units_Z   2
loop_
 _symmetry_equiv_pos_site_id
 _symmetry_equiv_pos_as_xyz
  1  'x, y, z'
loop_
 _atom_site_type_symbol
 _atom_site_label
 _atom_site_symmetry_multiplicity
 _atom_site_fract_x
 _atom_site_fract_y
 _atom_site_fract_z
 _atom_site_occupancy
  Ca  Ca0  1  0.49075316  0.45796711  0.75046144  1
  Ca  Ca1  1  0.99075316  0.04203289  0.25046144  1
  La  La2  1  0.00579874  0.96672649  0.74902277  1
  La  La3  1  0.50579874  0.53327351  0.24902277  1
  V  V4  1  0.50032318  0.00090165  0.00071446  1
  V  V5  1  0.00032318  0.49909835  0.50071446  1
  Cr  Cr6  1  0.50041999  0.99958496  0.49926331  1
  Cr  Cr7  1  0.00041999  0.50041504  0.99926331  1
  O  O8  1  0.07450093  0.47739325  0.25180271  1
  O  O9  1  0.22587430  0.21166462  0.96322699  1
  O  O10  1  0.21430321  0.21595664  0.54293558  1
  O  O11  1  0.29086309  0.71441278  0.95491387  1
  O  O12  1  0.27874826  0.70612717  0.53949189  1
  O  O13  1  0.41841215  0.97981918  0.24816699  1
  O  O14  1  0.57450093  0.02260675  0.75180271  1
  O  O15  1  0.72587430  0.28833538  0.46322699  1
  O  O16  1  0.71430321  0.28404336  0.04293558  1
  O  O17  1  0.79086309  0.78558722  0.45491387  1
  O  O18  1  0.77874826  0.79387283  0.03949189  1
  O  O19  1  0.91841215  0.52018082  0.74816699  1
