# generated using pymatgen
data_Ba2YMn3O8
_symmetry_space_group_name_H-M   'P 1'
_cell_length_a   3.98233527
_cell_length_b   3.98239206
_cell_length_c   11.86940710
_cell_angle_alpha   90.00001188
_cell_angle_beta   90.00053287
_cell_angle_gamma   89.99651739
_symmetry_Int_Tables_number   1
_chemical_formula_structural   Ba2YMn3O8
_chemical_formula_sum   'Ba2 Y1 Mn3 O8'
_cell_volume   188.23954256
_cell_formula_units_Z   1
loop_
 _symmetry_equiv_pos_site_id
 _symmetry_equiv_pos_as_xyz
  1  'x, y, z'
loop_
 _atom_site_type_symbol
 _atom_site_label
 _atom_site_symmetry_multiplicity
 _atom_site_fract_x
 _atom_site_fract_y
 _atom_site_fract_z
 _atom_site_occupancy
  Ba  Ba0  1  0.49999366  0.50000507  0.16418553  1
  Ba  Ba1  1  0.49999152  0.49999720  0.83586444  1
  Y  Y2  1  0.50000848  0.50000247  0.49998814  1
  Mn  Mn3  1  0.00001018  0.99997350  0.34274360  1
  Mn  Mn4  1  -0.00002491  -0.00001756  0.00008533  1
  Mn  Mn5  1  0.00000866  0.00002082  0.65719976  1
  O  O6  1  0.00001834  0.50000328  0.38161193  1
  O  O7  1  0.50000859  0.00000879  0.38161155  1
  O  O8  1  0.50001204  0.99999116  -0.00000777  1
  O  O9  1  0.99999439  0.00000321  0.17179505  1
  O  O10  1  0.99998734  0.49999835  0.61836544  1
  O  O11  1  0.50000227  0.00000143  0.61836681  1
  O  O12  1  0.99999290  0.99999955  0.82819866  1
  O  O13  1  0.99999655  0.50001473  -0.00000848  1
