# generated using pymatgen
data_MgFeAs2O7
_symmetry_space_group_name_H-M   'P 1'
_cell_length_a   7.38121589
_cell_length_b   8.69416719
_cell_length_c   9.72654650
_cell_angle_alpha   90.00000000
_cell_angle_beta   113.96761641
_cell_angle_gamma   90.00000000
_symmetry_Int_Tables_number   1
_chemical_formula_structural   MgFeAs2O7
_chemical_formula_sum   'Mg4 Fe4 As8 O28'
_cell_volume   570.36639501
_cell_formula_units_Z   4
loop_
 _symmetry_equiv_pos_site_id
 _symmetry_equiv_pos_as_xyz
  1  'x, y, z'
loop_
 _atom_site_type_symbol
 _atom_site_label
 _atom_site_symmetry_multiplicity
 _atom_site_fract_x
 _atom_site_fract_y
 _atom_site_fract_z
 _atom_site_occupancy
  Mg  Mg0  1  0.27369434  0.92382171  0.89298610  1
  Mg  Mg1  1  0.72630566  0.42382171  0.60701390  1
  Mg  Mg2  1  0.72630566  0.07617829  0.10701390  1
  Mg  Mg3  1  0.27369434  0.57617829  0.39298610  1
  Fe  Fe4  1  0.81532648  0.05628389  0.68325761  1
  Fe  Fe5  1  0.18467352  0.55628389  0.81674239  1
  Fe  Fe6  1  0.18467352  0.94371611  0.31674239  1
  Fe  Fe7  1  0.81532648  0.44371611  0.18325761  1
  As  As8  1  0.43537944  0.22714954  0.75193395  1
  As  As9  1  0.56462056  0.72714954  0.74806605  1
  As  As10  1  0.56462056  0.77285046  0.24806605  1
  As  As11  1  0.43537944  0.27285046  0.25193295  1
  As  As12  1  0.02018513  0.27631327  0.96024391  1
  As  As13  1  0.97981487  0.77631327  0.53975609  1
  As  As14  1  0.97981487  0.72368673  0.03975609  1
  As  As15  1  0.02018513  0.22368673  0.46024391  1
  O  O16  1  0.86209650  0.26844914  0.04957735  1
  O  O17  1  0.13790350  0.76844914  0.45042265  1
  O  O18  1  0.13790350  0.73155086  0.95042265  1
  O  O19  1  0.86209650  0.23155086  0.54957735  1
  O  O20  1  0.35434093  0.40022952  0.77756072  1
  O  O21  1  0.64565907  0.90022952  0.72243928  1
  O  O22  1  0.64565907  0.59977048  0.22243928  1
  O  O23  1  0.35434093  0.09977048  0.27756072  1
  O  O24  1  0.46940211  0.09635472  0.89164955  1
  O  O25  1  0.53059789  0.59635472  0.60835045  1
  O  O26  1  0.53059789  0.90364528  0.10835045  1
  O  O27  1  0.46940211  0.40364628  0.39164955  1
  O  O28  1  0.25091655  0.14401654  0.58503042  1
  O  O29  1  0.74908345  0.64401654  0.91496958  1
  O  O30  1  0.74908345  0.85598346  0.41496958  1
  O  O31  1  0.25091655  0.35598346  0.08503042  1
  O  O32  1  0.96303003  0.08414803  0.32551115  1
  O  O33  1  0.03696997  0.58414803  0.17448885  1
  O  O34  1  0.03696997  0.91585197  0.67448885  1
  O  O35  1  0.96303003  0.41585197  0.82551115  1
  O  O36  1  0.63289658  0.25961318  0.20452644  1
  O  O37  1  0.36710342  0.75961318  0.29547356  1
  O  O38  1  0.36710342  0.74038682  0.79547356  1
  O  O39  1  0.63289658  0.24038682  0.70452644  1
  O  O40  1  0.05376738  0.39897765  0.39551569  1
  O  O41  1  0.94623262  0.89897765  0.10448431  1
  O  O42  1  0.94623262  0.60102235  0.60448431  1
  O  O43  1  0.05376738  0.10102235  0.89551569  1
