# generated using pymatgen
data_Zn2AgSbO6
_symmetry_space_group_name_H-M   'P 1'
_cell_length_a   5.58995455
_cell_length_b   5.48904917
_cell_length_c   7.75366240
_cell_angle_alpha   90.00000000
_cell_angle_beta   90.00000000
_cell_angle_gamma   97.53056331
_symmetry_Int_Tables_number   1
_chemical_formula_structural   Zn2AgSbO6
_chemical_formula_sum   'Zn4 Ag2 Sb2 O12'
_cell_volume   235.85782514
_cell_formula_units_Z   2
loop_
 _symmetry_equiv_pos_site_id
 _symmetry_equiv_pos_as_xyz
  1  'x, y, z'
loop_
 _atom_site_type_symbol
 _atom_site_label
 _atom_site_symmetry_multiplicity
 _atom_site_fract_x
 _atom_site_fract_y
 _atom_site_fract_z
 _atom_site_occupancy
  Zn  Zn0  1  0.51550645  0.54431826  0.75000000  1
  Zn  Zn1  1  0.48449355  0.45568174  0.25000000  1
  Zn  Zn2  1  0.06080133  0.01517389  0.75000000  1
  Zn  Zn3  1  0.93919867  0.98482611  0.25000000  1
  Ag  Ag4  1  0.50000000  0.00000000  0.50000000  1
  Ag  Ag5  1  0.50000000  0.00000000  0.00000000  1
  Sb  Sb6  1  0.00000000  0.50000000  0.50000000  1
  Sb  Sb7  1  0.00000000  0.50000000  0.00000000  1
  O  O8  1  0.33930108  0.65399303  0.43790659  1
  O  O9  1  0.11974050  0.20102545  0.07364915  1
  O  O10  1  0.66069892  0.34600697  0.93790659  1
  O  O11  1  0.88025950  0.79897455  0.57364915  1
  O  O12  1  0.11974050  0.20102545  0.42635085  1
  O  O13  1  0.88025950  0.79897455  0.92635085  1
  O  O14  1  0.87488810  0.60220067  0.25000000  1
  O  O15  1  0.33930108  0.65399303  0.06209341  1
  O  O16  1  0.39697466  0.88885994  0.75000000  1
  O  O17  1  0.66069892  0.34600697  0.56209341  1
  O  O18  1  0.12511190  0.39779933  0.75000000  1
  O  O19  1  0.60302534  0.11114006  0.25000000  1
