# generated using pymatgen
data_CeZn2
_symmetry_space_group_name_H-M   'P 1'
_cell_length_a   4.57878182
_cell_length_b   5.71162308
_cell_length_c   5.71162308
_cell_angle_alpha   82.36444206
_cell_angle_beta   66.36990810
_cell_angle_gamma   66.36990810
_symmetry_Int_Tables_number   1
_chemical_formula_structural   CeZn2
_chemical_formula_sum   'Ce2 Zn4'
_cell_volume   125.30436067
_cell_formula_units_Z   2
loop_
 _symmetry_equiv_pos_site_id
 _symmetry_equiv_pos_as_xyz
  1  'x, y, z'
loop_
 _atom_site_type_symbol
 _atom_site_label
 _atom_site_symmetry_multiplicity
 _atom_site_fract_x
 _atom_site_fract_y
 _atom_site_fract_z
 _atom_site_occupancy
  Ce  Ce0  1  0.75000000  0.71403466  0.78596534  1
  Ce  Ce1  1  0.25000000  0.28596534  0.21403466  1
  Zn  Zn2  1  0.55732220  0.27891167  0.60644392  1
  Zn  Zn3  1  0.44267780  0.72108833  0.39355608  1
  Zn  Zn4  1  0.05732220  0.10644392  0.77891167  1
  Zn  Zn5  1  0.94267780  0.89355608  0.22108833  1
