# generated using pymatgen
data_V3PN
_symmetry_space_group_name_H-M   'P 1'
_cell_length_a   3.11754614
_cell_length_b   5.08242227
_cell_length_c   7.38981994
_cell_angle_alpha   90.00000000
_cell_angle_beta   90.00000000
_cell_angle_gamma   107.86040008
_symmetry_Int_Tables_number   1
_chemical_formula_structural   V3PN
_chemical_formula_sum   'V6 P2 N2'
_cell_volume   111.44644157
_cell_formula_units_Z   2
loop_
 _symmetry_equiv_pos_site_id
 _symmetry_equiv_pos_as_xyz
  1  'x, y, z'
loop_
 _atom_site_type_symbol
 _atom_site_label
 _atom_site_symmetry_multiplicity
 _atom_site_fract_x
 _atom_site_fract_y
 _atom_site_fract_z
 _atom_site_occupancy
  V  V0  1  0.06590559  0.13181118  0.25000000  1
  V  V1  1  0.93409441  0.86818882  0.75000000  1
  V  V2  1  0.36557477  0.73114954  0.44900718  1
  V  V3  1  0.63442523  0.26885046  0.55099282  1
  V  V4  1  0.36557477  0.73114954  0.05099282  1
  V  V5  1  0.63442523  0.26885046  0.94900718  1
  P  P6  1  0.74838340  0.49676679  0.25000000  1
  P  P7  1  0.25161660  0.50323321  0.75000000  1
  N  N8  1  -0.00000000  -0.00000000  0.50000000  1
  N  N9  1  -0.00000000  -0.00000000  0.00000000  1
