# generated using pymatgen
data_ZnCu2SnSe4
_symmetry_space_group_name_H-M   'P 1'
_cell_length_a   5.77127466
_cell_length_b   5.77127466
_cell_length_c   7.04268854
_cell_angle_alpha   114.18819642
_cell_angle_beta   114.18819651
_cell_angle_gamma   90.00000000
_symmetry_Int_Tables_number   1
_chemical_formula_structural   ZnCu2SnSe4
_chemical_formula_sum   'Zn1 Cu2 Sn1 Se4'
_cell_volume   191.18006564
_cell_formula_units_Z   1
loop_
 _symmetry_equiv_pos_site_id
 _symmetry_equiv_pos_as_xyz
  1  'x, y, z'
loop_
 _atom_site_type_symbol
 _atom_site_label
 _atom_site_symmetry_multiplicity
 _atom_site_fract_x
 _atom_site_fract_y
 _atom_site_fract_z
 _atom_site_occupancy
  Zn  Zn0  1  0.75000000  0.25000000  0.50000000  1
  Cu  Cu1  1  0.25000000  0.75000000  0.50000000  1
  Cu  Cu2  1  0.00000000  -0.00000000  -0.00000000  1
  Sn  Sn3  1  0.50000000  0.50000000  0.00000000  1
  Se  Se4  1  0.62975416  0.10350721  0.74004136  1
  Se  Se5  1  0.11028720  0.63653415  0.74004136  1
  Se  Se6  1  0.89649279  0.88971280  0.25995864  1
  Se  Se7  1  0.36346585  0.37024584  0.25995864  1
