# generated using pymatgen
data_Sr3Ca(Fe2O5)2
_symmetry_space_group_name_H-M   'P 1'
_cell_length_a   11.15987386
_cell_length_b   11.53542154
_cell_length_c   17.47170325
_cell_angle_alpha   109.23783460
_cell_angle_beta   108.76918063
_cell_angle_gamma   89.95491883
_symmetry_Int_Tables_number   1
_chemical_formula_structural   Sr3Ca(Fe2O5)2
_chemical_formula_sum   'Sr24 Ca8 Fe32 O80'
_cell_volume   1996.69548435
_cell_formula_units_Z   8
loop_
 _symmetry_equiv_pos_site_id
 _symmetry_equiv_pos_as_xyz
  1  'x, y, z'
loop_
 _atom_site_type_symbol
 _atom_site_label
 _atom_site_symmetry_multiplicity
 _atom_site_fract_x
 _atom_site_fract_y
 _atom_site_fract_z
 _atom_site_occupancy
  Sr  Sr0  1  0.30610930  0.06365378  0.60852466  1
  Sr  Sr1  1  0.30599611  0.56391384  0.60895638  1
  Sr  Sr2  1  0.80631287  0.06428300  0.60925224  1
  Sr  Sr3  1  0.80691788  0.56410419  0.61026218  1
  Sr  Sr4  1  0.19661963  0.43543857  0.39021143  1
  Sr  Sr5  1  0.19694654  0.43665451  0.89256406  1
  Sr  Sr6  1  0.19615110  0.93539441  0.38911354  1
  Sr  Sr7  1  0.69637735  0.43564868  0.38954292  1
  Sr  Sr8  1  0.69817393  0.43720329  0.89263666  1
  Sr  Sr9  1  0.69662434  0.93537247  0.39018902  1
  Sr  Sr10  1  0.69791452  0.93595522  0.89262523  1
  Sr  Sr11  1  0.05601065  0.29350646  0.10940449  1
  Sr  Sr12  1  0.05643099  0.29479336  0.60906875  1
  Sr  Sr13  1  0.05665710  0.79590011  0.61022425  1
  Sr  Sr14  1  0.55586498  0.29484398  0.60848441  1
  Sr  Sr15  1  0.55534004  0.79434179  0.10922385  1
  Sr  Sr16  1  0.55613244  0.79514779  0.60879545  1
  Sr  Sr17  1  0.44590617  0.20352024  0.38845534  1
  Sr  Sr18  1  0.44723059  0.20562333  0.89268156  1
  Sr  Sr19  1  0.44551384  0.70369431  0.38857517  1
  Sr  Sr20  1  0.44670172  0.70599259  0.89244485  1
  Sr  Sr21  1  0.94547417  0.20365247  0.38848321  1
  Sr  Sr22  1  0.94767957  0.20559327  0.89248466  1
  Sr  Sr23  1  0.94608183  0.70365353  0.38881989  1
  Ca  Ca24  1  0.30349036  0.06635372  0.10429768  1
  Ca  Ca25  1  0.30335730  0.56689459  0.10530301  1
  Ca  Ca26  1  0.80329407  0.06658156  0.10508037  1
  Ca  Ca27  1  0.80368542  0.56719831  0.10538249  1
  Ca  Ca28  1  0.19948869  0.93424142  0.89640346  1
  Ca  Ca29  1  0.05477773  0.78812658  0.10479623  1
  Ca  Ca30  1  0.55499125  0.28839349  0.10585313  1
  Ca  Ca31  1  0.95038429  0.71232050  0.89625306  1
  Fe  Fe32  1  0.00738136  0.99977372  0.00283618  1
  Fe  Fe33  1  0.00422756  0.99968676  0.49970062  1
  Fe  Fe34  1  0.00621119  0.50283396  0.00278570  1
  Fe  Fe35  1  0.00364359  0.50023361  0.49991472  1
  Fe  Fe36  1  0.50602006  0.00216334  0.00301944  1
  Fe  Fe37  1  0.50390367  0.99997621  0.49968101  1
  Fe  Fe38  1  0.50730665  0.50128937  0.00483056  1
  Fe  Fe39  1  0.50446724  0.50013694  0.49984726  1
  Fe  Fe40  1  0.25713906  0.25084253  0.00299741  1
  Fe  Fe41  1  0.25381265  0.24953096  0.49958155  1
  Fe  Fe42  1  0.25450377  0.75167840  0.00212366  1
  Fe  Fe43  1  0.25360122  0.74987782  0.49977239  1
  Fe  Fe44  1  0.75585700  0.25206249  0.00389461  1
  Fe  Fe45  1  0.75404906  0.25017688  0.49981205  1
  Fe  Fe46  1  0.75826595  0.75149174  0.00297338  1
  Fe  Fe47  1  0.75421675  0.74949737  0.49995576  1
  Fe  Fe48  1  0.10387522  0.08555226  0.24558048  1
  Fe  Fe49  1  0.10898379  0.08898161  0.75280518  1
  Fe  Fe50  1  0.10462068  0.59073958  0.24691281  1
  Fe  Fe51  1  0.10670982  0.59463886  0.75283622  1
  Fe  Fe52  1  0.60453036  0.09062951  0.24714975  1
  Fe  Fe53  1  0.60797756  0.09016793  0.75093315  1
  Fe  Fe54  1  0.60383938  0.58567082  0.24597991  1
  Fe  Fe55  1  0.60995564  0.59118118  0.75117729  1
  Fe  Fe56  1  0.35690396  0.40922696  0.24677656  1
  Fe  Fe57  1  0.35799121  0.41064539  0.75108614  1
  Fe  Fe58  1  0.35221693  0.90825364  0.24553786  1
  Fe  Fe59  1  0.35641667  0.91021179  0.75241481  1
  Fe  Fe60  1  0.85253352  0.40835868  0.24577662  1
  Fe  Fe61  1  0.85910219  0.41366311  0.75260094  1
  Fe  Fe62  1  0.85707598  0.90936045  0.24682453  1
  Fe  Fe63  1  0.86026715  0.90785891  0.75163113  1
  O  O64  1  0.12356690  0.12176809  0.49055459  1
  O  O65  1  0.12753128  0.11676550  0.98898029  1
  O  O66  1  0.12357483  0.62174427  0.49075862  1
  O  O67  1  0.12185122  0.62510621  0.99007501  1
  O  O68  1  0.62389676  0.12191628  0.49061855  1
  O  O69  1  0.62537647  0.12428323  0.99375683  1
  O  O70  1  0.62391413  0.62172300  0.49053892  1
  O  O71  1  0.62744657  0.62157828  0.99256246  1
  O  O72  1  0.13826847  0.38262507  0.01395610  1
  O  O73  1  0.13255411  0.37783985  0.50843762  1
  O  O74  1  0.13565479  0.87906450  0.01248941  1
  O  O75  1  0.13280469  0.87793254  0.50878924  1
  O  O76  1  0.63684492  0.38045460  0.01588010  1
  O  O77  1  0.63307811  0.37816475  0.50881173  1
  O  O78  1  0.63867518  0.88252567  0.01378492  1
  O  O79  1  0.63265183  0.87776400  0.50833891  1
  O  O80  1  0.37363766  0.11879725  0.49022679  1
  O  O81  1  0.37395621  0.11808521  0.99143497  1
  O  O82  1  0.37368887  0.61914973  0.49057220  1
  O  O83  1  0.37336552  0.61808465  0.99204895  1
  O  O84  1  0.87403863  0.11910578  0.49083888  1
  O  O85  1  0.87462085  0.11748494  0.99201194  1
  O  O86  1  0.87401021  0.61908998  0.49061476  1
  O  O87  1  0.87814569  0.62242975  0.99123212  1
  O  O88  1  0.38807237  0.38319961  0.01630147  1
  O  O89  1  0.38262257  0.38035279  0.50814555  1
  O  O90  1  0.38166908  0.88658850  0.01225161  1
  O  O91  1  0.38283705  0.88044124  0.50834357  1
  O  O92  1  0.88359441  0.38688011  0.01391180  1
  O  O93  1  0.88291152  0.38065621  0.50842938  1
  O  O94  1  0.88904052  0.88111147  0.01406916  1
  O  O95  1  0.88285501  0.88039646  0.50835871  1
  O  O96  1  0.08857754  0.09837339  0.13876969  1
  O  O97  1  0.08333327  0.09441045  0.64150464  1
  O  O98  1  0.08709691  0.60509544  0.13958592  1
  O  O99  1  0.07982517  0.59624412  0.64076742  1
  O  O100  1  0.58635363  0.10482688  0.13990463  1
  O  O101  1  0.58172394  0.09614552  0.64010463  1
  O  O102  1  0.58802089  0.59973215  0.13948509  1
  O  O103  1  0.58190633  0.59641693  0.63996957  1
  O  O104  1  0.44167835  0.40540793  0.35851600  1
  O  O105  1  0.44257425  0.40314977  0.86144790  1
  O  O106  1  0.43905778  0.90570937  0.35767103  1
  O  O107  1  0.44527198  0.90340903  0.86206916  1
  O  O108  1  0.93909349  0.40576520  0.35777322  1
  O  O109  1  0.94264538  0.40136479  0.86144129  1
  O  O110  1  0.94172790  0.90546874  0.35866537  1
  O  O111  1  0.94558400  0.89511446  0.86066833  1
  O  O112  1  0.33493984  0.28299062  0.14039574  1
  O  O113  1  0.33146849  0.29400233  0.64024065  1
  O  O114  1  0.33253453  0.78259579  0.13971366  1
  O  O115  1  0.33000161  0.79470914  0.64098676  1
  O  O116  1  0.83397501  0.28230506  0.14036346  1
  O  O117  1  0.83380398  0.29696364  0.64138325  1
  O  O118  1  0.83631948  0.78353506  0.14070032  1
  O  O119  1  0.83198015  0.79335835  0.63984042  1
  O  O120  1  0.18895500  0.20179361  0.35750699  1
  O  O121  1  0.19319473  0.21006009  0.86147870  1
  O  O122  1  0.18837627  0.70512042  0.35892652  1
  O  O123  1  0.19389375  0.71607628  0.86121872  1
  O  O124  1  0.68858392  0.20525363  0.35909224  1
  O  O125  1  0.69230984  0.20757247  0.86152569  1
  O  O126  1  0.68912022  0.70183729  0.35761595  1
  O  O127  1  0.69752751  0.70745102  0.86148439  1
  O  O128  1  0.42762046  0.05654907  0.24035045  1
  O  O129  1  0.43574872  0.05866047  0.75088528  1
  O  O130  1  0.42744072  0.55861064  0.24086958  1
  O  O131  1  0.43780978  0.56001460  0.75136698  1
  O  O132  1  0.92755819  0.05876348  0.24086906  1
  O  O133  1  0.93626709  0.05868938  0.75147505  1
  O  O134  1  0.92779714  0.55669705  0.24049932  1
  O  O135  1  0.93663712  0.56878820  0.75879081  1
  O  O136  1  0.18553963  0.44226840  0.24860898  1
  O  O137  1  0.18627693  0.44456848  0.75159287  1
  O  O138  1  0.17641285  0.93144877  0.24178403  1
  O  O139  1  0.18604661  0.93972801  0.75853072  1
  O  O140  1  0.67658006  0.43152461  0.24189205  1
  O  O141  1  0.68583649  0.44030910  0.75043835  1
  O  O142  1  0.68564451  0.94221005  0.24864181  1
  O  O143  1  0.68832850  0.94141306  0.75131887  1
