# generated using pymatgen
data_DyCdCu
_symmetry_space_group_name_H-M   'P 1'
_cell_length_a   3.88887667
_cell_length_b   7.54098405
_cell_length_c   7.54034557
_cell_angle_alpha   120.00279600
_cell_angle_beta   90.00000000
_cell_angle_gamma   90.00000000
_symmetry_Int_Tables_number   1
_chemical_formula_structural   DyCdCu
_chemical_formula_sum   'Dy3 Cd3 Cu3'
_cell_volume   191.49693953
_cell_formula_units_Z   3
loop_
 _symmetry_equiv_pos_site_id
 _symmetry_equiv_pos_as_xyz
  1  'x, y, z'
loop_
 _atom_site_type_symbol
 _atom_site_label
 _atom_site_symmetry_multiplicity
 _atom_site_fract_x
 _atom_site_fract_y
 _atom_site_fract_z
 _atom_site_occupancy
  Dy  Dy0  1  0.50000000  0.58822005  1.00000000  1
  Dy  Dy1  1  0.50000000  0.41177355  0.41179877  1
  Dy  Dy2  1  0.50000000  0.99997478  0.58820123  1
  Cd  Cd3  1  -0.00000000  0.25245455  0.00000000  1
  Cd  Cd4  1  -0.00000000  0.74753351  0.74753487  1
  Cd  Cd5  1  -0.00000000  0.99999864  0.25246513  1
  Cu  Cu6  1  0.00000000  0.33331415  0.66667741  1
  Cu  Cu7  1  0.00000000  0.66663674  0.33332259  1
  Cu  Cu8  1  0.50000000  0.99999404  0.00000000  1
