# generated using pymatgen
data_SrAgSF
_symmetry_space_group_name_H-M   'P 1'
_cell_length_a   4.10862622
_cell_length_b   4.10862622
_cell_length_c   9.13010298
_cell_angle_alpha   90.00000000
_cell_angle_beta   90.00000000
_cell_angle_gamma   90.00000000
_symmetry_Int_Tables_number   1
_chemical_formula_structural   SrAgSF
_chemical_formula_sum   'Sr2 Ag2 S2 F2'
_cell_volume   154.12352835
_cell_formula_units_Z   2
loop_
 _symmetry_equiv_pos_site_id
 _symmetry_equiv_pos_as_xyz
  1  'x, y, z'
loop_
 _atom_site_type_symbol
 _atom_site_label
 _atom_site_symmetry_multiplicity
 _atom_site_fract_x
 _atom_site_fract_y
 _atom_site_fract_z
 _atom_site_occupancy
  Sr  Sr0  1  0.75000000  0.75000000  0.84394488  1
  Sr  Sr1  1  0.25000000  0.25000000  0.15605512  1
  Ag  Ag2  1  0.25000000  0.75000000  0.50000000  1
  Ag  Ag3  1  0.75000000  0.25000000  0.50000000  1
  S  S4  1  0.75000000  0.75000000  0.30829308  1
  S  S5  1  0.25000000  0.25000000  0.69170692  1
  F  F6  1  0.25000000  0.75000000  0.00000000  1
  F  F7  1  0.75000000  0.25000000  0.00000000  1
