# generated using pymatgen
data_BaCuSF
_symmetry_space_group_name_H-M   'P 1'
_cell_length_a   4.12992593
_cell_length_b   4.12992593
_cell_length_c   9.10646567
_cell_angle_alpha   90.00000000
_cell_angle_beta   90.00000000
_cell_angle_gamma   90.00000000
_symmetry_Int_Tables_number   1
_chemical_formula_structural   BaCuSF
_chemical_formula_sum   'Ba2 Cu2 S2 F2'
_cell_volume   155.32250284
_cell_formula_units_Z   2
loop_
 _symmetry_equiv_pos_site_id
 _symmetry_equiv_pos_as_xyz
  1  'x, y, z'
loop_
 _atom_site_type_symbol
 _atom_site_label
 _atom_site_symmetry_multiplicity
 _atom_site_fract_x
 _atom_site_fract_y
 _atom_site_fract_z
 _atom_site_occupancy
  Ba  Ba0  1  0.75000000  0.75000000  0.81990328  1
  Ba  Ba1  1  0.25000000  0.25000000  0.18009672  1
  Cu  Cu2  1  0.25000000  0.75000000  0.50000000  1
  Cu  Cu3  1  0.75000000  0.25000000  0.50000000  1
  S  S4  1  0.75000000  0.75000000  0.35650727  1
  S  S5  1  0.25000000  0.25000000  0.64349273  1
  F  F6  1  0.25000000  0.75000000  -0.00000000  1
  F  F7  1  0.75000000  0.25000000  0.00000000  1
