# generated using pymatgen
data_HgSeO3
_symmetry_space_group_name_H-M   'P 1'
_cell_length_a   5.03819868
_cell_length_b   7.22977462
_cell_length_c   9.42747368
_cell_angle_alpha   90.00000000
_cell_angle_beta   90.00000000
_cell_angle_gamma   90.35449513
_symmetry_Int_Tables_number   1
_chemical_formula_structural   HgSeO3
_chemical_formula_sum   'Hg4 Se4 O12'
_cell_volume   343.38954264
_cell_formula_units_Z   4
loop_
 _symmetry_equiv_pos_site_id
 _symmetry_equiv_pos_as_xyz
  1  'x, y, z'
loop_
 _atom_site_type_symbol
 _atom_site_label
 _atom_site_symmetry_multiplicity
 _atom_site_fract_x
 _atom_site_fract_y
 _atom_site_fract_z
 _atom_site_occupancy
  O  O0  1  0.69305766  0.39879620  0.12983849  1
  O  O1  1  0.30694234  0.10120380  0.62983849  1
  O  O2  1  0.30694234  0.60120380  0.87016151  1
  O  O3  1  0.69305766  0.89879620  0.37016151  1
  O  O4  1  0.73894516  0.23990119  0.87654345  1
  O  O5  1  0.26105484  0.26009881  0.37654345  1
  O  O6  1  0.26105484  0.76009881  0.12345655  1
  O  O7  1  0.73894516  0.73990119  0.62345655  1
  O  O8  1  0.90870120  0.82692995  0.90600850  1
  O  O9  1  0.09129880  0.67307005  0.40600850  1
  O  O10  1  0.09129880  0.17307005  0.09399150  1
  O  O11  1  0.90870120  0.32692995  0.59399150  1
  Se  Se12  1  0.75240321  0.18461937  0.05902070  1
  Se  Se13  1  0.24759679  0.31538063  0.55902070  1
  Se  Se14  1  0.24759679  0.81538063  0.94097930  1
  Se  Se15  1  0.75240321  0.68461937  0.44097930  1
  Hg  Hg16  1  0.78814492  0.03668153  0.67352946  1
  Hg  Hg17  1  0.21185508  0.46331847  0.17352946  1
  Hg  Hg18  1  0.21185508  0.96331847  0.32647054  1
  Hg  Hg19  1  0.78814492  0.53668153  0.82647054  1
