# generated using pymatgen
data_ZrGaPt
_symmetry_space_group_name_H-M   'P 1'
_cell_length_a   3.61365441
_cell_length_b   7.19865997
_cell_length_c   7.19904467
_cell_angle_alpha   119.99822833
_cell_angle_beta   90.00000000
_cell_angle_gamma   90.00000000
_symmetry_Int_Tables_number   1
_chemical_formula_structural   ZrGaPt
_chemical_formula_sum   'Zr3 Ga3 Pt3'
_cell_volume   162.18531544
_cell_formula_units_Z   3
loop_
 _symmetry_equiv_pos_site_id
 _symmetry_equiv_pos_as_xyz
  1  'x, y, z'
loop_
 _atom_site_type_symbol
 _atom_site_label
 _atom_site_symmetry_multiplicity
 _atom_site_fract_x
 _atom_site_fract_y
 _atom_site_fract_z
 _atom_site_occupancy
  Zr  Zr0  1  0.50000000  0.60268525  0.00000000  1
  Zr  Zr1  1  0.50000000  0.39727200  0.39729436  1
  Zr  Zr2  1  0.50000000  0.99997764  0.60270564  1
  Ga  Ga3  1  0.00000000  0.26369666  0.00000000  1
  Ga  Ga4  1  0.00000000  0.73626743  0.73625408  1
  Ga  Ga5  1  0.00000000  0.00001335  0.26374592  1
  Pt  Pt6  1  0.00000000  0.33336181  0.66673544  1
  Pt  Pt7  1  0.00000000  0.66662637  0.33326456  1
  Pt  Pt8  1  0.50000000  -0.00000051  -0.00000000  1
