# generated using pymatgen
data_CaSbO3
_symmetry_space_group_name_H-M   'P 1'
_cell_length_a   5.72396207
_cell_length_b   5.92450337
_cell_length_c   8.15645184
_cell_angle_alpha   90.00000000
_cell_angle_beta   90.00000000
_cell_angle_gamma   89.74868206
_symmetry_Int_Tables_number   1
_chemical_formula_structural   CaSbO3
_chemical_formula_sum   'Ca4 Sb4 O12'
_cell_volume   276.59593725
_cell_formula_units_Z   4
loop_
 _symmetry_equiv_pos_site_id
 _symmetry_equiv_pos_as_xyz
  1  'x, y, z'
loop_
 _atom_site_type_symbol
 _atom_site_label
 _atom_site_symmetry_multiplicity
 _atom_site_fract_x
 _atom_site_fract_y
 _atom_site_fract_z
 _atom_site_occupancy
  Ca  Ca0  1  0.51481144  0.55756097  0.75000000  1
  Ca  Ca1  1  0.48518856  0.44243903  0.25000000  1
  Ca  Ca2  1  0.99453892  0.05058159  0.75000000  1
  Ca  Ca3  1  0.00546108  0.94941841  0.25000000  1
  Sb  Sb4  1  0.50000000  0.00000000  0.50000000  1
  Sb  Sb5  1  0.50000000  0.00000000  0.00000000  1
  Sb  Sb6  1  0.00000000  0.50000000  0.50000000  1
  Sb  Sb7  1  0.00000000  0.50000000  0.00000000  1
  O  O8  1  0.28848561  0.67718649  0.44213481  1
  O  O9  1  0.17146153  0.21271063  0.05730312  1
  O  O10  1  0.71151439  0.32281351  0.94213481  1
  O  O11  1  0.82853847  0.78728937  0.55730312  1
  O  O12  1  0.17146153  0.21271063  0.44269688  1
  O  O13  1  0.82853847  0.78728937  0.94269688  1
  O  O14  1  0.88441113  0.54955166  0.25000000  1
  O  O15  1  0.28848561  0.67718649  0.05786519  1
  O  O16  1  0.38047587  0.94462049  0.75000000  1
  O  O17  1  0.71151439  0.32281351  0.55786519  1
  O  O18  1  0.11558887  0.45044834  0.75000000  1
  O  O19  1  0.61952413  0.05537951  0.25000000  1
