# generated using pymatgen
data_Nd2CdCu2
_symmetry_space_group_name_H-M   'P 1'
_cell_length_a   3.86511202
_cell_length_b   7.72212249
_cell_length_c   7.72212249
_cell_angle_alpha   90.00000000
_cell_angle_beta   90.00000000
_cell_angle_gamma   90.00000000
_symmetry_Int_Tables_number   1
_chemical_formula_structural   Nd2CdCu2
_chemical_formula_sum   'Nd4 Cd2 Cu4'
_cell_volume   230.48117416
_cell_formula_units_Z   2
loop_
 _symmetry_equiv_pos_site_id
 _symmetry_equiv_pos_as_xyz
  1  'x, y, z'
loop_
 _atom_site_type_symbol
 _atom_site_label
 _atom_site_symmetry_multiplicity
 _atom_site_fract_x
 _atom_site_fract_y
 _atom_site_fract_z
 _atom_site_occupancy
  Nd  Nd0  1  0.00000000  0.17551617  0.67551617  1
  Nd  Nd1  1  -0.00000000  0.82448383  0.32448383  1
  Nd  Nd2  1  -0.00000000  0.32448383  0.17551617  1
  Nd  Nd3  1  -0.00000000  0.67551617  0.82448383  1
  Cd  Cd4  1  0.50000000  0.50000000  0.50000000  1
  Cd  Cd5  1  0.50000000  -0.00000000  -0.00000000  1
  Cu  Cu6  1  0.50000000  0.38183738  0.88183738  1
  Cu  Cu7  1  0.50000000  0.61816262  0.11816262  1
  Cu  Cu8  1  0.50000000  0.11816262  0.38183738  1
  Cu  Cu9  1  0.50000000  0.88183738  0.61816262  1
