# generated using pymatgen
data_MnTe
_symmetry_space_group_name_H-M   'P 1'
_cell_length_a   4.22146645
_cell_length_b   5.86299777
_cell_length_c   7.26002493
_cell_angle_alpha   90.00000000
_cell_angle_beta   90.00000000
_cell_angle_gamma   90.00000000
_symmetry_Int_Tables_number   1
_chemical_formula_structural   MnTe
_chemical_formula_sum   'Mn4 Te4'
_cell_volume   179.68887229
_cell_formula_units_Z   4
loop_
 _symmetry_equiv_pos_site_id
 _symmetry_equiv_pos_as_xyz
  1  'x, y, z'
loop_
 _atom_site_type_symbol
 _atom_site_label
 _atom_site_symmetry_multiplicity
 _atom_site_fract_x
 _atom_site_fract_y
 _atom_site_fract_z
 _atom_site_occupancy
  Mn  Mn0  1  0.75000000  0.49764264  0.75500250  1
  Mn  Mn1  1  0.75000000  0.99764264  0.74499750  1
  Mn  Mn2  1  0.25000000  0.50235736  0.24499750  1
  Mn  Mn3  1  0.25000000  0.00235736  0.25500250  1
  Te  Te4  1  0.75000000  0.24544543  0.08376825  1
  Te  Te5  1  0.75000000  0.74544543  0.41623175  1
  Te  Te6  1  0.25000000  0.75455457  0.91623175  1
  Te  Te7  1  0.25000000  0.25455457  0.58376825  1
