# generated using pymatgen
data_Tm(BC)2
_symmetry_space_group_name_H-M   'P 1'
_cell_length_a   3.48223080
_cell_length_b   5.33087180
_cell_length_c   5.33087180
_cell_angle_alpha   90.00000000
_cell_angle_beta   90.00000000
_cell_angle_gamma   90.00000000
_symmetry_Int_Tables_number   1
_chemical_formula_structural   Tm(BC)2
_chemical_formula_sum   'Tm2 B4 C4'
_cell_volume   98.95871094
_cell_formula_units_Z   2
loop_
 _symmetry_equiv_pos_site_id
 _symmetry_equiv_pos_as_xyz
  1  'x, y, z'
loop_
 _atom_site_type_symbol
 _atom_site_label
 _atom_site_symmetry_multiplicity
 _atom_site_fract_x
 _atom_site_fract_y
 _atom_site_fract_z
 _atom_site_occupancy
  B  B0  1  0.50000000  0.63627031  0.13627031  1
  B  B1  1  0.50000000  0.86372969  0.63627031  1
  B  B2  1  0.50000000  0.36372969  0.86372969  1
  B  B3  1  0.50000000  0.13627031  0.36372969  1
  C  C4  1  0.50000000  0.66233788  0.83766212  1
  C  C5  1  0.50000000  0.83766212  0.33766212  1
  C  C6  1  0.50000000  0.16233788  0.66233788  1
  C  C7  1  0.50000000  0.33766212  0.16233788  1
  Tm  Tm8  1  0.00000000  0.50000000  0.50000000  1
  Tm  Tm9  1  0.00000000  0.00000000  0.00000000  1
