# generated using pymatgen
data_PrMnSi2
_symmetry_space_group_name_H-M   'P 1'
_cell_length_a   3.98869322
_cell_length_b   4.08729791
_cell_length_c   9.05288347
_cell_angle_alpha   103.04672819
_cell_angle_beta   90.00000000
_cell_angle_gamma   90.00000000
_symmetry_Int_Tables_number   1
_chemical_formula_structural   PrMnSi2
_chemical_formula_sum   'Pr2 Mn2 Si4'
_cell_volume   143.77913520
_cell_formula_units_Z   2
loop_
 _symmetry_equiv_pos_site_id
 _symmetry_equiv_pos_as_xyz
  1  'x, y, z'
loop_
 _atom_site_type_symbol
 _atom_site_label
 _atom_site_symmetry_multiplicity
 _atom_site_fract_x
 _atom_site_fract_y
 _atom_site_fract_z
 _atom_site_occupancy
  Pr  Pr0  1  0.75000000  0.10192952  0.20385903  1
  Pr  Pr1  1  0.25000000  0.89807048  0.79614097  1
  Mn  Mn2  1  0.75000000  0.75033192  0.50066385  1
  Mn  Mn3  1  0.25000000  0.24966808  0.49933615  1
  Si  Si4  1  0.75000000  0.32113908  0.64227816  1
  Si  Si5  1  0.25000000  0.67886092  0.35772184  1
  Si  Si6  1  0.75000000  0.46334538  0.92669076  1
  Si  Si7  1  0.25000000  0.53665462  0.07330924  1
