# generated using pymatgen
data_ScGeRh
_symmetry_space_group_name_H-M   'P 1'
_cell_length_a   4.16707491
_cell_length_b   6.54527933
_cell_length_c   7.47194090
_cell_angle_alpha   90.00000000
_cell_angle_beta   90.00000000
_cell_angle_gamma   90.00000000
_symmetry_Int_Tables_number   1
_chemical_formula_structural   ScGeRh
_chemical_formula_sum   'Sc4 Ge4 Rh4'
_cell_volume   203.79471689
_cell_formula_units_Z   4
loop_
 _symmetry_equiv_pos_site_id
 _symmetry_equiv_pos_as_xyz
  1  'x, y, z'
loop_
 _atom_site_type_symbol
 _atom_site_label
 _atom_site_symmetry_multiplicity
 _atom_site_fract_x
 _atom_site_fract_y
 _atom_site_fract_z
 _atom_site_occupancy
  Sc  Sc0  1  0.75000000  0.48862992  0.19633131  1
  Sc  Sc1  1  0.75000000  0.98862992  0.30366869  1
  Sc  Sc2  1  0.25000000  0.51137008  0.80366869  1
  Sc  Sc3  1  0.25000000  0.01137008  0.69633131  1
  Ge  Ge4  1  0.75000000  0.22340390  0.88714714  1
  Ge  Ge5  1  0.75000000  0.72340390  0.61285286  1
  Ge  Ge6  1  0.25000000  0.77659610  0.11285286  1
  Ge  Ge7  1  0.25000000  0.27659610  0.38714714  1
  Rh  Rh8  1  0.75000000  0.34259816  0.56249034  1
  Rh  Rh9  1  0.75000000  0.84259816  0.93750966  1
  Rh  Rh10  1  0.25000000  0.65740184  0.43750966  1
  Rh  Rh11  1  0.25000000  0.15740184  0.06249034  1
