# generated using pymatgen
data_FeF3
_symmetry_space_group_name_H-M   'P 1'
_cell_length_a   7.43733461
_cell_length_b   7.43733461
_cell_length_c   7.62287552
_cell_angle_alpha   90.00000000
_cell_angle_beta   90.00000000
_cell_angle_gamma   119.53621314
_symmetry_Int_Tables_number   1
_chemical_formula_structural   FeF3
_chemical_formula_sum   'Fe6 F18'
_cell_volume   366.85532886
_cell_formula_units_Z   6
loop_
 _symmetry_equiv_pos_site_id
 _symmetry_equiv_pos_as_xyz
  1  'x, y, z'
loop_
 _atom_site_type_symbol
 _atom_site_label
 _atom_site_symmetry_multiplicity
 _atom_site_fract_x
 _atom_site_fract_y
 _atom_site_fract_z
 _atom_site_occupancy
  Fe  Fe0  1  0.50000000  0.00000000  -0.00000000  1
  Fe  Fe1  1  0.50000000  0.00000000  0.50000000  1
  Fe  Fe2  1  -0.00000000  0.50000000  0.00000000  1
  Fe  Fe3  1  -0.00000000  0.50000000  0.50000000  1
  Fe  Fe4  1  0.50000000  0.50000000  0.00000000  1
  Fe  Fe5  1  0.50000000  0.50000000  0.50000000  1
  F  F6  1  0.41671165  0.20990547  0.45562648  1
  F  F7  1  0.58328835  0.79009453  0.54437352  1
  F  F8  1  0.58328835  0.79009453  0.95562648  1
  F  F9  1  0.41671165  0.20990547  0.04437352  1
  F  F10  1  0.20990547  0.41671165  0.54437352  1
  F  F11  1  0.79009453  0.58328835  0.45562648  1
  F  F12  1  0.79009453  0.58328835  0.04437352  1
  F  F13  1  0.20990547  0.41671165  0.95562648  1
  F  F14  1  0.78504398  0.21495602  0.95222307  1
  F  F15  1  0.21495602  0.78504398  0.04777693  1
  F  F16  1  0.21495602  0.78504398  0.45222307  1
  F  F17  1  0.78504398  0.21495602  0.54777693  1
  F  F18  1  0.56980984  0.00566273  0.25000000  1
  F  F19  1  0.43019016  0.99433727  0.75000000  1
  F  F20  1  0.00566273  0.56980984  0.75000000  1
  F  F21  1  0.99433727  0.43019016  0.25000000  1
  F  F22  1  0.53830528  0.46169472  0.75000000  1
  F  F23  1  0.46169472  0.53830528  0.25000000  1
