# generated using pymatgen
data_NaMnPCO7
_symmetry_space_group_name_H-M   'P 1'
_cell_length_a   10.43250029
_cell_length_b   6.23613269
_cell_length_c   10.78789449
_cell_angle_alpha   90.00000000
_cell_angle_beta   121.23213230
_cell_angle_gamma   90.00000000
_symmetry_Int_Tables_number   1
_chemical_formula_structural   NaMnPCO7
_chemical_formula_sum   'Na4 Mn4 P4 C4 O28'
_cell_volume   600.12807710
_cell_formula_units_Z   4
loop_
 _symmetry_equiv_pos_site_id
 _symmetry_equiv_pos_as_xyz
  1  'x, y, z'
loop_
 _atom_site_type_symbol
 _atom_site_label
 _atom_site_symmetry_multiplicity
 _atom_site_fract_x
 _atom_site_fract_y
 _atom_site_fract_z
 _atom_site_occupancy
  Na  Na0  1  0.99562466  0.45602559  0.23900285  1
  Na  Na1  1  0.49562466  0.04397441  0.23900285  1
  Na  Na2  1  0.50437534  0.95602459  0.76099715  1
  Na  Na3  1  0.00437534  0.54397541  0.76099715  1
  Mn  Mn4  1  0.28035008  0.74937664  0.34513028  1
  Mn  Mn5  1  0.78035008  0.75062336  0.34513028  1
  Mn  Mn6  1  0.21964992  0.24937664  0.65486972  1
  Mn  Mn7  1  0.71964992  0.25062336  0.65486972  1
  P  P8  1  0.35737694  0.24773275  0.43452107  1
  P  P9  1  0.85737694  0.25226725  0.43452107  1
  P  P10  1  0.14262306  0.74773275  0.56547893  1
  P  P11  1  0.64262306  0.75226725  0.56547893  1
  C  C12  1  0.17971355  0.75046455  0.08568200  1
  C  C13  1  0.67971355  0.74953545  0.08568200  1
  C  C14  1  0.32028645  0.25046455  0.91431800  1
  C  C15  1  0.82028645  0.24953545  0.91431800  1
  O  O16  1  0.37004452  0.25604455  0.04548613  1
  O  O17  1  0.87004452  0.24395545  0.04548613  1
  O  O18  1  0.09862175  0.74078935  0.14742084  1
  O  O19  1  0.59862175  0.75921065  0.14742084  1
  O  O20  1  0.32462513  0.75463203  0.18731647  1
  O  O21  1  0.82462513  0.74536797  0.18731647  1
  O  O22  1  0.27752722  0.05497594  0.33187406  1
  O  O23  1  0.26837852  0.44057021  0.33671327  1
  O  O24  1  0.76837852  0.05942979  0.33671327  1
  O  O25  1  0.77752722  0.44502406  0.33187406  1
  O  O26  1  0.02382394  0.24876697  0.47421691  1
  O  O27  1  0.14778974  0.73816183  0.42584593  1
  O  O28  1  0.52382394  0.25123303  0.47421691  1
  O  O29  1  0.64778974  0.76183817  0.42584593  1
  O  O30  1  0.35221026  0.23816183  0.57415407  1
  O  O31  1  0.47617606  0.74876697  0.52578309  1
  O  O32  1  0.85221026  0.26183817  0.57415407  1
  O  O33  1  0.97617606  0.75123303  0.52578309  1
  O  O34  1  0.22247278  0.55497594  0.66812594  1
  O  O35  1  0.23162148  0.94057021  0.66328673  1
  O  O36  1  0.73162148  0.55942979  0.66328673  1
  O  O37  1  0.72247278  0.94502406  0.66812594  1
  O  O38  1  0.17537487  0.25463203  0.81268353  1
  O  O39  1  0.67537487  0.24536797  0.81268353  1
  O  O40  1  0.40137825  0.24078935  0.85257916  1
  O  O41  1  0.90137825  0.25921065  0.85257916  1
  O  O42  1  0.12995548  0.75604455  0.95451387  1
  O  O43  1  0.62995548  0.74395545  0.95451387  1
