# generated using pymatgen
data_NaMnPCO7
_symmetry_space_group_name_H-M   'P 1'
_cell_length_a   10.45294544
_cell_length_b   6.23235276
_cell_length_c   10.85804724
_cell_angle_alpha   91.33847968
_cell_angle_beta   121.54978276
_cell_angle_gamma   89.93252866
_symmetry_Int_Tables_number   1
_chemical_formula_structural   NaMnPCO7
_chemical_formula_sum   'Na4 Mn4 P4 C4 O28'
_cell_volume   602.58976134
_cell_formula_units_Z   4
loop_
 _symmetry_equiv_pos_site_id
 _symmetry_equiv_pos_as_xyz
  1  'x, y, z'
loop_
 _atom_site_type_symbol
 _atom_site_label
 _atom_site_symmetry_multiplicity
 _atom_site_fract_x
 _atom_site_fract_y
 _atom_site_fract_z
 _atom_site_occupancy
  Na  Na0  1  0.99327980  0.04522783  0.23620529  1
  Na  Na1  1  0.49541576  0.44398165  0.23801969  1
  Na  Na2  1  0.50438605  0.96050863  0.76723745  1
  Na  Na3  1  0.00296864  0.95884080  0.76524467  1
  Mn  Mn4  1  0.28055931  0.74986371  0.34591250  1
  Mn  Mn5  1  0.78089112  0.74961342  0.34577985  1
  Mn  Mn6  1  0.22017834  0.26613259  0.65412362  1
  Mn  Mn7  1  0.71974868  0.26296735  0.65431155  1
  P  P8  1  0.35661830  0.25288939  0.43626948  1
  P  P9  1  0.85658050  0.24808551  0.43594694  1
  P  P10  1  0.14442841  0.75934509  0.56392087  1
  P  P11  1  0.64407299  0.75784343  0.56422431  1
  C  C12  1  0.18264031  0.74558188  0.08841477  1
  C  C13  1  0.68288928  0.73559534  0.08816283  1
  C  C14  1  0.31567056  0.24740473  0.90995300  1
  C  C15  1  0.81698495  0.25968621  0.91128669  1
  O  O16  1  0.36269723  0.23071682  0.03972361  1
  O  O17  1  0.86465307  0.25174266  0.04139060  1
  O  O18  1  0.10029557  0.75151192  0.14806611  1
  O  O19  1  0.60067722  0.72612580  0.14772051  1
  O  O20  1  0.32756999  0.73658236  0.19154982  1
  O  O21  1  0.82809172  0.74103639  0.19139722  1
  O  O22  1  0.26668873  0.05828708  0.33422350  1
  O  O23  1  0.27698231  0.44434978  0.33758735  1
  O  O24  1  0.77684404  0.05471392  0.32859929  1
  O  O25  1  0.76762673  0.44080835  0.34278874  1
  O  O26  1  0.02293746  0.25494823  0.47631335  1
  O  O27  1  0.14810998  0.76059286  0.42428107  1
  O  O28  1  0.52287353  0.25054883  0.47611714  1
  O  O29  1  0.64869282  0.75263663  0.42501579  1
  O  O30  1  0.35172116  0.25323035  0.57519361  1
  O  O31  1  0.47791964  0.76717314  0.52467517  1
  O  O32  1  0.85012712  0.23522128  0.57368333  1
  O  O33  1  0.97833762  0.76677240  0.52474482  1
  O  O34  1  0.22779703  0.56982376  0.66252856  1
  O  O35  1  0.23251016  0.95534286  0.66543810  1
  O  O36  1  0.72686083  0.56656937  0.66173494  1
  O  O37  1  0.73184217  0.95234662  0.66737565  1
  O  O38  1  0.17095085  0.25392709  0.80636420  1
  O  O39  1  0.67185456  0.26049269  0.80774805  1
  O  O40  1  0.39953867  0.25975998  0.85241521  1
  O  O41  1  0.89987214  0.26542145  0.85234227  1
  O  O42  1  0.13432417  0.74847056  0.95810827  1
  O  O43  1  0.63428947  0.74307826  0.95786021  1
