# generated using pymatgen
data_Al2ZnS4
_symmetry_space_group_name_H-M   'P 1'
_cell_length_a   5.34378119
_cell_length_b   5.34378119
_cell_length_c   6.43956349
_cell_angle_alpha   114.51415063
_cell_angle_beta   114.51415063
_cell_angle_gamma   90.00000000
_symmetry_Int_Tables_number   1
_chemical_formula_structural   Al2ZnS4
_chemical_formula_sum   'Al2 Zn1 S4'
_cell_volume   148.90242570
_cell_formula_units_Z   1
loop_
 _symmetry_equiv_pos_site_id
 _symmetry_equiv_pos_as_xyz
  1  'x, y, z'
loop_
 _atom_site_type_symbol
 _atom_site_label
 _atom_site_symmetry_multiplicity
 _atom_site_fract_x
 _atom_site_fract_y
 _atom_site_fract_z
 _atom_site_occupancy
  Al  Al0  1  0.50000000  0.50000000  -0.00000000  1
  Al  Al1  1  0.25000000  0.75000000  0.50000000  1
  Zn  Zn2  1  -0.00000000  0.00000000  0.00000000  1
  S  S3  1  0.61344260  0.12887902  0.74005712  1
  S  S4  1  0.12661453  0.61117810  0.74005712  1
  S  S5  1  0.87112098  0.87338547  0.25994288  1
  S  S6  1  0.38882190  0.38655740  0.25994288  1
