# generated using pymatgen
data_BaFe2S2O
_symmetry_space_group_name_H-M   'P 1'
_cell_length_a   4.09290301
_cell_length_b   6.57229900
_cell_length_c   10.15374627
_cell_angle_alpha   90.00000000
_cell_angle_beta   90.00000000
_cell_angle_gamma   90.00000000
_symmetry_Int_Tables_number   1
_chemical_formula_structural   BaFe2S2O
_chemical_formula_sum   'Ba2 Fe4 S4 O2'
_cell_volume   273.13356480
_cell_formula_units_Z   2
loop_
 _symmetry_equiv_pos_site_id
 _symmetry_equiv_pos_as_xyz
  1  'x, y, z'
loop_
 _atom_site_type_symbol
 _atom_site_label
 _atom_site_symmetry_multiplicity
 _atom_site_fract_x
 _atom_site_fract_y
 _atom_site_fract_z
 _atom_site_occupancy
  Ba  Ba0  1  0.50000000  0.02290540  0.50000000  1
  Ba  Ba1  1  0.00000000  0.97709460  -0.00000000  1
  Fe  Fe2  1  0.50000000  0.36297721  0.82791460  1
  Fe  Fe3  1  0.50000000  0.36297721  0.17208540  1
  Fe  Fe4  1  -0.00000000  0.63702279  0.32791460  1
  Fe  Fe5  1  0.00000000  0.63702279  0.67208540  1
  S  S6  1  0.50000000  0.73562208  0.79456376  1
  S  S7  1  0.50000000  0.73562208  0.20543624  1
  S  S8  1  0.00000000  0.26437792  0.29456376  1
  S  S9  1  0.00000000  0.26437792  0.70543624  1
  O  O10  1  0.50000000  0.23626341  0.00000000  1
  O  O11  1  -0.00000000  0.76373659  0.50000000  1
