# generated using pymatgen
data_Te16Rh9
_symmetry_space_group_name_H-M   'P 1'
_cell_length_a   15.99483362
_cell_length_b   11.95646214
_cell_length_c   8.83471419
_cell_angle_alpha   42.12244188
_cell_angle_beta   47.36104611
_cell_angle_gamma   33.15065996
_symmetry_Int_Tables_number   1
_chemical_formula_structural   Te16Rh9
_chemical_formula_sum   'Te16 Rh9'
_cell_volume   612.32581786
_cell_formula_units_Z   1
loop_
 _symmetry_equiv_pos_site_id
 _symmetry_equiv_pos_as_xyz
  1  'x, y, z'
loop_
 _atom_site_type_symbol
 _atom_site_label
 _atom_site_symmetry_multiplicity
 _atom_site_fract_x
 _atom_site_fract_y
 _atom_site_fract_z
 _atom_site_occupancy
  Te  Te0  1  0.04177023  0.20601168  0.54591373  1
  Te  Te1  1  0.04871678  0.69959658  0.04187598  1
  Te  Te2  1  0.29275973  0.19679353  0.55172241  1
  Te  Te3  1  0.20729878  0.29666317  0.95493049  1
  Te  Te4  1  0.29270122  0.70333683  0.04506951  1
  Te  Te5  1  0.20724027  0.80320647  0.44827759  1
  Te  Te6  1  0.54166197  0.20861583  0.54662735  1
  Te  Te7  1  0.45128322  0.30040342  0.95812402  1
  Te  Te8  1  0.54610011  0.70156507  0.03966523  1
  Te  Te9  1  0.45822977  0.79398832  0.45408627  1
  Te  Te10  1  0.79813716  0.20738076  0.53012676  1
  Te  Te11  1  0.70251296  0.29589779  0.96839391  1
  Te  Te12  1  0.79748704  0.70410221  0.03160609  1
  Te  Te13  1  0.70186284  0.79261924  0.46987324  1
  Te  Te14  1  0.95389989  0.29843493  0.96033477  1
  Te  Te15  1  0.95833803  0.79138417  0.45337265  1
  Rh  Rh16  1  0.24955282  0.24594297  0.25418787  1
  Rh  Rh17  1  0.00663224  0.74998170  0.73558599  1
  Rh  Rh18  1  0.49336776  0.25001830  0.26441401  1
  Rh  Rh19  1  0.75000000  -0.00000000  0.00000000  1
  Rh  Rh20  1  0.25044718  0.75405703  0.74581213  1
  Rh  Rh21  1  0.75157956  0.24180465  0.25832394  1
  Rh  Rh22  1  0.49902797  0.74360302  0.75157580  1
  Rh  Rh23  1  0.00097203  0.25639698  0.24842420  1
  Rh  Rh24  1  0.74842044  0.75819535  0.74167606  1
