# generated using pymatgen
data_TiS2
_symmetry_space_group_name_H-M   'P 1'
_cell_length_a   3.42054962
_cell_length_b   3.42051017
_cell_length_c   20.18287164
_cell_angle_alpha   89.99969442
_cell_angle_beta   90.00018462
_cell_angle_gamma   120.00087916
_symmetry_Int_Tables_number   1
_chemical_formula_structural   TiS2
_chemical_formula_sum   'Ti3 S6'
_cell_volume   204.50151209
_cell_formula_units_Z   3
loop_
 _symmetry_equiv_pos_site_id
 _symmetry_equiv_pos_as_xyz
  1  'x, y, z'
loop_
 _atom_site_type_symbol
 _atom_site_label
 _atom_site_symmetry_multiplicity
 _atom_site_fract_x
 _atom_site_fract_y
 _atom_site_fract_z
 _atom_site_occupancy
  Ti  Ti0  1  0.00061369  0.99999603  0.99999999  1
  Ti  Ti1  1  0.99968599  0.99997679  0.35443938  1
  Ti  Ti2  1  0.99971131  0.00002761  0.64555935  1
  S  S3  1  0.33332247  0.66667793  0.07019547  1
  S  S4  1  0.33326673  0.66669110  0.42443162  1
  S  S5  1  0.33325579  0.66664074  0.71575093  1
  S  S6  1  0.66661535  0.33336111  0.28424793  1
  S  S7  1  0.66658085  0.33330947  0.57556692  1
  S  S8  1  0.66664681  0.33331921  0.92980842  1
