# generated using pymatgen
data_K2TeOF4
_symmetry_space_group_name_H-M   'P 1'
_cell_length_a   6.43772845
_cell_length_b   6.72101514
_cell_length_c   7.83890053
_cell_angle_alpha   90.00000000
_cell_angle_beta   114.24422811
_cell_angle_gamma   90.00000000
_symmetry_Int_Tables_number   1
_chemical_formula_structural   K2TeOF4
_chemical_formula_sum   'K4 Te2 O2 F8'
_cell_volume   309.26010246
_cell_formula_units_Z   2
loop_
 _symmetry_equiv_pos_site_id
 _symmetry_equiv_pos_as_xyz
  1  'x, y, z'
loop_
 _atom_site_type_symbol
 _atom_site_label
 _atom_site_symmetry_multiplicity
 _atom_site_fract_x
 _atom_site_fract_y
 _atom_site_fract_z
 _atom_site_occupancy
  O  O0  1  0.23715529  0.25000000  0.47431059  1
  O  O1  1  0.76284471  0.75000000  0.52568941  1
  F  F2  1  0.34759615  0.46741644  0.22461330  1
  F  F3  1  0.12298285  0.53258356  0.77538670  1
  F  F4  1  0.34759615  0.03258356  0.22461330  1
  F  F5  1  0.12298285  0.96741644  0.77538670  1
  F  F6  1  0.65240385  0.96741644  0.77538670  1
  F  F7  1  0.87701715  0.03258356  0.22461330  1
  F  F8  1  0.87701715  0.46741644  0.22461330  1
  F  F9  1  0.65240385  0.53258356  0.77538670  1
  K  K10  1  0.57304275  0.75000000  0.14608550  1
  K  K11  1  0.42695725  0.25000000  0.85391450  1
  K  K12  1  0.24952838  0.75000000  0.49905676  1
  K  K13  1  0.75047162  0.25000000  0.50094324  1
  Te  Te14  1  0.88997717  0.75000000  0.77995433  1
  Te  Te15  1  0.11002283  0.25000000  0.22004567  1
