# generated using pymatgen
data_Mg2TaTiO6
_symmetry_space_group_name_H-M   'P 1'
_cell_length_a   5.21403423
_cell_length_b   5.40524447
_cell_length_c   7.63376394
_cell_angle_alpha   90.00000000
_cell_angle_beta   90.00000000
_cell_angle_gamma   90.11296191
_symmetry_Int_Tables_number   1
_chemical_formula_structural   Mg2TaTiO6
_chemical_formula_sum   'Mg4 Ta2 Ti2 O12'
_cell_volume   215.14294090
_cell_formula_units_Z   2
loop_
 _symmetry_equiv_pos_site_id
 _symmetry_equiv_pos_as_xyz
  1  'x, y, z'
loop_
 _atom_site_type_symbol
 _atom_site_label
 _atom_site_symmetry_multiplicity
 _atom_site_fract_x
 _atom_site_fract_y
 _atom_site_fract_z
 _atom_site_occupancy
  Mg  Mg0  1  0.00540781  0.95775496  0.25000000  1
  Mg  Mg1  1  0.48643743  0.43488822  0.25000000  1
  Mg  Mg2  1  0.51356257  0.56511178  0.75000000  1
  Mg  Mg3  1  0.99459219  0.04224504  0.75000000  1
  Ta  Ta4  1  0.00000000  0.50000000  0.00000000  1
  Ta  Ta5  1  0.00000000  0.50000000  0.50000000  1
  Ti  Ti6  1  0.50000000  0.00000000  0.00000000  1
  Ti  Ti7  1  0.50000000  0.00000000  0.50000000  1
  O  O8  1  0.82364146  0.81084747  0.56837041  1
  O  O9  1  0.31695565  0.68364276  0.43129268  1
  O  O10  1  0.17635854  0.18915253  0.43162959  1
  O  O11  1  0.68304435  0.31635724  0.93129268  1
  O  O12  1  0.13339450  0.43985560  0.75000000  1
  O  O13  1  0.68304435  0.31635724  0.56870732  1
  O  O14  1  0.31695565  0.68364276  0.06870732  1
  O  O15  1  0.82364146  0.81084747  0.93162959  1
  O  O16  1  0.62581441  0.06391422  0.25000000  1
  O  O17  1  0.17635854  0.18915253  0.06837041  1
  O  O18  1  0.37418559  0.93608578  0.75000000  1
  O  O19  1  0.86660550  0.56014440  0.25000000  1
