# generated using pymatgen
data_Na5Ni2P2(CO7)2
_symmetry_space_group_name_H-M   'P 1'
_cell_length_a   8.83324414
_cell_length_b   5.19341874
_cell_length_c   20.04545156
_cell_angle_alpha   89.98143737
_cell_angle_beta   90.06318528
_cell_angle_gamma   88.59264537
_symmetry_Int_Tables_number   1
_chemical_formula_structural   Na5Ni2P2(CO7)2
_chemical_formula_sum   'Na15 Ni6 P6 C6 O42'
_cell_volume   919.30178078
_cell_formula_units_Z   3
loop_
 _symmetry_equiv_pos_site_id
 _symmetry_equiv_pos_as_xyz
  1  'x, y, z'
loop_
 _atom_site_type_symbol
 _atom_site_label
 _atom_site_symmetry_multiplicity
 _atom_site_fract_x
 _atom_site_fract_y
 _atom_site_fract_z
 _atom_site_occupancy
  Na  Na0  1  0.08232900  0.77584845  0.41621288  1
  Na  Na1  1  0.26498602  0.25275842  0.67092161  1
  Na  Na2  1  0.26426666  0.25250862  0.82938499  1
  Na  Na3  1  0.26394131  0.25200667  0.00371074  1
  Na  Na4  1  0.25840245  0.24869042  0.16232767  1
  Na  Na5  1  0.26684605  0.25408937  0.33622081  1
  Na  Na6  1  0.27156048  0.25638763  0.49749862  1
  Na  Na7  1  0.73420937  0.74604610  0.99736240  1
  Na  Na8  1  0.73293849  0.74576434  0.66366806  1
  Na  Na9  1  0.73531738  0.74766137  0.32941542  1
  Na  Na10  1  0.72855860  0.74360296  0.50235375  1
  Na  Na11  1  0.73392147  0.74572197  0.83617610  1
  Na  Na12  1  0.74135172  0.75138137  0.17102732  1
  Na  Na13  1  0.91794701  0.22427167  0.58345217  1
  Na  Na14  1  0.91893219  0.22386512  0.91690775  1
  Ni  Ni15  1  0.34823011  0.78068498  0.24940425  1
  Ni  Ni16  1  0.34704535  0.77913672  0.91665951  1
  Ni  Ni17  1  0.34620603  0.77897352  0.58367515  1
  Ni  Ni18  1  0.65176156  0.21923004  0.08392102  1
  Ni  Ni19  1  0.65348812  0.22091426  0.41620165  1
  Ni  Ni20  1  0.65241868  0.21903246  0.75005542  1
  P  P21  1  0.41721551  0.71705104  0.41645001  1
  P  P22  1  0.41849281  0.71935932  0.75025753  1
  P  P23  1  0.41898807  0.71946626  0.08328879  1
  P  P24  1  0.58260086  0.28295179  0.91682942  1
  P  P25  1  0.58269595  0.28285409  0.58341235  1
  P  P26  1  0.58136554  0.28002620  0.24976703  1
  C  C27  1  0.06782656  0.71394060  0.24959808  1
  C  C28  1  0.06368421  0.71369537  0.91670280  1
  C  C29  1  0.06242265  0.71290522  0.58333984  1
  C  C30  1  0.93747997  0.28688459  0.41662243  1
  C  C31  1  0.93207733  0.28613783  0.08372940  1
  C  C32  1  0.93345663  0.28592841  0.75003283  1
  O  O33  1  0.07304267  0.31698526  0.08254491  1
  O  O34  1  0.07433697  0.31834215  0.74989555  1
  O  O35  1  0.08199493  0.31558589  0.41725094  1
  O  O36  1  0.12870215  0.93959642  0.25018826  1
  O  O37  1  0.12119723  0.94027077  0.58227068  1
  O  O38  1  0.12256048  0.94057915  0.91668409  1
  O  O39  1  0.16650943  0.52228962  0.24920752  1
  O  O40  1  0.15601120  0.51423681  0.58378123  1
  O  O41  1  0.15732303  0.51512646  0.91667261  1
  O  O42  1  0.32507414  0.79168387  0.02058847  1
  O  O43  1  0.32497707  0.79187272  0.14575011  1
  O  O44  1  0.32444301  0.79168256  0.81294369  1
  O  O45  1  0.31777154  0.78901609  0.35441152  1
  O  O46  1  0.31805254  0.79037852  0.47824602  1
  O  O47  1  0.32433623  0.79237863  0.68762516  1
  O  O48  1  0.42671050  0.14247317  0.24939426  1
  O  O49  1  0.43096437  0.14197370  0.58387709  1
  O  O50  1  0.43032354  0.14376792  0.91677463  1
  O  O51  1  0.45370819  0.42012458  0.08301773  1
  O  O52  1  0.45047251  0.41994559  0.41676338  1
  O  O53  1  0.45385372  0.42138591  0.75032191  1
  O  O54  1  0.54635306  0.57943484  0.25000907  1
  O  O55  1  0.55008821  0.58045087  0.91676567  1
  O  O56  1  0.54929517  0.57997763  0.58318492  1
  O  O57  1  0.57347116  0.85704518  0.08366169  1
  O  O58  1  0.57237004  0.85854794  0.75017908  1
  O  O59  1  0.56905877  0.85769670  0.41610431  1
  O  O60  1  0.67524074  0.20796157  0.18720519  1
  O  O61  1  0.67515743  0.20770406  0.31238791  1
  O  O62  1  0.68251359  0.21079362  0.64531139  1
  O  O63  1  0.68206211  0.21044326  0.97877100  1
  O  O64  1  0.68183384  0.20997903  0.52158773  1
  O  O65  1  0.68220393  0.20998342  0.85511938  1
  O  O66  1  0.83349352  0.47779939  0.08410901  1
  O  O67  1  0.84385763  0.48547289  0.41617295  1
  O  O68  1  0.83471603  0.47773892  0.75006867  1
  O  O69  1  0.87131019  0.06041352  0.08303886  1
  O  O70  1  0.87883565  0.05952896  0.41773675  1
  O  O71  1  0.87361430  0.06018579  0.75013437  1
  O  O72  1  0.91793705  0.68449966  0.58266358  1
  O  O73  1  0.92688984  0.68310449  0.25087972  1
  O  O74  1  0.91933314  0.68481327  0.91677517  1
