# generated using pymatgen
data_Nd3Pt2
_symmetry_space_group_name_H-M   'P 1'
_cell_length_a   7.70423694
_cell_length_b   7.70423694
_cell_length_c   7.70423689
_cell_angle_alpha   71.75939244
_cell_angle_beta   71.75939244
_cell_angle_gamma   71.75939327
_symmetry_Int_Tables_number   1
_chemical_formula_structural   Nd3Pt2
_chemical_formula_sum   'Nd9 Pt6'
_cell_volume   400.59261157
_cell_formula_units_Z   3
loop_
 _symmetry_equiv_pos_site_id
 _symmetry_equiv_pos_as_xyz
  1  'x, y, z'
loop_
 _atom_site_type_symbol
 _atom_site_label
 _atom_site_symmetry_multiplicity
 _atom_site_fract_x
 _atom_site_fract_y
 _atom_site_fract_z
 _atom_site_occupancy
  Nd  Nd0  1  -0.00000000  0.00000000  0.00000000  1
  Nd  Nd1  1  0.79908074  0.79908074  0.79908074  1
  Nd  Nd2  1  0.20091926  0.20091926  0.20091926  1
  Nd  Nd3  1  0.60578719  0.33486932  0.83560737  1
  Nd  Nd4  1  0.33486932  0.83560737  0.60578719  1
  Nd  Nd5  1  0.83560737  0.60578719  0.33486932  1
  Nd  Nd6  1  0.39421281  0.66513068  0.16439263  1
  Nd  Nd7  1  0.66513068  0.16439263  0.39421281  1
  Nd  Nd8  1  0.16439263  0.39421281  0.66513068  1
  Pt  Pt9  1  0.95827793  0.16247332  0.58965194  1
  Pt  Pt10  1  0.16247332  0.58965194  0.95827793  1
  Pt  Pt11  1  0.58965194  0.95827793  0.16247332  1
  Pt  Pt12  1  0.04172207  0.83752668  0.41034806  1
  Pt  Pt13  1  0.83752668  0.41034806  0.04172207  1
  Pt  Pt14  1  0.41034806  0.04172207  0.83752668  1
