# generated using pymatgen
data_Mg2TaAgO6
_symmetry_space_group_name_H-M   'P 1'
_cell_length_a   5.63892953
_cell_length_b   5.73935713
_cell_length_c   7.40607480
_cell_angle_alpha   90.00000000
_cell_angle_beta   90.00000000
_cell_angle_gamma   76.91713729
_symmetry_Int_Tables_number   1
_chemical_formula_structural   Mg2TaAgO6
_chemical_formula_sum   'Mg4 Ta2 Ag2 O12'
_cell_volume   233.46751388
_cell_formula_units_Z   2
loop_
 _symmetry_equiv_pos_site_id
 _symmetry_equiv_pos_as_xyz
  1  'x, y, z'
loop_
 _atom_site_type_symbol
 _atom_site_label
 _atom_site_symmetry_multiplicity
 _atom_site_fract_x
 _atom_site_fract_y
 _atom_site_fract_z
 _atom_site_occupancy
  Mg  Mg0  1  0.03907381  0.93008223  0.25000000  1
  Mg  Mg1  1  0.53037961  0.45684010  0.25000000  1
  Mg  Mg2  1  0.46962039  0.54315990  0.75000000  1
  Mg  Mg3  1  0.96092619  0.06991777  0.75000000  1
  Ta  Ta4  1  0.00000000  0.50000000  0.00000000  1
  Ta  Ta5  1  0.00000000  0.50000000  0.50000000  1
  Ag  Ag6  1  0.50000000  0.00000000  0.00000000  1
  Ag  Ag7  1  0.50000000  0.00000000  0.50000000  1
  O  O8  1  0.84877362  0.84429515  0.56102393  1
  O  O9  1  0.27891764  0.62664429  0.42674991  1
  O  O10  1  0.15122638  0.15570485  0.43897607  1
  O  O11  1  0.72108236  0.37335571  0.92674991  1
  O  O12  1  0.14703368  0.43885367  0.75000000  1
  O  O13  1  0.72108236  0.37335571  0.57325009  1
  O  O14  1  0.27891764  0.62664429  0.07325009  1
  O  O15  1  0.84877362  0.84429515  0.93897607  1
  O  O16  1  0.63760654  0.09131570  0.25000000  1
  O  O17  1  0.15122638  0.15570485  0.06102393  1
  O  O18  1  0.36239346  0.90868430  0.75000000  1
  O  O19  1  0.85296632  0.56114633  0.25000000  1
