# generated using pymatgen
data_HfCrSi
_symmetry_space_group_name_H-M   'P 1'
_cell_length_a   3.45723901
_cell_length_b   6.73006860
_cell_length_c   7.85571324
_cell_angle_alpha   90.00000000
_cell_angle_beta   90.00000000
_cell_angle_gamma   90.00000000
_symmetry_Int_Tables_number   1
_chemical_formula_structural   HfCrSi
_chemical_formula_sum   'Hf4 Cr4 Si4'
_cell_volume   182.78245983
_cell_formula_units_Z   4
loop_
 _symmetry_equiv_pos_site_id
 _symmetry_equiv_pos_as_xyz
  1  'x, y, z'
loop_
 _atom_site_type_symbol
 _atom_site_label
 _atom_site_symmetry_multiplicity
 _atom_site_fract_x
 _atom_site_fract_y
 _atom_site_fract_z
 _atom_site_occupancy
  Hf  Hf0  1  0.75000000  0.45852536  0.17021966  1
  Hf  Hf1  1  0.75000000  0.95852536  0.32978034  1
  Hf  Hf2  1  0.25000000  0.54147464  0.82978034  1
  Hf  Hf3  1  0.25000000  0.04147464  0.67021966  1
  Cr  Cr4  1  0.75000000  0.37368750  0.56150069  1
  Cr  Cr5  1  0.75000000  0.87368750  0.93849931  1
  Cr  Cr6  1  0.25000000  0.62631250  0.43849931  1
  Cr  Cr7  1  0.25000000  0.12631250  0.06150069  1
  Si  Si8  1  0.75000000  0.23880328  0.86834075  1
  Si  Si9  1  0.75000000  0.73880328  0.63165925  1
  Si  Si10  1  0.25000000  0.76119672  0.13165925  1
  Si  Si11  1  0.25000000  0.26119672  0.36834075  1
