# generated using pymatgen
data_Rb3Na(WO4)2
_symmetry_space_group_name_H-M   'P 1'
_cell_length_a   6.35799398
_cell_length_b   6.35822272
_cell_length_c   8.02292746
_cell_angle_alpha   89.99999999
_cell_angle_beta   90.00444559
_cell_angle_gamma   120.00118683
_symmetry_Int_Tables_number   1
_chemical_formula_structural   Rb3Na(WO4)2
_chemical_formula_sum   'Rb3 Na1 W2 O8'
_cell_volume   280.87568882
_cell_formula_units_Z   1
loop_
 _symmetry_equiv_pos_site_id
 _symmetry_equiv_pos_as_xyz
  1  'x, y, z'
loop_
 _atom_site_type_symbol
 _atom_site_label
 _atom_site_symmetry_multiplicity
 _atom_site_fract_x
 _atom_site_fract_y
 _atom_site_fract_z
 _atom_site_occupancy
  Rb  Rb0  1  -0.00000000  -0.00000000  0.50000000  1
  Rb  Rb1  1  0.33338488  0.66669244  0.83138681  1
  Rb  Rb2  1  0.66661512  0.33330756  0.16861319  1
  Na  Na3  1  -0.00000000  -0.00000000  -0.00000000  1
  W  W4  1  0.33335768  0.66667884  0.27634573  1
  W  W5  1  0.66664232  0.33332116  0.72365427  1
  O  O6  1  0.17850768  0.82152182  0.19537903  1
  O  O7  1  0.17850767  0.35698585  0.19537903  1
  O  O8  1  0.64302895  0.82151448  0.19536449  1
  O  O9  1  0.82149232  0.17847818  0.80462097  1
  O  O10  1  0.82149233  0.64301415  0.80462097  1
  O  O11  1  0.35697105  0.17848552  0.80463551  1
  O  O12  1  0.33339449  0.66669725  0.50135936  1
  O  O13  1  0.66660551  0.33330275  0.49864064  1
