# generated using pymatgen
data_NdSb2
_symmetry_space_group_name_H-M   'P 1'
_cell_length_a   4.43030918
_cell_length_b   4.43030918
_cell_length_c   18.10271774
_cell_angle_alpha   90.00000000
_cell_angle_beta   90.00000000
_cell_angle_gamma   90.67054205
_symmetry_Int_Tables_number   1
_chemical_formula_structural   NdSb2
_chemical_formula_sum   'Nd4 Sb8'
_cell_volume   355.28928404
_cell_formula_units_Z   4
loop_
 _symmetry_equiv_pos_site_id
 _symmetry_equiv_pos_as_xyz
  1  'x, y, z'
loop_
 _atom_site_type_symbol
 _atom_site_label
 _atom_site_symmetry_multiplicity
 _atom_site_fract_x
 _atom_site_fract_y
 _atom_site_fract_z
 _atom_site_occupancy
  Nd  Nd0  1  0.36369391  0.36369391  0.88913910  1
  Nd  Nd1  1  0.63630609  0.63630609  0.11086090  1
  Nd  Nd2  1  0.13630609  0.13630609  0.38913910  1
  Nd  Nd3  1  0.86369391  0.86369391  0.61086090  1
  Sb  Sb4  1  0.36700899  0.36700899  0.56383737  1
  Sb  Sb5  1  0.63299101  0.63299101  0.43616263  1
  Sb  Sb6  1  0.13299101  0.13299101  0.06383737  1
  Sb  Sb7  1  0.86700899  0.86700899  0.93616263  1
  Sb  Sb8  1  0.87368330  0.37368330  0.75000000  1
  Sb  Sb9  1  0.62631670  0.12631670  0.25000000  1
  Sb  Sb10  1  0.12631670  0.62631670  0.25000000  1
  Sb  Sb11  1  0.37368330  0.87368330  0.75000000  1
