# generated using pymatgen
data_Ba2Eu3Si7
_symmetry_space_group_name_H-M   'P 1'
_cell_length_a   4.13342497
_cell_length_b   9.32484798
_cell_length_c   9.32473318
_cell_angle_alpha   120.00040336
_cell_angle_beta   90.00000000
_cell_angle_gamma   90.00000000
_symmetry_Int_Tables_number   1
_chemical_formula_structural   Ba2Eu3Si7
_chemical_formula_sum   'Ba2 Eu3 Si7'
_cell_volume   311.25554661
_cell_formula_units_Z   1
loop_
 _symmetry_equiv_pos_site_id
 _symmetry_equiv_pos_as_xyz
  1  'x, y, z'
loop_
 _atom_site_type_symbol
 _atom_site_label
 _atom_site_symmetry_multiplicity
 _atom_site_fract_x
 _atom_site_fract_y
 _atom_site_fract_z
 _atom_site_occupancy
  Ba  Ba0  1  0.00000000  0.33335279  0.66676731  1
  Ba  Ba1  1  0.00000000  0.66658548  0.33323269  1
  Eu  Eu2  1  0.50000000  0.25173971  0.00000000  1
  Eu  Eu3  1  0.50000000  0.74834756  0.74835081  1
  Eu  Eu4  1  0.50000000  0.99999674  0.25164919  1
  Si  Si5  1  0.00000000  0.00002040  0.00000000  1
  Si  Si6  1  0.00000000  0.74223049  1.00000000  1
  Si  Si7  1  0.00000000  0.25776767  0.25774415  1
  Si  Si8  1  0.00000000  0.00002352  0.74225585  1
  Si  Si9  1  0.50000000  0.60044457  1.00000000  1
  Si  Si10  1  0.50000000  0.39948407  0.39957709  1
  Si  Si11  1  0.50000000  0.99990699  0.60042291  1
