# generated using pymatgen
data_Tb3Ga8Rh3
_symmetry_space_group_name_H-M   'P 1'
_cell_length_a   4.23663602
_cell_length_b   8.18988057
_cell_length_c   8.18988057
_cell_angle_alpha   74.32458333
_cell_angle_beta   75.00998789
_cell_angle_gamma   75.00998789
_symmetry_Int_Tables_number   1
_chemical_formula_structural   Tb3Ga8Rh3
_chemical_formula_sum   'Tb3 Ga8 Rh3'
_cell_volume   258.78858487
_cell_formula_units_Z   1
loop_
 _symmetry_equiv_pos_site_id
 _symmetry_equiv_pos_as_xyz
  1  'x, y, z'
loop_
 _atom_site_type_symbol
 _atom_site_label
 _atom_site_symmetry_multiplicity
 _atom_site_fract_x
 _atom_site_fract_y
 _atom_site_fract_z
 _atom_site_occupancy
  Tb  Tb0  1  0.50000000  0.50000000  0.50000000  1
  Tb  Tb1  1  0.17274129  0.82725871  0.82725871  1
  Tb  Tb2  1  0.82725871  0.17274129  0.17274129  1
  Ga  Ga3  1  0.37667910  0.33972072  0.90692108  1
  Ga  Ga4  1  0.62332090  0.66027928  0.09307892  1
  Ga  Ga5  1  0.37667910  0.90692108  0.33972072  1
  Ga  Ga6  1  0.62332090  0.09307892  0.66027928  1
  Ga  Ga7  1  0.16680826  0.46320160  0.20318187  1
  Ga  Ga8  1  0.83319174  0.53679840  0.79681813  1
  Ga  Ga9  1  0.16680826  0.20318187  0.46320160  1
  Ga  Ga10  1  0.83319174  0.79681813  0.53679840  1
  Rh  Rh11  1  0.50000000  0.00000000  -0.00000000  1
  Rh  Rh12  1  -0.00000000  0.78227250  0.21772750  1
  Rh  Rh13  1  -0.00000000  0.21772750  0.78227250  1
