# generated using pymatgen
data_B3Rh7
_symmetry_space_group_name_H-M   'P 1'
_cell_length_a   4.89047117
_cell_length_b   7.51808207
_cell_length_c   7.51808207
_cell_angle_alpha   120.02945588
_cell_angle_beta   90.00000000
_cell_angle_gamma   90.00000000
_symmetry_Int_Tables_number   1
_chemical_formula_structural   B3Rh7
_chemical_formula_sum   'B6 Rh14'
_cell_volume   239.31310234
_cell_formula_units_Z   2
loop_
 _symmetry_equiv_pos_site_id
 _symmetry_equiv_pos_as_xyz
  1  'x, y, z'
loop_
 _atom_site_type_symbol
 _atom_site_label
 _atom_site_symmetry_multiplicity
 _atom_site_fract_x
 _atom_site_fract_y
 _atom_site_fract_z
 _atom_site_occupancy
  B  B0  1  0.16538856  0.81160654  0.18839346  1
  B  B1  1  0.16554068  0.37673251  0.18835933  1
  B  B2  1  0.16554068  0.81164067  0.62326749  1
  B  B3  1  0.66538856  0.18839346  0.81160654  1
  B  B4  1  0.66554068  0.62326749  0.81164067  1
  B  B5  1  0.66554068  0.18835933  0.37673251  1
  Rh  Rh6  1  0.42227226  0.33332187  0.66667813  1
  Rh  Rh7  1  0.92227226  0.66667813  0.33332187  1
  Rh  Rh8  1  0.27582813  0.12278580  0.87721420  1
  Rh  Rh9  1  0.27558608  0.75422570  0.87710266  1
  Rh  Rh10  1  0.27558608  0.12289734  0.24577430  1
  Rh  Rh11  1  0.77582813  0.87721420  0.12278580  1
  Rh  Rh12  1  0.77558608  0.24577430  0.12289734  1
  Rh  Rh13  1  0.77558608  0.87710266  0.75422570  1
  Rh  Rh14  1  0.41418637  0.54412320  0.45587680  1
  Rh  Rh15  1  0.41403558  0.91179692  0.45593581  1
  Rh  Rh16  1  0.41403558  0.54406419  0.08820308  1
  Rh  Rh17  1  0.91418637  0.45587680  0.54412320  1
  Rh  Rh18  1  0.91403558  0.08820308  0.54406419  1
  Rh  Rh19  1  0.91403558  0.45593581  0.91179692  1
