# generated using pymatgen
data_Ca2TaSnO6
_symmetry_space_group_name_H-M   'P 1'
_cell_length_a   5.66943638
_cell_length_b   5.90241911
_cell_length_c   7.98698881
_cell_angle_alpha   90.00000000
_cell_angle_beta   90.00000000
_cell_angle_gamma   89.68440819
_symmetry_Int_Tables_number   1
_chemical_formula_structural   Ca2TaSnO6
_chemical_formula_sum   'Ca4 Ta2 Sn2 O12'
_cell_volume   267.26766421
_cell_formula_units_Z   2
loop_
 _symmetry_equiv_pos_site_id
 _symmetry_equiv_pos_as_xyz
  1  'x, y, z'
loop_
 _atom_site_type_symbol
 _atom_site_label
 _atom_site_symmetry_multiplicity
 _atom_site_fract_x
 _atom_site_fract_y
 _atom_site_fract_z
 _atom_site_occupancy
  Ca  Ca0  1  0.01070430  0.94888491  0.25000000  1
  Ca  Ca1  1  0.48687312  0.44283822  0.25000000  1
  Ca  Ca2  1  0.51312688  0.55716178  0.75000000  1
  Ca  Ca3  1  0.98929570  0.05111509  0.75000000  1
  Ta  Ta4  1  0.00000000  0.50000000  0.00000000  1
  Ta  Ta5  1  0.00000000  0.50000000  0.50000000  1
  Sn  Sn6  1  0.50000000  0.00000000  0.00000000  1
  Sn  Sn7  1  0.50000000  0.00000000  0.50000000  1
  O  O8  1  0.83052811  0.78660983  0.55795968  1
  O  O9  1  0.28923718  0.67471924  0.44355384  1
  O  O10  1  0.16947189  0.21339017  0.44204032  1
  O  O11  1  0.71076282  0.32528076  0.94355384  1
  O  O12  1  0.10450430  0.45933098  0.75000000  1
  O  O13  1  0.71076282  0.32528076  0.55644616  1
  O  O14  1  0.28923718  0.67471924  0.05644616  1
  O  O15  1  0.83052811  0.78660983  0.94204032  1
  O  O16  1  0.60785396  0.04346432  0.25000000  1
  O  O17  1  0.16947189  0.21339017  0.05795968  1
  O  O18  1  0.39214604  0.95653568  0.75000000  1
  O  O19  1  0.89549570  0.54066902  0.25000000  1
