# generated using pymatgen
data_Th5Bi3
_symmetry_space_group_name_H-M   'P 1'
_cell_length_a   6.56107865
_cell_length_b   9.54489873
_cell_length_c   9.53926895
_cell_angle_alpha   120.01952779
_cell_angle_beta   90.00000000
_cell_angle_gamma   90.00000000
_symmetry_Int_Tables_number   1
_chemical_formula_structural   Th5Bi3
_chemical_formula_sum   'Th10 Bi6'
_cell_volume   517.25750673
_cell_formula_units_Z   2
loop_
 _symmetry_equiv_pos_site_id
 _symmetry_equiv_pos_as_xyz
  1  'x, y, z'
loop_
 _atom_site_type_symbol
 _atom_site_label
 _atom_site_symmetry_multiplicity
 _atom_site_fract_x
 _atom_site_fract_y
 _atom_site_fract_z
 _atom_site_occupancy
  Th  Th0  1  0.49999986  0.33329548  0.66662303  1
  Th  Th1  1  0.49999986  0.66667245  0.33337697  1
  Th  Th2  1  -0.00000014  0.66670452  0.33337697  1
  Th  Th3  1  -0.00000014  0.33332755  0.66662303  1
  Th  Th4  1  0.74999288  0.25249960  0.00000000  1
  Th  Th5  1  0.75000375  0.74769942  0.74772023  1
  Th  Th6  1  0.75000375  0.99997919  0.25227977  1
  Th  Th7  1  0.24999288  0.74750040  1.00000000  1
  Th  Th8  1  0.25000375  0.25230058  0.25227977  1
  Th  Th9  1  0.25000375  0.00002081  0.74772023  1
  Bi  Bi10  1  0.74999113  0.61099984  0.00000000  1
  Bi  Bi11  1  0.75000438  0.38897435  0.38896481  1
  Bi  Bi12  1  0.75000438  0.00000954  0.61103519  1
  Bi  Bi13  1  0.24999113  0.38900016  1.00000000  1
  Bi  Bi14  1  0.25000438  0.61102565  0.61103519  1
  Bi  Bi15  1  0.25000438  0.99999046  0.38896481  1
