# generated using pymatgen
data_Sr2InOsO6
_symmetry_space_group_name_H-M   'P 1'
_cell_length_a   5.76927316
_cell_length_b   5.79113396
_cell_length_c   8.16229526
_cell_angle_alpha   90.00000000
_cell_angle_beta   90.23616585
_cell_angle_gamma   90.00000000
_symmetry_Int_Tables_number   1
_chemical_formula_structural   Sr2InOsO6
_chemical_formula_sum   'Sr4 In2 Os2 O12'
_cell_volume   272.70514046
_cell_formula_units_Z   2
loop_
 _symmetry_equiv_pos_site_id
 _symmetry_equiv_pos_as_xyz
  1  'x, y, z'
loop_
 _atom_site_type_symbol
 _atom_site_label
 _atom_site_symmetry_multiplicity
 _atom_site_fract_x
 _atom_site_fract_y
 _atom_site_fract_z
 _atom_site_occupancy
  Sr  Sr0  1  0.50577864  0.96664436  0.24933886  1
  Sr  Sr1  1  0.00577864  0.53335564  0.74933886  1
  Sr  Sr2  1  0.49422136  0.03335564  0.75066114  1
  Sr  Sr3  1  0.99422136  0.46664436  0.25066114  1
  In  In4  1  0.50000000  0.50000000  0.50000000  1
  In  In5  1  0.00000000  -0.00000000  0.00000000  1
  Os  Os6  1  0.00000000  -0.00000000  0.50000000  1
  Os  Os7  1  0.50000000  0.50000000  0.00000000  1
  O  O8  1  0.42738514  0.51529299  0.23817007  1
  O  O9  1  0.92738514  0.98470701  0.73817007  1
  O  O10  1  0.57261486  0.48470701  0.76182993  1
  O  O11  1  0.07261486  0.01529299  0.26182993  1
  O  O12  1  0.27607294  0.79888920  0.53798839  1
  O  O13  1  0.77607294  0.70111080  0.03798839  1
  O  O14  1  0.72392706  0.20111080  0.46201161  1
  O  O15  1  0.22392706  0.29888920  0.96201161  1
  O  O16  1  0.19895823  0.27716505  0.53798467  1
  O  O17  1  0.69895823  0.22283495  0.03798467  1
  O  O18  1  0.80104177  0.72283495  0.46201533  1
  O  O19  1  0.30104177  0.77716505  0.96201533  1
