# generated using pymatgen
data_NaTiF4
_symmetry_space_group_name_H-M   'P 1'
_cell_length_a   5.46626946
_cell_length_b   7.68947881
_cell_length_c   8.10829213
_cell_angle_alpha   101.47475682
_cell_angle_beta   90.06019447
_cell_angle_gamma   89.96351826
_symmetry_Int_Tables_number   1
_chemical_formula_structural   NaTiF4
_chemical_formula_sum   'Na4 Ti4 F16'
_cell_volume   334.00167033
_cell_formula_units_Z   4
loop_
 _symmetry_equiv_pos_site_id
 _symmetry_equiv_pos_as_xyz
  1  'x, y, z'
loop_
 _atom_site_type_symbol
 _atom_site_label
 _atom_site_symmetry_multiplicity
 _atom_site_fract_x
 _atom_site_fract_y
 _atom_site_fract_z
 _atom_site_occupancy
  Na  Na0  1  0.78027821  0.11128271  0.36499976  1
  Na  Na1  1  0.28017938  0.38870216  0.63495999  1
  Na  Na2  1  0.21972179  0.88871729  0.63500024  1
  Na  Na3  1  0.71982062  0.61129784  0.36504001  1
  Ti  Ti4  1  0.25729202  0.29885899  0.16985091  1
  Ti  Ti5  1  0.75761300  0.20115628  0.83029194  1
  Ti  Ti6  1  0.74270798  0.70114101  0.83014909  1
  Ti  Ti7  1  0.24238700  0.79884372  0.16970806  1
  F  F8  1  0.52253541  0.87571975  0.31049759  1
  F  F9  1  0.02212224  0.62439229  0.68979027  1
  F  F10  1  0.47746459  0.12428025  0.68950241  1
  F  F11  1  0.97787776  0.37560771  0.31020973  1
  F  F12  1  0.04253978  0.81202628  0.37169744  1
  F  F13  1  0.54223297  0.68801127  0.62795150  1
  F  F14  1  0.95746022  0.18797372  0.62830256  1
  F  F15  1  0.45776703  0.31198873  0.37204850  1
  F  F16  1  0.14419179  0.04960203  0.16954927  1
  F  F17  1  0.64420897  0.45042584  0.83041659  1
  F  F18  1  0.85580821  0.95039797  0.83045073  1
  F  F19  1  0.35579103  0.54957416  0.16958341  1
  F  F20  1  0.56152422  0.20666698  0.03916830  1
  F  F21  1  0.06154129  0.29348019  0.96083870  1
  F  F22  1  0.43847578  0.79333302  0.96083170  1
  F  F23  1  0.93845871  0.70651981  0.03916130  1
