# generated using pymatgen
data_Cs2NdAgI6
_symmetry_space_group_name_H-M   'P 1'
_cell_length_a   8.72733562
_cell_length_b   8.72733613
_cell_length_c   8.72733611
_cell_angle_alpha   59.99999853
_cell_angle_beta   59.99999784
_cell_angle_gamma   59.99999792
_symmetry_Int_Tables_number   1
_chemical_formula_structural   Cs2NdAgI6
_chemical_formula_sum   'Cs2 Nd1 Ag1 I6'
_cell_volume   470.03485718
_cell_formula_units_Z   1
loop_
 _symmetry_equiv_pos_site_id
 _symmetry_equiv_pos_as_xyz
  1  'x, y, z'
loop_
 _atom_site_type_symbol
 _atom_site_label
 _atom_site_symmetry_multiplicity
 _atom_site_fract_x
 _atom_site_fract_y
 _atom_site_fract_z
 _atom_site_occupancy
  Cs  Cs0  1  0.25000000  0.25000000  0.25000000  1
  Cs  Cs1  1  0.75000000  0.75000000  0.75000000  1
  Nd  Nd2  1  0.50000000  0.50000000  0.50000000  1
  Ag  Ag3  1  -0.00000000  0.00000000  0.00000000  1
  I  I4  1  0.24762332  0.75237668  0.24762332  1
  I  I5  1  0.75237668  0.75237668  0.24762332  1
  I  I6  1  0.75237668  0.24762332  0.75237668  1
  I  I7  1  0.75237668  0.24762332  0.24762332  1
  I  I8  1  0.24762332  0.75237668  0.75237668  1
  I  I9  1  0.24762332  0.24762332  0.75237668  1
