# generated using pymatgen
data_Na2V2F7
_symmetry_space_group_name_H-M   'P 1'
_cell_length_a   7.49885189
_cell_length_b   7.49885189
_cell_length_c   25.12568416
_cell_angle_alpha   89.74845283
_cell_angle_beta   98.93709341
_cell_angle_gamma   119.61661425
_symmetry_Int_Tables_number   1
_chemical_formula_structural   Na2V2F7
_chemical_formula_sum   'Na16 V16 F56'
_cell_volume   1209.06611747
_cell_formula_units_Z   8
loop_
 _symmetry_equiv_pos_site_id
 _symmetry_equiv_pos_as_xyz
  1  'x, y, z'
loop_
 _atom_site_type_symbol
 _atom_site_label
 _atom_site_symmetry_multiplicity
 _atom_site_fract_x
 _atom_site_fract_y
 _atom_site_fract_z
 _atom_site_occupancy
  Na  Na0  1  -0.00000000  -0.00000000  0.00000000  1
  Na  Na1  1  0.50000000  -0.00000000  0.50000000  1
  Na  Na2  1  0.50000000  0.50000000  0.00000000  1
  Na  Na3  1  -0.00000000  0.50000000  0.50000000  1
  Na  Na4  1  -0.00000000  -0.00000000  0.50000000  1
  Na  Na5  1  -0.00000000  0.50000000  0.00000000  1
  Na  Na6  1  0.46395100  0.21395100  0.25000000  1
  Na  Na7  1  0.53604900  0.78604900  0.75000000  1
  Na  Na8  1  0.95738459  0.21014065  0.25280463  1
  Na  Na9  1  0.04261541  0.78985935  0.74719537  1
  Na  Na10  1  0.45733602  0.70457996  0.24719537  1
  Na  Na11  1  0.54266398  0.29542004  0.75280463  1
  Na  Na12  1  0.23951971  0.86540464  0.12171594  1
  Na  Na13  1  0.76048029  0.13459536  0.87828406  1
  Na  Na14  1  0.24368870  0.11780378  0.37828406  1
  Na  Na15  1  0.75631130  0.88219622  0.62171594  1
  V  V16  1  0.50000000  -0.00000000  0.00000000  1
  V  V17  1  0.50000000  0.50000000  0.50000000  1
  V  V18  1  0.00336851  0.75336851  0.25000000  1
  V  V19  1  0.99663149  0.24663149  0.75000000  1
  V  V20  1  0.23733427  0.36447598  0.12568765  1
  V  V21  1  0.76266573  0.63552402  0.87431235  1
  V  V22  1  0.73878833  0.11164662  0.37431235  1
  V  V23  1  0.26121167  0.88835338  0.62568765  1
  V  V24  1  0.74245513  0.36899983  0.12782631  1
  V  V25  1  0.25754487  0.63100017  0.87217369  1
  V  V26  1  0.74117352  0.61462882  0.37217369  1
  V  V27  1  0.25882648  0.38537118  0.62782631  1
  V  V28  1  0.73890447  0.86630420  0.12601099  1
  V  V29  1  0.26109553  0.13369580  0.87398901  1
  V  V30  1  0.24029321  0.61289348  0.37398901  1
  V  V31  1  0.75970679  0.38710652  0.62601099  1
  F  F32  1  0.63080766  0.26028060  0.04683030  1
  F  F33  1  0.36919234  0.73971940  0.95316970  1
  F  F34  1  0.71345030  0.58397736  0.45316970  1
  F  F35  1  0.28654970  0.41602264  0.54683030  1
  F  F36  1  0.84357187  0.47355885  0.20963998  1
  F  F37  1  0.15642813  0.52644115  0.79036002  1
  F  F38  1  0.76391888  0.63393189  0.29036002  1
  F  F39  1  0.23608112  0.36606811  0.70963998  1
  F  F40  1  0.44350010  0.27172841  0.14325738  1
  F  F41  1  0.55649990  0.72827159  0.85674262  1
  F  F42  1  0.62847104  0.30024273  0.35674262  1
  F  F43  1  0.37152896  0.69975727  0.64325738  1
  F  F44  1  0.03634511  0.46413758  0.10936086  1
  F  F45  1  0.96365489  0.53586242  0.89063914  1
  F  F46  1  0.85477672  0.92698425  0.39063914  1
  F  F47  1  0.14522328  0.07301575  0.60936086  1
  F  F48  1  0.62551156  0.86024140  0.04516766  1
  F  F49  1  0.37448844  0.13975860  0.95483234  1
  F  F50  1  0.31507374  0.58034390  0.45483234  1
  F  F51  1  0.68492626  0.41965610  0.54516766  1
  F  F52  1  0.84441942  0.86386776  0.20703009  1
  F  F53  1  0.15558058  0.13613224  0.79296991  1
  F  F54  1  0.15683767  0.63738934  0.29296991  1
  F  F55  1  0.84316233  0.36261066  0.70703009  1
  F  F56  1  0.03218729  0.06642222  0.10777216  1
  F  F57  1  0.96781271  0.93357778  0.89222784  1
  F  F58  1  0.45865005  0.92441513  0.39222784  1
  F  F59  1  0.54134995  0.07558487  0.60777216  1
  F  F60  1  0.44347704  0.66274451  0.14307291  1
  F  F61  1  0.55652296  0.33725549  0.85692709  1
  F  F62  1  0.01967160  0.30040413  0.35692709  1
  F  F63  1  0.98032840  0.69959587  0.64307291  1
  F  F64  1  0.68575235  0.08939805  0.15610812  1
  F  F65  1  0.31424765  0.91060195  0.84389188  1
  F  F66  1  0.43328993  0.52964423  0.34389188  1
  F  F67  1  0.56671007  0.47035577  0.65610812  1
  F  F68  1  0.79707113  0.64548643  0.09761285  1
  F  F69  1  0.20292887  0.35451357  0.90238715  1
  F  F70  1  0.04787358  0.69945828  0.40238715  1
  F  F71  1  0.95212642  0.30054172  0.59761285  1
  F  F72  1  0.23921043  0.87002967  0.03193717  1
  F  F73  1  0.76078957  0.12997033  0.96806283  1
  F  F74  1  0.33809250  0.20727326  0.46806283  1
  F  F75  1  0.66190750  0.79272674  0.53193717  1
  F  F76  1  0.15636298  0.02741559  0.29120885  1
  F  F77  1  0.84363702  0.97258441  0.70879115  1
  F  F78  1  0.23620673  0.86515413  0.20879115  1
  F  F79  1  0.76379327  0.13484587  0.79120885  1
  F  F80  1  0.23128322  0.35993543  0.20511612  1
  F  F81  1  0.76871678  0.64006457  0.79488388  1
  F  F82  1  0.65481931  0.02616710  0.29488388  1
  F  F83  1  0.34518069  0.97383290  0.70511612  1
  F  F84  1  0.23493597  0.36527538  0.04564667  1
  F  F85  1  0.76506403  0.63472462  0.95435333  1
  F  F86  1  0.81962871  0.18928931  0.45435333  1
  F  F87  1  0.18037129  0.81071069  0.54564667  1
