# generated using pymatgen
data_Li10Zn(PS4)4
_symmetry_space_group_name_H-M   'P 1'
_cell_length_a   6.15632176
_cell_length_b   7.91832897
_cell_length_c   12.99650766
_cell_angle_alpha   90.50355548
_cell_angle_beta   89.60382893
_cell_angle_gamma   89.88790316
_symmetry_Int_Tables_number   1
_chemical_formula_structural   Li10Zn(PS4)4
_chemical_formula_sum   'Li10 Zn1 P4 S16'
_cell_volume   633.51000774
_cell_formula_units_Z   1
loop_
 _symmetry_equiv_pos_site_id
 _symmetry_equiv_pos_as_xyz
  1  'x, y, z'
loop_
 _atom_site_type_symbol
 _atom_site_label
 _atom_site_symmetry_multiplicity
 _atom_site_fract_x
 _atom_site_fract_y
 _atom_site_fract_z
 _atom_site_occupancy
  Li  Li0  1  0.00193605  0.74585089  0.16243804  1
  Li  Li1  1  0.50108281  0.73673407  0.34760342  1
  Li  Li2  1  0.50899897  0.74010187  0.84914567  1
  Li  Li3  1  0.50193489  0.25409309  0.34808889  1
  Li  Li4  1  0.50297386  0.25077894  0.84112065  1
  Li  Li5  1  0.00734461  0.23955195  0.16652498  1
  Li  Li6  1  0.93682200  0.32651594  0.51718759  1
  Li  Li7  1  0.51082955  0.99502482  0.07821818  1
  Li  Li8  1  0.51315931  0.02260348  0.58257972  1
  Li  Li9  1  0.01520857  0.47784477  0.92223035  1
  Zn  Zn10  1  0.01158492  0.76299533  0.65864832  1
  P  P11  1  0.00166624  0.98377022  0.41225631  1
  P  P12  1  0.00178403  0.00143005  0.91045066  1
  P  P13  1  0.49952143  0.49379282  0.09292393  1
  P  P14  1  0.51323913  0.50758228  0.59767848  1
  S  S15  1  0.10823661  0.99101960  0.06048574  1
  S  S16  1  0.10121558  0.00786235  0.56706459  1
  S  S17  1  0.66488364  0.99374643  0.40937279  1
  S  S18  1  0.66692367  0.99880505  0.90662863  1
  S  S19  1  0.10639298  0.76907732  0.34503232  1
  S  S20  1  0.11054840  0.77648069  0.83758164  1
  S  S21  1  0.60572722  0.71029445  0.16580731  1
  S  S22  1  0.62263337  0.73383853  0.66677060  1
  S  S23  1  0.16489862  0.49137399  0.09531799  1
  S  S24  1  0.18088321  0.50018848  0.62691426  1
  S  S25  1  0.61748109  0.50075822  0.44874455  1
  S  S26  1  0.61256898  0.49228991  0.94331540  1
  S  S27  1  0.60932040  0.28017863  0.16641248  1
  S  S28  1  0.65289651  0.30424497  0.66611853  1
  S  S29  1  0.10622438  0.20909218  0.35232714  1
  S  S30  1  0.11059497  0.20207968  0.83068584  1
