# generated using pymatgen
data_Mg3Cu2(GeO4)3
_symmetry_space_group_name_H-M   'P 1'
_cell_length_a   10.38337766
_cell_length_b   10.38337715
_cell_length_c   10.38337727
_cell_angle_alpha   109.47122089
_cell_angle_beta   109.47121990
_cell_angle_gamma   109.47121991
_symmetry_Int_Tables_number   1
_chemical_formula_structural   Mg3Cu2(GeO4)3
_chemical_formula_sum   'Mg12 Cu8 Ge12 O48'
_cell_volume   861.77527317
_cell_formula_units_Z   4
loop_
 _symmetry_equiv_pos_site_id
 _symmetry_equiv_pos_as_xyz
  1  'x, y, z'
loop_
 _atom_site_type_symbol
 _atom_site_label
 _atom_site_symmetry_multiplicity
 _atom_site_fract_x
 _atom_site_fract_y
 _atom_site_fract_z
 _atom_site_occupancy
  Mg  Mg0  1  0.62500000  0.25000000  0.87500000  1
  Mg  Mg1  1  0.87500000  0.75000000  0.62500000  1
  Mg  Mg2  1  0.75000000  0.62500000  0.87500000  1
  Mg  Mg3  1  0.25000000  0.87500000  0.62500000  1
  Mg  Mg4  1  0.87500000  0.62500000  0.25000000  1
  Mg  Mg5  1  0.62500000  0.87500000  0.75000000  1
  Mg  Mg6  1  0.37500000  0.75000000  0.12500000  1
  Mg  Mg7  1  0.12500000  0.25000000  0.37500000  1
  Mg  Mg8  1  0.25000000  0.37500000  0.12500000  1
  Mg  Mg9  1  0.75000000  0.12500000  0.37500000  1
  Mg  Mg10  1  0.12500000  0.37500000  0.75000000  1
  Mg  Mg11  1  0.37500000  0.12500000  0.25000000  1
  Cu  Cu12  1  0.50000000  0.50000000  0.50000000  1
  Cu  Cu13  1  0.50000000  0.50000000  0.00000000  1
  Cu  Cu14  1  0.50000000  0.00000000  0.50000000  1
  Cu  Cu15  1  0.00000000  0.50000000  0.50000000  1
  Cu  Cu16  1  0.50000000  0.00000000  0.00000000  1
  Cu  Cu17  1  0.00000000  0.00000000  0.50000000  1
  Cu  Cu18  1  0.00000000  0.50000000  0.00000000  1
  Cu  Cu19  1  0.00000000  0.00000000  0.00000000  1
  Ge  Ge20  1  0.87500000  0.12500000  0.75000000  1
  Ge  Ge21  1  0.12500000  0.87500000  0.25000000  1
  Ge  Ge22  1  0.25000000  0.62500000  0.37500000  1
  Ge  Ge23  1  0.12500000  0.75000000  0.87500000  1
  Ge  Ge24  1  0.75000000  0.87500000  0.12500000  1
  Ge  Ge25  1  0.37500000  0.25000000  0.62500000  1
  Ge  Ge26  1  0.62500000  0.75000000  0.37500000  1
  Ge  Ge27  1  0.87500000  0.25000000  0.12500000  1
  Ge  Ge28  1  0.25000000  0.12500000  0.87500000  1
  Ge  Ge29  1  0.75000000  0.37500000  0.62500000  1
  Ge  Ge30  1  0.37500000  0.62500000  0.75000000  1
  Ge  Ge31  1  0.62500000  0.37500000  0.25000000  1
  O  O32  1  0.78955770  0.41848998  0.81925303  1
  O  O33  1  0.08151002  0.87106772  0.40076305  1
  O  O34  1  0.68074697  0.09923695  0.97030367  1
  O  O35  1  0.71044230  0.52969633  0.62893228  1
  O  O36  1  0.71044230  0.68074697  0.08151002  1
  O  O37  1  0.52969633  0.62893228  0.71044230  1
  O  O38  1  0.09923695  0.62893228  0.41848998  1
  O  O39  1  0.62893228  0.71044230  0.52969633  1
  O  O40  1  0.40076305  0.81925303  0.52969633  1
  O  O41  1  0.87106772  0.97030367  0.78955770  1
  O  O42  1  0.97030367  0.78955770  0.87106772  1
  O  O43  1  0.08151002  0.71044230  0.68074697  1
  O  O44  1  0.62893228  0.41848998  0.09923695  1
  O  O45  1  0.52969633  0.40076305  0.81925303  1
  O  O46  1  0.68074697  0.08151002  0.71044230  1
  O  O47  1  0.41848998  0.09923695  0.62893228  1
  O  O48  1  0.81925303  0.52969633  0.40076305  1
  O  O49  1  0.40076305  0.08151002  0.87106772  1
  O  O50  1  0.09923695  0.97030367  0.68074697  1
  O  O51  1  0.59923695  0.18074697  0.47030367  1
  O  O52  1  0.97030367  0.68074697  0.09923695  1
  O  O53  1  0.81925303  0.78955770  0.41848998  1
  O  O54  1  0.87106772  0.40076305  0.08151002  1
  O  O55  1  0.78955770  0.87106772  0.97030367  1
  O  O56  1  0.21044230  0.58151002  0.18074697  1
  O  O57  1  0.91848998  0.12893228  0.59923695  1
  O  O58  1  0.31925303  0.90076305  0.02969633  1
  O  O59  1  0.28955770  0.47030367  0.37106772  1
  O  O60  1  0.28955770  0.31925303  0.91848998  1
  O  O61  1  0.47030367  0.37106772  0.28955770  1
  O  O62  1  0.90076305  0.37106772  0.58151002  1
  O  O63  1  0.37106772  0.28955770  0.47030367  1
  O  O64  1  0.21044230  0.12893228  0.02969633  1
  O  O65  1  0.12893228  0.59923695  0.91848998  1
  O  O66  1  0.18074697  0.21044230  0.58151002  1
  O  O67  1  0.58151002  0.18074697  0.21044230  1
  O  O68  1  0.02969633  0.31925303  0.90076305  1
  O  O69  1  0.90076305  0.02969633  0.31925303  1
  O  O70  1  0.59923695  0.91848998  0.12893228  1
  O  O71  1  0.18074697  0.47030367  0.59923695  1
  O  O72  1  0.58151002  0.90076305  0.37106772  1
  O  O73  1  0.31925303  0.91848998  0.28955770  1
  O  O74  1  0.47030367  0.59923695  0.18074697  1
  O  O75  1  0.37106772  0.58151002  0.90076305  1
  O  O76  1  0.91848998  0.28955770  0.31925303  1
  O  O77  1  0.02969633  0.21044230  0.12893228  1
  O  O78  1  0.12893228  0.02969633  0.21044230  1
  O  O79  1  0.41848998  0.81925303  0.78955770  1
