# generated using pymatgen
data_Li10Zn(PS4)4
_symmetry_space_group_name_H-M   'P 1'
_cell_length_a   6.52867964
_cell_length_b   7.77066522
_cell_length_c   12.36669875
_cell_angle_alpha   90.20282469
_cell_angle_beta   90.08722176
_cell_angle_gamma   89.44664343
_symmetry_Int_Tables_number   1
_chemical_formula_structural   Li10Zn(PS4)4
_chemical_formula_sum   'Li10 Zn1 P4 S16'
_cell_volume   627.35574873
_cell_formula_units_Z   1
loop_
 _symmetry_equiv_pos_site_id
 _symmetry_equiv_pos_as_xyz
  1  'x, y, z'
loop_
 _atom_site_type_symbol
 _atom_site_label
 _atom_site_symmetry_multiplicity
 _atom_site_fract_x
 _atom_site_fract_y
 _atom_site_fract_z
 _atom_site_occupancy
  Li  Li0  1  0.68630602  0.76436624  0.99854054  1
  Li  Li1  1  0.31154063  0.74706922  0.74944445  1
  Li  Li2  1  0.32190483  0.73996118  0.24820338  1
  Li  Li3  1  0.31380346  0.25617802  0.74810842  1
  Li  Li4  1  0.32795439  0.25086120  0.25503375  1
  Li  Li5  1  0.68502194  0.25056029  0.00270887  1
  Li  Li6  1  0.84810004  0.01340279  0.75204932  1
  Li  Li7  1  0.85191665  0.02140544  0.26074095  1
  Li  Li8  1  0.13965143  0.46454831  0.50324951  1
  Li  Li9  1  0.14235035  0.50074459  0.00543617  1
  Zn  Zn10  1  0.69352210  0.74663688  0.50170171  1
  P  P11  1  0.18468926  0.98868346  0.49843105  1
  P  P12  1  0.18061128  0.00281850  0.00158357  1
  P  P13  1  0.81265604  0.50873426  0.74883449  1
  P  P14  1  0.82266626  0.49866526  0.25457486  1
  S  S15  1  0.88188325  0.99301820  0.55128467  1
  S  S16  1  0.88486670  0.00529278  0.05873215  1
  S  S17  1  0.18615850  0.00489512  0.83483128  1
  S  S18  1  0.19296933  0.99204622  0.33225011  1
  S  S19  1  0.33259661  0.76162453  0.55102494  1
  S  S20  1  0.32798789  0.78208679  0.05300109  1
  S  S21  1  0.67051450  0.73040050  0.80177725  1
  S  S22  1  0.68189288  0.72922272  0.30869424  1
  S  S23  1  0.79078134  0.48379461  0.58122705  1
  S  S24  1  0.80302263  0.50787762  0.08795349  1
  S  S25  1  0.11089173  0.50408838  0.80248530  1
  S  S26  1  0.12270234  0.49900056  0.30492406  1
  S  S27  1  0.66797219  0.29444766  0.80793801  1
  S  S28  1  0.67756563  0.29674172  0.31972200  1
  S  S29  1  0.33411932  0.19573603  0.55528668  1
  S  S30  1  0.32747247  0.21886992  0.05752262  1
