# generated using pymatgen
data_Li10Zn7(PS4)8
_symmetry_space_group_name_H-M   'P 1'
_cell_length_a   9.20507729
_cell_length_b   11.62177217
_cell_length_c   11.63148525
_cell_angle_alpha   90.01986456
_cell_angle_beta   89.96108761
_cell_angle_gamma   89.97245434
_symmetry_Int_Tables_number   1
_chemical_formula_structural   Li10Zn7(PS4)8
_chemical_formula_sum   'Li10 Zn7 P8 S32'
_cell_volume   1244.32777392
_cell_formula_units_Z   1
loop_
 _symmetry_equiv_pos_site_id
 _symmetry_equiv_pos_as_xyz
  1  'x, y, z'
loop_
 _atom_site_type_symbol
 _atom_site_label
 _atom_site_symmetry_multiplicity
 _atom_site_fract_x
 _atom_site_fract_y
 _atom_site_fract_z
 _atom_site_occupancy
  Li  Li0  1  0.75158516  0.00109863  0.75508260  1
  Li  Li1  1  0.49457484  0.99958600  0.00328176  1
  Li  Li2  1  0.49922381  0.99987271  0.49686685  1
  Li  Li3  1  0.00596362  0.74731729  0.75182624  1
  Li  Li4  1  0.00340243  0.25142428  0.75095194  1
  Li  Li5  1  0.49624696  0.49960766  0.00016115  1
  Li  Li6  1  0.49948465  0.50028257  0.49961787  1
  Li  Li7  1  0.99920606  0.75228635  0.24874647  1
  Li  Li8  1  0.00222234  0.24919594  0.24832949  1
  Li  Li9  1  0.00555212  0.00004285  0.00281599  1
  Zn  Zn10  1  0.00736930  0.00100083  0.49730705  1
  Zn  Zn11  1  0.49477033  0.74914901  0.74937534  1
  Zn  Zn12  1  0.49391804  0.25214378  0.75240808  1
  Zn  Zn13  1  0.99893143  0.50077787  0.99979481  1
  Zn  Zn14  1  0.00099649  0.49939060  0.50003622  1
  Zn  Zn15  1  0.49872064  0.75042420  0.24852552  1
  Zn  Zn16  1  0.49887020  0.24795485  0.24909501  1
  P  P17  1  0.75263635  0.74968659  0.00367118  1
  P  P18  1  0.74692481  0.25052701  0.99512144  1
  P  P19  1  0.74754313  0.74998280  0.50112516  1
  P  P20  1  0.75290255  0.24924823  0.50001541  1
  P  P21  1  0.24962060  0.99632228  0.74843648  1
  P  P22  1  0.24939373  0.49989294  0.74967912  1
  P  P23  1  0.25042518  0.00404293  0.25129060  1
  P  P24  1  0.24980903  0.50010047  0.25022790  1
  S  S25  1  0.86574430  0.36018635  0.60501457  1
  S  S26  1  0.86327680  0.63865679  0.89557448  1
  S  S27  1  0.63423557  0.14622377  0.10801457  1
  S  S28  1  0.63511698  0.85393602  0.38962102  1
  S  S29  1  0.86360425  0.85928194  0.10442458  1
  S  S30  1  0.86497971  0.13739408  0.39584639  1
  S  S31  1  0.63548647  0.64558517  0.61296307  1
  S  S32  1  0.62985172  0.35708602  0.88769876  1
  S  S33  1  0.86458270  0.35928203  0.10022379  1
  S  S34  1  0.86661405  0.64093603  0.39844925  1
  S  S35  1  0.62833203  0.64510617  0.10781847  1
  S  S36  1  0.63449397  0.35178951  0.39079986  1
  S  S37  1  0.13342672  0.89540720  0.85577704  1
  S  S38  1  0.13575203  0.10416184  0.63848113  1
  S  S39  1  0.36657757  0.10810116  0.85258991  1
  S  S40  1  0.37173829  0.89056696  0.64236500  1
  S  S41  1  0.13602242  0.39617088  0.86164032  1
  S  S42  1  0.13555668  0.60384461  0.63787086  1
  S  S43  1  0.36996624  0.11114610  0.35733130  1
  S  S44  1  0.36434496  0.88989398  0.14790667  1
  S  S45  1  0.13871194  0.89553829  0.36224563  1
  S  S46  1  0.13758387  0.10606465  0.14326159  1
  S  S47  1  0.36317716  0.61123161  0.85405799  1
  S  S48  1  0.36337210  0.38879960  0.64459119  1
  S  S49  1  0.13447546  0.39577761  0.36127249  1
  S  S50  1  0.13463253  0.60402559  0.13912411  1
  S  S51  1  0.36477432  0.61140878  0.35423609  1
  S  S52  1  0.36491779  0.38850770  0.14678439  1
  S  S53  1  0.87031030  0.86128502  0.60467045  1
  S  S54  1  0.86869705  0.14196664  0.89404806  1
  S  S55  1  0.63005455  0.14623906  0.61163536  1
  S  S56  1  0.62929766  0.85303413  0.88987091  1
