# generated using pymatgen
data_MoH4O5
_symmetry_space_group_name_H-M   'P 1'
_cell_length_a   8.09726707
_cell_length_b   6.48393028
_cell_length_c   4.28476142
_cell_angle_alpha   80.68205220
_cell_angle_beta   90.38518336
_cell_angle_gamma   90.27221408
_symmetry_Int_Tables_number   1
_chemical_formula_structural   MoH4O5
_chemical_formula_sum   'Mo2 H8 O10'
_cell_volume   221.98416781
_cell_formula_units_Z   2
loop_
 _symmetry_equiv_pos_site_id
 _symmetry_equiv_pos_as_xyz
  1  'x, y, z'
loop_
 _atom_site_type_symbol
 _atom_site_label
 _atom_site_symmetry_multiplicity
 _atom_site_fract_x
 _atom_site_fract_y
 _atom_site_fract_z
 _atom_site_occupancy
  Mo  Mo0  1  0.70794445  0.01561399  0.94386693  1
  Mo  Mo1  1  0.20729421  0.98313306  0.05139900  1
  H  H2  1  0.05565329  0.44289515  0.35741398  1
  H  H3  1  0.55497448  0.55755791  0.65517530  1
  H  H4  1  0.69748120  0.19739631  0.42275014  1
  H  H5  1  0.17559951  0.80698882  0.56932382  1
  H  H6  1  0.92857816  0.44163096  0.62953661  1
  H  H7  1  0.83176228  0.64084751  0.16596162  1
  H  H8  1  0.42865009  0.55986621  0.37824966  1
  H  H9  1  0.33578623  0.35858471  0.83309305  1
  O  O10  1  0.99164397  0.96925843  0.01116711  1
  O  O11  1  0.49284071  0.02807973  0.97829200  1
  O  O12  1  0.97712705  0.53122334  0.44590465  1
  O  O13  1  0.47823359  0.46923443  0.56131898  1
  O  O14  1  0.71734882  0.04568683  0.47551579  1
  O  O15  1  0.21015345  0.95483477  0.52082020  1
  O  O16  1  0.77665768  0.27463501  0.93059272  1
  O  O17  1  0.73672594  0.72073153  0.05579348  1
  O  O18  1  0.27635528  0.72412079  0.07203613  1
  O  O19  1  0.24016862  0.27822149  0.94362282  1
