# generated using pymatgen
data_Li8MnFe7(BO3)8
_symmetry_space_group_name_H-M   'P 1'
_cell_length_a   11.96030490
_cell_length_b   5.22367845
_cell_length_c   8.16672768
_cell_angle_alpha   90.41907501
_cell_angle_beta   77.15300739
_cell_angle_gamma   89.41845586
_symmetry_Int_Tables_number   1
_chemical_formula_structural   Li8MnFe7(BO3)8
_chemical_formula_sum   'Li8 Mn1 Fe7 B8 O24'
_cell_volume   497.40886237
_cell_formula_units_Z   1
loop_
 _symmetry_equiv_pos_site_id
 _symmetry_equiv_pos_as_xyz
  1  'x, y, z'
loop_
 _atom_site_type_symbol
 _atom_site_label
 _atom_site_symmetry_multiplicity
 _atom_site_fract_x
 _atom_site_fract_y
 _atom_site_fract_z
 _atom_site_occupancy
  Li  Li0  1  0.02236268  0.65153391  0.28024948  1
  Li  Li1  1  0.22792599  0.84859853  0.21916430  1
  Li  Li2  1  0.27367950  0.14916258  0.78059038  1
  Li  Li3  1  0.52211784  0.65233880  0.27918466  1
  Li  Li4  1  0.47699820  0.34970222  0.71958561  1
  Li  Li5  1  0.72659282  0.84904146  0.21584575  1
  Li  Li6  1  0.77141669  0.15073677  0.78231049  1
  Li  Li7  1  0.97770032  0.35321586  0.72043511  1
  Mn  Mn8  1  0.90833142  0.16804435  0.42126956  1
  Fe  Fe9  1  0.09351346  0.83093600  0.57652204  1
  Fe  Fe10  1  0.15646327  0.67149182  0.92321585  1
  Fe  Fe11  1  0.34243207  0.33794241  0.07885347  1
  Fe  Fe12  1  0.40790155  0.16243617  0.42149787  1
  Fe  Fe13  1  0.59262349  0.83032029  0.57700124  1
  Fe  Fe14  1  0.65898848  0.66184128  0.91963274  1
  Fe  Fe15  1  0.84110645  0.32433076  0.07795055  1
  B  B16  1  0.08422328  0.17352976  0.09163413  1
  B  B17  1  0.16816422  0.32638261  0.40567545  1
  B  B18  1  0.33292602  0.66988284  0.59372637  1
  B  B19  1  0.41812550  0.82947151  0.90579482  1
  B  B20  1  0.58131898  0.17086959  0.09563053  1
  B  B21  1  0.66615235  0.32960953  0.40627345  1
  B  B22  1  0.83248670  0.67007061  0.59784134  1
  B  B23  1  0.91683995  0.82881849  0.90538787  1
  O  O24  1  0.08804845  0.91117910  0.11734752  1
  O  O25  1  0.00808482  0.68688055  0.81065052  1
  O  O26  1  0.08060808  0.20734869  0.52054035  1
  O  O27  1  0.16255005  0.58896444  0.38260824  1
  O  O28  1  0.25733818  0.18083387  0.30947637  1
  O  O29  1  0.33110734  0.70776323  0.02075134  1
  O  O30  1  0.17145839  0.29171990  0.97841630  1
  O  O31  1  0.24259366  0.81481656  0.69001392  1
  O  O32  1  0.33878647  0.40943363  0.61664545  1
  O  O33  1  0.41935906  0.79237797  0.47896385  1
  O  O34  1  0.49188705  0.31803970  0.19125005  1
  O  O35  1  0.41196673  0.09025847  0.88232048  1
  O  O36  1  0.58742565  0.91030496  0.11809826  1
  O  O37  1  0.50804107  0.68360838  0.81015992  1
  O  O38  1  0.57997069  0.20778102  0.52058770  1
  O  O39  1  0.66153586  0.59165854  0.38334283  1
  O  O40  1  0.75608645  0.18630114  0.30910609  1
  O  O41  1  0.82929154  0.70806680  0.01735025  1
  O  O42  1  0.66865742  0.29307187  0.98124666  1
  O  O43  1  0.74266227  0.82075540  0.68970371  1
  O  O44  1  0.83563822  0.40991816  0.62510801  1
  O  O45  1  0.92096179  0.78501173  0.48241946  1
  O  O46  1  0.99373782  0.32033654  0.18640682  1
  O  O47  1  0.91181075  0.09325818  0.88221280  1
