# generated using pymatgen
data_Li8MnFe7(BO3)8
_symmetry_space_group_name_H-M   'P 1'
_cell_length_a   5.99365570
_cell_length_b   9.73185500
_cell_length_c   8.98614715
_cell_angle_alpha   98.78483189
_cell_angle_beta   102.79082583
_cell_angle_gamma   79.68440086
_symmetry_Int_Tables_number   1
_chemical_formula_structural   Li8MnFe7(BO3)8
_chemical_formula_sum   'Li8 Mn1 Fe7 B8 O24'
_cell_volume   499.38223612
_cell_formula_units_Z   1
loop_
 _symmetry_equiv_pos_site_id
 _symmetry_equiv_pos_as_xyz
  1  'x, y, z'
loop_
 _atom_site_type_symbol
 _atom_site_label
 _atom_site_symmetry_multiplicity
 _atom_site_fract_x
 _atom_site_fract_y
 _atom_site_fract_z
 _atom_site_occupancy
  Li  Li0  1  0.97085858  0.70092333  0.03431617  1
  Li  Li1  1  0.72119937  0.95300018  0.53293654  1
  Li  Li2  1  0.77934751  0.54780711  0.46584621  1
  Li  Li3  1  0.47302794  0.20361161  0.03330855  1
  Li  Li4  1  0.52775242  0.79632775  0.96454667  1
  Li  Li5  1  0.22050108  0.45259466  0.53463536  1
  Li  Li6  1  0.28067312  0.04882637  0.46687422  1
  Li  Li7  1  0.02786765  0.29708774  0.96642559  1
  Mn  Mn8  1  0.78855650  0.97856936  0.20718978  1
  Fe  Fe9  1  0.96280950  0.27786477  0.29633801  1
  Fe  Fe10  1  0.71070435  0.52435431  0.78994324  1
  Fe  Fe11  1  0.46293242  0.77455577  0.29476661  1
  Fe  Fe12  1  0.53954672  0.22516550  0.70858234  1
  Fe  Fe13  1  0.28844148  0.47478423  0.20395747  1
  Fe  Fe14  1  0.03925772  0.72536136  0.70802215  1
  Fe  Fe15  1  0.21198433  0.02528689  0.79642482  1
  B  B16  1  0.98208253  0.27718967  0.63404121  1
  B  B17  1  0.73226834  0.52720872  0.13202609  1
  B  B18  1  0.76782152  0.97025032  0.86488589  1
  B  B19  1  0.47968540  0.77791007  0.63222668  1
  B  B20  1  0.51576625  0.22464639  0.36782803  1
  B  B21  1  0.23298493  0.02779004  0.13344084  1
  B  B22  1  0.26972369  0.47242279  0.86663409  1
  B  B23  1  0.01809814  0.72055396  0.36842633  1
  O  O24  1  0.90757809  0.41049987  0.13499839  1
  O  O25  1  0.84122596  0.83530309  0.36579824  1
  O  O26  1  0.88772740  0.93693831  0.74363695  1
  O  O27  1  0.93154014  0.36009429  0.51545414  1
  O  O28  1  0.68414063  0.60954176  0.01344411  1
  O  O29  1  0.81502275  0.88627822  0.98161298  1
  O  O30  1  0.86339324  0.31345380  0.75619059  1
  O  O31  1  0.61279367  0.56218610  0.25344223  1
  O  O32  1  0.65430518  0.66112869  0.63499235  1
  O  O33  1  0.40635466  0.91093747  0.13575273  1
  O  O34  1  0.63465054  0.19156383  0.24575082  1
  O  O35  1  0.43245170  0.86064649  0.51403927  1
  O  O36  1  0.56686607  0.14054007  0.48512242  1
  O  O37  1  0.36041579  0.81377964  0.75352189  1
  O  O38  1  0.59385113  0.08789816  0.86315281  1
  O  O39  1  0.33865537  0.33971298  0.36528474  1
  O  O40  1  0.38860122  0.43600540  0.74497737  1
  O  O41  1  0.13858995  0.68632329  0.24725945  1
  O  O42  1  0.18436919  0.11018141  0.01392728  1
  O  O43  1  0.31722001  0.38981990  0.98550738  1
  O  O44  1  0.06823528  0.63769595  0.48702769  1
  O  O45  1  0.11453710  0.06478743  0.25485600  1
  O  O46  1  0.15759020  0.16152261  0.63638811  1
  O  O47  1  0.09599227  0.58906833  0.86424018  1
