# generated using pymatgen
data_Li7Co5O12
_symmetry_space_group_name_H-M   'P 1'
_cell_length_a   4.90726419
_cell_length_b   6.40758791
_cell_length_c   6.40758740
_cell_angle_alpha   83.47260004
_cell_angle_beta   97.35278437
_cell_angle_gamma   97.35279206
_symmetry_Int_Tables_number   1
_chemical_formula_structural   Li7Co5O12
_chemical_formula_sum   'Li7 Co5 O12'
_cell_volume   197.20652884
_cell_formula_units_Z   1
loop_
 _symmetry_equiv_pos_site_id
 _symmetry_equiv_pos_as_xyz
  1  'x, y, z'
loop_
 _atom_site_type_symbol
 _atom_site_label
 _atom_site_symmetry_multiplicity
 _atom_site_fract_x
 _atom_site_fract_y
 _atom_site_fract_z
 _atom_site_occupancy
  Li  Li0  1  0.25657527  0.75394139  0.74975698  1
  Li  Li1  1  0.25976021  0.41195868  0.07862468  1
  Li  Li2  1  0.25657527  0.08308998  0.42060839  1
  Li  Li3  1  0.74342473  0.25024302  0.24605861  1
  Li  Li4  1  0.74023979  0.92137532  0.58804132  1
  Li  Li5  1  0.74342473  0.57939161  0.91691002  1
  Li  Li6  1  0.50000000  0.16666700  0.83333300  1
  Co  Co7  1  1.00000000  0.00124449  0.99875551  1
  Co  Co8  1  0.00000000  0.33208851  0.66791149  1
  Co  Co9  1  -0.00000000  0.66666700  0.33333300  1
  Co  Co10  1  0.50000000  0.49951294  0.50048706  1
  Co  Co11  1  0.50000000  0.83382006  0.16617994  1
  O  O12  1  0.35698436  0.10327464  0.12031034  1
  O  O13  1  0.36920673  0.77662103  0.44328703  1
  O  O14  1  0.35698436  0.45364334  0.76994164  1
  O  O15  1  0.87057507  0.60763163  0.60871637  1
  O  O16  1  0.89568169  0.27987372  0.94653972  1
  O  O17  1  0.87057507  0.94204937  0.27429863  1
  O  O18  1  0.12942493  0.39128363  0.39236837  1
  O  O19  1  0.10431831  0.05346028  0.72012628  1
  O  O20  1  0.12942493  0.72570137  0.05795063  1
  O  O21  1  0.64301564  0.87968966  0.89672536  1
  O  O22  1  0.63079327  0.55671297  0.22337897  1
  O  O23  1  0.64301564  0.23005836  0.54635666  1
