# generated using pymatgen
data_MnP4O11
_symmetry_space_group_name_H-M   'P 1'
_cell_length_a   9.81485758
_cell_length_b   8.40622562
_cell_length_c   11.52614475
_cell_angle_alpha   90.00000000
_cell_angle_beta   101.24791593
_cell_angle_gamma   90.00000000
_symmetry_Int_Tables_number   1
_chemical_formula_structural   MnP4O11
_chemical_formula_sum   'Mn4 P16 O44'
_cell_volume   932.70905909
_cell_formula_units_Z   4
loop_
 _symmetry_equiv_pos_site_id
 _symmetry_equiv_pos_as_xyz
  1  'x, y, z'
loop_
 _atom_site_type_symbol
 _atom_site_label
 _atom_site_symmetry_multiplicity
 _atom_site_fract_x
 _atom_site_fract_y
 _atom_site_fract_z
 _atom_site_occupancy
  Mn  Mn0  1  0.03761381  0.01537296  0.78355524  1
  Mn  Mn1  1  0.46238619  0.51537296  0.71644476  1
  Mn  Mn2  1  0.53761381  0.48462704  0.28355524  1
  Mn  Mn3  1  0.96238619  0.98462704  0.21644476  1
  P  P4  1  0.18178156  0.39566183  0.82844632  1
  P  P5  1  0.06343474  0.38850920  0.24135920  1
  P  P6  1  0.31821844  0.89566183  0.67155368  1
  P  P7  1  0.26035318  0.00452687  0.42619605  1
  P  P8  1  0.28400731  0.36952069  0.45215997  1
  P  P9  1  0.21599269  0.86952069  0.04784003  1
  P  P10  1  0.23964682  0.50452687  0.07380395  1
  P  P11  1  0.43656526  0.88850920  0.25864080  1
  P  P12  1  0.56343474  0.11149080  0.74135920  1
  P  P13  1  0.76035318  0.49547313  0.92619605  1
  P  P14  1  0.78400731  0.13047931  0.95215997  1
  P  P15  1  0.71599269  0.63047931  0.54784003  1
  P  P16  1  0.73964682  0.99547313  0.57380395  1
  P  P17  1  0.68178156  0.10433817  0.32844632  1
  P  P18  1  0.93656526  0.61149080  0.75864080  1
  P  P19  1  0.81821844  0.60433817  0.17155368  1
  O  O20  1  0.08931952  0.55072379  0.77003995  1
  O  O21  1  0.15334115  0.40904768  0.96551732  1
  O  O22  1  0.11246574  0.25030519  0.77469450  1
  O  O23  1  0.20373173  0.94736731  0.93071841  1
  O  O24  1  0.16989299  0.93328073  0.66843279  1
  O  O25  1  0.07324739  0.22034074  0.20594669  1
  O  O26  1  0.12470351  0.93475211  0.37427992  1
  O  O27  1  0.13157837  0.42586805  0.37446894  1
  O  O28  1  0.10942022  0.88294858  0.12231247  1
  O  O29  1  0.13207423  0.51204917  0.16278855  1
  O  O30  1  0.25497025  0.17962130  0.47220404  1
  O  O31  1  0.33010701  0.43328073  0.83156721  1
  O  O32  1  0.29626827  0.44736731  0.56928159  1
  O  O33  1  0.38753426  0.75030519  0.72530550  1
  O  O34  1  0.34665885  0.90904768  0.53448268  1
  O  O35  1  0.41068048  0.05072379  0.72996005  1
  O  O36  1  0.24502975  0.67962130  0.02779596  1
  O  O37  1  0.36792577  0.01204917  0.33721145  1
  O  O38  1  0.39057978  0.38294858  0.37768753  1
  O  O39  1  0.36842163  0.92586805  0.12553106  1
  O  O40  1  0.37529649  0.43475211  0.12572008  1
  O  O41  1  0.42675261  0.72034074  0.29405331  1
  O  O42  1  0.57324739  0.27965926  0.70594669  1
  O  O43  1  0.62470351  0.56524789  0.87427992  1
  O  O44  1  0.63157837  0.07413195  0.87446894  1
  O  O45  1  0.60942022  0.61705142  0.62231247  1
  O  O46  1  0.63207423  0.98795083  0.66278855  1
  O  O47  1  0.75497025  0.32037870  0.97220404  1
  O  O48  1  0.58931952  0.94927621  0.27003995  1
  O  O49  1  0.65334115  0.09095232  0.46551732  1
  O  O50  1  0.61246574  0.24969481  0.27469450  1
  O  O51  1  0.70373173  0.55263269  0.43071841  1
  O  O52  1  0.66989299  0.56671927  0.16843279  1
  O  O53  1  0.74502975  0.82037870  0.52779596  1
  O  O54  1  0.86792577  0.48795083  0.83721145  1
  O  O55  1  0.89057978  0.11705142  0.87768753  1
  O  O56  1  0.86842163  0.57413195  0.62553106  1
  O  O57  1  0.87529649  0.06524789  0.62572008  1
  O  O58  1  0.92675261  0.77965926  0.79405331  1
  O  O59  1  0.83010701  0.06671927  0.33156721  1
  O  O60  1  0.79626827  0.05263269  0.06928159  1
  O  O61  1  0.88753426  0.74969481  0.22530550  1
  O  O62  1  0.84665885  0.59095232  0.03448268  1
  O  O63  1  0.91068048  0.44927621  0.22996005  1
