# generated using pymatgen
data_Mg3Ti2(Si2O7)2
_symmetry_space_group_name_H-M   'P 1'
_cell_length_a   7.67044443
_cell_length_b   9.47025903
_cell_length_c   9.32660146
_cell_angle_alpha   62.52145760
_cell_angle_beta   65.71892642
_cell_angle_gamma   66.11041080
_symmetry_Int_Tables_number   1
_chemical_formula_structural   Mg3Ti2(Si2O7)2
_chemical_formula_sum   'Mg6 Ti4 Si8 O28'
_cell_volume   528.13034309
_cell_formula_units_Z   2
loop_
 _symmetry_equiv_pos_site_id
 _symmetry_equiv_pos_as_xyz
  1  'x, y, z'
loop_
 _atom_site_type_symbol
 _atom_site_label
 _atom_site_symmetry_multiplicity
 _atom_site_fract_x
 _atom_site_fract_y
 _atom_site_fract_z
 _atom_site_occupancy
  Mg  Mg0  1  0.91497121  0.90897936  0.45026307  1
  Mg  Mg1  1  0.27421364  0.59102064  0.04973693  1
  Mg  Mg2  1  0.72578636  0.40897936  0.95026307  1
  Mg  Mg3  1  0.61203588  0.25000000  0.75000000  1
  Mg  Mg4  1  0.08502879  0.09102064  0.54973693  1
  Mg  Mg5  1  0.38796412  0.75000000  0.25000000  1
  Ti  Ti6  1  0.19341517  0.25000000  0.75000000  1
  Ti  Ti7  1  0.80658483  0.75000000  0.25000000  1
  Ti  Ti8  1  0.00000000  0.00000000  0.00000000  1
  Ti  Ti9  1  0.00000000  0.50000000  0.50000000  1
  Si  Si10  1  0.46879307  0.28555036  0.34326785  1
  Si  Si11  1  0.90238771  0.78555036  0.84326785  1
  Si  Si12  1  0.48143789  0.89366132  0.86363628  1
  Si  Si13  1  0.76126551  0.39366132  0.36363628  1
  Si  Si14  1  0.09761229  0.21444964  0.15673215  1
  Si  Si15  1  0.51856211  0.10633868  0.13636372  1
  Si  Si16  1  0.23873449  0.60633868  0.63636372  1
  Si  Si17  1  0.53120693  0.71444964  0.65673215  1
  O  O18  1  0.15114466  0.67831567  0.47085631  1
  O  O19  1  0.05102465  0.57858306  0.25757535  1
  O  O20  1  0.53735328  0.91533584  0.17704202  1
  O  O21  1  0.11281694  0.07858306  0.75757535  1
  O  O22  1  0.74260630  0.69324411  0.51449217  1
  O  O23  1  0.93095211  0.38253822  0.18600656  1
  O  O24  1  0.37026787  0.41533584  0.67704202  1
  O  O25  1  0.95034258  0.80675589  0.98550783  1
  O  O26  1  0.06904789  0.61746178  0.81399344  1
  O  O27  1  0.35555017  0.74733749  0.57749893  1
  O  O28  1  0.94897535  0.42141694  0.74242465  1
  O  O29  1  0.25739370  0.30675589  0.48550783  1
  O  O30  1  0.49949790  0.11746178  0.31399344  1
  O  O31  1  0.69968237  0.17831567  0.97085631  1
  O  O32  1  0.31961341  0.24733749  0.07749893  1
  O  O33  1  0.04965742  0.19324411  0.01449217  1
  O  O34  1  0.09191459  0.06513421  0.33775828  1
  O  O35  1  0.64444983  0.25266251  0.42250107  1
  O  O36  1  0.49480608  0.43486579  0.16224172  1
  O  O37  1  0.68038659  0.75266251  0.92250107  1
  O  O38  1  0.50050210  0.88253822  0.68600656  1
  O  O39  1  0.88718306  0.92141694  0.24242465  1
  O  O40  1  0.50519392  0.56513421  0.83775828  1
  O  O41  1  0.46264672  0.08466416  0.82295798  1
  O  O42  1  0.90808541  0.93486579  0.66224172  1
  O  O43  1  0.62973213  0.58466416  0.32295798  1
  O  O44  1  0.30031763  0.82168433  0.02914369  1
  O  O45  1  0.84885534  0.32168433  0.52914369  1
