# generated using pymatgen
data_LiFeBO3
_symmetry_space_group_name_H-M   'P 1'
_cell_length_a   5.96193125
_cell_length_b   5.22669921
_cell_length_c   5.19153602
_cell_angle_alpha   59.79145085
_cell_angle_beta   113.78282908
_cell_angle_gamma   90.05173263
_symmetry_Int_Tables_number   1
_chemical_formula_structural   LiFeBO3
_chemical_formula_sum   'Li2 Fe2 B2 O6'
_cell_volume   123.68927075
_cell_formula_units_Z   2
loop_
 _symmetry_equiv_pos_site_id
 _symmetry_equiv_pos_as_xyz
  1  'x, y, z'
loop_
 _atom_site_type_symbol
 _atom_site_label
 _atom_site_symmetry_multiplicity
 _atom_site_fract_x
 _atom_site_fract_y
 _atom_site_fract_z
 _atom_site_occupancy
  Li  Li0  1  0.67456994  0.63219948  0.43901919  1
  Li  Li1  1  0.32543006  0.36780052  0.56098081  1
  Fe  Fe2  1  0.76190648  0.25593901  0.15135005  1
  Fe  Fe3  1  0.23809352  0.74406099  0.84864995  1
  B  B4  1  0.74047776  0.92209554  0.81424296  1
  B  B5  1  0.25952224  0.07790446  0.18575704  1
  O  O6  1  0.68160671  0.68486036  0.04583278  1
  O  O7  1  0.82425171  0.87411613  0.62265843  1
  O  O8  1  0.70650905  0.20766746  0.76563185  1
  O  O9  1  0.29349095  0.79233254  0.23436815  1
  O  O10  1  0.17574829  0.12588387  0.37734157  1
  O  O11  1  0.31839329  0.31513964  0.95416722  1
