# generated using pymatgen
data_Na5Fe2P2(CO7)2
_symmetry_space_group_name_H-M   'P 1'
_cell_length_a   9.00153931
_cell_length_b   8.42724896
_cell_length_c   8.50017845
_cell_angle_alpha   76.60581873
_cell_angle_beta   90.20811182
_cell_angle_gamma   90.80091862
_symmetry_Int_Tables_number   1
_chemical_formula_structural   Na5Fe2P2(CO7)2
_chemical_formula_sum   'Na10 Fe4 P4 C4 O28'
_cell_volume   627.20784136
_cell_formula_units_Z   2
loop_
 _symmetry_equiv_pos_site_id
 _symmetry_equiv_pos_as_xyz
  1  'x, y, z'
loop_
 _atom_site_type_symbol
 _atom_site_label
 _atom_site_symmetry_multiplicity
 _atom_site_fract_x
 _atom_site_fract_y
 _atom_site_fract_z
 _atom_site_occupancy
  Na  Na0  1  0.92414315  0.25086557  0.48034833  1
  Na  Na1  1  0.91266002  0.74619637  0.99134421  1
  Na  Na2  1  0.73801975  0.13475703  0.86988106  1
  Na  Na3  1  0.73390439  0.61076062  0.36976160  1
  Na  Na4  1  0.73205147  0.87210424  0.63175725  1
  Na  Na5  1  0.26794853  0.62789576  0.86824275  1
  Na  Na6  1  0.26198025  0.36524297  0.63011894  1
  Na  Na7  1  0.26609561  0.88923938  0.13023840  1
  Na  Na8  1  0.08733998  0.75380363  0.50865579  1
  Na  Na9  1  0.07585685  0.24913443  0.01965167  1
  Fe  Fe10  1  0.64528541  0.02576638  0.23210683  1
  Fe  Fe11  1  0.65686227  0.51002298  0.74602954  1
  Fe  Fe12  1  0.34313773  0.98997702  0.75397046  1
  Fe  Fe13  1  0.35471459  0.47423362  0.26789317  1
  P  P14  1  0.58498047  0.22945680  0.51990532  1
  P  P15  1  0.57657527  0.73186957  0.02519510  1
  P  P16  1  0.41501953  0.27054320  0.98009468  1
  P  P17  1  0.42342473  0.76813043  0.47480490  1
  C  C18  1  0.94804028  0.49160480  0.75637657  1
  C  C19  1  0.92675259  0.98083624  0.25647453  1
  C  C20  1  0.05195972  0.00839520  0.74362343  1
  C  C21  1  0.07324741  0.51916376  0.24352547  1
  O  O22  1  0.90874533  0.01550911  0.73459312  1
  O  O23  1  0.93372532  0.54005143  0.23748411  1
  O  O24  1  0.88302365  0.60934419  0.65232318  1
  O  O25  1  0.86453181  0.09511061  0.14544832  1
  O  O26  1  0.86502558  0.38354354  0.85143454  1
  O  O27  1  0.83481228  0.89143178  0.36167712  1
  O  O28  1  0.67465682  0.16042017  0.39448344  1
  O  O29  1  0.67416023  0.67436115  0.89997170  1
  O  O30  1  0.68836104  0.35729048  0.57123298  1
  O  O31  1  0.67532380  0.85809729  0.08896975  1
  O  O32  1  0.57015210  0.69373296  0.54822345  1
  O  O33  1  0.56289852  0.19242595  0.05301823  1
  O  O34  1  0.55060077  0.08753694  0.66853775  1
  O  O35  1  0.53845604  0.58642707  0.17254429  1
  O  O36  1  0.44939923  0.41246306  0.83146225  1
  O  O37  1  0.46154396  0.91357293  0.32745571  1
  O  O38  1  0.42984790  0.80626704  0.95177655  1
  O  O39  1  0.43710148  0.30757405  0.44698177  1
  O  O40  1  0.31163896  0.14270952  0.92876702  1
  O  O41  1  0.32583977  0.82563885  0.60002830  1
  O  O42  1  0.32467620  0.64190271  0.41103025  1
  O  O43  1  0.32534318  0.33957983  0.10551656  1
  O  O44  1  0.13497442  0.11645646  0.64856546  1
  O  O45  1  0.16518772  0.60856822  0.13832288  1
  O  O46  1  0.13546819  0.40488939  0.35455168  1
  O  O47  1  0.11697635  0.89065581  0.84767682  1
  O  O48  1  0.09125467  0.48449089  0.76540688  1
  O  O49  1  0.06627468  0.95994857  0.26251589  1
