# generated using pymatgen
data_Na5Mn2P2(CO7)2
_symmetry_space_group_name_H-M   'P 1'
_cell_length_a   10.46921419
_cell_length_b   6.71564972
_cell_length_c   10.48455174
_cell_angle_alpha   90.00000000
_cell_angle_beta   120.90744164
_cell_angle_gamma   90.00000000
_symmetry_Int_Tables_number   1
_chemical_formula_structural   Na5Mn2P2(CO7)2
_chemical_formula_sum   'Na10 Mn4 P4 C4 O28'
_cell_volume   632.46771954
_cell_formula_units_Z   2
loop_
 _symmetry_equiv_pos_site_id
 _symmetry_equiv_pos_as_xyz
  1  'x, y, z'
loop_
 _atom_site_type_symbol
 _atom_site_label
 _atom_site_symmetry_multiplicity
 _atom_site_fract_x
 _atom_site_fract_y
 _atom_site_fract_z
 _atom_site_occupancy
  Na  Na0  1  0.15877951  0.25000000  0.08092153  1
  Na  Na1  1  0.99817402  0.00722551  0.25500872  1
  Na  Na2  1  0.99817402  0.49277449  0.25500872  1
  Na  Na3  1  0.50447111  0.00081556  0.24212804  1
  Na  Na4  1  0.50447111  0.49918444  0.24212804  1
  Na  Na5  1  0.49552889  0.50081556  0.75787296  1
  Na  Na6  1  0.49552889  0.99918444  0.75787296  1
  Na  Na7  1  0.00182598  0.50722551  0.74499128  1
  Na  Na8  1  0.00182598  0.99277449  0.74499128  1
  Na  Na9  1  0.84122049  0.75000000  0.91907847  1
  Mn  Mn10  1  0.28792466  0.75000000  0.35601072  1
  Mn  Mn11  1  0.78933060  0.75000000  0.35669048  1
  Mn  Mn12  1  0.21066940  0.25000000  0.64330952  1
  Mn  Mn13  1  0.71207534  0.25000000  0.64398928  1
  P  P14  1  0.35651780  0.25000000  0.41601916  1
  P  P15  1  0.85936538  0.25000000  0.41999689  1
  P  P16  1  0.14063462  0.75000000  0.58000311  1
  P  P17  1  0.64348220  0.75000000  0.58398084  1
  C  C18  1  0.16320591  0.75000000  0.06322010  1
  C  C19  1  0.67372138  0.75000000  0.06919771  1
  C  C20  1  0.32627962  0.25000000  0.93080229  1
  C  C21  1  0.83679409  0.25000000  0.93677990  1
  O  O22  1  0.39291453  0.25000000  0.07247064  1
  O  O23  1  0.90791404  0.25000000  0.07940244  1
  O  O24  1  0.08597282  0.75000000  0.13114917  1
  O  O25  1  0.60248278  0.75000000  0.14189936  1
  O  O26  1  0.30675127  0.75000000  0.14681666  1
  O  O27  1  0.81829312  0.75000000  0.15078819  1
  O  O28  1  0.26786677  0.06598418  0.32113869  1
  O  O29  1  0.26786677  0.43401582  0.32113869  1
  O  O30  1  0.77669284  0.06158200  0.32983107  1
  O  O31  1  0.77669284  0.43841800  0.32983107  1
  O  O32  1  0.02139126  0.25000000  0.44297465  1
  O  O33  1  0.12403386  0.75000000  0.42485203  1
  O  O34  1  0.51553922  0.25000000  0.43608597  1
  O  O35  1  0.62832953  0.75000000  0.42891802  1
  O  O36  1  0.37167047  0.25000000  0.57108198  1
  O  O37  1  0.48446078  0.75000000  0.56391403  1
  O  O38  1  0.87596614  0.25000000  0.57514797  1
  O  O39  1  0.97860874  0.75000000  0.55702535  1
  O  O40  1  0.22330716  0.56158200  0.67016893  1
  O  O41  1  0.22330716  0.93841800  0.67016893  1
  O  O42  1  0.73213323  0.56598418  0.67886131  1
  O  O43  1  0.73213323  0.93401582  0.67886131  1
  O  O44  1  0.18170688  0.25000000  0.84921181  1
  O  O45  1  0.69324873  0.25000000  0.85318334  1
  O  O46  1  0.39751722  0.25000000  0.85810064  1
  O  O47  1  0.91402718  0.25000000  0.86885083  1
  O  O48  1  0.09208596  0.75000000  0.92059756  1
  O  O49  1  0.60708547  0.75000000  0.92752936  1
