# generated using pymatgen
data_NaCdFe(PO4)2
_symmetry_space_group_name_H-M   'P 1'
_cell_length_a   6.58548028
_cell_length_b   8.98371255
_cell_length_c   17.78586750
_cell_angle_alpha   91.84635456
_cell_angle_beta   106.23919321
_cell_angle_gamma   107.15381235
_symmetry_Int_Tables_number   1
_chemical_formula_structural   NaCdFe(PO4)2
_chemical_formula_sum   'Na6 Cd6 Fe6 P12 O48'
_cell_volume   957.75188427
_cell_formula_units_Z   6
loop_
 _symmetry_equiv_pos_site_id
 _symmetry_equiv_pos_as_xyz
  1  'x, y, z'
loop_
 _atom_site_type_symbol
 _atom_site_label
 _atom_site_symmetry_multiplicity
 _atom_site_fract_x
 _atom_site_fract_y
 _atom_site_fract_z
 _atom_site_occupancy
  Na  Na0  1  0.99927840  0.49868446  0.75084898  1
  Na  Na1  1  0.00479470  0.50050074  0.24695032  1
  Na  Na2  1  0.49841238  0.50004634  0.75282596  1
  Na  Na3  1  0.76397791  0.01372106  0.99327781  1
  Na  Na4  1  0.75047325  0.01324103  0.49283071  1
  Na  Na5  1  0.74352271  0.73408348  0.13221935  1
  Cd  Cd6  1  0.25331157  0.26267528  0.87080613  1
  Cd  Cd7  1  0.26019911  0.26092373  0.37138147  1
  Cd  Cd8  1  0.14751990  0.38363840  0.03810542  1
  Cd  Cd9  1  0.74446920  0.72947768  0.63269390  1
  Cd  Cd10  1  0.50861885  0.49864193  0.24620931  1
  Cd  Cd11  1  0.86970352  0.63536026  0.45996587  1
  Fe  Fe12  1  0.36331015  0.93163775  0.80953634  1
  Fe  Fe13  1  0.13554240  0.38442643  0.53491128  1
  Fe  Fe14  1  0.35317945  0.93072609  0.30806689  1
  Fe  Fe15  1  0.86883408  0.62332561  0.96825809  1
  Fe  Fe16  1  0.62840146  0.06674814  0.68834929  1
  Fe  Fe17  1  0.63682112  0.06437707  0.18594357  1
  P  P18  1  0.37225306  0.65533340  0.92798095  1
  P  P19  1  0.25293577  0.72166671  0.64395985  1
  P  P20  1  0.13145005  0.14025879  0.67523196  1
  P  P21  1  0.37026295  0.65122310  0.43048357  1
  P  P22  1  0.24750107  0.73292280  0.14143367  1
  P  P23  1  0.13561972  0.13194069  0.17598911  1
  P  P24  1  0.86338739  0.85937786  0.82369696  1
  P  P25  1  0.74554094  0.27740489  0.85613787  1
  P  P26  1  0.63117421  0.34349142  0.57034358  1
  P  P27  1  0.85970253  0.87301271  0.32732971  1
  P  P28  1  0.75075607  0.26920503  0.35663643  1
  P  P29  1  0.63311758  0.34599843  0.06949370  1
  O  O30  1  0.09696902  0.97746775  0.82808957  1
  O  O31  1  0.18180242  0.61617837  0.96748457  1
  O  O32  1  0.04252273  0.74592194  0.58907896  1
  O  O33  1  0.24882356  0.74081896  0.73089959  1
  O  O34  1  0.40651361  0.82408338  0.90239089  1
  O  O35  1  0.09372253  0.98763843  0.32739153  1
  O  O36  1  0.18685598  0.28067082  0.73727695  1
  O  O37  1  0.31249380  0.53122212  0.85684503  1
  O  O38  1  0.11873432  0.19594961  0.59253373  1
  O  O39  1  0.18290244  0.57928680  0.46934225  1
  O  O40  1  0.26602817  0.55257639  0.62861422  1
  O  O41  1  0.03486667  0.73728938  0.07808814  1
  O  O42  1  0.59633998  0.66054315  0.98980387  1
  O  O43  1  0.46717589  0.84149075  0.63336166  1
  O  O44  1  0.21349609  0.75537823  0.22438306  1
  O  O45  1  0.31164916  0.05285513  0.70080575  1
  O  O46  1  0.36050295  0.81002970  0.40015811  1
  O  O47  1  0.68511683  0.94822277  0.79575572  1
  O  O48  1  0.19847233  0.28629276  0.23368947  1
  O  O49  1  0.33913524  0.53139583  0.35976305  1
  O  O50  1  0.53115990  0.15524228  0.86675501  1
  O  O51  1  0.40509677  0.34231156  0.50891117  1
  O  O52  1  0.11792620  0.16062392  0.09092197  1
  O  O53  1  0.28298160  0.56916749  0.14109231  1
  O  O54  1  0.73769090  0.44623035  0.87233864  1
  O  O55  1  0.86625604  0.80902915  0.90620763  1
  O  O56  1  0.59384235  0.68367408  0.49686378  1
  O  O57  1  0.45694461  0.85280031  0.13023500  1
  O  O58  1  0.68554576  0.46384101  0.64215470  1
  O  O59  1  0.80792510  0.71484903  0.76370544  1
  O  O60  1  0.32821647  0.05847367  0.20908335  1
  O  O61  1  0.60633086  0.17536591  0.59421898  1
  O  O62  1  0.66813314  0.94486525  0.28989960  1
  O  O63  1  0.74923295  0.25702336  0.76910267  1
  O  O64  1  0.54492012  0.14627018  0.37209764  1
  O  O65  1  0.41028410  0.32020813  0.00396999  1
  O  O66  1  0.94889112  0.24442106  0.91241444  1
  O  O67  1  0.71473340  0.43136526  0.36145617  1
  O  O68  1  0.81828040  0.38656491  0.52914250  1
  O  O69  1  0.86570141  0.85912042  0.41331969  1
  O  O70  1  0.66159542  0.45643777  0.14288160  1
  O  O71  1  0.81359865  0.71553495  0.27764458  1
  O  O72  1  0.89697332  0.01875853  0.66746888  1
  O  O73  1  0.65025613  0.18409481  0.09467896  1
  O  O74  1  0.77818179  0.24564183  0.27371644  1
  O  O75  1  0.96391754  0.25896010  0.42048350  1
  O  O76  1  0.81942147  0.42118019  0.03068582  1
  O  O77  1  0.90776722  0.01656089  0.17689539  1
