# generated using pymatgen
data_Na6Mn7Fe6(PO4)12
_symmetry_space_group_name_H-M   'P 1'
_cell_length_a   6.58307748
_cell_length_b   8.83180260
_cell_length_c   17.51811681
_cell_angle_alpha   92.84723583
_cell_angle_beta   106.43393917
_cell_angle_gamma   106.75444478
_symmetry_Int_Tables_number   1
_chemical_formula_structural   Na6Mn7Fe6(PO4)12
_chemical_formula_sum   'Na6 Mn7 Fe6 P12 O48'
_cell_volume   925.83305239
_cell_formula_units_Z   1
loop_
 _symmetry_equiv_pos_site_id
 _symmetry_equiv_pos_as_xyz
  1  'x, y, z'
loop_
 _atom_site_type_symbol
 _atom_site_label
 _atom_site_symmetry_multiplicity
 _atom_site_fract_x
 _atom_site_fract_y
 _atom_site_fract_z
 _atom_site_occupancy
  Na  Na0  1  0.00194218  0.49622395  0.74728536  1
  Na  Na1  1  0.24429391  0.98143947  0.50599714  1
  Na  Na2  1  0.99776301  0.49890040  0.25253207  1
  Na  Na3  1  0.49853944  0.49607875  0.74919702  1
  Na  Na4  1  0.75489167  0.02015198  0.99547077  1
  Na  Na5  1  0.75365908  0.02143335  0.48911958  1
  Mn  Mn6  1  0.25324379  0.26481767  0.87023763  1
  Mn  Mn7  1  0.36077698  0.93427495  0.31238178  1
  Mn  Mn8  1  0.25406866  0.26760590  0.36795031  1
  Mn  Mn9  1  0.74078404  0.72416060  0.63201820  1
  Mn  Mn10  1  0.49718253  0.50388135  0.25114694  1
  Mn  Mn11  1  0.86269942  0.61898644  0.46625562  1
  Mn  Mn12  1  0.75562321  0.73352067  0.13490693  1
  Fe  Fe13  1  0.36728245  0.93748665  0.81340264  1
  Fe  Fe14  1  0.13766499  0.38232619  0.53283302  1
  Fe  Fe15  1  0.13563878  0.38228927  0.03081590  1
  Fe  Fe16  1  0.87650836  0.62310192  0.96907373  1
  Fe  Fe17  1  0.63548532  0.06255744  0.68984184  1
  Fe  Fe18  1  0.62240403  0.06089464  0.18368530  1
  P  P19  1  0.37855236  0.65632964  0.93365341  1
  P  P20  1  0.25090031  0.71918820  0.64661206  1
  P  P21  1  0.12663681  0.12620961  0.67480363  1
  P  P22  1  0.37888750  0.65888637  0.43770853  1
  P  P23  1  0.25276003  0.71179870  0.14384778  1
  P  P24  1  0.13087002  0.13242777  0.16990820  1
  P  P25  1  0.87090668  0.86451149  0.82600320  1
  P  P26  1  0.75050610  0.28466852  0.85680200  1
  P  P27  1  0.62138271  0.33837942  0.56465858  1
  P  P28  1  0.86477650  0.87821503  0.32668239  1
  P  P29  1  0.74645689  0.28405363  0.35162449  1
  P  P30  1  0.62601173  0.34889943  0.06580201  1
  O  O31  1  0.18876792  0.61155505  0.97358606  1
  O  O32  1  0.04055909  0.74806850  0.59127181  1
  O  O33  1  0.25294523  0.74381532  0.73581539  1
  O  O34  1  0.40396674  0.82528673  0.90756643  1
  O  O35  1  0.10423541  0.98954453  0.83458197  1
  O  O36  1  0.17748444  0.27240213  0.73710222  1
  O  O37  1  0.32446176  0.52622021  0.86275960  1
  O  O38  1  0.40134822  0.32999150  0.00073807  1
  O  O39  1  0.11367051  0.16214490  0.58890742  1
  O  O40  1  0.26013972  0.54837838  0.63428461  1
  O  O41  1  0.18267021  0.59596518  0.47176626  1
  O  O42  1  0.03630417  0.73038538  0.08442661  1
  O  O43  1  0.46414907  0.83684761  0.63269505  1
  O  O44  1  0.31629679  0.04596838  0.70579323  1
  O  O45  1  0.23170222  0.73067345  0.22845722  1
  O  O46  1  0.39388373  0.83115198  0.41955569  1
  O  O47  1  0.09464764  0.00090114  0.33373582  1
  O  O48  1  0.68990218  0.95318311  0.80020374  1
  O  O49  1  0.20324444  0.28185444  0.23598338  1
  O  O50  1  0.34442128  0.54028881  0.36187683  1
  O  O51  1  0.53803975  0.16800009  0.87070295  1
  O  O52  1  0.39202631  0.31380334  0.49960779  1
  O  O53  1  0.09974380  0.17836537  0.08573143  1
  O  O54  1  0.27640881  0.54154012  0.13486229  1
  O  O55  1  0.74561845  0.45822287  0.87072674  1
  O  O56  1  0.87331538  0.81077007  0.90900083  1
  O  O57  1  0.60178547  0.67004129  0.50335967  1
  O  O58  1  0.46659732  0.82804277  0.13117191  1
  O  O59  1  0.66531138  0.46312603  0.63707364  1
  O  O60  1  0.81713679  0.72209540  0.76149235  1
  O  O61  1  0.31262876  0.04769294  0.19303884  1
  O  O62  1  0.89402534  0.00198634  0.66972074  1
  O  O63  1  0.60687365  0.16787650  0.59209659  1
  O  O64  1  0.74848643  0.25967432  0.76816422  1
  O  O65  1  0.67985226  0.95601434  0.29289914  1
  O  O66  1  0.54038599  0.17647273  0.37065080  1
  O  O67  1  0.96177690  0.25716240  0.91254505  1
  O  O68  1  0.80900586  0.38834285  0.52571626  1
  O  O69  1  0.73385090  0.45798852  0.35569600  1
  O  O70  1  0.87311580  0.83879754  0.41230038  1
  O  O71  1  0.60854638  0.67199930  0.99847926  1
  O  O72  1  0.66825392  0.47153386  0.14029778  1
  O  O73  1  0.80537870  0.72244768  0.26615957  1
  O  O74  1  0.90017412  0.00841435  0.16826008  1
  O  O75  1  0.62939758  0.18301678  0.09132413  1
  O  O76  1  0.74972126  0.25344891  0.26338930  1
  O  O77  1  0.96268114  0.26513948  0.40881340  1
  O  O78  1  0.81596129  0.41265771  0.02685341  1
