# generated using pymatgen
data_Li32Mn13Cr3O48
_symmetry_space_group_name_H-M   'P 1'
_cell_length_a   5.00420369
_cell_length_b   8.68648335
_cell_length_c   19.42083112
_cell_angle_alpha   98.42216534
_cell_angle_beta   94.75466487
_cell_angle_gamma   89.95699299
_symmetry_Int_Tables_number   1
_chemical_formula_structural   Li32Mn13Cr3O48
_chemical_formula_sum   'Li32 Mn13 Cr3 O48'
_cell_volume   832.16936535
_cell_formula_units_Z   1
loop_
 _symmetry_equiv_pos_site_id
 _symmetry_equiv_pos_as_xyz
  1  'x, y, z'
loop_
 _atom_site_type_symbol
 _atom_site_label
 _atom_site_symmetry_multiplicity
 _atom_site_fract_x
 _atom_site_fract_y
 _atom_site_fract_z
 _atom_site_occupancy
  Li  Li0  1  0.99032307  0.16692612  0.24959637  1
  Li  Li1  1  0.87250740  0.37563272  0.37525101  1
  Li  Li2  1  0.75020621  0.24989742  0.00006314  1
  Li  Li3  1  0.74151153  0.91982235  0.00059319  1
  Li  Li4  1  0.99256137  0.16805857  0.75017595  1
  Li  Li5  1  0.75612370  0.57857901  0.49980908  1
  Li  Li6  1  0.87576623  0.37468026  0.87525586  1
  Li  Li7  1  0.74896418  0.25153623  0.49993669  1
  Li  Li8  1  0.74403051  0.92023244  0.50004677  1
  Li  Li9  1  0.62485018  0.12502589  0.12499931  1
  Li  Li10  1  0.75689844  0.58044444  0.99978588  1
  Li  Li11  1  0.50985860  0.33102679  0.24966907  1
  Li  Li12  1  0.62373108  0.12452292  0.62511667  1
  Li  Li13  1  0.49922014  0.00000294  0.24994901  1
  Li  Li14  1  0.49149351  0.66850666  0.24971019  1
  Li  Li15  1  0.50745401  0.33271366  0.75023788  1
  Li  Li16  1  0.37447883  0.87515532  0.37473213  1
  Li  Li17  1  0.50042148  0.99966939  0.75019961  1
  Li  Li18  1  0.25206739  0.74911264  0.00014275  1
  Li  Li19  1  0.49109239  0.66778033  0.74946560  1
  Li  Li20  1  0.24282680  0.42027824  0.00018629  1
  Li  Li21  1  0.37760549  0.87515568  0.87470401  1
  Li  Li22  1  0.25865245  0.07889580  0.49956177  1
  Li  Li23  1  0.24978681  0.74985439  0.50002335  1
  Li  Li24  1  0.12488554  0.62505498  0.12500024  1
  Li  Li25  1  0.24312203  0.42123148  0.50045873  1
  Li  Li26  1  0.00910853  0.83251302  0.25043970  1
  Li  Li27  1  0.25635590  0.08052529  0.99984715  1
  Li  Li28  1  0.12459089  0.62414071  0.62485795  1
  Li  Li29  1  0.00051983  0.50038879  0.24981915  1
  Li  Li30  1  0.00684771  0.83188454  0.75021397  1
  Li  Li31  1  0.00174277  0.50031132  0.74990427  1
  Mn  Mn32  1  0.87493578  0.70843762  0.37483834  1
  Mn  Mn33  1  0.87337658  0.03976986  0.37418504  1
  Mn  Mn34  1  0.87361452  0.04192985  0.87442114  1
  Mn  Mn35  1  0.62575375  0.79132450  0.12493775  1
  Mn  Mn36  1  0.62470404  0.45850267  0.12500796  1
  Mn  Mn37  1  0.62608643  0.79136394  0.62499992  1
  Mn  Mn38  1  0.62418252  0.45984204  0.62469048  1
  Mn  Mn39  1  0.37740214  0.54308425  0.37556471  1
  Mn  Mn40  1  0.37745613  0.54063007  0.87585610  1
  Mn  Mn41  1  0.37375091  0.20851463  0.87514665  1
  Mn  Mn42  1  0.12464906  0.95837500  0.12493643  1
  Mn  Mn43  1  0.12565383  0.29140024  0.12499945  1
  Mn  Mn44  1  0.12561555  0.95685377  0.62535618  1
  Cr  Cr45  1  0.87993791  0.70897552  0.87500307  1
  Cr  Cr46  1  0.36810496  0.21025647  0.37500328  1
  Cr  Cr47  1  0.12274007  0.28908586  0.62509126  1
  O  O48  1  0.96396530  0.10645822  0.06914253  1
  O  O49  1  0.92836404  0.78515811  0.06901886  1
  O  O50  1  0.92786206  0.42742340  0.06831208  1
  O  O51  1  0.96660943  0.10600408  0.56934491  1
  O  O52  1  0.82170822  0.96459123  0.18062003  1
  O  O53  1  0.82238078  0.32247178  0.18184716  1
  O  O54  1  0.92798989  0.78487035  0.56914049  1
  O  O55  1  0.92402708  0.42939863  0.56758004  1
  O  O56  1  0.78607153  0.64342184  0.18076779  1
  O  O57  1  0.71193982  0.85556004  0.31902338  1
  O  O58  1  0.82213911  0.96501810  0.68068381  1
  O  O59  1  0.82592626  0.32446877  0.68178801  1
  O  O60  1  0.67898365  0.53500408  0.31904042  1
  O  O61  1  0.67774758  0.17685237  0.31813681  1
  O  O62  1  0.78678821  0.64387887  0.68082236  1
  O  O63  1  0.71213483  0.85972614  0.81840926  1
  O  O64  1  0.46423904  0.60628135  0.06928517  1
  O  O65  1  0.57210542  0.71592007  0.43079058  1
  O  O66  1  0.57260296  0.07383798  0.43176730  1
  O  O67  1  0.67815892  0.53747992  0.81938261  1
  O  O68  1  0.67788697  0.17866602  0.81834276  1
  O  O69  1  0.42785783  0.92753832  0.06814144  1
  O  O70  1  0.42816468  0.28517154  0.06916237  1
  O  O71  1  0.53791290  0.39788594  0.43149127  1
  O  O72  1  0.46289480  0.60746487  0.56935510  1
  O  O73  1  0.56920519  0.71452617  0.93117217  1
  O  O74  1  0.57120861  0.07230948  0.93180945  1
  O  O75  1  0.32243688  0.82236977  0.18158915  1
  O  O76  1  0.32197682  0.46470417  0.18092066  1
  O  O77  1  0.42854661  0.92751249  0.56824062  1
  O  O78  1  0.42624570  0.28697173  0.56921963  1
  O  O79  1  0.53795229  0.39278453  0.93098963  1
  O  O80  1  0.28598675  0.14346375  0.18082757  1
  O  O81  1  0.21888978  0.35591689  0.31925027  1
  O  O82  1  0.32221168  0.82157154  0.68172623  1
  O  O83  1  0.32376095  0.46554822  0.68124509  1
  O  O84  1  0.17757690  0.67763586  0.31813003  1
  O  O85  1  0.17287950  0.03222915  0.31832991  1
  O  O86  1  0.28729183  0.14048482  0.68127268  1
  O  O87  1  0.21376505  0.35628471  0.81935893  1
  O  O88  1  0.07245463  0.57232222  0.43151649  1
  O  O89  1  0.07474694  0.21277533  0.43066610  1
  O  O90  1  0.17722103  0.67609316  0.81845133  1
  O  O91  1  0.17771256  0.03497558  0.81934818  1
  O  O92  1  0.03596129  0.89307388  0.43064632  1
  O  O93  1  0.07602685  0.57081492  0.93245109  1
  O  O94  1  0.07194170  0.21483358  0.93092840  1
  O  O95  1  0.02996797  0.89233641  0.93072705  1
