# generated using pymatgen
data_Li4Mn3Fe(BO3)4
_symmetry_space_group_name_H-M   'P 1'
_cell_length_a   11.08382821
_cell_length_b   5.23251960
_cell_length_c   5.17328737
_cell_angle_alpha   60.89905442
_cell_angle_beta   87.80062070
_cell_angle_gamma   76.27330546
_symmetry_Int_Tables_number   1
_chemical_formula_structural   Li4Mn3Fe(BO3)4
_chemical_formula_sum   'Li4 Mn3 Fe1 B4 O12'
_cell_volume   253.61863010
_cell_formula_units_Z   1
loop_
 _symmetry_equiv_pos_site_id
 _symmetry_equiv_pos_as_xyz
  1  'x, y, z'
loop_
 _atom_site_type_symbol
 _atom_site_label
 _atom_site_symmetry_multiplicity
 _atom_site_fract_x
 _atom_site_fract_y
 _atom_site_fract_z
 _atom_site_occupancy
  Li  Li0  1  0.16369327  0.36843556  0.39872869  1
  Li  Li1  1  0.33536664  0.63221304  0.10081831  1
  Li  Li2  1  0.66538809  0.36723237  0.90107145  1
  Li  Li3  1  0.83603621  0.62861991  0.60258223  1
  Mn  Mn4  1  0.11686499  0.74879096  0.72075546  1
  Mn  Mn5  1  0.38198657  0.25394525  0.77728814  1
  Mn  Mn6  1  0.61751844  0.74469643  0.22290252  1
  Fe  Fe7  1  0.88204229  0.25915363  0.27878167  1
  B  B8  1  0.13000179  0.07403559  0.06107561  1
  B  B9  1  0.36851159  0.92784711  0.43835246  1
  B  B10  1  0.63225446  0.07187581  0.56150478  1
  B  B11  1  0.86934236  0.92732657  0.93751060  1
  O  O12  1  0.16270273  0.30167012  0.80353828  1
  O  O13  1  0.08453531  0.13578683  0.28742307  1
  O  O14  1  0.14779314  0.78621494  0.10113203  1
  O  O15  1  0.33655293  0.69990721  0.69643699  1
  O  O16  1  0.35143164  0.21520406  0.39807152  1
  O  O17  1  0.41357862  0.86581900  0.21174327  1
  O  O18  1  0.58719415  0.13258984  0.78898846  1
  O  O19  1  0.64910140  0.78461565  0.60045157  1
  O  O20  1  0.66376109  0.30017247  0.30352029  1
  O  O21  1  0.85254751  0.20873172  0.90912214  1
  O  O22  1  0.91095158  0.87550506  0.70249000  1
  O  O23  1  0.84084220  0.68961287  0.19571145  1
