# generated using pymatgen
data_Ca3Si4(BiO7)2
_symmetry_space_group_name_H-M   'P 1'
_cell_length_a   8.13288145
_cell_length_b   9.88877410
_cell_length_c   10.18744144
_cell_angle_alpha   64.87484911
_cell_angle_beta   66.47419035
_cell_angle_gamma   65.71863495
_symmetry_Int_Tables_number   1
_chemical_formula_structural   Ca3Si4(BiO7)2
_chemical_formula_sum   'Ca6 Si8 Bi4 O28'
_cell_volume   650.66148934
_cell_formula_units_Z   2
loop_
 _symmetry_equiv_pos_site_id
 _symmetry_equiv_pos_as_xyz
  1  'x, y, z'
loop_
 _atom_site_type_symbol
 _atom_site_label
 _atom_site_symmetry_multiplicity
 _atom_site_fract_x
 _atom_site_fract_y
 _atom_site_fract_z
 _atom_site_occupancy
  Ca  Ca0  1  0.84037601  0.94700011  0.46521630  1
  Ca  Ca1  1  0.25259242  0.55299989  0.03478370  1
  Ca  Ca2  1  0.74740758  0.44700011  0.96521630  1
  Ca  Ca3  1  0.65849383  0.25000000  0.75000000  1
  Ca  Ca4  1  0.15962399  0.05299989  0.53478370  1
  Ca  Ca5  1  0.34150617  0.75000000  0.25000000  1
  Si  Si6  1  0.46964248  0.28730876  0.33114790  1
  Si  Si7  1  0.91189986  0.78730876  0.83114790  1
  Si  Si8  1  0.50791299  0.88060704  0.86107440  1
  Si  Si9  1  0.75040657  0.38060704  0.36107440  1
  Si  Si10  1  0.08810014  0.21269124  0.16885210  1
  Si  Si11  1  0.49208701  0.11939296  0.13892560  1
  Si  Si12  1  0.24959343  0.61939296  0.63892560  1
  Si  Si13  1  0.53035752  0.71269124  0.66885210  1
  Bi  Bi14  1  0.22897651  0.25000000  0.75000000  1
  Bi  Bi15  1  0.77102349  0.75000000  0.25000000  1
  Bi  Bi16  1  0.00000000  0.00000000  0.00000000  1
  Bi  Bi17  1  0.00000000  0.50000000  0.50000000  1
  O  O18  1  0.15483459  0.67673173  0.50110707  1
  O  O19  1  0.05673922  0.59410493  0.24631991  1
  O  O20  1  0.48547422  0.94631937  0.17166738  1
  O  O21  1  0.10283595  0.09410493  0.74631991  1
  O  O22  1  0.71694270  0.70327933  0.52339444  1
  O  O23  1  0.91762114  0.37410669  0.19680103  1
  O  O24  1  0.39653803  0.44631937  0.67166738  1
  O  O25  1  0.94361647  0.79672067  0.97660556  1
  O  O26  1  0.08237886  0.62589331  0.80319897  1
  O  O27  1  0.34747376  0.75849784  0.60309467  1
  O  O28  1  0.94326078  0.40589507  0.75368009  1
  O  O29  1  0.28305730  0.29672067  0.47660556  1
  O  O30  1  0.48852985  0.12589331  0.30319897  1
  O  O31  1  0.66732561  0.17673173  0.00110707  1
  O  O32  1  0.29093373  0.25849784  0.10309467  1
  O  O33  1  0.05638353  0.20327933  0.02339444  1
  O  O34  1  0.08275379  0.06932753  0.32448055  1
  O  O35  1  0.65252624  0.24150216  0.39690533  1
  O  O36  1  0.47656088  0.43067247  0.17551945  1
  O  O37  1  0.70906627  0.74150216  0.89690533  1
  O  O38  1  0.51147015  0.87410669  0.69680103  1
  O  O39  1  0.89716405  0.90589507  0.25368009  1
  O  O40  1  0.52343912  0.56932753  0.82448055  1
  O  O41  1  0.51452578  0.05368063  0.82833262  1
  O  O42  1  0.91724621  0.93067247  0.67551945  1
  O  O43  1  0.60346197  0.55368063  0.32833262  1
  O  O44  1  0.33267439  0.82326827  0.99889293  1
  O  O45  1  0.84516541  0.32326827  0.49889293  1
