# generated using pymatgen
data_Li32Mn13Cr3O48
_symmetry_space_group_name_H-M   'P 1'
_cell_length_a   5.00619045
_cell_length_b   8.69457094
_cell_length_c   19.42995995
_cell_angle_alpha   98.44501723
_cell_angle_beta   94.69589374
_cell_angle_gamma   89.98010712
_symmetry_Int_Tables_number   1
_chemical_formula_structural   Li32Mn13Cr3O48
_chemical_formula_sum   'Li32 Mn13 Cr3 O48'
_cell_volume   833.68509743
_cell_formula_units_Z   1
loop_
 _symmetry_equiv_pos_site_id
 _symmetry_equiv_pos_as_xyz
  1  'x, y, z'
loop_
 _atom_site_type_symbol
 _atom_site_label
 _atom_site_symmetry_multiplicity
 _atom_site_fract_x
 _atom_site_fract_y
 _atom_site_fract_z
 _atom_site_occupancy
  Li  Li0  1  0.99239484  0.16827267  0.24973898  1
  Li  Li1  1  0.87271095  0.37430231  0.37516375  1
  Li  Li2  1  0.75171949  0.24836113  0.00011516  1
  Li  Li3  1  0.74212276  0.92049405  0.00001843  1
  Li  Li4  1  0.99070132  0.16922520  0.75046033  1
  Li  Li5  1  0.75653462  0.58023649  0.50004714  1
  Li  Li6  1  0.87794311  0.37550019  0.87477907  1
  Li  Li7  1  0.74917326  0.25102493  0.49979029  1
  Li  Li8  1  0.74385417  0.91923957  0.50017787  1
  Li  Li9  1  0.62491254  0.12492847  0.12494211  1
  Li  Li10  1  0.75650842  0.58075942  0.99983296  1
  Li  Li11  1  0.50927155  0.33072462  0.24944373  1
  Li  Li12  1  0.62738602  0.12429456  0.62474589  1
  Li  Li13  1  0.50001143  0.99977592  0.24989245  1
  Li  Li14  1  0.48983671  0.66904988  0.24977027  1
  Li  Li15  1  0.50776397  0.33393427  0.74996341  1
  Li  Li16  1  0.37471005  0.87386809  0.37479165  1
  Li  Li17  1  0.49841153  0.99888833  0.74977896  1
  Li  Li18  1  0.25011349  0.74991721  0.00003907  1
  Li  Li19  1  0.49063859  0.66721979  0.74930288  1
  Li  Li20  1  0.24122121  0.42000538  0.00073182  1
  Li  Li21  1  0.37599007  0.87543856  0.87527251  1
  Li  Li22  1  0.25528081  0.07899855  0.49948980  1
  Li  Li23  1  0.25255490  0.75088155  0.50023507  1
  Li  Li24  1  0.12481171  0.62518262  0.12504424  1
  Li  Li25  1  0.24200565  0.42015170  0.50038254  1
  Li  Li26  1  0.00903124  0.83052297  0.25042393  1
  Li  Li27  1  0.25832489  0.08028922  0.99973455  1
  Li  Li28  1  0.12549884  0.62430093  0.62527227  1
  Li  Li29  1  0.99873637  0.50184680  0.24978689  1
  Li  Li30  1  0.00834448  0.83208386  0.75038046  1
  Li  Li31  1  0.00312327  0.49937272  0.75024049  1
  Mn  Mn32  1  0.87298474  0.70983006  0.37449943  1
  Mn  Mn33  1  0.87566747  0.04146719  0.37497218  1
  Mn  Mn34  1  0.87355573  0.70856859  0.87507678  1
  Mn  Mn35  1  0.87695290  0.04036208  0.87569380  1
  Mn  Mn36  1  0.62550889  0.79146898  0.12484554  1
  Mn  Mn37  1  0.62457819  0.45852569  0.12483587  1
  Mn  Mn38  1  0.62492464  0.79149472  0.62518056  1
  Mn  Mn39  1  0.62657135  0.46018990  0.62577049  1
  Mn  Mn40  1  0.37628704  0.20718375  0.37559182  1
  Mn  Mn41  1  0.37327085  0.54247054  0.87428446  1
  Mn  Mn42  1  0.12469030  0.95836990  0.12492074  1
  Mn  Mn43  1  0.12549802  0.29133521  0.12490743  1
  Mn  Mn44  1  0.12275846  0.95693267  0.62452205  1
  Cr  Cr45  1  0.37061760  0.53932779  0.37503847  1
  Cr  Cr46  1  0.37971614  0.21024846  0.87480456  1
  Cr  Cr47  1  0.13141240  0.28945302  0.62507295  1
  O  O48  1  0.96454484  0.10641762  0.06932746  1
  O  O49  1  0.92841739  0.78526661  0.06903730  1
  O  O50  1  0.92804476  0.42734477  0.06813118  1
  O  O51  1  0.96197468  0.10202151  0.56852777  1
  O  O52  1  0.82187465  0.96454970  0.18080782  1
  O  O53  1  0.82210716  0.32273271  0.18173090  1
  O  O54  1  0.92842513  0.78403327  0.56928644  1
  O  O55  1  0.92777603  0.42654348  0.56834953  1
  O  O56  1  0.78520840  0.64345536  0.18049524  1
  O  O57  1  0.71247811  0.85757757  0.31921995  1
  O  O58  1  0.82071324  0.96496273  0.68094944  1
  O  O59  1  0.82184478  0.32345292  0.68171839  1
  O  O60  1  0.67702986  0.53652131  0.31919936  1
  O  O61  1  0.67834825  0.17766402  0.31827820  1
  O  O62  1  0.78764848  0.64463312  0.68089451  1
  O  O63  1  0.71445091  0.85652631  0.81942818  1
  O  O64  1  0.46391374  0.60628378  0.06904998  1
  O  O65  1  0.57274075  0.71426261  0.43102667  1
  O  O66  1  0.57172632  0.07142288  0.43167926  1
  O  O67  1  0.67799624  0.53516593  0.81942490  1
  O  O68  1  0.67459094  0.17603370  0.81819662  1
  O  O69  1  0.42799501  0.92744986  0.06828659  1
  O  O70  1  0.42817381  0.28519778  0.06905339  1
  O  O71  1  0.53776566  0.38983263  0.43148919  1
  O  O72  1  0.46417688  0.60707019  0.56934509  1
  O  O73  1  0.57149989  0.71452682  0.93084079  1
  O  O74  1  0.57724185  0.07025521  0.93260633  1
  O  O75  1  0.32222114  0.82255702  0.18155524  1
  O  O76  1  0.32189556  0.46457430  0.18080442  1
  O  O77  1  0.42778617  0.92782760  0.56851362  1
  O  O78  1  0.42456740  0.28717248  0.56950702  1
  O  O79  1  0.53120610  0.39234856  0.93061208  1
  O  O80  1  0.28597099  0.14362980  0.18077635  1
  O  O81  1  0.21798597  0.35693699  0.31950034  1
  O  O82  1  0.32220867  0.82224710  0.68182842  1
  O  O83  1  0.32719798  0.46798271  0.68160959  1
  O  O84  1  0.17304807  0.67974921  0.31749237  1
  O  O85  1  0.17783950  0.03502883  0.31911323  1
  O  O86  1  0.28133936  0.14401481  0.68069532  1
  O  O87  1  0.21137168  0.36015335  0.81807928  1
  O  O88  1  0.07603651  0.57479633  0.43157056  1
  O  O89  1  0.07173342  0.21500381  0.43082434  1
  O  O90  1  0.17787519  0.67880937  0.81839341  1
  O  O91  1  0.17783155  0.03632892  0.81902080  1
  O  O92  1  0.03621836  0.89391817  0.43054794  1
  O  O93  1  0.07132812  0.57226060  0.93171912  1
  O  O94  1  0.07158530  0.21424593  0.93078859  1
  O  O95  1  0.03741426  0.89288325  0.93086239  1
