# generated using pymatgen
data_Li2MnCr3O8
_symmetry_space_group_name_H-M   'P 1'
_cell_length_a   8.42417533
_cell_length_b   8.33585159
_cell_length_c   8.34146656
_cell_angle_alpha   89.93925293
_cell_angle_beta   89.98848412
_cell_angle_gamma   90.08549720
_symmetry_Int_Tables_number   1
_chemical_formula_structural   Li2MnCr3O8
_chemical_formula_sum   'Li8 Mn4 Cr12 O32'
_cell_volume   585.75910482
_cell_formula_units_Z   4
loop_
 _symmetry_equiv_pos_site_id
 _symmetry_equiv_pos_as_xyz
  1  'x, y, z'
loop_
 _atom_site_type_symbol
 _atom_site_label
 _atom_site_symmetry_multiplicity
 _atom_site_fract_x
 _atom_site_fract_y
 _atom_site_fract_z
 _atom_site_occupancy
  Li  Li0  1  0.00177639  0.99922938  0.00168498  1
  Li  Li1  1  0.24834829  0.24782167  0.25090076  1
  Li  Li2  1  0.25175407  0.75222315  0.75089967  1
  Li  Li3  1  0.49814404  0.00072807  0.50158850  1
  Li  Li4  1  0.50167377  0.50127797  0.99857421  1
  Li  Li5  1  0.74830311  0.25142648  0.74897659  1
  Li  Li6  1  0.75170747  0.74864034  0.24897904  1
  Li  Li7  1  0.99833897  0.49864755  0.49855400  1
  Mn  Mn8  1  0.12516836  0.87203769  0.37782605  1
  Mn  Mn9  1  0.37470246  0.12788826  0.87766334  1
  Mn  Mn10  1  0.62468637  0.62721668  0.62247435  1
  Mn  Mn11  1  0.87521008  0.37271514  0.12254870  1
  Cr  Cr12  1  0.12581979  0.12190256  0.62797226  1
  Cr  Cr13  1  0.12506702  0.37546668  0.87535764  1
  Cr  Cr14  1  0.12446937  0.62219607  0.12776723  1
  Cr  Cr15  1  0.37576105  0.37760382  0.62792524  1
  Cr  Cr16  1  0.37509502  0.62452120  0.37518063  1
  Cr  Cr17  1  0.37409826  0.87771599  0.12725945  1
  Cr  Cr18  1  0.62597683  0.37779860  0.37221730  1
  Cr  Cr19  1  0.62507166  0.12528786  0.12487673  1
  Cr  Cr20  1  0.62382646  0.87789521  0.87155054  1
  Cr  Cr21  1  0.87612096  0.12259098  0.37224303  1
  Cr  Cr22  1  0.87498165  0.87502268  0.62512204  1
  Cr  Cr23  1  0.87394701  0.62228704  0.87240736  1
  O  O24  1  0.11510247  0.10454514  0.38789032  1
  O  O25  1  0.11167113  0.88148829  0.61123331  1
  O  O26  1  0.11412418  0.60430159  0.88389953  1
  O  O27  1  0.14316285  0.14033863  0.87099370  1
  O  O28  1  0.10678505  0.37857715  0.10998760  1
  O  O29  1  0.13560862  0.36613069  0.64654773  1
  O  O30  1  0.13884538  0.63844316  0.36800584  1
  O  O31  1  0.13527010  0.86230686  0.14540509  1
  O  O32  1  0.36507980  0.13723531  0.64526696  1
  O  O33  1  0.36138932  0.36137303  0.86845754  1
  O  O34  1  0.36465887  0.63358332  0.14626166  1
  O  O35  1  0.39306396  0.62121835  0.60995527  1
  O  O36  1  0.35689205  0.85922209  0.37057429  1
  O  O37  1  0.38573427  0.39557601  0.38396726  1
  O  O38  1  0.38848235  0.11848504  0.11085915  1
  O  O39  1  0.38450748  0.89533541  0.88703354  1
  O  O40  1  0.61496100  0.39473865  0.61259935  1
  O  O41  1  0.61130292  0.61829482  0.38912456  1
  O  O42  1  0.61397917  0.89638754  0.11552701  1
  O  O43  1  0.64373053  0.36017463  0.12870486  1
  O  O44  1  0.60623235  0.12146102  0.89009657  1
  O  O45  1  0.63603944  0.13373414  0.35355741  1
  O  O46  1  0.63845679  0.86051367  0.63117178  1
  O  O47  1  0.63477113  0.63720138  0.85489217  1
  O  O48  1  0.86522017  0.36314466  0.35485240  1
  O  O49  1  0.86161057  0.13931386  0.13168787  1
  O  O50  1  0.86489579  0.86601425  0.85400270  1
  O  O51  1  0.89332540  0.87909442  0.39082798  1
  O  O52  1  0.85619180  0.64090631  0.62853859  1
  O  O53  1  0.88488846  0.10399658  0.61576313  1
  O  O54  1  0.88875535  0.38162303  0.88930640  1
  O  O55  1  0.88521280  0.60524193  0.11260083  1
