# generated using pymatgen
data_Cs4SiO4
_symmetry_space_group_name_H-M   'P 1'
_cell_length_a   6.99276950
_cell_length_b   19.42426462
_cell_length_c   7.09284452
_cell_angle_alpha   90.00000000
_cell_angle_beta   113.09939509
_cell_angle_gamma   90.00000000
_symmetry_Int_Tables_number   1
_chemical_formula_structural   Cs4SiO4
_chemical_formula_sum   'Cs16 Si4 O16'
_cell_volume   886.17552269
_cell_formula_units_Z   4
loop_
 _symmetry_equiv_pos_site_id
 _symmetry_equiv_pos_as_xyz
  1  'x, y, z'
loop_
 _atom_site_type_symbol
 _atom_site_label
 _atom_site_symmetry_multiplicity
 _atom_site_fract_x
 _atom_site_fract_y
 _atom_site_fract_z
 _atom_site_occupancy
  Cs  Cs0  1  0.17634326  0.19186747  0.67758912  1
  Cs  Cs1  1  0.20931724  0.98611345  0.76555271  1
  Cs  Cs2  1  0.32065890  0.78734784  0.83999387  1
  Cs  Cs3  1  0.33776630  0.57741223  0.79379768  1
  Cs  Cs4  1  0.17634326  0.30813253  0.17758912  1
  Cs  Cs5  1  0.20931724  0.51388655  0.26555271  1
  Cs  Cs6  1  0.32065890  0.71265216  0.33999387  1
  Cs  Cs7  1  0.33776630  0.92258777  0.29379768  1
  Cs  Cs8  1  0.66223370  0.07741223  0.70620232  1
  Cs  Cs9  1  0.67934110  0.28734784  0.66000613  1
  Cs  Cs10  1  0.79068276  0.48611345  0.73444729  1
  Cs  Cs11  1  0.82365674  0.69186747  0.82241088  1
  Cs  Cs12  1  0.66223370  0.42258777  0.20620232  1
  Cs  Cs13  1  0.67934110  0.21265216  0.16000613  1
  Cs  Cs14  1  0.79068276  0.01388655  0.23444729  1
  Cs  Cs15  1  0.82365674  0.80813253  0.32241088  1
  Si  Si16  1  0.26188295  0.37673914  0.71040717  1
  Si  Si17  1  0.26188295  0.12326086  0.21040717  1
  Si  Si18  1  0.73811705  0.87673914  0.78959283  1
  Si  Si19  1  0.73811705  0.62326086  0.28959283  1
  O  O20  1  0.03556865  0.34097242  0.55898503  1
  O  O21  1  0.22341481  0.44051159  0.85081084  1
  O  O22  1  0.03556865  0.15902758  0.05898503  1
  O  O23  1  0.22341481  0.05948841  0.35081084  1
  O  O24  1  0.41504379  0.31735391  0.87402040  1
  O  O25  1  0.38929568  0.40550166  0.56814677  1
  O  O26  1  0.61070432  0.90550166  0.93185323  1
  O  O27  1  0.41504379  0.18264609  0.37402040  1
  O  O28  1  0.58495621  0.81735391  0.62597960  1
  O  O29  1  0.38929568  0.09449834  0.06814677  1
  O  O30  1  0.61070432  0.59449834  0.43185323  1
  O  O31  1  0.58495621  0.68264609  0.12597960  1
  O  O32  1  0.77658519  0.94051159  0.64918916  1
  O  O33  1  0.96443135  0.84097242  0.94101497  1
  O  O34  1  0.77658519  0.55948841  0.14918916  1
  O  O35  1  0.96443135  0.65902758  0.44101497  1
