# generated using pymatgen
data_Li8Mn5Fe3(BO3)8
_symmetry_space_group_name_H-M   'P 1'
_cell_length_a   6.01316315
_cell_length_b   5.23326441
_cell_length_c   16.20709458
_cell_angle_alpha   91.18680082
_cell_angle_beta   98.00485531
_cell_angle_gamma   89.42751245
_symmetry_Int_Tables_number   1
_chemical_formula_structural   Li8Mn5Fe3(BO3)8
_chemical_formula_sum   'Li8 Mn5 Fe3 B8 O24'
_cell_volume   504.92173761
_cell_formula_units_Z   1
loop_
 _symmetry_equiv_pos_site_id
 _symmetry_equiv_pos_as_xyz
  1  'x, y, z'
loop_
 _atom_site_type_symbol
 _atom_site_label
 _atom_site_symmetry_multiplicity
 _atom_site_fract_x
 _atom_site_fract_y
 _atom_site_fract_z
 _atom_site_occupancy
  Li  Li0  1  0.06129424  0.84774246  0.60935954  1
  Li  Li1  1  0.43712945  0.14958951  0.89053007  1
  Li  Li2  1  0.18755877  0.65033670  0.14104158  1
  Li  Li3  1  0.31273754  0.34924251  0.36033163  1
  Li  Li4  1  0.68828688  0.65095073  0.64066561  1
  Li  Li5  1  0.81232102  0.34945230  0.85873118  1
  Li  Li6  1  0.56257102  0.84946183  0.10899187  1
  Li  Li7  1  0.93919931  0.14994893  0.39155301  1
  Mn  Mn8  1  0.27436877  0.66706278  0.95928684  1
  Mn  Mn9  1  0.02627311  0.16638355  0.21030038  1
  Mn  Mn10  1  0.52345467  0.16600224  0.70966491  1
  Mn  Mn11  1  0.47682175  0.83266905  0.29064077  1
  Mn  Mn12  1  0.72373132  0.33341273  0.03984674  1
  Fe  Fe13  1  0.22420657  0.34106496  0.54012647  1
  Fe  Fe14  1  0.77618365  0.66098266  0.46072193  1
  Fe  Fe15  1  0.97299920  0.84016177  0.79039814  1
  B  B16  1  0.03673569  0.33080592  0.70145241  1
  B  B17  1  0.28776059  0.82945753  0.45329021  1
  B  B18  1  0.46328349  0.66973649  0.79757848  1
  B  B19  1  0.21450542  0.16890268  0.04805785  1
  B  B20  1  0.78540787  0.83153793  0.95058895  1
  B  B21  1  0.53526084  0.33083392  0.20197456  1
  B  B22  1  0.71226314  0.17130984  0.54669681  1
  B  B23  1  0.96482782  0.66791690  0.29938396  1
  O  O24  1  0.01488566  0.58967304  0.69030194  1
  O  O25  1  0.16808507  0.18167791  0.65317237  1
  O  O26  1  0.16894195  0.70926496  0.50992851  1
  O  O27  1  0.33467543  0.28342761  0.99131981  1
  O  O28  1  0.08294730  0.78311992  0.24215404  1
  O  O29  1  0.32721226  0.82223224  0.84275063  1
  O  O30  1  0.07992001  0.32227263  0.09357412  1
  O  O31  1  0.26472271  0.08821471  0.44084252  1
  O  O32  1  0.48394620  0.41084371  0.81216247  1
  O  O33  1  0.23359955  0.91025539  0.06237538  1
  O  O34  1  0.42219105  0.67938949  0.40695649  1
  O  O35  1  0.41537952  0.21656518  0.25884308  1
  O  O36  1  0.58455116  0.78385892  0.74115234  1
  O  O37  1  0.57851805  0.32040499  0.59367933  1
  O  O38  1  0.76665575  0.09032284  0.93699404  1
  O  O39  1  0.51625200  0.58935524  0.18741097  1
  O  O40  1  0.73509211  0.91209157  0.55928260  1
  O  O41  1  0.91897225  0.67944594  0.90386100  1
  O  O42  1  0.66981197  0.17730431  0.15641147  1
  O  O43  1  0.92164346  0.20857089  0.75874396  1
  O  O44  1  0.66697273  0.71656393  0.00767183  1
  O  O45  1  0.83028926  0.29161597  0.49013685  1
  O  O46  1  0.83128093  0.81955422  0.34612816  1
  O  O47  1  0.98426948  0.40900649  0.31293018  1
