# generated using pymatgen
data_Sm4In21Pd10
_symmetry_space_group_name_H-M   'P 1'
_cell_length_a   4.50718622
_cell_length_b   11.85848686
_cell_length_c   14.87093024
_cell_angle_alpha   80.95659686
_cell_angle_beta   81.28361174
_cell_angle_gamma   79.04484828
_symmetry_Int_Tables_number   1
_chemical_formula_structural   Sm4In21Pd10
_chemical_formula_sum   'Sm4 In21 Pd10'
_cell_volume   764.55069230
_cell_formula_units_Z   1
loop_
 _symmetry_equiv_pos_site_id
 _symmetry_equiv_pos_as_xyz
  1  'x, y, z'
loop_
 _atom_site_type_symbol
 _atom_site_label
 _atom_site_symmetry_multiplicity
 _atom_site_fract_x
 _atom_site_fract_y
 _atom_site_fract_z
 _atom_site_occupancy
  Sm  Sm0  1  0.76974296  0.13284464  0.32766943  1
  Sm  Sm1  1  0.23025704  0.86715536  0.67233057  1
  Sm  Sm2  1  0.12186544  0.58842148  0.16784763  1
  Sm  Sm3  1  0.87813456  0.41157852  0.83215237  1
  In  In4  1  0.50000000  0.00000000  -0.00000000  1
  In  In5  1  0.88454032  0.18028305  0.05063631  1
  In  In6  1  0.11545968  0.81971695  0.94936369  1
  In  In7  1  0.54238866  0.78236791  0.13285477  1
  In  In8  1  0.45761134  0.21763209  0.86714523  1
  In  In9  1  0.93636419  0.83042097  0.29685064  1
  In  In10  1  0.06363581  0.16957903  0.70314936  1
  In  In11  1  0.63202212  0.43595810  0.29999766  1
  In  In12  1  0.36797788  0.56404190  0.70000234  1
  In  In13  1  0.01166754  0.57075621  0.40590871  1
  In  In14  1  0.98833246  0.42924379  0.59409129  1
  In  In15  1  0.25118181  0.29170784  0.20592853  1
  In  In16  1  0.74881819  0.70829216  0.79407147  1
  In  In17  1  0.38364576  0.02797761  0.20473087  1
  In  In18  1  0.61635424  0.97202239  0.79526913  1
  In  In19  1  0.39874090  0.70681565  0.49570254  1
  In  In20  1  0.60125910  0.29318435  0.50429746  1
  In  In21  1  0.79759049  0.90015968  0.50465933  1
  In  In22  1  0.20240951  0.09984032  0.49534067  1
  In  In23  1  0.29937471  0.40120592  0.00004466  1
  In  In24  1  0.70062529  0.59879408  -0.00004466  1
  Pd  Pd25  1  0.74910034  0.38673872  0.11506059  1
  Pd  Pd26  1  0.25089966  0.61326128  0.88493941  1
  Pd  Pd27  1  0.97471634  0.93849725  0.11207007  1
  Pd  Pd28  1  0.02528366  0.06150275  0.88792993  1
  Pd  Pd29  1  0.34654454  0.92175592  0.38515501  1
  Pd  Pd30  1  0.65345546  0.07824408  0.61484499  1
  Pd  Pd31  1  0.13931549  0.32874707  0.39262195  1
  Pd  Pd32  1  0.86068451  0.67125293  0.60737805  1
  Pd  Pd33  1  0.50656952  0.67450650  0.31235446  1
  Pd  Pd34  1  0.49343048  0.32549350  0.68764554  1
