# generated using pymatgen
data_Al2Si3(NiO4)3
_symmetry_space_group_name_H-M   'P 1'
_cell_length_a   10.01070212
_cell_length_b   10.01070173
_cell_length_c   10.01070184
_cell_angle_alpha   109.47122084
_cell_angle_beta   109.47122004
_cell_angle_gamma   109.47122206
_symmetry_Int_Tables_number   1
_chemical_formula_structural   Al2Si3(NiO4)3
_chemical_formula_sum   'Al8 Si12 Ni12 O48'
_cell_volume   772.27449239
_cell_formula_units_Z   4
loop_
 _symmetry_equiv_pos_site_id
 _symmetry_equiv_pos_as_xyz
  1  'x, y, z'
loop_
 _atom_site_type_symbol
 _atom_site_label
 _atom_site_symmetry_multiplicity
 _atom_site_fract_x
 _atom_site_fract_y
 _atom_site_fract_z
 _atom_site_occupancy
  Al  Al0  1  0.50000000  0.00000000  0.00000000  1
  Al  Al1  1  0.00000000  0.00000000  0.00000000  1
  Al  Al2  1  0.00000000  0.50000000  0.00000000  1
  Al  Al3  1  0.00000000  0.00000000  0.50000000  1
  Al  Al4  1  0.00000000  0.50000000  0.50000100  1
  Al  Al5  1  0.50000000  0.00000000  0.50000100  1
  Al  Al6  1  0.50000000  0.50000000  0.00000000  1
  Al  Al7  1  0.50000000  0.50000000  0.50000000  1
  Si  Si8  1  0.25000000  0.12500000  0.87500000  1
  Si  Si9  1  0.87500000  0.25000000  0.12500000  1
  Si  Si10  1  0.62500000  0.75000100  0.37500000  1
  Si  Si11  1  0.25000000  0.62500000  0.37500100  1
  Si  Si12  1  0.37500000  0.62500000  0.75000000  1
  Si  Si13  1  0.75000000  0.37500000  0.62500000  1
  Si  Si14  1  0.87500000  0.12500000  0.75000000  1
  Si  Si15  1  0.12500000  0.75000100  0.87500000  1
  Si  Si16  1  0.12500000  0.87500100  0.25000000  1
  Si  Si17  1  0.62500000  0.37500000  0.25000000  1
  Si  Si18  1  0.37500000  0.25000000  0.62500000  1
  Si  Si19  1  0.75000000  0.87500100  0.12500000  1
  Ni  Ni20  1  0.25000000  0.87500100  0.62500000  1
  Ni  Ni21  1  0.87500000  0.62500000  0.25000000  1
  Ni  Ni22  1  0.62500100  0.87500100  0.75000100  1
  Ni  Ni23  1  0.87500100  0.75000100  0.62500100  1
  Ni  Ni24  1  0.62500000  0.25000000  0.87500000  1
  Ni  Ni25  1  0.75000000  0.62500000  0.87500000  1
  Ni  Ni26  1  0.75000000  0.12500000  0.37500000  1
  Ni  Ni27  1  0.12500000  0.37500000  0.75000000  1
  Ni  Ni28  1  0.37500000  0.12500000  0.25000000  1
  Ni  Ni29  1  0.12500000  0.25000000  0.37500000  1
  Ni  Ni30  1  0.37500000  0.75000100  0.12500000  1
  Ni  Ni31  1  0.25000000  0.37500000  0.12500000  1
  O  O32  1  0.29844260  0.48384872  0.37845883  1
  O  O33  1  0.01615128  0.31459388  0.89461011  1
  O  O34  1  0.12154117  0.60538989  0.91998377  1
  O  O35  1  0.20155640  0.58001623  0.18540612  1
  O  O36  1  0.20155640  0.12154017  0.01615028  1
  O  O37  1  0.58001523  0.18540512  0.20155640  1
  O  O38  1  0.60538889  0.18540512  0.48384872  1
  O  O39  1  0.18540612  0.20155640  0.58001723  1
  O  O40  1  0.89461111  0.37845883  0.58001623  1
  O  O41  1  0.31459488  0.91998377  0.29844360  1
  O  O42  1  0.91998377  0.29844360  0.31459488  1
  O  O43  1  0.01615128  0.20155640  0.12154017  1
  O  O44  1  0.18540612  0.48384872  0.60538989  1
  O  O45  1  0.58001623  0.89461111  0.37845983  1
  O  O46  1  0.12154017  0.01615028  0.20155640  1
  O  O47  1  0.48384872  0.60538989  0.18540512  1
  O  O48  1  0.37845883  0.58001623  0.89461011  1
  O  O49  1  0.89461011  0.01615028  0.31459388  1
  O  O50  1  0.60538889  0.91998377  0.12154117  1
  O  O51  1  0.10538889  0.62154017  0.41998377  1
  O  O52  1  0.48384872  0.37845883  0.29844260  1
  O  O53  1  0.37845883  0.29844360  0.48384872  1
  O  O54  1  0.31459488  0.89461111  0.01615128  1
  O  O55  1  0.29844260  0.31459388  0.91998277  1
  O  O56  1  0.70155640  0.51615028  0.62154117  1
  O  O57  1  0.98384872  0.68540512  0.10538889  1
  O  O58  1  0.87845983  0.39461111  0.08001623  1
  O  O59  1  0.79844360  0.41998377  0.81459488  1
  O  O60  1  0.79844260  0.87845983  0.98384972  1
  O  O61  1  0.41998377  0.81459388  0.79844260  1
  O  O62  1  0.39461111  0.81459388  0.51615028  1
  O  O63  1  0.81459488  0.79844360  0.41998377  1
  O  O64  1  0.70155640  0.68540512  0.08001623  1
  O  O65  1  0.68540612  0.10538989  0.98384872  1
  O  O66  1  0.62154017  0.70155740  0.51615128  1
  O  O67  1  0.51615128  0.62154017  0.70155640  1
  O  O68  1  0.08001623  0.87845983  0.39461011  1
  O  O69  1  0.39461011  0.08001523  0.87845883  1
  O  O70  1  0.10538989  0.98384872  0.68540512  1
  O  O71  1  0.62154117  0.41998377  0.10538889  1
  O  O72  1  0.51615128  0.39461111  0.81459488  1
  O  O73  1  0.87845983  0.98384872  0.79844360  1
  O  O74  1  0.41998477  0.10538989  0.62154117  1
  O  O75  1  0.81459388  0.51615028  0.39461111  1
  O  O76  1  0.98384872  0.79844360  0.87845983  1
  O  O77  1  0.08001723  0.70155740  0.68540612  1
  O  O78  1  0.68540512  0.08001523  0.70155640  1
  O  O79  1  0.91998377  0.12154017  0.60538889  1
