# generated using pymatgen
data_RbIn3F10
_symmetry_space_group_name_H-M   'P 1'
_cell_length_a   6.93513143
_cell_length_b   7.91671590
_cell_length_c   8.41973143
_cell_angle_alpha   90.00000000
_cell_angle_beta   90.00000000
_cell_angle_gamma   90.00000000
_symmetry_Int_Tables_number   1
_chemical_formula_structural   RbIn3F10
_chemical_formula_sum   'Rb2 In6 F20'
_cell_volume   462.27243207
_cell_formula_units_Z   2
loop_
 _symmetry_equiv_pos_site_id
 _symmetry_equiv_pos_as_xyz
  1  'x, y, z'
loop_
 _atom_site_type_symbol
 _atom_site_label
 _atom_site_symmetry_multiplicity
 _atom_site_fract_x
 _atom_site_fract_y
 _atom_site_fract_z
 _atom_site_occupancy
  Rb  Rb0  1  0.99205288  0.50000000  0.75000000  1
  Rb  Rb1  1  0.00794712  0.50000000  0.25000000  1
  In  In2  1  0.50000000  0.26891530  0.50000000  1
  In  In3  1  0.50000000  0.73108470  0.00000000  1
  In  In4  1  0.00000000  0.99843390  0.50000000  1
  In  In5  1  0.00000000  0.00156610  0.00000000  1
  In  In6  1  0.50000000  0.27271474  0.00000000  1
  In  In7  1  0.50000000  0.72728526  0.50000000  1
  F  F8  1  0.19435400  0.20341469  0.01947940  1
  F  F9  1  0.19435400  0.79658531  0.48052060  1
  F  F10  1  0.80564600  0.20341469  0.98052060  1
  F  F11  1  0.80564600  0.79658531  0.51947940  1
  F  F12  1  0.19497437  0.19940683  0.47862390  1
  F  F13  1  0.19497437  0.80059317  0.02137610  1
  F  F14  1  0.80502563  0.19940683  0.52137610  1
  F  F15  1  0.80502563  0.80059317  0.97862390  1
  F  F16  1  0.50000000  0.00177996  0.00000000  1
  F  F17  1  0.50000000  0.99822004  0.50000000  1
  F  F18  1  0.03735526  -0.00000000  0.75000000  1
  F  F19  1  0.96264474  -0.00000000  0.25000000  1
  F  F20  1  0.67958020  0.50176214  0.00500483  1
  F  F21  1  0.67958020  0.49823786  0.49499517  1
  F  F22  1  0.32041980  0.50176214  0.99499517  1
  F  F23  1  0.32041980  0.49823786  0.50500483  1
  F  F24  1  0.48726278  0.72186412  0.74998666  1
  F  F25  1  0.48726278  0.27813588  0.75001334  1
  F  F26  1  0.51273722  0.72186412  0.25001334  1
  F  F27  1  0.51273722  0.27813588  0.24998666  1
