# generated using pymatgen
data_MnCdF5
_symmetry_space_group_name_H-M   'P 1'
_cell_length_a   6.40932566
_cell_length_b   8.00950974
_cell_length_c   9.04282102
_cell_angle_alpha   115.81663030
_cell_angle_beta   90.00000000
_cell_angle_gamma   90.00000000
_symmetry_Int_Tables_number   1
_chemical_formula_structural   MnCdF5
_chemical_formula_sum   'Mn4 Cd4 F20'
_cell_volume   417.88574113
_cell_formula_units_Z   4
loop_
 _symmetry_equiv_pos_site_id
 _symmetry_equiv_pos_as_xyz
  1  'x, y, z'
loop_
 _atom_site_type_symbol
 _atom_site_label
 _atom_site_symmetry_multiplicity
 _atom_site_fract_x
 _atom_site_fract_y
 _atom_site_fract_z
 _atom_site_occupancy
  Mn  Mn0  1  0.50000000  -0.00000000  0.50000000  1
  Mn  Mn1  1  0.00000000  0.50000000  -0.00000000  1
  Mn  Mn2  1  0.50000000  0.50000000  0.50000000  1
  Mn  Mn3  1  -0.00000000  -0.00000000  -0.00000000  1
  Cd  Cd4  1  0.54161344  0.24868940  0.99941263  1
  Cd  Cd5  1  0.04161344  0.75131060  0.50058737  1
  Cd  Cd6  1  0.95838656  0.24868940  0.49941263  1
  Cd  Cd7  1  0.45838656  0.75131060  0.00058737  1
  F  F8  1  0.70490382  0.94790925  0.97893434  1
  F  F9  1  0.79509618  0.94790925  0.47893434  1
  F  F10  1  0.60596557  0.25168691  0.50267353  1
  F  F11  1  0.89403443  0.25168691  0.00267353  1
  F  F12  1  0.70323780  0.54874810  0.00689458  1
  F  F13  1  0.29509618  0.05209075  0.02106566  1
  F  F14  1  0.79676220  0.54874810  0.50689458  1
  F  F15  1  0.03073145  0.89838043  0.77262900  1
  F  F16  1  0.51064183  0.38640602  0.27192341  1
  F  F17  1  0.96926855  0.10161957  0.22737100  1
  F  F18  1  0.20323780  0.45125190  0.49310542  1
  F  F19  1  0.39403443  0.74831309  0.49732647  1
  F  F20  1  0.46926855  0.89838043  0.27262900  1
  F  F21  1  0.53073145  0.10161957  0.72737100  1
  F  F22  1  0.48935817  0.61359398  0.72807659  1
  F  F23  1  0.20490382  0.05209075  0.52106566  1
  F  F24  1  0.10596557  0.74831309  0.99732647  1
  F  F25  1  0.98935817  0.38640602  0.77192341  1
  F  F26  1  0.29676220  0.45125190  0.99310542  1
  F  F27  1  0.01064183  0.61359398  0.22807659  1
