# generated using pymatgen
data_CoH12(BrO6)2
_symmetry_space_group_name_H-M   'P 1'
_cell_length_a   10.74036434
_cell_length_b   10.74036434
_cell_length_c   10.74036434
_cell_angle_alpha   90.00000000
_cell_angle_beta   90.00000000
_cell_angle_gamma   90.00000000
_symmetry_Int_Tables_number   1
_chemical_formula_structural   CoH12(BrO6)2
_chemical_formula_sum   'Co4 H48 Br8 O48'
_cell_volume   1238.95930551
_cell_formula_units_Z   4
loop_
 _symmetry_equiv_pos_site_id
 _symmetry_equiv_pos_as_xyz
  1  'x, y, z'
loop_
 _atom_site_type_symbol
 _atom_site_label
 _atom_site_symmetry_multiplicity
 _atom_site_fract_x
 _atom_site_fract_y
 _atom_site_fract_z
 _atom_site_occupancy
  Co  Co0  1  0.50000000  0.50000000  0.00000000  1
  Co  Co1  1  0.50000000  -0.00000000  0.50000000  1
  Co  Co2  1  0.00000000  0.50000000  0.50000000  1
  Co  Co3  1  0.00000000  -0.00000000  0.00000000  1
  H  H4  1  0.25743502  0.56528227  0.03760640  1
  H  H5  1  0.74256498  0.06528227  0.46239360  1
  H  H6  1  0.24256498  0.43471773  0.53760640  1
  H  H7  1  0.75743502  0.93471773  0.96239360  1
  H  H8  1  0.03760640  0.25743502  0.56528227  1
  H  H9  1  0.46239360  0.74256498  0.06528227  1
  H  H10  1  0.53760640  0.24256498  0.43471773  1
  H  H11  1  0.96239360  0.75743502  0.93471773  1
  H  H12  1  0.56528227  0.03760640  0.25743502  1
  H  H13  1  0.06528227  0.46239360  0.74256498  1
  H  H14  1  0.43471773  0.53760640  0.24256498  1
  H  H15  1  0.93471773  0.96239360  0.75743502  1
  H  H16  1  0.74256498  0.43471773  0.96239360  1
  H  H17  1  0.25743502  0.93471773  0.53760640  1
  H  H18  1  0.75743502  0.56528227  0.46239360  1
  H  H19  1  0.24256498  0.06528227  0.03760640  1
  H  H20  1  0.96239360  0.74256498  0.43471773  1
  H  H21  1  0.53760640  0.25743502  0.93471773  1
  H  H22  1  0.46239360  0.75743502  0.56528227  1
  H  H23  1  0.03760640  0.24256498  0.06528227  1
  H  H24  1  0.43471773  0.96239360  0.74256498  1
  H  H25  1  0.93471773  0.53760640  0.25743502  1
  H  H26  1  0.56528227  0.46239360  0.75743502  1
  H  H27  1  0.06528227  0.03760640  0.24256498  1
  H  H28  1  0.26278259  0.45784734  0.93344531  1
  H  H29  1  0.73721741  0.95784734  0.56655469  1
  H  H30  1  0.23721741  0.54215266  0.43344531  1
  H  H31  1  0.76278259  0.04215266  0.06655469  1
  H  H32  1  0.93344531  0.26278259  0.45784734  1
  H  H33  1  0.56655469  0.73721741  0.95784734  1
  H  H34  1  0.43344531  0.23721741  0.54215266  1
  H  H35  1  0.06655469  0.76278259  0.04215266  1
  H  H36  1  0.45784734  0.93344531  0.26278259  1
  H  H37  1  0.95784734  0.56655469  0.73721741  1
  H  H38  1  0.54215266  0.43344531  0.23721741  1
  H  H39  1  0.04215266  0.06655469  0.76278259  1
  H  H40  1  0.73721741  0.54215266  0.06655469  1
  H  H41  1  0.26278259  0.04215266  0.43344531  1
  H  H42  1  0.76278259  0.45784734  0.56655469  1
  H  H43  1  0.23721741  0.95784734  0.93344531  1
  H  H44  1  0.06655469  0.73721741  0.54215266  1
  H  H45  1  0.43344531  0.26278259  0.04215266  1
  H  H46  1  0.56655469  0.76278259  0.45784734  1
  H  H47  1  0.93344531  0.23721741  0.95784734  1
  H  H48  1  0.54215266  0.06655469  0.73721741  1
  H  H49  1  0.04215266  0.43344531  0.26278259  1
  H  H50  1  0.45784734  0.56655469  0.76278259  1
  H  H51  1  0.95784734  0.93344531  0.23721741  1
  Br  Br52  1  0.24906467  0.75093533  0.25093533  1
  Br  Br53  1  0.75093533  0.25093533  0.24906467  1
  Br  Br54  1  0.25093533  0.24906467  0.75093533  1
  Br  Br55  1  0.74906467  0.74906467  0.74906467  1
  Br  Br56  1  0.75093533  0.24906467  0.74906467  1
  Br  Br57  1  0.24906467  0.74906467  0.75093533  1
  Br  Br58  1  0.74906467  0.75093533  0.24906467  1
  Br  Br59  1  0.25093533  0.25093533  0.25093533  1
  O  O60  1  0.36145949  0.67057878  0.67365030  1
  O  O61  1  0.63854051  0.17057878  0.82634970  1
  O  O62  1  0.13854051  0.32942122  0.17365030  1
  O  O63  1  0.86145949  0.82942122  0.32634970  1
  O  O64  1  0.67365030  0.36145949  0.67057878  1
  O  O65  1  0.82634970  0.63854051  0.17057878  1
  O  O66  1  0.17365030  0.13854051  0.32942122  1
  O  O67  1  0.32634970  0.86145949  0.82942122  1
  O  O68  1  0.67057878  0.67365030  0.36145949  1
  O  O69  1  0.17057878  0.82634970  0.63854051  1
  O  O70  1  0.32942122  0.17365030  0.13854051  1
  O  O71  1  0.82942122  0.32634970  0.86145949  1
  O  O72  1  0.63854051  0.32942122  0.32634970  1
  O  O73  1  0.36145949  0.82942122  0.17365030  1
  O  O74  1  0.86145949  0.67057878  0.82634970  1
  O  O75  1  0.13854051  0.17057878  0.67365030  1
  O  O76  1  0.32634970  0.63854051  0.32942122  1
  O  O77  1  0.17365030  0.36145949  0.82942122  1
  O  O78  1  0.82634970  0.86145949  0.67057878  1
  O  O79  1  0.67365030  0.13854051  0.17057878  1
  O  O80  1  0.32942122  0.32634970  0.63854051  1
  O  O81  1  0.82942122  0.17365030  0.36145949  1
  O  O82  1  0.67057878  0.82634970  0.86145949  1
  O  O83  1  0.17057878  0.67365030  0.13854051  1
  O  O84  1  0.30889671  0.52860831  0.97080244  1
  O  O85  1  0.69110329  0.02860831  0.52919756  1
  O  O86  1  0.19110329  0.47139169  0.47080244  1
  O  O87  1  0.80889671  0.97139169  0.02919756  1
  O  O88  1  0.97080244  0.30889671  0.52860831  1
  O  O89  1  0.52919756  0.69110329  0.02860831  1
  O  O90  1  0.47080244  0.19110329  0.47139169  1
  O  O91  1  0.02919756  0.80889671  0.97139169  1
  O  O92  1  0.52860831  0.97080244  0.30889671  1
  O  O93  1  0.02860831  0.52919756  0.69110329  1
  O  O94  1  0.47139169  0.47080244  0.19110329  1
  O  O95  1  0.97139169  0.02919756  0.80889671  1
  O  O96  1  0.69110329  0.47139169  0.02919756  1
  O  O97  1  0.30889671  0.97139169  0.47080244  1
  O  O98  1  0.80889671  0.52860831  0.52919756  1
  O  O99  1  0.19110329  0.02860831  0.97080244  1
  O  O100  1  0.02919756  0.69110329  0.47139169  1
  O  O101  1  0.47080244  0.30889671  0.97139169  1
  O  O102  1  0.52919756  0.80889671  0.52860831  1
  O  O103  1  0.97080244  0.19110329  0.02860831  1
  O  O104  1  0.47139169  0.02919756  0.69110329  1
  O  O105  1  0.97139169  0.47080244  0.30889671  1
  O  O106  1  0.52860831  0.52919756  0.80889671  1
  O  O107  1  0.02860831  0.97080244  0.19110329  1
