# generated using pymatgen
data_AlH3
_symmetry_space_group_name_H-M   'P 1'
_cell_length_a   6.39889610
_cell_length_b   6.39889610
_cell_length_c   6.53471874
_cell_angle_alpha   90.00000000
_cell_angle_beta   90.00000000
_cell_angle_gamma   118.80995946
_symmetry_Int_Tables_number   1
_chemical_formula_structural   AlH3
_chemical_formula_sum   'Al6 H18'
_cell_volume   234.45075139
_cell_formula_units_Z   6
loop_
 _symmetry_equiv_pos_site_id
 _symmetry_equiv_pos_as_xyz
  1  'x, y, z'
loop_
 _atom_site_type_symbol
 _atom_site_label
 _atom_site_symmetry_multiplicity
 _atom_site_fract_x
 _atom_site_fract_y
 _atom_site_fract_z
 _atom_site_occupancy
  Al  Al0  1  0.50000000  -0.00000000  -0.00000000  1
  Al  Al1  1  0.00000000  0.50000000  -0.00000000  1
  Al  Al2  1  0.50000100  0.50000100  -0.00000000  1
  Al  Al3  1  0.50000000  -0.00000000  0.50000000  1
  Al  Al4  1  0.00000000  0.50000000  0.50000000  1
  Al  Al5  1  0.50000100  0.50000100  0.50000000  1
  H  H6  1  0.20641655  0.40908892  0.06180195  1
  H  H7  1  0.59091008  0.79358345  0.06180195  1
  H  H8  1  0.78310249  0.21689851  0.06628865  1
  H  H9  1  0.55306113  0.44693987  0.25000000  1
  H  H10  1  0.00817706  0.59508447  0.25000000  1
  H  H11  1  0.40491853  0.99182494  0.25000000  1
  H  H12  1  0.78310249  0.21689851  0.43371135  1
  H  H13  1  0.20641655  0.40908892  0.43819805  1
  H  H14  1  0.59091008  0.79358345  0.43819805  1
  H  H15  1  0.40908892  0.20641655  0.56180195  1
  H  H16  1  0.79358345  0.59091008  0.56180195  1
  H  H17  1  0.21689851  0.78310249  0.56628965  1
  H  H18  1  0.59508447  0.00817706  0.75000000  1
  H  H19  1  0.99182494  0.40491853  0.75000000  1
  H  H20  1  0.44693987  0.55306113  0.75000000  1
  H  H21  1  0.21689851  0.78310249  0.93371135  1
  H  H22  1  0.40908892  0.20641655  0.93819905  1
  H  H23  1  0.79358345  0.59091008  0.93819905  1
