# generated using pymatgen
data_CoPH3O5
_symmetry_space_group_name_H-M   'P 1'
_cell_length_a   9.64874968
_cell_length_b   9.64874968
_cell_length_c   9.64874972
_cell_angle_alpha   112.71661887
_cell_angle_beta   112.71661887
_cell_angle_gamma   112.71662105
_symmetry_Int_Tables_number   1
_chemical_formula_structural   CoPH3O5
_chemical_formula_sum   'Co6 P6 H18 O30'
_cell_volume   594.11046743
_cell_formula_units_Z   6
loop_
 _symmetry_equiv_pos_site_id
 _symmetry_equiv_pos_as_xyz
  1  'x, y, z'
loop_
 _atom_site_type_symbol
 _atom_site_label
 _atom_site_symmetry_multiplicity
 _atom_site_fract_x
 _atom_site_fract_y
 _atom_site_fract_z
 _atom_site_occupancy
  Co  Co0  1  0.79205137  0.07505938  0.54088732  1
  Co  Co1  1  0.07505938  0.54088732  0.79205137  1
  Co  Co2  1  0.54088732  0.79205137  0.07505938  1
  Co  Co3  1  0.20794863  0.92494062  0.45911268  1
  Co  Co4  1  0.92494062  0.45911268  0.20794863  1
  Co  Co5  1  0.45911268  0.20794863  0.92494062  1
  P  P6  1  0.67280058  0.31073181  0.75336119  1
  P  P7  1  0.31073181  0.75336119  0.67280058  1
  P  P8  1  0.75336119  0.67280058  0.31073181  1
  P  P9  1  0.32719942  0.68926819  0.24663881  1
  P  P10  1  0.68926819  0.24663881  0.32719942  1
  P  P11  1  0.24663881  0.32719942  0.68926819  1
  H  H12  1  0.61692119  0.52073114  0.82376047  1
  H  H13  1  0.52073114  0.82376047  0.61692119  1
  H  H14  1  0.82376047  0.61692119  0.52073114  1
  H  H15  1  0.38307881  0.47926886  0.17623953  1
  H  H16  1  0.47926886  0.17623953  0.38307881  1
  H  H17  1  0.17623953  0.38307881  0.47926886  1
  H  H18  1  0.04070916  0.13058497  0.83951513  1
  H  H19  1  0.13058497  0.83951513  0.04070916  1
  H  H20  1  0.83951513  0.04070916  0.13058497  1
  H  H21  1  0.95929084  0.86941503  0.16048487  1
  H  H22  1  0.86941503  0.16048487  0.95929084  1
  H  H23  1  0.16048487  0.95929084  0.86941503  1
  H  H24  1  0.85840767  0.91253402  0.67743073  1
  H  H25  1  0.91253402  0.67743073  0.85840767  1
  H  H26  1  0.67743073  0.85840767  0.91253402  1
  H  H27  1  0.14159233  0.08746598  0.32256927  1
  H  H28  1  0.08746598  0.32256927  0.14159233  1
  H  H29  1  0.32256927  0.14159233  0.08746598  1
  O  O30  1  0.47334116  0.14677286  0.55406425  1
  O  O31  1  0.14677286  0.55406425  0.47334116  1
  O  O32  1  0.55406425  0.47334116  0.14677286  1
  O  O33  1  0.52665884  0.85322714  0.44593575  1
  O  O34  1  0.85322714  0.44593575  0.52665884  1
  O  O35  1  0.44593575  0.52665884  0.85322714  1
  O  O36  1  0.68282776  0.30239158  0.91451297  1
  O  O37  1  0.30239158  0.91451297  0.68282776  1
  O  O38  1  0.91451297  0.68282776  0.30239158  1
  O  O39  1  0.31717224  0.69760842  0.08548703  1
  O  O40  1  0.69760842  0.08548703  0.31717224  1
  O  O41  1  0.08548703  0.31717224  0.69760842  1
  O  O42  1  0.83571948  0.32530708  0.75117092  1
  O  O43  1  0.32530708  0.75117092  0.83571948  1
  O  O44  1  0.75117092  0.83571948  0.32530708  1
  O  O45  1  0.16428052  0.67469292  0.24882908  1
  O  O46  1  0.67469292  0.24882908  0.16428052  1
  O  O47  1  0.24882908  0.16428052  0.67469292  1
  O  O48  1  0.71291189  0.51179384  0.81189101  1
  O  O49  1  0.51179384  0.81189101  0.71291189  1
  O  O50  1  0.81189101  0.71291189  0.51179384  1
  O  O51  1  0.28708811  0.48820616  0.18810899  1
  O  O52  1  0.48820616  0.18810899  0.28708811  1
  O  O53  1  0.18810899  0.28708811  0.48820616  1
  O  O54  1  0.89831940  0.04492077  0.75292580  1
  O  O55  1  0.04492077  0.75292580  0.89831940  1
  O  O56  1  0.75292580  0.89831940  0.04492077  1
  O  O57  1  0.10168060  0.95507923  0.24707420  1
  O  O58  1  0.95507923  0.24707420  0.10168060  1
  O  O59  1  0.24707420  0.10168060  0.95507923  1
