# generated using pymatgen
data_Ca6Si6H2O19
_symmetry_space_group_name_H-M   'P 1'
_cell_length_a   8.80672902
_cell_length_b   7.41624397
_cell_length_c   7.09382914
_cell_angle_alpha   90.08336471
_cell_angle_beta   90.09734031
_cell_angle_gamma   102.07132496
_symmetry_Int_Tables_number   1
_chemical_formula_structural   Ca6Si6H2O19
_chemical_formula_sum   'Ca6 Si6 H2 O19'
_cell_volume   453.07189366
_cell_formula_units_Z   1
loop_
 _symmetry_equiv_pos_site_id
 _symmetry_equiv_pos_as_xyz
  1  'x, y, z'
loop_
 _atom_site_type_symbol
 _atom_site_label
 _atom_site_symmetry_multiplicity
 _atom_site_fract_x
 _atom_site_fract_y
 _atom_site_fract_z
 _atom_site_occupancy
  Ca  Ca0  1  0.13392233  0.16214760  0.34416784  1
  Ca  Ca1  1  0.86607646  0.83785172  0.65582952  1
  Ca  Ca2  1  0.50000005  0.99999986  0.49999988  1
  Ca  Ca3  1  0.49999959  0.49999985  0.50000013  1
  Ca  Ca4  1  0.14357540  0.65626943  0.34748261  1
  Ca  Ca5  1  0.85642405  0.34373061  0.65251785  1
  Si  Si6  1  0.31847031  0.95491716  0.05661267  1
  Si  Si7  1  0.68152976  0.04508363  0.94338754  1
  Si  Si8  1  0.21050626  0.63535501  0.77351884  1
  Si  Si9  1  0.78949359  0.36464542  0.22648134  1
  Si  Si10  1  0.21007578  0.21818090  0.77131971  1
  Si  Si11  1  0.78992485  0.78181897  0.22868002  1
  H  H12  1  0.31499002  0.44987167  0.14131739  1
  H  H13  1  0.68500974  0.55012910  0.85868255  1
  O  O14  1  0.29989104  0.44622738  0.27714557  1
  O  O15  1  0.70010813  0.55377235  0.72285496  1
  O  O16  1  0.29813329  0.95121886  0.28159797  1
  O  O17  1  0.70186670  0.04878083  0.71840245  1
  O  O18  1  0.04235696  0.14050584  0.66984675  1
  O  O19  1  0.95764189  0.85949385  0.33015125  1
  O  O20  1  0.04257171  0.63158112  0.67416402  1
  O  O21  1  0.95742772  0.36841936  0.32583574  1
  O  O22  1  0.23111132  0.75277284  0.97512367  1
  O  O23  1  0.76888795  0.24722570  0.02487671  1
  O  O24  1  0.22784261  0.10922890  0.97266819  1
  O  O25  1  0.77215652  0.89076972  0.02733228  1
  O  O26  1  0.34763117  0.21281573  0.62133461  1
  O  O27  1  0.65236893  0.78718434  0.37866586  1
  O  O28  1  0.34544678  0.70835976  0.61953937  1
  O  O29  1  0.65455283  0.29164047  0.38046087  1
  O  O30  1  0.21568867  0.42797523  0.85534732  1
  O  O31  1  0.78431096  0.57202373  0.14465203  1
  O  O32  1  0.49999965  0.00000004  0.99999948  1
