# generated using pymatgen
data_Mg2NiH4
_symmetry_space_group_name_H-M   'P 1'
_cell_length_a   13.10241454
_cell_length_b   6.36823995
_cell_length_c   6.45596738
_cell_angle_alpha   90.00000000
_cell_angle_beta   90.00000000
_cell_angle_gamma   90.00000000
_symmetry_Int_Tables_number   1
_chemical_formula_structural   Mg2NiH4
_chemical_formula_sum   'Mg16 Ni8 H32'
_cell_volume   538.68152629
_cell_formula_units_Z   8
loop_
 _symmetry_equiv_pos_site_id
 _symmetry_equiv_pos_as_xyz
  1  'x, y, z'
loop_
 _atom_site_type_symbol
 _atom_site_label
 _atom_site_symmetry_multiplicity
 _atom_site_fract_x
 _atom_site_fract_y
 _atom_site_fract_z
 _atom_site_occupancy
  Mg  Mg0  1  0.76352816  0.01141702  0.18268157  1
  Mg  Mg1  1  0.23647184  0.98858298  0.18268157  1
  Mg  Mg2  1  0.00000000  0.00000000  0.19364185  1
  Mg  Mg3  1  0.00000000  0.50000000  0.21992941  1
  Mg  Mg4  1  0.50000000  0.00000000  0.28007059  1
  Mg  Mg5  1  0.50000000  0.50000000  0.30635915  1
  Mg  Mg6  1  0.73647184  0.48858298  0.31731843  1
  Mg  Mg7  1  0.26352816  0.51141702  0.31731843  1
  Mg  Mg8  1  0.23647184  0.01141702  0.68268057  1
  Mg  Mg9  1  0.76352816  0.98858298  0.68268057  1
  Mg  Mg10  1  0.00000000  0.00000000  0.69363985  1
  Mg  Mg11  1  0.00000000  0.50000000  0.71992941  1
  Mg  Mg12  1  0.50000000  -0.00000000  0.78007159  1
  Mg  Mg13  1  0.50000000  0.50000000  0.80635915  1
  Mg  Mg14  1  0.26352816  0.48858298  0.81731843  1
  Mg  Mg15  1  0.73647184  0.51141702  0.81731843  1
  Ni  Ni16  1  0.61888163  0.26709533  0.05492290  1
  Ni  Ni17  1  0.38111837  0.73290467  0.05492290  1
  Ni  Ni18  1  0.88111837  0.23290467  0.44507810  1
  Ni  Ni19  1  0.11888163  0.76709533  0.44507810  1
  Ni  Ni20  1  0.38111837  0.26709533  0.55492090  1
  Ni  Ni21  1  0.61888163  0.73290467  0.55492090  1
  Ni  Ni22  1  0.11888163  0.23290467  0.94507810  1
  Ni  Ni23  1  0.88111837  0.76709533  0.94507810  1
  H  H24  1  0.00482907  0.28228538  0.98735670  1
  H  H25  1  0.99517093  0.71771462  0.98735670  1
  H  H26  1  0.50482907  0.21771462  0.01264430  1
  H  H27  1  0.49517093  0.78228638  0.01264430  1
  H  H28  1  0.37636517  0.48838251  0.06565937  1
  H  H29  1  0.62363483  0.51161849  0.06565937  1
  H  H30  1  0.20948283  0.30545011  0.08793975  1
  H  H31  1  0.79051717  0.69454889  0.08793975  1
  H  H32  1  0.86007638  0.31459521  0.22096136  1
  H  H33  1  0.13992362  0.68540479  0.22096136  1
  H  H34  1  0.63992362  0.18540479  0.27903664  1
  H  H35  1  0.36007638  0.81459521  0.27903664  1
  H  H36  1  0.29051717  0.19454889  0.41206125  1
  H  H37  1  0.70948283  0.80545011  0.41206125  1
  H  H38  1  0.12363483  0.01161749  0.43434163  1
  H  H39  1  0.87636517  0.98838251  0.43434163  1
  H  H40  1  0.99517093  0.28228538  0.48735570  1
  H  H41  1  0.00482907  0.71771462  0.48735570  1
  H  H42  1  0.49517093  0.21771462  0.51264430  1
  H  H43  1  0.50482907  0.78228638  0.51264430  1
  H  H44  1  0.62363483  0.48838251  0.56565937  1
  H  H45  1  0.37636517  0.51161849  0.56565937  1
  H  H46  1  0.79051717  0.30545011  0.58793975  1
  H  H47  1  0.20948283  0.69454889  0.58793975  1
  H  H48  1  0.13992362  0.31459521  0.72096236  1
  H  H49  1  0.86007638  0.68540479  0.72096236  1
  H  H50  1  0.36007638  0.18540479  0.77903764  1
  H  H51  1  0.63992362  0.81459521  0.77903764  1
  H  H52  1  0.70948283  0.19454889  0.91205925  1
  H  H53  1  0.29051717  0.80545011  0.91205925  1
  H  H54  1  0.87636517  0.01161749  0.93434163  1
  H  H55  1  0.12363483  0.98838251  0.93434163  1
