# generated using pymatgen
data_LiMg
_symmetry_space_group_name_H-M   'P 1'
_cell_length_a   3.51427688
_cell_length_b   5.67182657
_cell_length_c   4.85474445
_cell_angle_alpha   63.77278191
_cell_angle_beta   90.00000000
_cell_angle_gamma   71.95275224
_symmetry_Int_Tables_number   1
_chemical_formula_structural   LiMg
_chemical_formula_sum   'Li2 Mg2'
_cell_volume   81.46338021
_cell_formula_units_Z   2
loop_
 _symmetry_equiv_pos_site_id
 _symmetry_equiv_pos_as_xyz
  1  'x, y, z'
loop_
 _atom_site_type_symbol
 _atom_site_label
 _atom_site_symmetry_multiplicity
 _atom_site_fract_x
 _atom_site_fract_y
 _atom_site_fract_z
 _atom_site_occupancy
  Li  Li0  1  0.99155186  0.01689728  0.90745621  1
  Li  Li1  1  0.25844814  0.48310372  0.67587579  1
  Mg  Mg2  1  0.74047420  0.51905359  0.15810881  1
  Mg  Mg3  1  0.50952680  0.98094741  0.42522219  1
