# generated using pymatgen
data_PuAl3
_symmetry_space_group_name_H-M   'P 1'
_cell_length_a   6.17032200
_cell_length_b   6.17032259
_cell_length_c   4.73212337
_cell_angle_alpha   90.00000000
_cell_angle_beta   90.00000000
_cell_angle_gamma   119.99999685
_symmetry_Int_Tables_number   1
_chemical_formula_structural   PuAl3
_chemical_formula_sum   'Pu2 Al6'
_cell_volume   156.02794988
_cell_formula_units_Z   2
loop_
 _symmetry_equiv_pos_site_id
 _symmetry_equiv_pos_as_xyz
  1  'x, y, z'
loop_
 _atom_site_type_symbol
 _atom_site_label
 _atom_site_symmetry_multiplicity
 _atom_site_fract_x
 _atom_site_fract_y
 _atom_site_fract_z
 _atom_site_occupancy
  Pu  Pu0  1  0.33333300  0.66666700  0.74999900  1
  Pu  Pu1  1  0.66666500  0.33333200  0.25000000  1
  Al  Al2  1  0.15624811  0.31249721  0.25000000  1
  Al  Al3  1  0.68750279  0.84375189  0.25000000  1
  Al  Al4  1  0.15624811  0.84375189  0.25000000  1
  Al  Al5  1  0.84375089  0.68750379  0.74999900  1
  Al  Al6  1  0.31249621  0.15624711  0.74999900  1
  Al  Al7  1  0.84375189  0.15624711  0.74999900  1
