# generated using pymatgen
data_Tb3Ge5
_symmetry_space_group_name_H-M   'P 1'
_cell_length_a   6.93315343
_cell_length_b   6.93315277
_cell_length_c   8.40250287
_cell_angle_alpha   90.00000000
_cell_angle_beta   90.00000000
_cell_angle_gamma   120.00006127
_symmetry_Int_Tables_number   1
_chemical_formula_structural   Tb3Ge5
_chemical_formula_sum   'Tb6 Ge10'
_cell_volume   349.78454302
_cell_formula_units_Z   2
loop_
 _symmetry_equiv_pos_site_id
 _symmetry_equiv_pos_as_xyz
  1  'x, y, z'
loop_
 _atom_site_type_symbol
 _atom_site_label
 _atom_site_symmetry_multiplicity
 _atom_site_fract_x
 _atom_site_fract_y
 _atom_site_fract_z
 _atom_site_occupancy
  Tb  Tb0  1  0.33132362  0.00000045  -0.00000068  1
  Tb  Tb1  1  0.66867911  0.66867911  0.00000000  1
  Tb  Tb2  1  0.00000045  0.33132462  -0.00000032  1
  Tb  Tb3  1  0.00000045  0.33132462  0.50000032  1
  Tb  Tb4  1  0.66867911  0.66867911  0.50000000  1
  Tb  Tb5  1  0.33132362  0.00000045  0.49999968  1
  Ge  Ge6  1  0.00000349  0.00000153  0.25000000  1
  Ge  Ge7  1  0.66857565  0.07050675  0.25000000  1
  Ge  Ge8  1  0.40193451  0.33142810  0.25000000  1
  Ge  Ge9  1  0.92952234  0.59808027  0.25000000  1
  Ge  Ge10  1  0.33335887  0.66668012  0.25000000  1
  Ge  Ge11  1  0.00000253  0.00000449  0.75000000  1
  Ge  Ge12  1  0.66668012  0.33335787  0.75000000  1
  Ge  Ge13  1  0.33142810  0.40193351  0.75000000  1
  Ge  Ge14  1  0.07050675  0.66857565  0.75000000  1
  Ge  Ge15  1  0.59808027  0.92952134  0.75000000  1
