# generated using pymatgen
data_PrAs2Au
_symmetry_space_group_name_H-M   'P 1'
_cell_length_a   5.85926144
_cell_length_b   5.85406703
_cell_length_c   20.93322894
_cell_angle_alpha   90.00000000
_cell_angle_beta   90.00235124
_cell_angle_gamma   90.00000000
_symmetry_Int_Tables_number   1
_chemical_formula_structural   PrAs2Au
_chemical_formula_sum   'Pr8 As16 Au8'
_cell_volume   718.02041188
_cell_formula_units_Z   8
loop_
 _symmetry_equiv_pos_site_id
 _symmetry_equiv_pos_as_xyz
  1  'x, y, z'
loop_
 _atom_site_type_symbol
 _atom_site_label
 _atom_site_symmetry_multiplicity
 _atom_site_fract_x
 _atom_site_fract_y
 _atom_site_fract_z
 _atom_site_occupancy
  Pr  Pr0  1  0.25001335  0.51418612  0.61796998  1
  Pr  Pr1  1  0.74998465  0.48581488  0.38203002  1
  Pr  Pr2  1  0.74998465  0.51418612  0.88203002  1
  Pr  Pr3  1  0.25001335  0.48581488  0.11796998  1
  Pr  Pr4  1  0.25001886  0.01435734  0.88182547  1
  Pr  Pr5  1  0.74997914  0.98564366  0.11817453  1
  Pr  Pr6  1  0.74997914  0.01435734  0.61817553  1
  Pr  Pr7  1  0.25001886  0.98564366  0.38182447  1
  As  As8  1  0.52984122  0.24740345  0.00015141  1
  As  As9  1  0.02991359  0.75265176  0.99985057  1
  As  As10  1  0.47015778  0.24740345  0.49984859  1
  As  As11  1  0.97008841  0.75265176  0.50014943  1
  As  As12  1  0.47015778  0.75259555  0.99984859  1
  As  As13  1  0.97008841  0.24734724  0.00014943  1
  As  As14  1  0.52984122  0.75259555  0.50015141  1
  As  As15  1  0.02991359  0.24734724  0.49985057  1
  As  As16  1  0.25000799  0.01426981  0.65974021  1
  As  As17  1  0.74999001  0.98573019  0.34026079  1
  As  As18  1  0.74999001  0.01426981  0.84025979  1
  As  As19  1  0.25000799  0.98573019  0.15974021  1
  As  As20  1  0.24999975  0.51422095  0.84041513  1
  As  As21  1  0.74999825  0.48577805  0.15958487  1
  As  As22  1  0.74999825  0.51422095  0.65958487  1
  As  As23  1  0.24999975  0.48577805  0.34041513  1
  Au  Au24  1  0.50000000  0.23067777  0.25000000  1
  Au  Au25  1  0.00000000  0.76931291  0.75000000  1
  Au  Au26  1  0.50000000  0.76932323  0.75000000  1
  Au  Au27  1  0.00000000  0.23068809  0.25000000  1
  Au  Au28  1  0.50000000  0.73049677  0.25000000  1
  Au  Au29  1  0.00000000  0.26949865  0.75000000  1
  Au  Au30  1  0.50000000  0.26950323  0.75000000  1
  Au  Au31  1  0.00000000  0.73050135  0.25000000  1
