# generated using pymatgen
data_TaZn2CrO6
_symmetry_space_group_name_H-M   'P 1'
_cell_length_a   5.23859101
_cell_length_b   5.32082034
_cell_length_c   7.67265445
_cell_angle_alpha   90.00000000
_cell_angle_beta   90.00000000
_cell_angle_gamma   89.20700828
_symmetry_Int_Tables_number   1
_chemical_formula_structural   TaZn2CrO6
_chemical_formula_sum   'Ta2 Zn4 Cr2 O12'
_cell_volume   213.84403022
_cell_formula_units_Z   2
loop_
 _symmetry_equiv_pos_site_id
 _symmetry_equiv_pos_as_xyz
  1  'x, y, z'
loop_
 _atom_site_type_symbol
 _atom_site_label
 _atom_site_symmetry_multiplicity
 _atom_site_fract_x
 _atom_site_fract_y
 _atom_site_fract_z
 _atom_site_occupancy
  Ta  Ta0  1  0.00000000  0.50000000  0.00000000  1
  Ta  Ta1  1  0.00000000  0.50000000  0.50000000  1
  Zn  Zn2  1  0.98715489  0.98140946  0.25000000  1
  Zn  Zn3  1  0.49238980  0.45264370  0.25000000  1
  Zn  Zn4  1  0.50761020  0.54735630  0.75000000  1
  Zn  Zn5  1  0.01284511  0.01859054  0.75000000  1
  Cr  Cr6  1  0.50000000  0.00000000  0.00000000  1
  Cr  Cr7  1  0.50000000  0.00000000  0.50000000  1
  O  O8  1  0.82736340  0.81809552  0.56385471  1
  O  O9  1  0.31750930  0.67801034  0.43548177  1
  O  O10  1  0.17263660  0.18190448  0.43614529  1
  O  O11  1  0.68249070  0.32198966  0.93548177  1
  O  O12  1  0.12248069  0.43794717  0.75000000  1
  O  O13  1  0.68249070  0.32198966  0.56451823  1
  O  O14  1  0.31750930  0.67801034  0.06451823  1
  O  O15  1  0.82736340  0.81809552  0.93614529  1
  O  O16  1  0.61624121  0.07855658  0.25000000  1
  O  O17  1  0.17263660  0.18190448  0.06385471  1
  O  O18  1  0.38375879  0.92144342  0.75000000  1
  O  O19  1  0.87751931  0.56205283  0.25000000  1
