# generated using pymatgen
data_Cs3(Cu4Se3)2
_symmetry_space_group_name_H-M   'P 1'
_cell_length_a   4.03693036
_cell_length_b   9.84070948
_cell_length_c   10.52752728
_cell_angle_alpha   106.63601849
_cell_angle_beta   89.99289338
_cell_angle_gamma   101.83042219
_symmetry_Int_Tables_number   1
_chemical_formula_structural   Cs3(Cu4Se3)2
_chemical_formula_sum   'Cs3 Cu8 Se6'
_cell_volume   391.43641374
_cell_formula_units_Z   1
loop_
 _symmetry_equiv_pos_site_id
 _symmetry_equiv_pos_as_xyz
  1  'x, y, z'
loop_
 _atom_site_type_symbol
 _atom_site_label
 _atom_site_symmetry_multiplicity
 _atom_site_fract_x
 _atom_site_fract_y
 _atom_site_fract_z
 _atom_site_occupancy
  Cs  Cs0  1  0.50003919  0.00005901  -0.00000562  1
  Cs  Cs1  1  0.68801855  0.37609407  0.30439232  1
  Cs  Cs2  1  0.31184772  0.62363267  0.69557867  1
  Cu  Cu3  1  0.29612439  0.59250170  0.07184696  1
  Cu  Cu4  1  0.70372878  0.40724601  0.92806780  1
  Cu  Cu5  1  0.88905551  0.77795204  0.22055268  1
  Cu  Cu6  1  0.11104068  0.22221824  0.77933069  1
  Cu  Cu7  1  0.52492263  0.05002413  0.64547098  1
  Cu  Cu8  1  0.47517379  0.95013364  0.35457942  1
  Cu  Cu9  1  0.08027143  0.16065350  0.53355582  1
  Cu  Cu10  1  0.91981923  0.83953370  0.46667515  1
  Se  Se11  1  0.83867225  0.67757303  0.98553254  1
  Se  Se12  1  0.16129009  0.32239082  0.01452799  1
  Se  Se13  1  0.02997478  0.05988469  0.29924483  1
  Se  Se14  1  0.96999295  0.94000710  0.70070129  1
  Se  Se15  1  0.65229151  0.30465384  0.64893726  1
  Se  Se16  1  0.34773652  0.69544182  0.35101122  1
