# generated using pymatgen
data_Y2Co7
_symmetry_space_group_name_H-M   'P 1'
_cell_length_a   4.95229562
_cell_length_b   4.95229562
_cell_length_c   12.38652940
_cell_angle_alpha   78.46850740
_cell_angle_beta   78.46850740
_cell_angle_gamma   59.99999330
_symmetry_Int_Tables_number   1
_chemical_formula_structural   Y2Co7
_chemical_formula_sum   'Y4 Co14'
_cell_volume   255.97841161
_cell_formula_units_Z   2
loop_
 _symmetry_equiv_pos_site_id
 _symmetry_equiv_pos_as_xyz
  1  'x, y, z'
loop_
 _atom_site_type_symbol
 _atom_site_label
 _atom_site_symmetry_multiplicity
 _atom_site_fract_x
 _atom_site_fract_y
 _atom_site_fract_z
 _atom_site_occupancy
  Y  Y0  1  0.05163453  0.05163453  0.84509641  1
  Y  Y1  1  0.94836547  0.94836547  0.15490359  1
  Y  Y2  1  0.14808741  0.14808741  0.55573776  1
  Y  Y3  1  0.85191259  0.85191259  0.44426224  1
  Co  Co4  1  0.50000000  0.50000000  0.50000000  1
  Co  Co5  1  0.27863611  0.27863611  0.16409168  1
  Co  Co6  1  0.72136389  0.72136389  0.83590832  1
  Co  Co7  1  0.38822762  0.38822762  0.83531715  1
  Co  Co8  1  0.61177238  0.61177238  0.16468285  1
  Co  Co9  1  0.50000000  0.50000000  0.00000000  1
  Co  Co10  1  0.50000000  0.00000000  0.00000000  1
  Co  Co11  1  0.00000000  0.50000000  0.00000000  1
  Co  Co12  1  0.10952310  0.60840045  0.67367601  1
  Co  Co13  1  0.60840045  0.60840045  0.67367601  1
  Co  Co14  1  0.60840045  0.10952310  0.67367601  1
  Co  Co15  1  0.89047690  0.39159955  0.32632399  1
  Co  Co16  1  0.39159955  0.39159955  0.32632399  1
  Co  Co17  1  0.39159955  0.89047690  0.32632399  1
