# generated using pymatgen
data_Er2Co7B3
_symmetry_space_group_name_H-M   'P 1'
_cell_length_a   4.99979462
_cell_length_b   4.99471829
_cell_length_c   12.78416059
_cell_angle_alpha   89.99988786
_cell_angle_beta   90.00017524
_cell_angle_gamma   120.03145719
_symmetry_Int_Tables_number   1
_chemical_formula_structural   Er2Co7B3
_chemical_formula_sum   'Er4 Co14 B6'
_cell_volume   276.39377711
_cell_formula_units_Z   2
loop_
 _symmetry_equiv_pos_site_id
 _symmetry_equiv_pos_as_xyz
  1  'x, y, z'
loop_
 _atom_site_type_symbol
 _atom_site_label
 _atom_site_symmetry_multiplicity
 _atom_site_fract_x
 _atom_site_fract_y
 _atom_site_fract_z
 _atom_site_occupancy
  Er  Er0  1  0.99998004  0.99999866  0.99998416  1
  Er  Er1  1  0.99999408  0.00000049  0.50002892  1
  Er  Er2  1  0.99999440  0.00000065  0.26081202  1
  Er  Er3  1  0.00000078  0.00000050  0.73925287  1
  Co  Co4  1  0.33361552  0.66728927  0.00000891  1
  Co  Co5  1  0.66634058  0.33271166  0.00000909  1
  Co  Co6  1  0.49999423  0.00000091  0.15480632  1
  Co  Co7  1  0.49999072  0.50000452  0.15461450  1
  Co  Co8  1  0.99998313  0.49999394  0.15462182  1
  Co  Co9  1  0.50000172  -0.00000195  0.84519687  1
  Co  Co10  1  0.50000277  0.49999977  0.84531704  1
  Co  Co11  1  0.00000423  0.50000128  0.84531447  1
  Co  Co12  1  0.49998915  -0.00000041  0.38448918  1
  Co  Co13  1  0.49998850  0.50000169  0.38441863  1
  Co  Co14  1  0.99998730  0.49999948  0.38442176  1
  Co  Co15  1  0.49999651  -0.00000019  0.61551127  1
  Co  Co16  1  0.49999788  0.50000056  0.61557016  1
  Co  Co17  1  0.99999850  0.50000070  0.61556785  1
  B  B18  1  0.33321679  0.66642863  0.49996809  1
  B  B19  1  0.66675699  0.33357143  0.49996805  1
  B  B20  1  0.33344125  0.66694060  0.26843315  1
  B  B21  1  0.66651400  0.33305883  0.26843174  1
  B  B22  1  0.66654337  0.33307745  0.73162689  1
  B  B23  1  0.33346757  0.66692154  0.73162625  1
