# generated using pymatgen
data_Cs2Cu2Sb2S5
_symmetry_space_group_name_H-M   'P 1'
_cell_length_a   7.51528075
_cell_length_b   8.74630679
_cell_length_c   10.00376916
_cell_angle_alpha   91.29511337
_cell_angle_beta   91.49204469
_cell_angle_gamma   101.65183523
_symmetry_Int_Tables_number   1
_chemical_formula_structural   Cs2Cu2Sb2S5
_chemical_formula_sum   'Cs4 Cu4 Sb4 S10'
_cell_volume   643.52786810
_cell_formula_units_Z   2
loop_
 _symmetry_equiv_pos_site_id
 _symmetry_equiv_pos_as_xyz
  1  'x, y, z'
loop_
 _atom_site_type_symbol
 _atom_site_label
 _atom_site_symmetry_multiplicity
 _atom_site_fract_x
 _atom_site_fract_y
 _atom_site_fract_z
 _atom_site_occupancy
  Cs  Cs0  1  0.27265685  0.56428840  0.61277744  1
  Cs  Cs1  1  0.72734315  0.43571160  0.38722256  1
  Cs  Cs2  1  0.73150924  0.30646453  0.90517402  1
  Cs  Cs3  1  0.26849076  0.69353547  0.09482598  1
  Cu  Cu4  1  0.60157113  0.99517772  0.61180566  1
  Cu  Cu5  1  0.39842887  0.00482228  0.38819434  1
  Cu  Cu6  1  0.88631715  0.86162103  0.57781708  1
  Cu  Cu7  1  0.11368285  0.13837897  0.42218292  1
  Sb  Sb8  1  0.81330611  0.92469448  0.25943479  1
  Sb  Sb9  1  0.18669389  0.07530552  0.74056521  1
  Sb  Sb10  1  0.80184927  0.85622174  0.88013596  1
  Sb  Sb11  1  0.19815073  0.14377826  0.11986404  1
  S  S12  1  0.07797073  0.85657666  0.38734319  1
  S  S13  1  0.92202927  0.14342334  0.61265681  1
  S  S14  1  0.58444190  0.81576837  0.42579267  1
  S  S15  1  0.41555810  0.18423163  0.57420733  1
  S  S16  1  0.85985614  0.66014122  0.72110400  1
  S  S17  1  0.14014386  0.33985878  0.27889600  1
  S  S18  1  0.49864661  0.88513738  0.81250504  1
  S  S19  1  0.50135339  0.11486262  0.18749496  1
  S  S20  1  0.74848246  0.69292304  0.09202679  1
  S  S21  1  0.25151754  0.30707696  0.90797321  1
