# generated using pymatgen
data_Nd2Ni7
_symmetry_space_group_name_H-M   'P 1'
_cell_length_a   5.03474907
_cell_length_b   5.03474907
_cell_length_c   12.54537423
_cell_angle_alpha   78.42435287
_cell_angle_beta   78.42435287
_cell_angle_gamma   60.00000536
_symmetry_Int_Tables_number   1
_chemical_formula_structural   Nd2Ni7
_chemical_formula_sum   'Nd4 Ni14'
_cell_volume   267.90905898
_cell_formula_units_Z   2
loop_
 _symmetry_equiv_pos_site_id
 _symmetry_equiv_pos_as_xyz
  1  'x, y, z'
loop_
 _atom_site_type_symbol
 _atom_site_label
 _atom_site_symmetry_multiplicity
 _atom_site_fract_x
 _atom_site_fract_y
 _atom_site_fract_z
 _atom_site_occupancy
  Nd  Nd0  1  0.05047637  0.05047637  0.84857090  1
  Nd  Nd1  1  0.94952363  0.94952363  0.15142910  1
  Nd  Nd2  1  0.14747728  0.14747728  0.55756816  1
  Nd  Nd3  1  0.85252272  0.85252272  0.44243184  1
  Ni  Ni4  1  0.50000000  0.50000000  0.50000000  1
  Ni  Ni5  1  0.27842639  0.27842639  0.16472082  1
  Ni  Ni6  1  0.72157361  0.72157361  0.83527918  1
  Ni  Ni7  1  0.38804191  0.38804191  0.83587428  1
  Ni  Ni8  1  0.61195809  0.61195809  0.16412572  1
  Ni  Ni9  1  0.50000000  0.50000000  -0.00000000  1
  Ni  Ni10  1  0.50000000  0.00000000  -0.00000000  1
  Ni  Ni11  1  0.00000000  0.50000000  -0.00000000  1
  Ni  Ni12  1  0.10868203  0.60854458  0.67422881  1
  Ni  Ni13  1  0.60854458  0.60854458  0.67422881  1
  Ni  Ni14  1  0.60854458  0.10868203  0.67422881  1
  Ni  Ni15  1  0.89131797  0.39145542  0.32577119  1
  Ni  Ni16  1  0.39145542  0.39145542  0.32577119  1
  Ni  Ni17  1  0.39145542  0.89131797  0.32577119  1
