# generated using pymatgen
data_Ba2ZnSe3
_symmetry_space_group_name_H-M   'P 1'
_cell_length_a   4.47187633
_cell_length_b   9.25121988
_cell_length_c   17.91515987
_cell_angle_alpha   90.00000000
_cell_angle_beta   90.00000000
_cell_angle_gamma   90.00000000
_symmetry_Int_Tables_number   1
_chemical_formula_structural   Ba2ZnSe3
_chemical_formula_sum   'Ba8 Zn4 Se12'
_cell_volume   741.15573911
_cell_formula_units_Z   4
loop_
 _symmetry_equiv_pos_site_id
 _symmetry_equiv_pos_as_xyz
  1  'x, y, z'
loop_
 _atom_site_type_symbol
 _atom_site_label
 _atom_site_symmetry_multiplicity
 _atom_site_fract_x
 _atom_site_fract_y
 _atom_site_fract_z
 _atom_site_occupancy
  Ba  Ba0  1  0.75000000  0.24946140  0.95691756  1
  Ba  Ba1  1  0.75000000  0.74946140  0.54308244  1
  Ba  Ba2  1  0.25000000  0.75053860  0.04308244  1
  Ba  Ba3  1  0.25000000  0.25053860  0.45691756  1
  Ba  Ba4  1  0.75000000  0.08101094  0.21284752  1
  Ba  Ba5  1  0.75000000  0.58101094  0.28715248  1
  Ba  Ba6  1  0.25000000  0.91898906  0.78715248  1
  Ba  Ba7  1  0.25000000  0.41898906  0.71284752  1
  Zn  Zn8  1  0.75000000  0.13616517  0.63535388  1
  Zn  Zn9  1  0.75000000  0.63616517  0.86464612  1
  Zn  Zn10  1  0.25000000  0.86383483  0.36464612  1
  Zn  Zn11  1  0.25000000  0.36383483  0.13535388  1
  Se  Se12  1  0.75000000  0.49540538  0.10120781  1
  Se  Se13  1  0.75000000  0.99540538  0.39879219  1
  Se  Se14  1  0.25000000  0.50459462  0.89879219  1
  Se  Se15  1  0.25000000  0.00459462  0.60120781  1
  Se  Se16  1  0.75000000  0.37477562  0.57124708  1
  Se  Se17  1  0.75000000  0.87477562  0.92875292  1
  Se  Se18  1  0.25000000  0.62522438  0.42875292  1
  Se  Se19  1  0.25000000  0.12522438  0.07124708  1
  Se  Se20  1  0.75000000  0.18229690  0.77290625  1
  Se  Se21  1  0.75000000  0.68229690  0.72709375  1
  Se  Se22  1  0.25000000  0.81770310  0.22709375  1
  Se  Se23  1  0.25000000  0.31770310  0.27290625  1
