# generated using pymatgen
data_Mg3Cr2(Si2O7)2
_symmetry_space_group_name_H-M   'P 1'
_cell_length_a   7.58609344
_cell_length_b   9.42932875
_cell_length_c   9.18276847
_cell_angle_alpha   63.44564837
_cell_angle_beta   65.60270982
_cell_angle_gamma   66.28042729
_symmetry_Int_Tables_number   1
_chemical_formula_structural   Mg3Cr2(Si2O7)2
_chemical_formula_sum   'Mg6 Cr4 Si8 O28'
_cell_volume   515.65664889
_cell_formula_units_Z   2
loop_
 _symmetry_equiv_pos_site_id
 _symmetry_equiv_pos_as_xyz
  1  'x, y, z'
loop_
 _atom_site_type_symbol
 _atom_site_label
 _atom_site_symmetry_multiplicity
 _atom_site_fract_x
 _atom_site_fract_y
 _atom_site_fract_z
 _atom_site_occupancy
  Mg  Mg0  1  0.90136461  0.91501721  0.44901814  1
  Mg  Mg1  1  0.26539996  0.58498279  0.05098186  1
  Mg  Mg2  1  0.73460004  0.41501721  0.94901814  1
  Mg  Mg3  1  0.62092124  0.25000000  0.75000000  1
  Mg  Mg4  1  0.09863539  0.08498279  0.55098186  1
  Mg  Mg5  1  0.37907876  0.75000000  0.25000000  1
  Cr  Cr6  1  0.21105909  0.25000000  0.75000000  1
  Cr  Cr7  1  0.78894091  0.75000000  0.25000000  1
  Cr  Cr8  1  0.00000000  0.00000000  0.00000000  1
  Cr  Cr9  1  0.00000000  0.50000000  0.50000000  1
  Si  Si10  1  0.46746088  0.29234607  0.34709556  1
  Si  Si11  1  0.89309648  0.79234607  0.84709556  1
  Si  Si12  1  0.47446906  0.89764140  0.85699116  1
  Si  Si13  1  0.77089938  0.39764140  0.35699116  1
  Si  Si14  1  0.10690352  0.20765393  0.15290444  1
  Si  Si15  1  0.52553094  0.10235860  0.14300884  1
  Si  Si16  1  0.22910062  0.60235860  0.64300884  1
  Si  Si17  1  0.53253912  0.70765393  0.65290444  1
  O  O18  1  0.14223132  0.67075028  0.47654955  1
  O  O19  1  0.03907281  0.57721222  0.25880238  1
  O  O20  1  0.52715961  0.91546987  0.18720574  1
  O  O21  1  0.12491259  0.07721222  0.75880238  1
  O  O22  1  0.74435302  0.67973519  0.50705012  1
  O  O23  1  0.93366958  0.37769051  0.17482135  1
  O  O24  1  0.37016378  0.41546987  0.68720574  1
  O  O25  1  0.93113834  0.82026481  0.99294988  1
  O  O26  1  0.06633042  0.62230949  0.82517865  1
  O  O27  1  0.35033582  0.74439636  0.57697035  1
  O  O28  1  0.96092719  0.42278778  0.74119762  1
  O  O29  1  0.25564698  0.32026481  0.49294988  1
  O  O30  1  0.48618244  0.12230949  0.32517865  1
  O  O31  1  0.71046785  0.17075028  0.97654955  1
  O  O32  1  0.32829747  0.24439636  0.07697035  1
  O  O33  1  0.06886166  0.17973519  0.00705012  1
  O  O34  1  0.09262161  0.06241523  0.33651049  1
  O  O35  1  0.64966418  0.25560364  0.42302965  1
  O  O36  1  0.49154634  0.43758477  0.16348951  1
  O  O37  1  0.67170253  0.75560364  0.92302965  1
  O  O38  1  0.51381756  0.87769051  0.67482135  1
  O  O39  1  0.87508741  0.92278778  0.24119762  1
  O  O40  1  0.50845366  0.56241523  0.83651049  1
  O  O41  1  0.47284039  0.08453013  0.81279426  1
  O  O42  1  0.90737839  0.93758477  0.66348951  1
  O  O43  1  0.62983622  0.58453013  0.31279426  1
  O  O44  1  0.28953215  0.82924972  0.02345045  1
  O  O45  1  0.85776868  0.32924972  0.52345045  1
