# generated using pymatgen
data_NaAu(IO3)4
_symmetry_space_group_name_H-M   'P 1'
_cell_length_a   5.71472417
_cell_length_b   7.19006035
_cell_length_c   8.29263565
_cell_angle_alpha   105.80137384
_cell_angle_beta   95.51586703
_cell_angle_gamma   110.34438352
_symmetry_Int_Tables_number   1
_chemical_formula_structural   NaAu(IO3)4
_chemical_formula_sum   'Na1 Au1 I4 O12'
_cell_volume   300.45721345
_cell_formula_units_Z   1
loop_
 _symmetry_equiv_pos_site_id
 _symmetry_equiv_pos_as_xyz
  1  'x, y, z'
loop_
 _atom_site_type_symbol
 _atom_site_label
 _atom_site_symmetry_multiplicity
 _atom_site_fract_x
 _atom_site_fract_y
 _atom_site_fract_z
 _atom_site_occupancy
  Na  Na0  1  0.68013881  0.10959657  0.17655491  1
  Au  Au1  1  0.92581433  0.12115646  0.64168764  1
  I  I2  1  0.32152708  0.46347504  0.02538196  1
  I  I3  1  0.01927570  0.82349611  0.87232417  1
  I  I4  1  0.01213323  0.74978047  0.33611185  1
  I  I5  1  0.39650367  0.41942785  0.50575725  1
  O  O6  1  0.33190741  0.72863398  0.05561406  1
  O  O7  1  0.17243995  0.42433865  0.20634464  1
  O  O8  1  -0.00000440  0.34244750  0.86986208  1
  O  O9  1  0.87148182  0.84329193  0.05781156  1
  O  O10  1  0.29309275  0.07580444  0.94297355  1
  O  O11  1  0.78145871  0.89780378  0.74968314  1
  O  O12  1  0.80937567  0.91006054  0.40547271  1
  O  O13  1  0.72087622  0.50760910  0.26309436  1
  O  O14  1  0.14856336  0.76021707  0.54647437  1
  O  O15  1  0.04751047  0.34100451  0.52655510  1
  O  O16  1  0.53888812  0.45941851  0.72581483  1
  O  O17  1  0.39345709  0.16248749  0.39474182  1
