# generated using pymatgen
data_Pr2AlGe6
_symmetry_space_group_name_H-M   'P 1'
_cell_length_a   6.10743557
_cell_length_b   6.10743557
_cell_length_c   10.80337624
_cell_angle_alpha   97.90922764
_cell_angle_beta   97.90922764
_cell_angle_gamma   92.52234967
_symmetry_Int_Tables_number   1
_chemical_formula_structural   Pr2AlGe6
_chemical_formula_sum   'Pr4 Al2 Ge12'
_cell_volume   394.52944881
_cell_formula_units_Z   2
loop_
 _symmetry_equiv_pos_site_id
 _symmetry_equiv_pos_as_xyz
  1  'x, y, z'
loop_
 _atom_site_type_symbol
 _atom_site_label
 _atom_site_symmetry_multiplicity
 _atom_site_fract_x
 _atom_site_fract_y
 _atom_site_fract_z
 _atom_site_occupancy
  Pr  Pr0  1  0.83751459  0.33378520  0.33699942  1
  Pr  Pr1  1  0.33378520  0.83751459  0.33699942  1
  Pr  Pr2  1  0.16248541  0.66621480  0.66300058  1
  Pr  Pr3  1  0.66621480  0.16248541  0.66300058  1
  Al  Al4  1  0.79968793  0.79968793  0.19519215  1
  Al  Al5  1  0.20031207  0.20031207  0.80480785  1
  Ge  Ge6  1  0.14668880  0.14668880  0.56350895  1
  Ge  Ge7  1  0.85331120  0.85331120  0.43649105  1
  Ge  Ge8  1  0.36045908  0.36045908  0.41883398  1
  Ge  Ge9  1  0.63954092  0.63954092  0.58116602  1
  Ge  Ge10  1  0.06539282  0.49244189  0.11434270  1
  Ge  Ge11  1  0.49244189  0.06539282  0.11434270  1
  Ge  Ge12  1  0.93460718  0.50755811  0.88565730  1
  Ge  Ge13  1  0.50755811  0.93460718  0.88565730  1
  Ge  Ge14  1  0.06902478  0.06902478  0.11396754  1
  Ge  Ge15  1  0.93097522  0.93097522  0.88603246  1
  Ge  Ge16  1  0.48858061  0.48858061  0.11432310  1
  Ge  Ge17  1  0.51141939  0.51141939  0.88567690  1
