# generated using pymatgen
data_Ta9(CoS3)2
_symmetry_space_group_name_H-M   'P 1'
_cell_length_a   3.32769950
_cell_length_b   10.32654813
_cell_length_c   10.32788509
_cell_angle_alpha   119.99571741
_cell_angle_beta   90.00000000
_cell_angle_gamma   90.00000000
_symmetry_Int_Tables_number   1
_chemical_formula_structural   Ta9(CoS3)2
_chemical_formula_sum   'Ta9 Co2 S6'
_cell_volume   307.36898552
_cell_formula_units_Z   1
loop_
 _symmetry_equiv_pos_site_id
 _symmetry_equiv_pos_as_xyz
  1  'x, y, z'
loop_
 _atom_site_type_symbol
 _atom_site_label
 _atom_site_symmetry_multiplicity
 _atom_site_fract_x
 _atom_site_fract_y
 _atom_site_fract_z
 _atom_site_occupancy
  Ta  Ta0  1  0.00000000  0.45819602  1.00000000  1
  Ta  Ta1  1  0.00000000  0.54180215  0.54180345  1
  Ta  Ta2  1  0.00000000  -0.00000131  0.45819655  1
  Ta  Ta3  1  0.50000000  0.20161864  0.73876157  1
  Ta  Ta4  1  0.50000000  0.53712916  0.79834431  1
  Ta  Ta5  1  0.50000000  0.26122738  0.46288838  1
  Ta  Ta6  1  0.50000000  0.46285707  0.26123843  1
  Ta  Ta7  1  0.50000000  0.73878485  0.20165569  1
  Ta  Ta8  1  0.50000000  0.79833900  0.53711162  1
  Co  Co9  1  -0.00000000  0.33327686  0.66666328  1
  Co  Co10  1  -0.00000000  0.66661358  0.33333672  1
  S  S11  1  0.50000000  0.27644577  1.00000000  1
  S  S12  1  0.50000000  0.72356938  0.72353568  1
  S  S13  1  0.50000000  0.00003370  0.27646432  1
  S  S14  1  0.00000000  0.70448049  0.00000000  1
  S  S15  1  0.00000000  0.29551941  0.29551156  1
  S  S16  1  0.00000000  0.00000784  0.70448844  1
