# generated using pymatgen
data_BaReH9
_symmetry_space_group_name_H-M   'P 1'
_cell_length_a   5.20748224
_cell_length_b   5.37616801
_cell_length_c   9.36567312
_cell_angle_alpha   90.00000000
_cell_angle_beta   90.00000000
_cell_angle_gamma   118.96738732
_symmetry_Int_Tables_number   1
_chemical_formula_structural   BaReH9
_chemical_formula_sum   'Ba2 Re2 H18'
_cell_volume   229.40126999
_cell_formula_units_Z   2
loop_
 _symmetry_equiv_pos_site_id
 _symmetry_equiv_pos_as_xyz
  1  'x, y, z'
loop_
 _atom_site_type_symbol
 _atom_site_label
 _atom_site_symmetry_multiplicity
 _atom_site_fract_x
 _atom_site_fract_y
 _atom_site_fract_z
 _atom_site_occupancy
  Ba  Ba0  1  0.00000000  0.00000000  0.50000000  1
  Ba  Ba1  1  0.00000000  0.00000000  -0.00000000  1
  Re  Re2  1  0.68405664  0.36811328  0.75000000  1
  Re  Re3  1  0.31594336  0.63188672  0.25000000  1
  H  H4  1  0.61064135  0.22128269  0.58532534  1
  H  H5  1  0.38935865  0.77871731  0.41467466  1
  H  H6  1  0.61064135  0.22128269  0.91467466  1
  H  H7  1  0.38935865  0.77871731  0.08532534  1
  H  H8  1  0.99323969  0.50000474  0.85157906  1
  H  H9  1  0.49323495  0.49999526  0.14842094  1
  H  H10  1  0.99323969  0.50000474  0.64842094  1
  H  H11  1  0.49323495  0.49999526  0.35157906  1
  H  H12  1  0.00676031  0.49999526  0.14842094  1
  H  H13  1  0.50676505  0.50000474  0.85157906  1
  H  H14  1  0.00676031  0.49999526  0.35157906  1
  H  H15  1  0.50676505  0.50000474  0.64842094  1
  H  H16  1  0.75870958  0.09012406  0.75000000  1
  H  H17  1  0.66858553  0.90987594  0.25000000  1
  H  H18  1  0.24129042  0.90987594  0.25000000  1
  H  H19  1  0.33141447  0.09012406  0.75000000  1
  H  H20  1  0.86241399  0.72482799  0.75000000  1
  H  H21  1  0.13758601  0.27517201  0.25000000  1
