# generated using pymatgen
data_BaTmCo4O7
_symmetry_space_group_name_H-M   'P 1'
_cell_length_a   6.40325373
_cell_length_b   6.36302221
_cell_length_c   10.23533917
_cell_angle_alpha   89.74877793
_cell_angle_beta   90.49929192
_cell_angle_gamma   120.20937982
_symmetry_Int_Tables_number   1
_chemical_formula_structural   BaTmCo4O7
_chemical_formula_sum   'Ba2 Tm2 Co8 O14'
_cell_volume   360.37973525
_cell_formula_units_Z   2
loop_
 _symmetry_equiv_pos_site_id
 _symmetry_equiv_pos_as_xyz
  1  'x, y, z'
loop_
 _atom_site_type_symbol
 _atom_site_label
 _atom_site_symmetry_multiplicity
 _atom_site_fract_x
 _atom_site_fract_y
 _atom_site_fract_z
 _atom_site_occupancy
  Ba  Ba0  1  0.66451114  0.33257307  0.00169690  1
  Ba  Ba1  1  0.33193807  0.66742693  0.50169690  1
  Tm  Tm2  1  0.66687929  0.33475831  0.62783182  1
  Tm  Tm3  1  0.33212098  0.66524169  0.12783182  1
  Co  Co4  1  0.15467367  0.81883745  0.80803023  1
  Co  Co5  1  0.66342063  0.84543806  0.81020985  1
  Co  Co6  1  0.18464255  0.34003141  0.80997130  1
  Co  Co7  1  0.33583622  0.18116255  0.30803023  1
  Co  Co8  1  0.81798256  0.15456194  0.31020985  1
  Co  Co9  1  0.84461115  0.65996859  0.30997130  1
  Co  Co10  1  0.99611107  0.99777468  0.05095817  1
  Co  Co11  1  0.99833639  0.00222532  0.55095817  1
  O  O12  1  0.99545754  0.99753091  0.24083469  1
  O  O13  1  0.99792663  0.00246909  0.74083469  1
  O  O14  1  0.12200881  0.79845240  0.00120062  1
  O  O15  1  0.67499375  0.88873167  0.00422217  1
  O  O16  1  0.21621623  0.32468042  0.00174724  1
  O  O17  1  0.32355641  0.20154760  0.50120062  1
  O  O18  1  0.78626208  0.11126833  0.50422217  1
  O  O19  1  0.89153581  0.67531958  0.50174724  1
  O  O20  1  0.51747261  0.51449952  0.74626261  1
  O  O21  1  0.99679680  0.48310358  0.74780622  1
  O  O22  1  0.48632122  0.00239915  0.74822817  1
  O  O23  1  0.00297310  0.48550048  0.24626261  1
  O  O24  1  0.51369322  0.51689642  0.24780622  1
  O  O25  1  0.48392207  0.99760085  0.24822817  1
