# generated using pymatgen
data_Nd3TaO7
_symmetry_space_group_name_H-M   'P 1'
_cell_length_a   6.68146408
_cell_length_b   6.68146408
_cell_length_c   7.73014704
_cell_angle_alpha   90.00000000
_cell_angle_beta   90.00000000
_cell_angle_gamma   110.92624950
_symmetry_Int_Tables_number   1
_chemical_formula_structural   Nd3TaO7
_chemical_formula_sum   'Nd6 Ta2 O14'
_cell_volume   322.32719055
_cell_formula_units_Z   2
loop_
 _symmetry_equiv_pos_site_id
 _symmetry_equiv_pos_as_xyz
  1  'x, y, z'
loop_
 _atom_site_type_symbol
 _atom_site_label
 _atom_site_symmetry_multiplicity
 _atom_site_fract_x
 _atom_site_fract_y
 _atom_site_fract_z
 _atom_site_occupancy
  Nd  Nd0  1  0.00000000  -0.00000000  0.50000000  1
  Nd  Nd1  1  0.00000000  -0.00000000  -0.00000000  1
  Nd  Nd2  1  0.06532975  0.52053435  0.25000000  1
  Nd  Nd3  1  0.47946565  0.93467025  0.75000000  1
  Nd  Nd4  1  0.93467025  0.47946565  0.75000000  1
  Nd  Nd5  1  0.52053435  0.06532975  0.25000000  1
  Ta  Ta6  1  0.50000000  0.50000000  0.50000000  1
  Ta  Ta7  1  0.50000000  0.50000000  -0.00000000  1
  O  O8  1  0.43338105  0.43338105  0.25000000  1
  O  O9  1  0.56661895  0.56661895  0.75000000  1
  O  O10  1  0.18615504  0.43871854  0.53342586  1
  O  O11  1  0.56128146  0.81384496  0.46657414  1
  O  O12  1  0.18615504  0.43871854  0.96657414  1
  O  O13  1  0.56128146  0.81384496  0.03342586  1
  O  O14  1  0.81384496  0.56128146  0.46657414  1
  O  O15  1  0.43871854  0.18615504  0.53342586  1
  O  O16  1  0.81384496  0.56128146  0.03342586  1
  O  O17  1  0.43871854  0.18615504  0.96657414  1
  O  O18  1  0.89063420  0.15330022  0.25000000  1
  O  O19  1  0.84669978  0.10936580  0.75000000  1
  O  O20  1  0.10936580  0.84669978  0.75000000  1
  O  O21  1  0.15330022  0.89063420  0.25000000  1
