# generated using pymatgen
data_Lu6Zn23
_symmetry_space_group_name_H-M   'P 1'
_cell_length_a   8.88551893
_cell_length_b   8.88551893
_cell_length_c   8.88551893
_cell_angle_alpha   60.00000000
_cell_angle_beta   60.00000000
_cell_angle_gamma   60.00000000
_symmetry_Int_Tables_number   1
_chemical_formula_structural   Lu6Zn23
_chemical_formula_sum   'Lu6 Zn23'
_cell_volume   496.05906637
_cell_formula_units_Z   1
loop_
 _symmetry_equiv_pos_site_id
 _symmetry_equiv_pos_as_xyz
  1  'x, y, z'
loop_
 _atom_site_type_symbol
 _atom_site_label
 _atom_site_symmetry_multiplicity
 _atom_site_fract_x
 _atom_site_fract_y
 _atom_site_fract_z
 _atom_site_occupancy
  Lu  Lu0  1  0.70447549  0.29552451  0.29552451  1
  Lu  Lu1  1  0.70447549  0.29552451  0.70447549  1
  Lu  Lu2  1  0.70447549  0.70447549  0.29552451  1
  Lu  Lu3  1  0.29552451  0.70447549  0.70447549  1
  Lu  Lu4  1  0.29552451  0.70447549  0.29552451  1
  Lu  Lu5  1  0.29552451  0.29552451  0.70447549  1
  Zn  Zn6  1  -0.00000000  0.00000000  -0.00000000  1
  Zn  Zn7  1  0.50000000  0.00000000  -0.00000000  1
  Zn  Zn8  1  0.50000000  0.00000000  0.50000000  1
  Zn  Zn9  1  0.50000000  0.50000000  -0.00000000  1
  Zn  Zn10  1  -0.00000000  0.50000000  0.50000000  1
  Zn  Zn11  1  -0.00000000  0.50000000  -0.00000000  1
  Zn  Zn12  1  -0.00000000  0.00000000  0.50000000  1
  Zn  Zn13  1  0.63492990  0.12169003  0.12169003  1
  Zn  Zn14  1  0.12169003  0.63492990  0.12169003  1
  Zn  Zn15  1  0.12169003  0.12169003  0.63492990  1
  Zn  Zn16  1  0.12169003  0.12169003  0.12169003  1
  Zn  Zn17  1  0.36507010  0.87830997  0.87830997  1
  Zn  Zn18  1  0.87830997  0.36507010  0.87830997  1
  Zn  Zn19  1  0.87830997  0.87830997  0.36507010  1
  Zn  Zn20  1  0.87830997  0.87830997  0.87830997  1
  Zn  Zn21  1  0.01262238  0.32912587  0.32912587  1
  Zn  Zn22  1  0.32912587  0.01262238  0.32912587  1
  Zn  Zn23  1  0.32912587  0.32912587  0.01262238  1
  Zn  Zn24  1  0.32912587  0.32912587  0.32912587  1
  Zn  Zn25  1  0.98737762  0.67087413  0.67087413  1
  Zn  Zn26  1  0.67087413  0.98737762  0.67087413  1
  Zn  Zn27  1  0.67087413  0.67087413  0.98737762  1
  Zn  Zn28  1  0.67087413  0.67087413  0.67087413  1
