# generated using pymatgen
data_La6Mg23Sb
_symmetry_space_group_name_H-M   'P 1'
_cell_length_a   10.39074829
_cell_length_b   10.39074829
_cell_length_c   10.39074829
_cell_angle_alpha   60.00000000
_cell_angle_beta   60.00000000
_cell_angle_gamma   60.00000000
_symmetry_Int_Tables_number   1
_chemical_formula_structural   La6Mg23Sb
_chemical_formula_sum   'La6 Mg23 Sb1'
_cell_volume   793.27812001
_cell_formula_units_Z   1
loop_
 _symmetry_equiv_pos_site_id
 _symmetry_equiv_pos_as_xyz
  1  'x, y, z'
loop_
 _atom_site_type_symbol
 _atom_site_label
 _atom_site_symmetry_multiplicity
 _atom_site_fract_x
 _atom_site_fract_y
 _atom_site_fract_z
 _atom_site_occupancy
  La  La0  1  0.78289314  0.21710686  0.21710686  1
  La  La1  1  0.78289314  0.21710686  0.78289314  1
  La  La2  1  0.78289314  0.78289314  0.21710686  1
  La  La3  1  0.21710686  0.78289314  0.78289314  1
  La  La4  1  0.21710686  0.78289314  0.21710686  1
  La  La5  1  0.21710686  0.21710686  0.78289314  1
  Mg  Mg6  1  0.48267116  0.17244295  0.17244295  1
  Mg  Mg7  1  0.17244295  0.48267116  0.17244295  1
  Mg  Mg8  1  0.17244295  0.17244295  0.48267116  1
  Mg  Mg9  1  0.17244295  0.17244295  0.17244295  1
  Mg  Mg10  1  0.51732884  0.82755705  0.82755705  1
  Mg  Mg11  1  0.82755705  0.51732884  0.82755705  1
  Mg  Mg12  1  0.82755705  0.82755705  0.51732884  1
  Mg  Mg13  1  0.82755705  0.82755705  0.82755705  1
  Mg  Mg14  1  0.86549666  0.37816778  0.37816778  1
  Mg  Mg15  1  0.37816778  0.86549666  0.37816778  1
  Mg  Mg16  1  0.37816778  0.37816778  0.86549666  1
  Mg  Mg17  1  0.37816778  0.37816778  0.37816778  1
  Mg  Mg18  1  0.13450334  0.62183222  0.62183222  1
  Mg  Mg19  1  0.62183222  0.13450334  0.62183222  1
  Mg  Mg20  1  0.62183222  0.62183222  0.13450334  1
  Mg  Mg21  1  0.62183222  0.62183222  0.62183222  1
  Mg  Mg22  1  0.50000000  0.00000000  0.00000000  1
  Mg  Mg23  1  0.50000000  0.00000000  0.50000000  1
  Mg  Mg24  1  0.50000000  0.50000000  0.00000000  1
  Mg  Mg25  1  -0.00000000  0.50000000  0.50000000  1
  Mg  Mg26  1  -0.00000000  0.50000000  0.00000000  1
  Mg  Mg27  1  -0.00000000  0.00000000  0.50000000  1
  Mg  Mg28  1  0.50000000  0.50000000  0.50000000  1
  Sb  Sb29  1  -0.00000000  0.00000000  0.00000000  1
