# generated using pymatgen
data_LiCr(WO4)2
_symmetry_space_group_name_H-M   'P 1'
_cell_length_a   5.02300350
_cell_length_b   7.42855282
_cell_length_c   7.42855282
_cell_angle_alpha   101.55592498
_cell_angle_beta   90.52414395
_cell_angle_gamma   90.52414395
_symmetry_Int_Tables_number   1
_chemical_formula_structural   LiCr(WO4)2
_chemical_formula_sum   'Li2 Cr2 W4 O16'
_cell_volume   271.53930747
_cell_formula_units_Z   2
loop_
 _symmetry_equiv_pos_site_id
 _symmetry_equiv_pos_as_xyz
  1  'x, y, z'
loop_
 _atom_site_type_symbol
 _atom_site_label
 _atom_site_symmetry_multiplicity
 _atom_site_fract_x
 _atom_site_fract_y
 _atom_site_fract_z
 _atom_site_occupancy
  Li  Li0  1  0.25000000  0.83747583  0.16252417  1
  Li  Li1  1  0.75000000  0.16252417  0.83747583  1
  Cr  Cr2  1  0.25000000  0.32423204  0.67576796  1
  Cr  Cr3  1  0.75000000  0.67576796  0.32423204  1
  W  W4  1  0.25541703  0.83621208  0.66115513  1
  W  W5  1  0.24458297  0.33884487  0.16378792  1
  W  W6  1  0.74458297  0.16378792  0.33884487  1
  W  W7  1  0.75541703  0.66115513  0.83621208  1
  O  O8  1  0.58023868  0.69579428  0.57597827  1
  O  O9  1  0.91976132  0.42402173  0.30420572  1
  O  O10  1  0.41976132  0.30420572  0.42402173  1
  O  O11  1  0.08023868  0.57597827  0.69579428  1
  O  O12  1  0.08657126  0.79851991  0.43529790  1
  O  O13  1  0.41342874  0.56470210  0.20148009  1
  O  O14  1  0.91342874  0.20148009  0.56470210  1
  O  O15  1  0.58657126  0.43529790  0.79851991  1
  O  O16  1  0.55705239  0.19540338  0.09754268  1
  O  O17  1  0.94294761  0.90245732  0.80459662  1
  O  O18  1  0.44294761  0.80459662  0.90245732  1
  O  O19  1  0.05705239  0.09754268  0.19540338  1
  O  O20  1  0.11114489  0.31763167  0.92886840  1
  O  O21  1  0.38885511  0.07113160  0.68236833  1
  O  O22  1  0.88885511  0.68236833  0.07113160  1
  O  O23  1  0.61114489  0.92886840  0.31763167  1
