# generated using pymatgen
data_Si(SnS2)2
_symmetry_space_group_name_H-M   'P 1'
_cell_length_a   8.33774837
_cell_length_b   8.46493217
_cell_length_c   10.63088533
_cell_angle_alpha   90.00000000
_cell_angle_beta   107.71995033
_cell_angle_gamma   90.00000000
_symmetry_Int_Tables_number   1
_chemical_formula_structural   Si(SnS2)2
_chemical_formula_sum   'Si4 Sn8 S16'
_cell_volume   714.71355083
_cell_formula_units_Z   4
loop_
 _symmetry_equiv_pos_site_id
 _symmetry_equiv_pos_as_xyz
  1  'x, y, z'
loop_
 _atom_site_type_symbol
 _atom_site_label
 _atom_site_symmetry_multiplicity
 _atom_site_fract_x
 _atom_site_fract_y
 _atom_site_fract_z
 _atom_site_occupancy
  Si  Si0  1  0.31346736  0.21291846  0.01997941  1
  Si  Si1  1  0.18653264  0.71291846  0.48002059  1
  Si  Si2  1  0.68653264  0.78708154  0.98002059  1
  Si  Si3  1  0.81346736  0.28708154  0.51997941  1
  Sn  Sn4  1  0.74684553  0.34561174  0.19665382  1
  Sn  Sn5  1  0.75315447  0.84561174  0.30334618  1
  Sn  Sn6  1  0.25315447  0.65438826  0.80334618  1
  Sn  Sn7  1  0.24684553  0.15438826  0.69665382  1
  Sn  Sn8  1  0.38565093  0.24378129  0.39119611  1
  Sn  Sn9  1  0.11434907  0.74378129  0.10880389  1
  Sn  Sn10  1  0.61434907  0.75621871  0.60880389  1
  Sn  Sn11  1  0.88565093  0.25621871  0.89119611  1
  S  S12  1  0.49545257  0.11973856  0.19463501  1
  S  S13  1  0.00454743  0.61973856  0.30536499  1
  S  S14  1  0.50454743  0.88026144  0.80536499  1
  S  S15  1  0.99545257  0.38026144  0.69463501  1
  S  S16  1  0.14801586  0.03649832  0.90004488  1
  S  S17  1  0.35198414  0.53649832  0.59995512  1
  S  S18  1  0.85198414  0.96350168  0.09995512  1
  S  S19  1  0.64801586  0.46350168  0.40004488  1
  S  S20  1  0.44457167  0.31859340  0.89898028  1
  S  S21  1  0.05542833  0.81859340  0.60101972  1
  S  S22  1  0.55542833  0.68140660  0.10101972  1
  S  S23  1  0.94457167  0.18140660  0.39898028  1
  S  S24  1  0.15001165  0.36536185  0.08385568  1
  S  S25  1  0.34998835  0.86536185  0.41614432  1
  S  S26  1  0.84998835  0.63463815  0.91614432  1
  S  S27  1  0.65001165  0.13463815  0.58385568  1
