# generated using pymatgen
data_Ca2CdAs2
_symmetry_space_group_name_H-M   'P 1'
_cell_length_a   4.32956718
_cell_length_b   11.05674416
_cell_length_c   14.48862058
_cell_angle_alpha   109.54967426
_cell_angle_beta   90.00000000
_cell_angle_gamma   101.29078813
_symmetry_Int_Tables_number   1
_chemical_formula_structural   Ca2CdAs2
_chemical_formula_sum   'Ca10 Cd5 As10'
_cell_volume   639.33719579
_cell_formula_units_Z   5
loop_
 _symmetry_equiv_pos_site_id
 _symmetry_equiv_pos_as_xyz
  1  'x, y, z'
loop_
 _atom_site_type_symbol
 _atom_site_label
 _atom_site_symmetry_multiplicity
 _atom_site_fract_x
 _atom_site_fract_y
 _atom_site_fract_z
 _atom_site_occupancy
  Ca  Ca0  1  0.98100577  0.96201153  0.38521505  1
  Ca  Ca1  1  0.83759692  0.67519383  0.49751931  1
  Ca  Ca2  1  0.80971145  0.61942291  0.23046456  1
  Ca  Ca3  1  0.43573542  0.87147083  0.78698798  1
  Ca  Ca4  1  0.40492344  0.80984689  0.06419647  1
  Ca  Ca5  1  0.27703658  0.55407317  0.80709678  1
  Ca  Ca6  1  0.17389211  0.34778423  0.42061372  1
  Ca  Ca7  1  0.14811977  0.29623954  0.14837805  1
  Ca  Ca8  1  0.11445059  0.22890117  0.87663018  1
  Ca  Ca9  1  0.10573055  0.21146109  0.63373895  1
  Cd  Cd10  1  0.00025414  0.00050827  0.99964917  1
  Cd  Cd11  1  0.76494851  0.52989701  0.96833884  1
  Cd  Cd12  1  0.71850546  0.43701092  0.61706907  1
  Cd  Cd13  1  0.56561400  0.13122799  0.26923420  1
  Cd  Cd14  1  0.47289260  0.94578519  0.56176614  1
  As  As15  1  0.99227834  0.98455667  0.18949894  1
  As  As16  1  0.98247655  0.96495310  0.67737899  1
  As  As17  1  0.87261292  0.74522584  0.89324582  1
  As  As18  1  0.69681121  0.39362241  0.29913438  1
  As  As19  1  0.67300271  0.34600543  0.77822566  1
  As  As20  1  0.58574988  0.17149976  0.48087930  1
  As  As21  1  0.56988933  0.13977866  0.97890652  1
  As  As22  1  0.38121158  0.76242316  0.37777144  1
  As  As23  1  0.29039815  0.58079631  0.60948902  1
  As  As24  1  0.26443204  0.52886408  0.07399145  1
