# generated using pymatgen
data_Rb2MoO4
_symmetry_space_group_name_H-M   'P 1'
_cell_length_a   6.48022714
_cell_length_b   8.27961764
_cell_length_c   11.43609751
_cell_angle_alpha   90.00000000
_cell_angle_beta   90.00000000
_cell_angle_gamma   90.00000000
_symmetry_Int_Tables_number   1
_chemical_formula_structural   Rb2MoO4
_chemical_formula_sum   'Rb8 Mo4 O16'
_cell_volume   613.59012220
_cell_formula_units_Z   4
loop_
 _symmetry_equiv_pos_site_id
 _symmetry_equiv_pos_as_xyz
  1  'x, y, z'
loop_
 _atom_site_type_symbol
 _atom_site_label
 _atom_site_symmetry_multiplicity
 _atom_site_fract_x
 _atom_site_fract_y
 _atom_site_fract_z
 _atom_site_occupancy
  Rb  Rb0  1  0.25000000  0.16969983  0.07905107  1
  Rb  Rb1  1  0.25000000  0.66969983  0.42094893  1
  Rb  Rb2  1  0.75000000  0.83030017  0.92094893  1
  Rb  Rb3  1  0.75000000  0.33030017  0.57905107  1
  Rb  Rb4  1  0.25000000  0.49909797  0.78972759  1
  Rb  Rb5  1  0.25000000  0.99909797  0.71027241  1
  Rb  Rb6  1  0.75000000  0.50090203  0.21027241  1
  Rb  Rb7  1  0.75000000  0.00090203  0.28972759  1
  Mo  Mo8  1  0.25000000  0.71916673  0.07982455  1
  Mo  Mo9  1  0.25000000  0.21916673  0.42017545  1
  Mo  Mo10  1  0.75000000  0.28083327  0.92017545  1
  Mo  Mo11  1  0.75000000  0.78083327  0.57982455  1
  O  O12  1  0.25000000  0.50343277  0.06864399  1
  O  O13  1  0.25000000  0.00343277  0.43135601  1
  O  O14  1  0.75000000  0.49656723  0.93135601  1
  O  O15  1  0.75000000  0.99656723  0.56864399  1
  O  O16  1  0.25000000  0.81178005  0.93645720  1
  O  O17  1  0.25000000  0.31178005  0.56354280  1
  O  O18  1  0.75000000  0.18821995  0.06354280  1
  O  O19  1  0.75000000  0.68821995  0.43645720  1
  O  O20  1  0.02277022  0.78406731  0.15735240  1
  O  O21  1  0.47722978  0.28406731  0.34264760  1
  O  O22  1  0.52277022  0.21593269  0.84264760  1
  O  O23  1  0.97722978  0.71593269  0.65735240  1
  O  O24  1  0.97722978  0.21593269  0.84264760  1
  O  O25  1  0.52277022  0.71593269  0.65735240  1
  O  O26  1  0.47722978  0.78406731  0.15735240  1
  O  O27  1  0.02277022  0.28406731  0.34264760  1
