# generated using pymatgen
data_Rb3Bi2I9
_symmetry_space_group_name_H-M   'P 1'
_cell_length_a   8.85491587
_cell_length_b   14.95499938
_cell_length_c   20.75444886
_cell_angle_alpha   86.66206146
_cell_angle_beta   90.00000000
_cell_angle_gamma   90.00000000
_symmetry_Int_Tables_number   1
_chemical_formula_structural   Rb3Bi2I9
_chemical_formula_sum   'Rb12 Bi8 I36'
_cell_volume   2743.75058142
_cell_formula_units_Z   4
loop_
 _symmetry_equiv_pos_site_id
 _symmetry_equiv_pos_as_xyz
  1  'x, y, z'
loop_
 _atom_site_type_symbol
 _atom_site_label
 _atom_site_symmetry_multiplicity
 _atom_site_fract_x
 _atom_site_fract_y
 _atom_site_fract_z
 _atom_site_occupancy
  Rb  Rb0  1  0.57224264  0.49539849  0.26160456  1
  Rb  Rb1  1  0.07224264  0.00460151  0.73839544  1
  Rb  Rb2  1  0.42775736  0.50460151  0.73839544  1
  Rb  Rb3  1  0.92775736  0.99539849  0.26160456  1
  Rb  Rb4  1  0.56504019  0.82253312  0.92134664  1
  Rb  Rb5  1  0.06504019  0.67746688  0.07865336  1
  Rb  Rb6  1  0.43495981  0.17746688  0.07865336  1
  Rb  Rb7  1  0.93495981  0.32253312  0.92134664  1
  Rb  Rb8  1  0.42604718  0.83968085  0.41611104  1
  Rb  Rb9  1  0.92604718  0.66031915  0.58388896  1
  Rb  Rb10  1  0.57395282  0.16031915  0.58388896  1
  Rb  Rb11  1  0.07395282  0.33968085  0.41611104  1
  Bi  Bi12  1  0.50658324  0.83647658  0.65942934  1
  Bi  Bi13  1  0.00658324  0.66352342  0.34057066  1
  Bi  Bi14  1  0.49341676  0.16352342  0.34057066  1
  Bi  Bi15  1  0.99341676  0.33647658  0.65942934  1
  Bi  Bi16  1  0.50503852  0.83086751  0.15949990  1
  Bi  Bi17  1  0.00503852  0.66913249  0.84050010  1
  Bi  Bi18  1  0.49496148  0.16913249  0.84050010  1
  Bi  Bi19  1  0.99496148  0.33086751  0.15949990  1
  I  I20  1  0.99039157  0.52199999  0.22962124  1
  I  I21  1  0.49039157  0.97800001  0.77037876  1
  I  I22  1  0.00960843  0.47800001  0.77037876  1
  I  I23  1  0.50960843  0.02199999  0.22962124  1
  I  I24  1  0.99192223  0.84259878  0.90259588  1
  I  I25  1  0.49192223  0.65740122  0.09740412  1
  I  I26  1  0.00807777  0.15740122  0.09740412  1
  I  I27  1  0.50807777  0.34259878  0.90259588  1
  I  I28  1  0.00728801  0.81167378  0.43172199  1
  I  I29  1  0.50728801  0.68832622  0.56827801  1
  I  I30  1  0.99271199  0.18832622  0.56827801  1
  I  I31  1  0.49271199  0.31167378  0.43172199  1
  I  I32  1  0.82137696  0.57974561  0.94643843  1
  I  I33  1  0.32137696  0.92025439  0.05356157  1
  I  I34  1  0.17862304  0.42025439  0.05356157  1
  I  I35  1  0.67862304  0.07974561  0.94643843  1
  I  I36  1  0.81906503  0.54114600  0.42732103  1
  I  I37  1  0.31906503  0.95885400  0.57267897  1
  I  I38  1  0.18093497  0.45885400  0.57267897  1
  I  I39  1  0.68093497  0.04114600  0.42732103  1
  I  I40  1  0.79800419  0.91460468  0.61118395  1
  I  I41  1  0.29800419  0.58539532  0.38881605  1
  I  I42  1  0.20199581  0.08539532  0.38881605  1
  I  I43  1  0.70199581  0.41460468  0.61118395  1
  I  I44  1  0.80063186  0.88150836  0.10049921  1
  I  I45  1  0.30063186  0.61849164  0.89950079  1
  I  I46  1  0.19936814  0.11849164  0.89950079  1
  I  I47  1  0.69936814  0.38150836  0.10049921  1
  I  I48  1  0.82373458  0.24212163  0.28780183  1
  I  I49  1  0.32373458  0.25787837  0.71219817  1
  I  I50  1  0.17626542  0.75787837  0.71219817  1
  I  I51  1  0.67626542  0.74212163  0.28780183  1
  I  I52  1  0.82175645  0.20310831  0.76488870  1
  I  I53  1  0.32175645  0.29689169  0.23511130  1
  I  I54  1  0.17824355  0.79689169  0.23511130  1
  I  I55  1  0.67824355  0.70310831  0.76488870  1
