# generated using pymatgen
data_NaAsW2O9
_symmetry_space_group_name_H-M   'P 1'
_cell_length_a   5.00083672
_cell_length_b   8.89981853
_cell_length_c   16.85998186
_cell_angle_alpha   90.00000000
_cell_angle_beta   90.00000000
_cell_angle_gamma   90.00000000
_symmetry_Int_Tables_number   1
_chemical_formula_structural   NaAsW2O9
_chemical_formula_sum   'Na4 As4 W8 O36'
_cell_volume   750.37944535
_cell_formula_units_Z   4
loop_
 _symmetry_equiv_pos_site_id
 _symmetry_equiv_pos_as_xyz
  1  'x, y, z'
loop_
 _atom_site_type_symbol
 _atom_site_label
 _atom_site_symmetry_multiplicity
 _atom_site_fract_x
 _atom_site_fract_y
 _atom_site_fract_z
 _atom_site_occupancy
  Na  Na0  1  0.30353004  0.51541032  0.10903446  1
  Na  Na1  1  0.19646996  0.48458968  0.60903446  1
  Na  Na2  1  0.80353004  0.98458968  0.89096554  1
  Na  Na3  1  0.69646996  0.01541032  0.39096554  1
  As  As4  1  0.63556303  0.22931226  0.22934264  1
  As  As5  1  0.86443697  0.77068774  0.72934264  1
  As  As6  1  0.13556303  0.27068774  0.77065736  1
  As  As7  1  0.36443697  0.72931226  0.27065736  1
  W  W8  1  0.63722801  0.61880009  0.45600717  1
  W  W9  1  0.86277199  0.38119991  0.95600717  1
  W  W10  1  0.13722801  0.88119991  0.54399283  1
  W  W11  1  0.36277199  0.11880009  0.04399283  1
  W  W12  1  0.88500551  0.89298335  0.15562684  1
  W  W13  1  0.61499449  0.10701665  0.65562684  1
  W  W14  1  0.38500551  0.60701665  0.84437316  1
  W  W15  1  0.11499449  0.39298335  0.34437316  1
  O  O16  1  0.96518900  0.24787330  0.39944385  1
  O  O17  1  0.53481100  0.75212670  0.89944385  1
  O  O18  1  0.46518900  0.25212670  0.60055615  1
  O  O19  1  0.03481100  0.74787330  0.10055615  1
  O  O20  1  0.78224281  0.50335286  0.52833915  1
  O  O21  1  0.71775719  0.49664714  0.02833915  1
  O  O22  1  0.28224281  0.99664714  0.47166085  1
  O  O23  1  0.21775719  0.00335286  0.97166085  1
  O  O24  1  0.51329969  0.27110969  0.13793326  1
  O  O25  1  0.98670031  0.72889031  0.63793326  1
  O  O26  1  0.01329969  0.22889031  0.86206674  1
  O  O27  1  0.48670031  0.77110969  0.36206674  1
  O  O28  1  0.72113336  0.04536463  0.24394026  1
  O  O29  1  0.77886664  0.95463537  0.74394026  1
  O  O30  1  0.22113336  0.45463537  0.75605974  1
  O  O31  1  0.27886664  0.54536463  0.25605974  1
  O  O32  1  0.90511221  0.34825429  0.24407913  1
  O  O33  1  0.59488779  0.65174571  0.74407913  1
  O  O34  1  0.40511221  0.15174571  0.75592087  1
  O  O35  1  0.09488779  0.84825429  0.25592087  1
  O  O36  1  0.40456123  0.25480869  0.30440574  1
  O  O37  1  0.09543877  0.74519131  0.80440574  1
  O  O38  1  0.90456123  0.24519131  0.69559426  1
  O  O39  1  0.59543877  0.75480869  0.19559426  1
  O  O40  1  0.86648262  0.55043894  0.36936572  1
  O  O41  1  0.63351738  0.44956106  0.86936572  1
  O  O42  1  0.36648262  0.94956106  0.63063428  1
  O  O43  1  0.13351738  0.05043894  0.13063428  1
  O  O44  1  0.85545373  0.79512608  0.47579809  1
  O  O45  1  0.64454627  0.20487392  0.97579809  1
  O  O46  1  0.35545373  0.70487392  0.52420191  1
  O  O47  1  0.14454627  0.29512608  0.02420191  1
  O  O48  1  0.36310576  0.47643218  0.41847166  1
  O  O49  1  0.13689424  0.52356782  0.91847166  1
  O  O50  1  0.86310576  0.02356782  0.58152834  1
  O  O51  1  0.63689424  0.97643218  0.08152834  1
