# generated using pymatgen
data_LiP2H8NO8
_symmetry_space_group_name_H-M   'P 1'
_cell_length_a   7.76644948
_cell_length_b   7.64059122
_cell_length_c   13.07866154
_cell_angle_alpha   90.00000000
_cell_angle_beta   90.00000000
_cell_angle_gamma   100.69845419
_symmetry_Int_Tables_number   1
_chemical_formula_structural   LiP2H8NO8
_chemical_formula_sum   'Li4 P8 H32 N4 O32'
_cell_volume   762.60108240
_cell_formula_units_Z   4
loop_
 _symmetry_equiv_pos_site_id
 _symmetry_equiv_pos_as_xyz
  1  'x, y, z'
loop_
 _atom_site_type_symbol
 _atom_site_label
 _atom_site_symmetry_multiplicity
 _atom_site_fract_x
 _atom_site_fract_y
 _atom_site_fract_z
 _atom_site_occupancy
  Li  Li0  1  0.16169256  0.68844111  0.60397181  1
  Li  Li1  1  0.83830744  0.81155889  0.10397181  1
  Li  Li2  1  0.83830744  0.31155889  0.39602819  1
  Li  Li3  1  0.16169256  0.18844111  0.89602819  1
  P  P4  1  0.18725105  0.57841049  0.83417931  1
  P  P5  1  0.81274895  0.92158951  0.33417931  1
  P  P6  1  0.81274895  0.42158951  0.16582069  1
  P  P7  1  0.18725105  0.07841049  0.66582069  1
  P  P8  1  0.75550883  0.54663799  0.57294961  1
  P  P9  1  0.24449117  0.95336201  0.07294961  1
  P  P10  1  0.24449117  0.45336201  0.42705039  1
  P  P11  1  0.75550883  0.04663799  0.92705039  1
  H  H12  1  0.68632793  0.54244024  0.95447035  1
  H  H13  1  0.31367207  0.95755976  0.45447035  1
  H  H14  1  0.31367207  0.45755976  0.04552965  1
  H  H15  1  0.68632793  0.04244024  0.54552965  1
  H  H16  1  0.49863407  0.50299745  0.88303606  1
  H  H17  1  0.50136593  0.99700255  0.38303606  1
  H  H18  1  0.50136593  0.49700255  0.11696394  1
  H  H19  1  0.49863407  0.00299745  0.61696394  1
  H  H20  1  0.66977969  0.67070414  0.85201849  1
  H  H21  1  0.33022031  0.82929586  0.35201849  1
  H  H22  1  0.33022031  0.32929586  0.14798151  1
  H  H23  1  0.66977969  0.17070414  0.64798151  1
  H  H24  1  0.68867200  0.45679586  0.83595567  1
  H  H25  1  0.31132800  0.04320414  0.33595567  1
  H  H26  1  0.31132800  0.54320414  0.16404433  1
  H  H27  1  0.68867200  0.95679586  0.66404433  1
  H  H28  1  0.27207281  0.86431410  0.81544713  1
  H  H29  1  0.72792719  0.63568590  0.31544713  1
  H  H30  1  0.72792719  0.13568590  0.18455287  1
  H  H31  1  0.27207281  0.36431410  0.68455287  1
  H  H32  1  0.04708832  0.69633356  0.95505585  1
  H  H33  1  0.95291168  0.80366644  0.45505585  1
  H  H34  1  0.95291168  0.30366644  0.04494415  1
  H  H35  1  0.04708832  0.19633356  0.54494415  1
  H  H36  1  0.92039910  0.46223500  0.69425963  1
  H  H37  1  0.07960090  0.03776500  0.19425963  1
  H  H38  1  0.07960090  0.53776500  0.30574037  1
  H  H39  1  0.92039910  0.96223500  0.80574037  1
  H  H40  1  0.48984076  0.61800818  0.56345470  1
  H  H41  1  0.51015924  0.88199182  0.06345470  1
  H  H42  1  0.51015924  0.38199182  0.43654530  1
  H  H43  1  0.48984076  0.11800818  0.93654530  1
  N  N44  1  0.63611336  0.54323316  0.88114473  1
  N  N45  1  0.36388664  0.95676684  0.38114473  1
  N  N46  1  0.36388664  0.45676684  0.11885527  1
  N  N47  1  0.63611336  0.04323316  0.61885527  1
  O  O48  1  0.32716442  0.76028232  0.83391166  1
  O  O49  1  0.67283558  0.73971768  0.33391166  1
  O  O50  1  0.67283558  0.23971768  0.16608834  1
  O  O51  1  0.32716442  0.26028232  0.66608834  1
  O  O52  1  0.01934858  0.61812229  0.89077392  1
  O  O53  1  0.98065142  0.88187771  0.39077392  1
  O  O54  1  0.98065142  0.38187771  0.10922608  1
  O  O55  1  0.01934858  0.11812229  0.60922608  1
  O  O56  1  0.27495529  0.44417915  0.89124953  1
  O  O57  1  0.72504471  0.05582085  0.39124953  1
  O  O58  1  0.72504471  0.55582085  0.10875047  1
  O  O59  1  0.27495529  0.94417915  0.60875047  1
  O  O60  1  0.13308574  0.51992504  0.72476442  1
  O  O61  1  0.86691426  0.98007496  0.22476442  1
  O  O62  1  0.86691426  0.48007496  0.27523558  1
  O  O63  1  0.13308574  0.01992504  0.77523558  1
  O  O64  1  0.68884952  0.41112523  0.48993841  1
  O  O65  1  0.31115048  0.08887477  0.98993841  1
  O  O66  1  0.31115048  0.58887477  0.51006159  1
  O  O67  1  0.68884952  0.91112523  0.01006159  1
  O  O68  1  0.79208538  0.43984409  0.67458282  1
  O  O69  1  0.20791462  0.06015591  0.17458282  1
  O  O70  1  0.20791462  0.56015591  0.32541718  1
  O  O71  1  0.79208538  0.93984409  0.82541718  1
  O  O72  1  0.92378825  0.67820457  0.54906675  1
  O  O73  1  0.07621175  0.82179543  0.04906675  1
  O  O74  1  0.07621175  0.32179543  0.45093325  1
  O  O75  1  0.92378825  0.17820457  0.95093325  1
  O  O76  1  0.60492607  0.64929383  0.60467575  1
  O  O77  1  0.39507393  0.85070617  0.10467575  1
  O  O78  1  0.39507393  0.35070617  0.39532425  1
  O  O79  1  0.60492607  0.14929383  0.89532425  1
