# generated using pymatgen
data_RbU3F13
_symmetry_space_group_name_H-M   'P 1'
_cell_length_a   7.39558394
_cell_length_b   8.10314712
_cell_length_c   8.52508325
_cell_angle_alpha   90.00000000
_cell_angle_beta   90.00000000
_cell_angle_gamma   90.00000000
_symmetry_Int_Tables_number   1
_chemical_formula_structural   RbU3F13
_chemical_formula_sum   'Rb2 U6 F26'
_cell_volume   510.88696657
_cell_formula_units_Z   2
loop_
 _symmetry_equiv_pos_site_id
 _symmetry_equiv_pos_as_xyz
  1  'x, y, z'
loop_
 _atom_site_type_symbol
 _atom_site_label
 _atom_site_symmetry_multiplicity
 _atom_site_fract_x
 _atom_site_fract_y
 _atom_site_fract_z
 _atom_site_occupancy
  Rb  Rb0  1  0.60401859  0.50000000  0.23628879  1
  Rb  Rb1  1  0.39598141  0.50000000  0.73628879  1
  U  U2  1  0.10321889  0.74717973  0.37779608  1
  U  U3  1  0.10321889  0.25282027  0.37779608  1
  U  U4  1  0.89678111  0.25282027  0.87779608  1
  U  U5  1  0.89678111  0.74717973  0.87779608  1
  U  U6  1  0.39042158  0.00000000  0.03980131  1
  U  U7  1  0.60957842  0.00000000  0.53980131  1
  F  F8  1  0.19139824  0.82875726  0.90105767  1
  F  F9  1  0.19139824  0.17124274  0.90105767  1
  F  F10  1  0.80860176  0.17124274  0.40105767  1
  F  F11  1  0.80860176  0.82875726  0.40105767  1
  F  F12  1  0.38871430  0.80632649  0.49402556  1
  F  F13  1  0.38871430  0.19367351  0.49402556  1
  F  F14  1  0.61128570  0.19367351  0.99402556  1
  F  F15  1  0.61128570  0.80632649  0.99402556  1
  F  F16  1  0.31773214  0.74114988  0.18162381  1
  F  F17  1  0.31773214  0.25885012  0.18162381  1
  F  F18  1  0.68226786  0.25885012  0.68162381  1
  F  F19  1  0.68226786  0.74114988  0.68162381  1
  F  F20  1  0.95051713  0.69679610  0.13182841  1
  F  F21  1  0.95051713  0.30320390  0.13182841  1
  F  F22  1  0.04948287  0.30320390  0.63182841  1
  F  F23  1  0.04948287  0.69679610  0.63182841  1
  F  F24  1  0.93805866  0.50000000  0.38626726  1
  F  F25  1  0.06194134  0.50000000  0.88626726  1
  F  F26  1  0.27116114  0.50000000  0.40980389  1
  F  F27  1  0.72883886  0.50000000  0.90980389  1
  F  F28  1  0.10238031  0.00000000  0.49917417  1
  F  F29  1  0.89761969  0.00000000  -0.00082583  1
  F  F30  1  0.13750305  0.00000000  0.21672421  1
  F  F31  1  0.86249695  0.00000000  0.71672421  1
  F  F32  1  0.53243900  0.00000000  0.26879731  1
  F  F33  1  0.46756100  0.00000000  0.76879731  1
