# generated using pymatgen
data_ZrF4
_symmetry_space_group_name_H-M   'P 1'
_cell_length_a   7.84660591
_cell_length_b   7.84660591
_cell_length_c   7.83854279
_cell_angle_alpha   63.33769976
_cell_angle_beta   63.33769976
_cell_angle_gamma   80.27672740
_symmetry_Int_Tables_number   1
_chemical_formula_structural   ZrF4
_chemical_formula_sum   'Zr6 F24'
_cell_volume   385.11556733
_cell_formula_units_Z   6
loop_
 _symmetry_equiv_pos_site_id
 _symmetry_equiv_pos_as_xyz
  1  'x, y, z'
loop_
 _atom_site_type_symbol
 _atom_site_label
 _atom_site_symmetry_multiplicity
 _atom_site_fract_x
 _atom_site_fract_y
 _atom_site_fract_z
 _atom_site_occupancy
  Zr  Zr0  1  0.78612304  0.21387696  0.75000000  1
  Zr  Zr1  1  0.21387696  0.78612304  0.25000000  1
  Zr  Zr2  1  0.36559401  0.22310325  0.33318179  1
  Zr  Zr3  1  0.22310325  0.36559401  0.83318179  1
  Zr  Zr4  1  0.63440599  0.77689675  0.66681821  1
  Zr  Zr5  1  0.77689675  0.63440599  0.16681821  1
  F  F6  1  -0.00000000  0.50000000  0.00000000  1
  F  F7  1  0.50000000  0.00000000  0.50000000  1
  F  F8  1  0.39632613  0.60367387  0.75000000  1
  F  F9  1  0.60367387  0.39632613  0.25000000  1
  F  F10  1  0.81587280  0.40296372  0.42354114  1
  F  F11  1  0.40296372  0.81587280  0.92354114  1
  F  F12  1  0.18412720  0.59703628  0.57645886  1
  F  F13  1  0.59703628  0.18412720  0.07645886  1
  F  F14  1  0.06208852  0.17220973  0.54452987  1
  F  F15  1  0.17220973  0.06208852  0.04452987  1
  F  F16  1  0.93791148  0.82779027  0.45547013  1
  F  F17  1  0.82779027  0.93791148  0.95547013  1
  F  F18  1  0.68346473  0.74127587  0.39401521  1
  F  F19  1  0.74127587  0.68346473  0.89401521  1
  F  F20  1  0.31653527  0.25872413  0.60598479  1
  F  F21  1  0.25872413  0.31653527  0.10598479  1
  F  F22  1  0.25882954  0.50277917  0.28240663  1
  F  F23  1  0.50277917  0.25882954  0.78240663  1
  F  F24  1  0.74117046  0.49722083  0.71759337  1
  F  F25  1  0.49722083  0.74117046  0.21759337  1
  F  F26  1  0.03056198  0.72533989  0.14787102  1
  F  F27  1  0.72533989  0.03056198  0.64787102  1
  F  F28  1  0.96943802  0.27466011  0.85212898  1
  F  F29  1  0.27466011  0.96943802  0.35212898  1
