# generated using pymatgen
data_Na3YbSi2O7
_symmetry_space_group_name_H-M   'P 1'
_cell_length_a   9.54566622
_cell_length_b   9.54326620
_cell_length_c   13.96612718
_cell_angle_alpha   90.00000000
_cell_angle_beta   90.00000000
_cell_angle_gamma   119.99540075
_symmetry_Int_Tables_number   1
_chemical_formula_structural   Na3YbSi2O7
_chemical_formula_sum   'Na18 Yb6 Si12 O42'
_cell_volume   1101.86917238
_cell_formula_units_Z   6
loop_
 _symmetry_equiv_pos_site_id
 _symmetry_equiv_pos_as_xyz
  1  'x, y, z'
loop_
 _atom_site_type_symbol
 _atom_site_label
 _atom_site_symmetry_multiplicity
 _atom_site_fract_x
 _atom_site_fract_y
 _atom_site_fract_z
 _atom_site_occupancy
  Na  Na0  1  0.00000000  -0.00000000  0.50000000  1
  Na  Na1  1  0.00000000  -0.00000000  -0.00000000  1
  Na  Na2  1  0.33345353  0.66657566  0.25000000  1
  Na  Na3  1  0.66654647  0.33342434  0.75000000  1
  Na  Na4  1  0.33348746  0.66663945  0.75000000  1
  Na  Na5  1  0.66651254  0.33336055  0.25000000  1
  Na  Na6  1  0.33675904  0.31814691  0.58415582  1
  Na  Na7  1  0.68182926  0.01846886  0.58419490  1
  Na  Na8  1  0.98143123  0.66338511  0.58422018  1
  Na  Na9  1  0.66324096  0.68185309  0.08415582  1
  Na  Na10  1  0.31817074  0.98153114  0.08419490  1
  Na  Na11  1  0.01856877  0.33661489  0.08422018  1
  Na  Na12  1  0.66324096  0.68185309  0.41584418  1
  Na  Na13  1  0.31817074  0.98153114  0.41580510  1
  Na  Na14  1  0.01856877  0.33661489  0.41577982  1
  Na  Na15  1  0.33675904  0.31814691  0.91584418  1
  Na  Na16  1  0.68182926  0.01846886  0.91580510  1
  Na  Na17  1  0.98143123  0.66338511  0.91577982  1
  Yb  Yb18  1  -0.00000285  0.00006927  0.75000000  1
  Yb  Yb19  1  0.00000285  0.99993073  0.25000000  1
  Yb  Yb20  1  0.33318983  0.66643583  0.48032537  1
  Yb  Yb21  1  0.66681017  0.33356417  0.98032537  1
  Yb  Yb22  1  0.66681017  0.33356417  0.51967463  1
  Yb  Yb23  1  0.33318983  0.66643583  0.01967463  1
  Si  Si24  1  0.32728784  0.98148950  0.64171506  1
  Si  Si25  1  0.01857191  0.34597303  0.64179346  1
  Si  Si26  1  0.65435843  0.67285994  0.64164785  1
  Si  Si27  1  0.67271216  0.01851050  0.14171506  1
  Si  Si28  1  0.98142809  0.65402697  0.14179346  1
  Si  Si29  1  0.34564157  0.32714006  0.14164785  1
  Si  Si30  1  0.67271216  0.01851050  0.35828494  1
  Si  Si31  1  0.98142809  0.65402697  0.35820654  1
  Si  Si32  1  0.34564157  0.32714006  0.35835215  1
  Si  Si33  1  0.32728784  0.98148950  0.85828494  1
  Si  Si34  1  0.01857191  0.34597303  0.85820654  1
  Si  Si35  1  0.65435843  0.67285994  0.85835215  1
  O  O36  1  0.26755689  0.83414791  0.56421581  1
  O  O37  1  0.16595748  0.43353641  0.56421928  1
  O  O38  1  0.56654263  0.73250197  0.56429247  1
  O  O39  1  0.73244311  0.16585209  0.06421581  1
  O  O40  1  0.83404252  0.56646359  0.06421928  1
  O  O41  1  0.43345737  0.26749803  0.06429247  1
  O  O42  1  0.73244311  0.16585209  0.43578419  1
  O  O43  1  0.83404252  0.56646359  0.43578072  1
  O  O44  1  0.43345737  0.26749803  0.43570753  1
  O  O45  1  0.26755689  0.83414791  0.93578419  1
  O  O46  1  0.16595748  0.43353641  0.93578072  1
  O  O47  1  0.56654263  0.73250197  0.93570753  1
  O  O48  1  0.20507928  0.05493007  0.63734208  1
  O  O49  1  0.94512299  0.15002304  0.63748914  1
  O  O50  1  0.84987301  0.79500915  0.63734659  1
  O  O51  1  0.79492072  0.94506993  0.13734208  1
  O  O52  1  0.05487701  0.84997696  0.13748914  1
  O  O53  1  0.15012699  0.20499085  0.13734659  1
  O  O54  1  0.79492072  0.94506993  0.36265792  1
  O  O55  1  0.05487701  0.84997696  0.36251086  1
  O  O56  1  0.15012699  0.20499085  0.36265341  1
  O  O57  1  0.20507928  0.05493007  0.86265792  1
  O  O58  1  0.94512299  0.15002304  0.86251086  1
  O  O59  1  0.84987301  0.79500915  0.86265341  1
  O  O60  1  0.51470750  0.12070254  0.62417401  1
  O  O61  1  0.87926480  0.39392411  0.62417877  1
  O  O62  1  0.60606318  0.48535195  0.62414339  1
  O  O63  1  0.48529250  0.87929746  0.12417401  1
  O  O64  1  0.12073520  0.60607589  0.12417877  1
  O  O65  1  0.39393682  0.51464805  0.12414339  1
  O  O66  1  0.48529250  0.87929746  0.37582599  1
  O  O67  1  0.12073520  0.60607589  0.37582123  1
  O  O68  1  0.39393682  0.51464805  0.37585661  1
  O  O69  1  0.51470750  0.12070254  0.87582599  1
  O  O70  1  0.87926480  0.39392411  0.87582123  1
  O  O71  1  0.60606318  0.48535195  0.87585661  1
  O  O72  1  0.30991964  0.89541397  0.75000000  1
  O  O73  1  0.10419697  0.41459271  0.75000000  1
  O  O74  1  0.58573441  0.68999997  0.75000000  1
  O  O75  1  0.69008036  0.10458603  0.25000000  1
  O  O76  1  0.89580303  0.58540729  0.25000000  1
  O  O77  1  0.41426559  0.31000003  0.25000000  1
