# generated using pymatgen
data_BaY2Si2O7F2
_symmetry_space_group_name_H-M   'P 1'
_cell_length_a   5.22676730
_cell_length_b   6.91705579
_cell_length_c   11.87687950
_cell_angle_alpha   92.99477317
_cell_angle_beta   102.10697855
_cell_angle_gamma   111.34755763
_symmetry_Int_Tables_number   1
_chemical_formula_structural   BaY2Si2O7F2
_chemical_formula_sum   'Ba2 Y4 Si4 O14 F4'
_cell_volume   387.12009378
_cell_formula_units_Z   2
loop_
 _symmetry_equiv_pos_site_id
 _symmetry_equiv_pos_as_xyz
  1  'x, y, z'
loop_
 _atom_site_type_symbol
 _atom_site_label
 _atom_site_symmetry_multiplicity
 _atom_site_fract_x
 _atom_site_fract_y
 _atom_site_fract_z
 _atom_site_occupancy
  Ba  Ba0  1  0.59556328  0.38155672  0.74983049  1
  Ba  Ba1  1  0.40443672  0.61844328  0.25016951  1
  Y  Y2  1  0.32531067  0.79779591  0.87682046  1
  Y  Y3  1  0.67468933  0.20220409  0.12317954  1
  Y  Y4  1  0.18222795  0.80541434  0.54421292  1
  Y  Y5  1  0.81777205  0.19458566  0.45578708  1
  Si  Si6  1  0.77179580  0.93142587  0.71824398  1
  Si  Si7  1  0.22820420  0.06857413  0.28175602  1
  Si  Si8  1  0.12840612  0.24869159  0.93411943  1
  Si  Si9  1  0.87159388  0.75130841  0.06588057  1
  O  O10  1  0.81844331  0.06946064  0.84741729  1
  O  O11  1  0.18155669  0.93053936  0.15258271  1
  O  O12  1  0.37373770  0.14756060  0.94436729  1
  O  O13  1  0.62626230  0.85243940  0.05563271  1
  O  O14  1  0.07383756  0.29757329  0.05969890  1
  O  O15  1  0.92616244  0.70242671  0.94030110  1
  O  O16  1  0.20466658  0.44616601  0.85988398  1
  O  O17  1  0.79533342  0.55383399  0.14011602  1
  O  O18  1  0.47720299  0.72776712  0.71016351  1
  O  O19  1  0.52279701  0.27223288  0.28983649  1
  O  O20  1  0.67312031  0.05808624  0.61653744  1
  O  O21  1  0.32687969  0.94191376  0.38346256  1
  O  O22  1  0.04923770  0.87828621  0.71589688  1
  O  O23  1  0.95076230  0.12171379  0.28410312  1
  F  F24  1  0.78836188  0.82763042  0.44325264  1
  F  F25  1  0.21163812  0.17236958  0.55674736  1
  F  F26  1  0.16782397  0.51873177  0.43531741  1
  F  F27  1  0.83217603  0.48126823  0.56468259  1
