# generated using pymatgen
data_Y2Mn(Si3O7)4
_symmetry_space_group_name_H-M   'P 1'
_cell_length_a   7.62960004
_cell_length_b   13.12890540
_cell_length_c   13.12890540
_cell_angle_alpha   71.73751545
_cell_angle_beta   73.10821695
_cell_angle_gamma   73.10821695
_symmetry_Int_Tables_number   1
_chemical_formula_structural   Y2Mn(Si3O7)4
_chemical_formula_sum   'Y4 Mn2 Si24 O56'
_cell_volume   1165.81773581
_cell_formula_units_Z   2
loop_
 _symmetry_equiv_pos_site_id
 _symmetry_equiv_pos_as_xyz
  1  'x, y, z'
loop_
 _atom_site_type_symbol
 _atom_site_label
 _atom_site_symmetry_multiplicity
 _atom_site_fract_x
 _atom_site_fract_y
 _atom_site_fract_z
 _atom_site_occupancy
  Y  Y0  1  0.25000000  0.52257371  0.97742629  1
  Y  Y1  1  0.25000000  0.97742629  0.52257371  1
  Y  Y2  1  0.75000000  0.47742629  0.02257371  1
  Y  Y3  1  0.75000000  0.02257371  0.47742629  1
  Mn  Mn4  1  0.25000000  0.75000000  0.75000000  1
  Mn  Mn5  1  0.75000000  0.25000000  0.25000000  1
  Si  Si6  1  0.40614877  0.77671065  0.92825745  1
  Si  Si7  1  0.88888313  0.92825745  0.77671065  1
  Si  Si8  1  0.09385123  0.57174255  0.72328935  1
  Si  Si9  1  0.61111687  0.72328935  0.57174255  1
  Si  Si10  1  0.59385123  0.22328935  0.07174255  1
  Si  Si11  1  0.11111687  0.07174255  0.22328935  1
  Si  Si12  1  0.90614877  0.42825745  0.27671065  1
  Si  Si13  1  0.38888313  0.27671065  0.42825745  1
  Si  Si14  1  0.29657716  0.47584270  0.22828720  1
  Si  Si15  1  0.99929293  0.22828720  0.47584270  1
  Si  Si16  1  0.20342284  0.27171280  0.02415730  1
  Si  Si17  1  0.50070707  0.02415730  0.27171280  1
  Si  Si18  1  0.70342284  0.52415730  0.77171280  1
  Si  Si19  1  0.00070707  0.77171280  0.52415730  1
  Si  Si20  1  0.79657716  0.72828720  0.97584270  1
  Si  Si21  1  0.49929293  0.97584270  0.72828720  1
  Si  Si22  1  0.17623500  0.86973220  0.13026780  1
  Si  Si23  1  0.82376500  0.13026780  0.86973220  1
  Si  Si24  1  0.32376500  0.36973220  0.63026780  1
  Si  Si25  1  0.67623500  0.63026780  0.36973220  1
  Si  Si26  1  0.26424314  0.66888623  0.33111377  1
  Si  Si27  1  0.73575686  0.33111377  0.66888623  1
  Si  Si28  1  0.23575686  0.16888623  0.83111377  1
  Si  Si29  1  0.76424314  0.83111377  0.16888623  1
  O  O30  1  0.28003909  0.70184126  0.91976293  1
  O  O31  1  0.09835672  0.91976293  0.70184126  1
  O  O32  1  0.21996091  0.58023707  0.79815874  1
  O  O33  1  0.40164328  0.79815874  0.58023707  1
  O  O34  1  0.71996091  0.29815874  0.08023707  1
  O  O35  1  0.90164328  0.08023707  0.29815874  1
  O  O36  1  0.78003909  0.41976293  0.20184126  1
  O  O37  1  0.59835672  0.20184126  0.41976293  1
  O  O38  1  0.42610225  0.50887302  0.10734524  1
  O  O39  1  0.95767949  0.10734524  0.50887302  1
  O  O40  1  0.07389775  0.39265476  0.99112698  1
  O  O41  1  0.54232051  0.99112698  0.39265476  1
  O  O42  1  0.57389775  0.49112698  0.89265476  1
  O  O43  1  0.04232051  0.89265476  0.49112698  1
  O  O44  1  0.92610225  0.60734524  0.00887302  1
  O  O45  1  0.45767949  0.00887302  0.60734524  1
  O  O46  1  0.60507523  0.70082492  0.96321987  1
  O  O47  1  0.73087998  0.96321987  0.70082492  1
  O  O48  1  0.89492477  0.53678013  0.79917508  1
  O  O49  1  0.76912002  0.79917508  0.53678013  1
  O  O50  1  0.39492477  0.29917508  0.03678013  1
  O  O51  1  0.26912002  0.03678013  0.29917508  1
  O  O52  1  0.10507523  0.46321987  0.20082492  1
  O  O53  1  0.23087998  0.20082492  0.46321987  1
  O  O54  1  0.38618419  0.35678637  0.30343173  1
  O  O55  1  0.95359771  0.30343173  0.35678637  1
  O  O56  1  0.11381581  0.19656827  0.14321363  1
  O  O57  1  0.54640229  0.14321363  0.19656827  1
  O  O58  1  0.61381581  0.64321363  0.69656827  1
  O  O59  1  0.04640229  0.69656827  0.64321363  1
  O  O60  1  0.88618419  0.80343173  0.85678637  1
  O  O61  1  0.45359771  0.85678637  0.80343173  1
  O  O62  1  0.30539705  0.85686187  0.01113570  1
  O  O63  1  0.82660537  0.01113570  0.85686187  1
  O  O64  1  0.19460295  0.48886430  0.64313813  1
  O  O65  1  0.67339463  0.64313813  0.48886430  1
  O  O66  1  0.69460295  0.14313813  0.98886430  1
  O  O67  1  0.17339463  0.98886430  0.14313813  1
  O  O68  1  0.80539705  0.51113570  0.35686187  1
  O  O69  1  0.32660537  0.35686187  0.51113570  1
  O  O70  1  0.23146808  0.56623576  0.30078186  1
  O  O71  1  0.90151430  0.30078186  0.56623576  1
  O  O72  1  0.26853192  0.19921814  0.93376424  1
  O  O73  1  0.59848570  0.93376424  0.19921814  1
  O  O74  1  0.76853192  0.43376424  0.69921814  1
  O  O75  1  0.09848570  0.69921814  0.43376424  1
  O  O76  1  0.73146808  0.80078186  0.06623576  1
  O  O77  1  0.40151430  0.06623576  0.80078186  1
  O  O78  1  0.26506617  0.77416273  0.22583727  1
  O  O79  1  0.73493383  0.22583727  0.77416273  1
  O  O80  1  0.23493383  0.27416273  0.72583727  1
  O  O81  1  0.76506617  0.72583727  0.27416273  1
  O  O82  1  0.46509459  0.63640977  0.36359023  1
  O  O83  1  0.53490541  0.36359023  0.63640977  1
  O  O84  1  0.03490541  0.13640977  0.86359023  1
  O  O85  1  0.96509459  0.86359023  0.13640977  1
