# generated using pymatgen
data_KNb2PSe10
_symmetry_space_group_name_H-M   'P 1'
_cell_length_a   7.54524830
_cell_length_b   13.68950560
_cell_length_c   16.09096906
_cell_angle_alpha   90.00000000
_cell_angle_beta   90.00000000
_cell_angle_gamma   105.27894855
_symmetry_Int_Tables_number   1
_chemical_formula_structural   KNb2PSe10
_chemical_formula_sum   'K4 Nb8 P4 Se40'
_cell_volume   1603.30152867
_cell_formula_units_Z   4
loop_
 _symmetry_equiv_pos_site_id
 _symmetry_equiv_pos_as_xyz
  1  'x, y, z'
loop_
 _atom_site_type_symbol
 _atom_site_label
 _atom_site_symmetry_multiplicity
 _atom_site_fract_x
 _atom_site_fract_y
 _atom_site_fract_z
 _atom_site_occupancy
  K  K0  1  0.14797923  0.32237423  0.75501996  1
  K  K1  1  0.64797923  0.82237423  0.24498004  1
  K  K2  1  0.64651790  0.79391477  0.74612295  1
  K  K3  1  0.14651790  0.29391477  0.25387705  1
  Nb  Nb4  1  0.31034297  0.04198439  0.96389674  1
  Nb  Nb5  1  0.81034297  0.54198439  0.03610326  1
  Nb  Nb6  1  0.60940177  0.33468872  0.97727947  1
  Nb  Nb7  1  0.10940177  0.83468872  0.02272053  1
  Nb  Nb8  1  0.33777339  0.05054993  0.47422817  1
  Nb  Nb9  1  0.83777339  0.55054993  0.52577183  1
  Nb  Nb10  1  0.63736255  0.34375827  0.46491719  1
  Nb  Nb11  1  0.13736255  0.84375827  0.53508281  1
  P  P12  1  0.59158342  0.17318688  0.79804513  1
  P  P13  1  0.09158342  0.67318688  0.20195487  1
  P  P14  1  0.60052689  0.16247794  0.29701529  1
  P  P15  1  0.10052689  0.66247794  0.70298471  1
  Se  Se16  1  0.50483858  0.49981213  0.94278042  1
  Se  Se17  1  0.00483858  0.99981213  0.05721958  1
  Se  Se18  1  0.24506416  0.22794267  0.97036205  1
  Se  Se19  1  0.74506416  0.72794267  0.02963795  1
  Se  Se20  1  0.96948791  0.94884470  0.91876419  1
  Se  Se21  1  0.46948791  0.44884470  0.08123581  1
  Se  Se22  1  0.48951006  0.46314067  0.55895710  1
  Se  Se23  1  0.98951006  0.96314067  0.44104290  1
  Se  Se24  1  0.27111952  0.23529598  0.46867267  1
  Se  Se25  1  0.77111952  0.73529598  0.53132733  1
  Se  Se26  1  0.05005831  0.01234489  0.57896460  1
  Se  Se27  1  0.55005831  0.51234489  0.42103540  1
  Se  Se28  1  0.29894311  0.07868367  0.79693209  1
  Se  Se29  1  0.79894311  0.57868367  0.20306791  1
  Se  Se30  1  0.91422890  0.68866326  0.91681703  1
  Se  Se31  1  0.41422890  0.18866326  0.08318297  1
  Se  Se32  1  0.30706702  0.07110990  0.30564511  1
  Se  Se33  1  0.80706702  0.57110990  0.69435489  1
  Se  Se34  1  0.45439387  0.20893433  0.58208524  1
  Se  Se35  1  0.95439387  0.70893433  0.41791476  1
  Se  Se36  1  0.60963350  0.33950956  0.80419782  1
  Se  Se37  1  0.10963350  0.83950956  0.19580218  1
  Se  Se38  1  0.12856000  0.83049299  0.70883416  1
  Se  Se39  1  0.62856000  0.33049299  0.29116584  1
  Se  Se40  1  0.38867333  0.86823100  0.91669575  1
  Se  Se41  1  0.88867333  0.36823100  0.08330425  1
  Se  Se42  1  0.67366607  0.14921785  0.93040506  1
  Se  Se43  1  0.17366607  0.64921785  0.06959494  1
  Se  Se44  1  0.96402474  0.42488998  0.94673056  1
  Se  Se45  1  0.46402474  0.92488998  0.05326944  1
  Se  Se46  1  0.91986895  0.37673709  0.56700674  1
  Se  Se47  1  0.41986895  0.87673709  0.43299326  1
  Se  Se48  1  0.69765891  0.15444720  0.42951164  1
  Se  Se49  1  0.19765891  0.65444720  0.57048836  1
  Se  Se50  1  0.99419486  0.43839919  0.43165341  1
  Se  Se51  1  0.49419486  0.93839919  0.56834659  1
  Se  Se52  1  0.75950085  0.13400319  0.70034012  1
  Se  Se53  1  0.25950085  0.63400319  0.29965988  1
  Se  Se54  1  0.75200921  0.10848464  0.20000346  1
  Se  Se55  1  0.25200921  0.60848464  0.79999654  1
