# generated using pymatgen
data_CaMn3Zn(SiO3)5
_symmetry_space_group_name_H-M   'P 1'
_cell_length_a   6.79726461
_cell_length_b   7.81338868
_cell_length_c   11.86004784
_cell_angle_alpha   105.37353501
_cell_angle_beta   92.00057848
_cell_angle_gamma   93.59884958
_symmetry_Int_Tables_number   1
_chemical_formula_structural   CaMn3Zn(SiO3)5
_chemical_formula_sum   'Ca2 Mn6 Zn2 Si10 O30'
_cell_volume   605.27668558
_cell_formula_units_Z   2
loop_
 _symmetry_equiv_pos_site_id
 _symmetry_equiv_pos_as_xyz
  1  'x, y, z'
loop_
 _atom_site_type_symbol
 _atom_site_label
 _atom_site_symmetry_multiplicity
 _atom_site_fract_x
 _atom_site_fract_y
 _atom_site_fract_z
 _atom_site_occupancy
  Ca  Ca0  1  0.63229732  0.04566525  0.69555431  1
  Ca  Ca1  1  0.36770268  0.95433475  0.30444569  1
  Mn  Mn2  1  0.96577475  0.88310067  0.85435016  1
  Mn  Mn3  1  0.03422525  0.11689933  0.14564984  1
  Mn  Mn4  1  0.87378392  0.68279364  0.55622933  1
  Mn  Mn5  1  0.12621608  0.31720636  0.44377067  1
  Mn  Mn6  1  0.81272977  0.49086581  0.27086691  1
  Mn  Mn7  1  0.18727023  0.50913419  0.72913309  1
  Zn  Zn8  1  0.80756349  0.31482828  0.98026490  1
  Zn  Zn9  1  0.19243651  0.68517172  0.01973510  1
  Si  Si10  1  0.75923597  0.74134645  0.08845864  1
  Si  Si11  1  0.24076403  0.25865355  0.91154136  1
  Si  Si12  1  0.84825716  0.92574208  0.34584447  1
  Si  Si13  1  0.15174284  0.07425792  0.65415553  1
  Si  Si14  1  0.63913089  0.26840377  0.47198485  1
  Si  Si15  1  0.36086911  0.73159623  0.52801515  1
  Si  Si16  1  0.70843478  0.45988392  0.74247672  1
  Si  Si17  1  0.29156522  0.54011608  0.25752328  1
  Si  Si18  1  0.50138987  0.77632140  0.87755341  1
  Si  Si19  1  0.49861013  0.22367860  0.12244659  1
  O  O20  1  0.05003869  0.16383700  0.96076395  1
  O  O21  1  0.94996131  0.83616300  0.03923605  1
  O  O22  1  0.96059599  0.95462178  0.67849478  1
  O  O23  1  0.03940401  0.04537822  0.32150522  1
  O  O24  1  0.19105541  0.60005352  0.56317951  1
  O  O25  1  0.80894459  0.39994648  0.43682049  1
  O  O26  1  0.10707710  0.40130261  0.26694454  1
  O  O27  1  0.89292290  0.59869739  0.73305546  1
  O  O28  1  0.34535888  0.07492088  0.14803517  1
  O  O29  1  0.65464112  0.92507912  0.85196483  1
  O  O30  1  0.26328514  0.79633147  0.87559402  1
  O  O31  1  0.73671486  0.20366853  0.12440598  1
  O  O32  1  0.81157946  0.54691066  0.09895811  1
  O  O33  1  0.18842054  0.45308934  0.90104189  1
  O  O34  1  0.88902697  0.75134467  0.38938560  1
  O  O35  1  0.11097303  0.24865533  0.61061440  1
  O  O36  1  0.42040860  0.25522700  0.41411152  1
  O  O37  1  0.57959140  0.74477300  0.58588848  1
  O  O38  1  0.74496362  0.32595929  0.82274942  1
  O  O39  1  0.25503638  0.67404071  0.17725058  1
  O  O40  1  0.70513166  0.86004855  0.22130420  1
  O  O41  1  0.29486834  0.13995145  0.77869580  1
  O  O42  1  0.70063884  0.05487830  0.43518761  1
  O  O43  1  0.29936116  0.94512170  0.56481239  1
  O  O44  1  0.63458687  0.31379501  0.61645578  1
  O  O45  1  0.36541313  0.68620499  0.38354422  1
  O  O46  1  0.51381153  0.57711055  0.77981836  1
  O  O47  1  0.48618847  0.42288945  0.22018164  1
  O  O48  1  0.55984097  0.73925444  0.00575139  1
  O  O49  1  0.44015903  0.26074556  0.99424861  1
