# generated using pymatgen
data_Ho2SeOF2
_symmetry_space_group_name_H-M   'P 1'
_cell_length_a   3.73272944
_cell_length_b   13.38017403
_cell_length_c   13.38017403
_cell_angle_alpha   119.99999591
_cell_angle_beta   90.00000000
_cell_angle_gamma   90.00000000
_symmetry_Int_Tables_number   1
_chemical_formula_structural   Ho2SeOF2
_chemical_formula_sum   'Ho12 Se6 O6 F12'
_cell_volume   578.73625024
_cell_formula_units_Z   6
loop_
 _symmetry_equiv_pos_site_id
 _symmetry_equiv_pos_as_xyz
  1  'x, y, z'
loop_
 _atom_site_type_symbol
 _atom_site_label
 _atom_site_symmetry_multiplicity
 _atom_site_fract_x
 _atom_site_fract_y
 _atom_site_fract_z
 _atom_site_occupancy
  Ho  Ho0  1  0.75000000  0.60185566  0.48565761  1
  Ho  Ho1  1  0.75000000  0.51434239  0.11619804  1
  Ho  Ho2  1  0.75000000  0.88380196  0.39814434  1
  Ho  Ho3  1  0.25000000  0.39814434  0.51434239  1
  Ho  Ho4  1  0.25000000  0.48565761  0.88380196  1
  Ho  Ho5  1  0.25000000  0.11619804  0.60185566  1
  Ho  Ho6  1  0.75000000  0.94496501  0.71179077  1
  Ho  Ho7  1  0.75000000  0.28820923  0.23317424  1
  Ho  Ho8  1  0.75000000  0.76682576  0.05503499  1
  Ho  Ho9  1  0.25000000  0.05503499  0.28820923  1
  Ho  Ho10  1  0.25000000  0.71179077  0.76682576  1
  Ho  Ho11  1  0.25000000  0.23317424  0.94496501  1
  Se  Se12  1  0.75000000  0.28075058  0.79349277  1
  Se  Se13  1  0.75000000  0.20650723  0.48725781  1
  Se  Se14  1  0.75000000  0.51274219  0.71924942  1
  Se  Se15  1  0.25000000  0.71924942  0.20650723  1
  Se  Se16  1  0.25000000  0.79349277  0.51274219  1
  Se  Se17  1  0.25000000  0.48725781  0.28075058  1
  O  O18  1  0.75000000  0.01418525  0.58788310  1
  O  O19  1  0.75000000  0.41211690  0.42630215  1
  O  O20  1  0.75000000  0.57369785  0.98581475  1
  O  O21  1  0.25000000  0.98581475  0.41211690  1
  O  O22  1  0.25000000  0.58788310  0.57369785  1
  O  O23  1  0.25000000  0.42630215  0.01418525  1
  F  F24  1  0.75000000  0.10463479  0.89965531  1
  F  F25  1  0.75000000  0.10034469  0.20497948  1
  F  F26  1  0.75000000  0.79502052  0.89536521  1
  F  F27  1  0.25000000  0.89536521  0.10034469  1
  F  F28  1  0.25000000  0.89965531  0.79502052  1
  F  F29  1  0.25000000  0.20497948  0.10463479  1
  F  F30  1  0.75000000  0.75266819  0.68606466  1
  F  F31  1  0.75000000  0.31393534  0.06660353  1
  F  F32  1  0.75000000  0.93339647  0.24733181  1
  F  F33  1  0.25000000  0.24733181  0.31393534  1
  F  F34  1  0.25000000  0.68606466  0.93339647  1
  F  F35  1  0.25000000  0.06660353  0.75266819  1
