# generated using pymatgen
data_Ir(SeBr3)3
_symmetry_space_group_name_H-M   'P 1'
_cell_length_a   9.96267384
_cell_length_b   12.60141828
_cell_length_c   14.42617291
_cell_angle_alpha   91.09397349
_cell_angle_beta   90.00000000
_cell_angle_gamma   90.00000000
_symmetry_Int_Tables_number   1
_chemical_formula_structural   Ir(SeBr3)3
_chemical_formula_sum   'Ir4 Se12 Br36'
_cell_volume   1810.78673991
_cell_formula_units_Z   4
loop_
 _symmetry_equiv_pos_site_id
 _symmetry_equiv_pos_as_xyz
  1  'x, y, z'
loop_
 _atom_site_type_symbol
 _atom_site_label
 _atom_site_symmetry_multiplicity
 _atom_site_fract_x
 _atom_site_fract_y
 _atom_site_fract_z
 _atom_site_occupancy
  Ir  Ir0  1  0.24028686  0.74751332  0.49751141  1
  Ir  Ir1  1  0.25971314  0.24751332  0.99751141  1
  Ir  Ir2  1  0.75971314  0.25248668  0.50248859  1
  Ir  Ir3  1  0.74028686  0.75248668  0.00248859  1
  Se  Se4  1  0.25707985  0.87125038  0.62713668  1
  Se  Se5  1  0.24292015  0.37125038  0.12713668  1
  Se  Se6  1  0.74292015  0.12874962  0.37286332  1
  Se  Se7  1  0.75707985  0.62874962  0.87286332  1
  Se  Se8  1  0.19101244  0.59243979  0.58807788  1
  Se  Se9  1  0.30898756  0.09243979  0.08807788  1
  Se  Se10  1  0.80898756  0.40756021  0.41192212  1
  Se  Se11  1  0.69101244  0.90756021  0.91192212  1
  Se  Se12  1  0.00983857  0.78717533  0.46086555  1
  Se  Se13  1  0.49016143  0.28717533  0.96086555  1
  Se  Se14  1  0.99016143  0.21282467  0.53913445  1
  Se  Se15  1  0.50983857  0.71282467  0.03913445  1
  Br  Br16  1  0.48941194  0.75472968  0.53252262  1
  Br  Br17  1  0.01058806  0.25472968  0.03252262  1
  Br  Br18  1  0.51058806  0.24527032  0.46747738  1
  Br  Br19  1  0.98941194  0.74527032  0.96747738  1
  Br  Br20  1  0.26527389  0.59562121  0.38171956  1
  Br  Br21  1  0.23472611  0.09562121  0.88171956  1
  Br  Br22  1  0.73472611  0.40437879  0.61828044  1
  Br  Br23  1  0.76527389  0.90437879  0.11828044  1
  Br  Br24  1  0.25877848  0.88496153  0.37268127  1
  Br  Br25  1  0.24122152  0.38496153  0.87268127  1
  Br  Br26  1  0.74122152  0.11503847  0.62731873  1
  Br  Br27  1  0.75877848  0.61503847  0.12731873  1
  Br  Br28  1  0.03632898  0.93793817  0.66013788  1
  Br  Br29  1  0.46367102  0.43793817  0.16013788  1
  Br  Br30  1  0.96367102  0.06206183  0.33986212  1
  Br  Br31  1  0.53632898  0.56206183  0.83986212  1
  Br  Br32  1  0.35723276  0.03498100  0.58450833  1
  Br  Br33  1  0.14276724  0.53498100  0.08450833  1
  Br  Br34  1  0.64276724  0.96501900  0.41549167  1
  Br  Br35  1  0.85723276  0.46501900  0.91549167  1
  Br  Br36  1  0.14573979  0.64913080  0.74566013  1
  Br  Br37  1  0.35426021  0.14913080  0.24566013  1
  Br  Br38  1  0.85426021  0.35086920  0.25433987  1
  Br  Br39  1  0.64573979  0.85086920  0.75433987  1
  Br  Br40  1  0.38690991  0.48960122  0.61193691  1
  Br  Br41  1  0.11309009  0.98960122  0.11193691  1
  Br  Br42  1  0.61309009  0.51039878  0.38806309  1
  Br  Br43  1  0.88690991  0.01039878  0.88806309  1
  Br  Br44  1  0.87138663  0.67627832  0.55558480  1
  Br  Br45  1  0.62861337  0.17627832  0.05558480  1
  Br  Br46  1  0.12861337  0.32372168  0.44441520  1
  Br  Br47  1  0.37138663  0.82372168  0.94441520  1
  Br  Br48  1  0.93630667  0.71735618  0.31455566  1
  Br  Br49  1  0.56369333  0.21735618  0.81455566  1
  Br  Br50  1  0.06369333  0.28264382  0.68544434  1
  Br  Br51  1  0.43630667  0.78264382  0.18544434  1
