# generated using pymatgen
data_La2MgNi2
_symmetry_space_group_name_H-M   'P 1'
_cell_length_a   7.65299608
_cell_length_b   10.98043005
_cell_length_c   10.99046183
_cell_angle_alpha   88.23793228
_cell_angle_beta   90.00000000
_cell_angle_gamma   90.00000000
_symmetry_Int_Tables_number   1
_chemical_formula_structural   La2MgNi2
_chemical_formula_sum   'La16 Mg8 Ni16'
_cell_volume   923.12682746
_cell_formula_units_Z   8
loop_
 _symmetry_equiv_pos_site_id
 _symmetry_equiv_pos_as_xyz
  1  'x, y, z'
loop_
 _atom_site_type_symbol
 _atom_site_label
 _atom_site_symmetry_multiplicity
 _atom_site_fract_x
 _atom_site_fract_y
 _atom_site_fract_z
 _atom_site_occupancy
  La  La0  1  0.17379678  0.16607853  0.82622805  1
  La  La1  1  0.67379678  0.83392147  0.67377195  1
  La  La2  1  0.82620322  0.83392147  0.17377195  1
  La  La3  1  0.32620322  0.16607853  0.32622805  1
  La  La4  1  0.17964762  0.41415728  0.08151368  1
  La  La5  1  0.67964762  0.58584272  0.41848632  1
  La  La6  1  0.82035238  0.58584272  0.91848632  1
  La  La7  1  0.32035238  0.41415728  0.58151368  1
  La  La8  1  0.67374556  0.08877883  0.90553706  1
  La  La9  1  0.17374556  0.91122117  0.59446294  1
  La  La10  1  0.32625444  0.91122117  0.09446294  1
  La  La11  1  0.82625444  0.08877883  0.40553706  1
  La  La12  1  0.82366098  0.33341430  0.65740518  1
  La  La13  1  0.32366098  0.66658570  0.84259482  1
  La  La14  1  0.17633902  0.66658570  0.34259482  1
  La  La15  1  0.67633902  0.33341430  0.15740518  1
  Mg  Mg16  1  0.00283685  0.12643457  0.11259700  1
  Mg  Mg17  1  0.50283685  0.87356543  0.38740300  1
  Mg  Mg18  1  0.99716315  0.87356543  0.88740300  1
  Mg  Mg19  1  0.49716315  0.12643457  0.61259700  1
  Mg  Mg20  1  0.00085836  0.37911890  0.36714960  1
  Mg  Mg21  1  0.50085836  0.62088110  0.13285040  1
  Mg  Mg22  1  0.99914164  0.62088110  0.63285040  1
  Mg  Mg23  1  0.49914164  0.37911890  0.86714960  1
  Ni  Ni24  1  0.36925001  0.17879115  0.05559934  1
  Ni  Ni25  1  0.86925001  0.82120885  0.44440066  1
  Ni  Ni26  1  0.63074999  0.82120885  0.94440066  1
  Ni  Ni27  1  0.13074999  0.17879115  0.55559934  1
  Ni  Ni28  1  0.12823595  0.67904557  0.07403035  1
  Ni  Ni29  1  0.62823595  0.32095443  0.42596965  1
  Ni  Ni30  1  0.87176405  0.32095443  0.92596965  1
  Ni  Ni31  1  0.37176405  0.67904557  0.57403035  1
  Ni  Ni32  1  0.13664072  0.93218831  0.33251830  1
  Ni  Ni33  1  0.63664072  0.06781169  0.16748170  1
  Ni  Ni34  1  0.86335928  0.06781169  0.66748170  1
  Ni  Ni35  1  0.36335928  0.93218831  0.83251830  1
  Ni  Ni36  1  0.37623427  0.43769655  0.31411030  1
  Ni  Ni37  1  0.87623427  0.56230345  0.18588970  1
  Ni  Ni38  1  0.62376573  0.56230345  0.68588970  1
  Ni  Ni39  1  0.12376573  0.43769655  0.81411030  1
