# generated using pymatgen
data_Ag2Pd(NO2)4
_symmetry_space_group_name_H-M   'P 1'
_cell_length_a   7.72002995
_cell_length_b   7.77045313
_cell_length_c   15.04286859
_cell_angle_alpha   90.00000000
_cell_angle_beta   90.00000000
_cell_angle_gamma   112.85806453
_symmetry_Int_Tables_number   1
_chemical_formula_structural   Ag2Pd(NO2)4
_chemical_formula_sum   'Ag8 Pd4 N16 O32'
_cell_volume   831.52856993
_cell_formula_units_Z   4
loop_
 _symmetry_equiv_pos_site_id
 _symmetry_equiv_pos_as_xyz
  1  'x, y, z'
loop_
 _atom_site_type_symbol
 _atom_site_label
 _atom_site_symmetry_multiplicity
 _atom_site_fract_x
 _atom_site_fract_y
 _atom_site_fract_z
 _atom_site_occupancy
  Ag  Ag0  1  0.92476416  0.07800246  0.16033322  1
  Ag  Ag1  1  0.42476416  0.57800246  0.33966678  1
  Ag  Ag2  1  0.07523584  0.92199754  0.83966678  1
  Ag  Ag3  1  0.57523584  0.42199754  0.66033322  1
  Ag  Ag4  1  0.50193280  0.22572575  0.07825217  1
  Ag  Ag5  1  0.00193280  0.72572575  0.42174783  1
  Ag  Ag6  1  0.49806720  0.77427425  0.92174783  1
  Ag  Ag7  1  0.99806720  0.27427425  0.57825217  1
  Pd  Pd8  1  0.95641151  0.66162823  0.13162020  1
  Pd  Pd9  1  0.45641151  0.16162823  0.36837980  1
  Pd  Pd10  1  0.04358849  0.33837177  0.86837980  1
  Pd  Pd11  1  0.54358849  0.83837177  0.63162020  1
  N  N12  1  0.11017791  0.58372826  0.22292323  1
  N  N13  1  0.61017791  0.08372826  0.27707677  1
  N  N14  1  0.88982209  0.41627174  0.77707677  1
  N  N15  1  0.38982209  0.91627174  0.72292323  1
  N  N16  1  0.79925261  0.72703750  0.03560446  1
  N  N17  1  0.29925261  0.22703750  0.46439554  1
  N  N18  1  0.20074739  0.27296250  0.96439554  1
  N  N19  1  0.70074739  0.77296250  0.53560446  1
  N  N20  1  0.18824286  0.74156449  0.04765665  1
  N  N21  1  0.68824286  0.24156449  0.45234335  1
  N  N22  1  0.81175714  0.25843551  0.95234335  1
  N  N23  1  0.31175714  0.75843551  0.54765665  1
  N  N24  1  0.72978363  0.59313999  0.21808393  1
  N  N25  1  0.22978363  0.09313999  0.28191607  1
  N  N26  1  0.27021637  0.40686001  0.78191607  1
  N  N27  1  0.77021637  0.90686001  0.71808393  1
  O  O28  1  0.74884147  0.61583203  0.30097346  1
  O  O29  1  0.24884147  0.11583203  0.19902654  1
  O  O30  1  0.25115853  0.38416797  0.69902654  1
  O  O31  1  0.75115853  0.88416797  0.80097346  1
  O  O32  1  0.56827756  0.53663538  0.18621711  1
  O  O33  1  0.06827756  0.03663538  0.31378289  1
  O  O34  1  0.43172244  0.46336462  0.81378289  1
  O  O35  1  0.93172244  0.96336462  0.68621711  1
  O  O36  1  0.34999013  0.81928009  0.07831249  1
  O  O37  1  0.84999013  0.31928009  0.42168751  1
  O  O38  1  0.65000987  0.18071991  0.92168751  1
  O  O39  1  0.15000987  0.68071991  0.57831249  1
  O  O40  1  0.19224036  0.69458681  0.28475236  1
  O  O41  1  0.69224036  0.19458681  0.21524764  1
  O  O42  1  0.80775964  0.30541319  0.71524764  1
  O  O43  1  0.30775964  0.80541319  0.78475236  1
  O  O44  1  0.13360902  0.43559735  0.21416195  1
  O  O45  1  0.63360902  0.93559735  0.28583805  1
  O  O46  1  0.86639098  0.56440265  0.78583805  1
  O  O47  1  0.36639098  0.06440265  0.71416195  1
  O  O48  1  0.16559960  0.70529227  0.96602916  1
  O  O49  1  0.66559960  0.20529227  0.53397084  1
  O  O50  1  0.83440040  0.29470773  0.03397084  1
  O  O51  1  0.33440040  0.79470773  0.46602916  1
  O  O52  1  0.70536116  0.60891955  0.98064985  1
  O  O53  1  0.20536116  0.10891955  0.51935015  1
  O  O54  1  0.29463884  0.39108045  0.01935015  1
  O  O55  1  0.79463884  0.89108045  0.48064985  1
  O  O56  1  0.78954353  0.88631995  0.03490528  1
  O  O57  1  0.28954353  0.38631995  0.46509472  1
  O  O58  1  0.21045647  0.11368005  0.96509472  1
  O  O59  1  0.71045647  0.61368005  0.53490528  1
