# generated using pymatgen
data_Na2MnH4(SO5)2
_symmetry_space_group_name_H-M   'P 1'
_cell_length_a   5.58734759
_cell_length_b   5.90275826
_cell_length_c   13.50692979
_cell_angle_alpha   90.00000000
_cell_angle_beta   90.00000000
_cell_angle_gamma   106.08917045
_symmetry_Int_Tables_number   1
_chemical_formula_structural   Na2MnH4(SO5)2
_chemical_formula_sum   'Na4 Mn2 H8 S4 O20'
_cell_volume   428.02051572
_cell_formula_units_Z   2
loop_
 _symmetry_equiv_pos_site_id
 _symmetry_equiv_pos_as_xyz
  1  'x, y, z'
loop_
 _atom_site_type_symbol
 _atom_site_label
 _atom_site_symmetry_multiplicity
 _atom_site_fract_x
 _atom_site_fract_y
 _atom_site_fract_z
 _atom_site_occupancy
  Na  Na0  1  0.76207064  0.58152103  0.38527551  1
  Na  Na1  1  0.73792936  0.41847897  0.88527551  1
  Na  Na2  1  0.23792936  0.41847897  0.61472449  1
  Na  Na3  1  0.26207064  0.58152103  0.11472449  1
  Mn  Mn4  1  0.50000000  -0.00000000  0.50000000  1
  Mn  Mn5  1  -0.00000000  -0.00000000  -0.00000000  1
  H  H6  1  0.50538432  0.90902515  0.30028887  1
  H  H7  1  0.99461568  0.09097485  0.80028887  1
  H  H8  1  0.49461568  0.09097485  0.69971113  1
  H  H9  1  0.00538432  0.90902515  0.19971113  1
  H  H10  1  0.31812307  0.68104237  0.34801816  1
  H  H11  1  0.18187693  0.31895763  0.84801816  1
  H  H12  1  0.68187693  0.31895763  0.65198184  1
  H  H13  1  0.81812307  0.68104237  0.15198184  1
  S  S14  1  0.07297192  0.22848836  0.38435365  1
  S  S15  1  0.42702808  0.77151164  0.88435365  1
  S  S16  1  0.92702808  0.77151164  0.61564635  1
  S  S17  1  0.57297192  0.22848836  0.11564635  1
  O  O18  1  0.01773080  0.00522163  0.32909142  1
  O  O19  1  0.48226920  0.99477837  0.82909142  1
  O  O20  1  0.98226920  0.99477837  0.67090858  1
  O  O21  1  0.51773080  0.00522163  0.17090858  1
  O  O22  1  0.30843443  0.26406356  0.44455226  1
  O  O23  1  0.19156557  0.73593644  0.94455226  1
  O  O24  1  0.69156557  0.73593644  0.55544774  1
  O  O25  1  0.80843443  0.26406356  0.05544774  1
  O  O26  1  0.86373312  0.23042397  0.45501508  1
  O  O27  1  0.63626688  0.76957603  0.95501508  1
  O  O28  1  0.13626688  0.76957603  0.54498492  1
  O  O29  1  0.36373312  0.23042397  0.04498492  1
  O  O30  1  0.10186869  0.43556852  0.31746827  1
  O  O31  1  0.39813131  0.56443148  0.81746827  1
  O  O32  1  0.89813131  0.56443148  0.68253173  1
  O  O33  1  0.60186869  0.43556852  0.18253173  1
  O  O34  1  0.47543172  0.80939316  0.36050321  1
  O  O35  1  0.02456828  0.19060684  0.86050321  1
  O  O36  1  0.52456828  0.19060684  0.63949679  1
  O  O37  1  0.97543172  0.80939316  0.13949679  1
