# generated using pymatgen
data_ZnFe2H28(S2O15)2
_symmetry_space_group_name_H-M   'P 1'
_cell_length_a   6.37796749
_cell_length_b   6.51198893
_cell_length_c   15.55751207
_cell_angle_alpha   94.32037400
_cell_angle_beta   89.97490948
_cell_angle_gamma   100.47247877
_symmetry_Int_Tables_number   1
_chemical_formula_structural   ZnFe2H28(S2O15)2
_chemical_formula_sum   'Zn1 Fe2 H28 S4 O30'
_cell_volume   633.52726175
_cell_formula_units_Z   1
loop_
 _symmetry_equiv_pos_site_id
 _symmetry_equiv_pos_as_xyz
  1  'x, y, z'
loop_
 _atom_site_type_symbol
 _atom_site_label
 _atom_site_symmetry_multiplicity
 _atom_site_fract_x
 _atom_site_fract_y
 _atom_site_fract_z
 _atom_site_occupancy
  Zn  Zn0  1  -0.00000000  -0.00000000  0.00000000  1
  Fe  Fe1  1  0.59335788  0.33626781  0.67985890  1
  Fe  Fe2  1  0.40664212  0.66373219  0.32014110  1
  H  H3  1  0.79919590  0.33907297  0.98934369  1
  H  H4  1  0.20080410  0.66092703  0.01065631  1
  H  H5  1  0.84821367  0.25869962  0.89270319  1
  H  H6  1  0.15178633  0.74130038  0.10729681  1
  H  H7  1  0.32311892  0.26341629  0.93692963  1
  H  H8  1  0.67688108  0.73658371  0.06307037  1
  H  H9  1  0.37132770  0.03492592  0.90765252  1
  H  H10  1  0.62867230  0.96507408  0.09234748  1
  H  H11  1  0.23954241  0.18454075  0.13907299  1
  H  H12  1  0.76045759  0.81545925  0.86092701  1
  H  H13  1  0.00979623  0.24967416  0.15688890  1
  H  H14  1  0.99020377  0.75032584  0.84311110  1
  H  H15  1  0.96788904  0.37711545  0.76005051  1
  H  H16  1  0.03211096  0.62288455  0.23994949  1
  H  H17  1  0.90288852  0.13652368  0.72047340  1
  H  H18  1  0.09711148  0.86347632  0.27952660  1
  H  H19  1  0.46430576  0.95372049  0.74532120  1
  H  H20  1  0.53569424  0.04627951  0.25467880  1
  H  H21  1  0.27990596  0.00389856  0.68440493  1
  H  H22  1  0.72009404  0.99610144  0.31559507  1
  H  H23  1  0.79258187  0.28266742  0.52289028  1
  H  H24  1  0.20741813  0.71733258  0.47710972  1
  H  H25  1  0.71832488  0.06100935  0.56121712  1
  H  H26  1  0.28167512  0.93899065  0.43878288  1
  H  H27  1  0.30283943  0.30498809  0.55046640  1
  H  H28  1  0.69716057  0.69501191  0.44953360  1
  H  H29  1  0.24617644  0.48730839  0.61620946  1
  H  H30  1  0.75382356  0.51269161  0.38379054  1
  S  S31  1  0.36034258  0.59475103  0.83395657  1
  S  S32  1  0.63965742  0.40524897  0.16604343  1
  S  S33  1  0.91027433  0.76175441  0.61333767  1
  S  S34  1  0.08972567  0.23824559  0.38666233  1
  O  O35  1  0.47913755  0.43638148  0.78952178  1
  O  O36  1  0.52086245  0.56361852  0.21047822  1
  O  O37  1  0.15465544  0.58468049  0.78739720  1
  O  O38  1  0.84534456  0.41531951  0.21260280  1
  O  O39  1  0.48851032  0.81090270  0.83013664  1
  O  O40  1  0.51148968  0.18909730  0.16986336  1
  O  O41  1  0.33292783  0.53970460  0.92361963  1
  O  O42  1  0.66707217  0.46029540  0.07638037  1
  O  O43  1  0.76379128  0.61812523  0.66822707  1
  O  O44  1  0.23620872  0.38187477  0.33177293  1
  O  O45  1  0.07583530  0.65208596  0.57564946  1
  O  O46  1  0.92416470  0.34791404  0.42435054  1
  O  O47  1  0.77872485  0.82647308  0.54459695  1
  O  O48  1  0.22127515  0.17352692  0.45540305  1
  O  O49  1  0.00866975  0.94823788  0.67021103  1
  O  O50  1  0.99133025  0.05176212  0.32978897  1
  O  O51  1  0.88884982  0.25951633  0.95314926  1
  O  O52  1  0.11115018  0.74048367  0.04685074  1
  O  O53  1  0.30566250  0.11640462  0.95203175  1
  O  O54  1  0.69433750  0.88359538  0.04796825  1
  O  O55  1  0.09210455  0.17033872  0.11721779  1
  O  O56  1  0.90789545  0.82966128  0.88278221  1
  O  O57  1  0.84413071  0.25743448  0.74904907  1
  O  O58  1  0.15586929  0.74256552  0.25095093  1
  O  O59  1  0.43704209  0.03661995  0.69608758  1
  O  O60  1  0.56295791  0.96338005  0.30391242  1
  O  O61  1  0.70089731  0.21178473  0.56753219  1
  O  O62  1  0.29910269  0.78821527  0.43246781  1
  O  O63  1  0.33514351  0.37724734  0.60937379  1
  O  O64  1  0.66485649  0.62275266  0.39062621  1
