# generated using pymatgen
data_Ca2SnWO6
_symmetry_space_group_name_H-M   'P 1'
_cell_length_a   5.66101542
_cell_length_b   5.96321057
_cell_length_c   8.29231217
_cell_angle_alpha   90.00000000
_cell_angle_beta   89.99515381
_cell_angle_gamma   90.00000000
_symmetry_Int_Tables_number   1
_chemical_formula_structural   Ca2SnWO6
_chemical_formula_sum   'Ca4 Sn2 W2 O12'
_cell_volume   279.93043825
_cell_formula_units_Z   2
loop_
 _symmetry_equiv_pos_site_id
 _symmetry_equiv_pos_as_xyz
  1  'x, y, z'
loop_
 _atom_site_type_symbol
 _atom_site_label
 _atom_site_symmetry_multiplicity
 _atom_site_fract_x
 _atom_site_fract_y
 _atom_site_fract_z
 _atom_site_occupancy
  Ca  Ca0  1  0.98373670  0.05928622  0.25396917  1
  Ca  Ca1  1  0.51626330  0.55928722  0.24603083  1
  Ca  Ca2  1  0.01626430  0.94071478  0.74603083  1
  Ca  Ca3  1  0.48373570  0.44071378  0.75396917  1
  Sn  Sn4  1  0.50000000  0.00000000  0.00000000  1
  Sn  Sn5  1  0.00000100  0.49999900  0.50000000  1
  W  W6  1  0.50000000  0.00000000  0.49999900  1
  W  W7  1  0.00000000  0.49999900  0.00000000  1
  O  O8  1  0.65019460  0.27618654  0.42095442  1
  O  O9  1  0.84980540  0.77618754  0.07904558  1
  O  O10  1  0.34980440  0.72381346  0.57904558  1
  O  O11  1  0.15019560  0.22381246  0.92095442  1
  O  O12  1  0.21576723  0.16554128  0.55867150  1
  O  O13  1  0.28423277  0.66554028  0.94132850  1
  O  O14  1  0.78423377  0.83445872  0.44132850  1
  O  O15  1  0.71576623  0.33445972  0.05867150  1
  O  O16  1  0.12889138  0.43464817  0.21602401  1
  O  O17  1  0.37110962  0.93464917  0.28397499  1
  O  O18  1  0.62889138  0.06535083  0.71602501  1
  O  O19  1  0.87110962  0.56535183  0.78397599  1
