# generated using pymatgen
data_TiH42N14Cl3
_symmetry_space_group_name_H-M   'P 1'
_cell_length_a   9.48130923
_cell_length_b   9.98828611
_cell_length_c   13.39079179
_cell_angle_alpha   89.99999227
_cell_angle_beta   91.99311885
_cell_angle_gamma   90.00000863
_symmetry_Int_Tables_number   1
_chemical_formula_structural   TiH42N14Cl3
_chemical_formula_sum   'Ti2 H84 N28 Cl6'
_cell_volume   1267.36794942
_cell_formula_units_Z   2
loop_
 _symmetry_equiv_pos_site_id
 _symmetry_equiv_pos_as_xyz
  1  'x, y, z'
loop_
 _atom_site_type_symbol
 _atom_site_label
 _atom_site_symmetry_multiplicity
 _atom_site_fract_x
 _atom_site_fract_y
 _atom_site_fract_z
 _atom_site_occupancy
  Ti  Ti0  1  0.00000073  0.72786899  0.74999976  1
  Ti  Ti1  1  -0.00000073  0.27213101  0.25000024  1
  H  H2  1  0.93519829  0.46179911  0.67135168  1
  H  H3  1  0.06480171  0.46179909  0.82864831  1
  H  H4  1  0.06480171  0.53820089  0.32864832  1
  H  H5  1  0.93519829  0.53820091  0.17135169  1
  H  H6  1  0.87651384  0.57866660  0.59510855  1
  H  H7  1  0.12348632  0.57866635  0.90489150  1
  H  H8  1  0.12348616  0.42133340  0.40489145  1
  H  H9  1  0.87651368  0.42133365  0.09510850  1
  H  H10  1  0.78528082  0.53958621  0.69408331  1
  H  H11  1  0.21471912  0.53958619  0.80591667  1
  H  H12  1  0.21471918  0.46041379  0.30591669  1
  H  H13  1  0.78528088  0.46041381  0.19408333  1
  H  H14  1  0.15349650  0.54408233  0.63020751  1
  H  H15  1  0.84650351  0.54408232  0.86979243  1
  H  H16  1  0.84650350  0.45591767  0.36979249  1
  H  H17  1  0.15349649  0.45591768  0.13020757  1
  H  H18  1  0.24649918  0.68327305  0.63651551  1
  H  H19  1  0.75350081  0.68327309  0.86348450  1
  H  H20  1  0.75350082  0.31672695  0.36348449  1
  H  H21  1  0.24649919  0.31672691  0.13651550  1
  H  H22  1  0.10137461  0.67201575  0.56248759  1
  H  H23  1  0.89862535  0.67201567  0.93751239  1
  H  H24  1  0.89862539  0.32798425  0.43751241  1
  H  H25  1  0.10137465  0.32798433  0.06248761  1
  H  H26  1  0.70276615  0.76183974  0.70313776  1
  H  H27  1  0.29723367  0.76183978  0.79686229  1
  H  H28  1  0.29723385  0.23816026  0.29686224  1
  H  H29  1  0.70276633  0.23816022  0.20313771  1
  H  H30  1  0.77910353  0.91010708  0.68682148  1
  H  H31  1  0.22089643  0.91010706  0.81317845  1
  H  H32  1  0.22089647  0.08989292  0.31317852  1
  H  H33  1  0.77910357  0.08989294  0.18682155  1
  H  H34  1  0.79716013  0.78995490  0.60382990  1
  H  H35  1  0.20283988  0.78995500  0.89617011  1
  H  H36  1  0.20283987  0.21004510  0.39617010  1
  H  H37  1  0.79716012  0.21004500  0.10382989  1
  H  H38  1  0.01300748  0.87630459  0.57593624  1
  H  H39  1  0.98699249  0.87630454  0.92406387  1
  H  H40  1  0.98699252  0.12369541  0.42406376  1
  H  H41  1  0.01300751  0.12369546  0.07593613  1
  H  H42  1  0.16220670  0.91545900  0.63666252  1
  H  H43  1  0.83779357  0.91545900  0.86333743  1
  H  H44  1  0.83779330  0.08454100  0.36333748  1
  H  H45  1  0.16220643  0.08454100  0.13666257  1
  H  H46  1  0.01244282  0.99165527  0.66289502  1
  H  H47  1  0.98755719  0.99165501  0.83710498  1
  H  H48  1  0.98755718  0.00834473  0.33710498  1
  H  H49  1  0.01244281  0.00834499  0.16289502  1
  H  H50  1  0.55238119  0.88200031  0.85193271  1
  H  H51  1  0.44761891  0.88200018  0.64806731  1
  H  H52  1  0.44761881  0.11799969  0.14806729  1
  H  H53  1  0.55238109  0.11799982  0.35193269  1
  H  H54  1  0.60114184  0.90433167  0.96843348  1
  H  H55  1  0.39885801  0.90433170  0.53156657  1
  H  H56  1  0.39885816  0.09566833  0.03156652  1
  H  H57  1  0.60114199  0.09566830  0.46843343  1
  H  H58  1  0.60159656  0.03177845  0.89136646  1
  H  H59  1  0.39840344  0.03177853  0.60863357  1
  H  H60  1  0.39840344  0.96822155  0.10863354  1
  H  H61  1  0.60159656  0.96822147  0.39136643  1
  H  H62  1  0.49716425  0.38300596  0.89431523  1
  H  H63  1  0.50283569  0.38300588  0.60568476  1
  H  H64  1  0.50283575  0.61699404  0.10568477  1
  H  H65  1  0.49716431  0.61699412  0.39431524  1
  H  H66  1  0.63165969  0.29635650  0.93733513  1
  H  H67  1  0.36834041  0.29635651  0.56266487  1
  H  H68  1  0.36834031  0.70364350  0.06266487  1
  H  H69  1  0.63165959  0.70364349  0.43733513  1
  H  H70  1  0.50700187  0.33942316  0.01224614  1
  H  H71  1  0.49299812  0.33942320  0.48775391  1
  H  H72  1  0.49299813  0.66057684  0.98775386  1
  H  H73  1  0.50700188  0.66057680  0.51224609  1
  H  H74  1  0.84497498  0.18318417  0.63907536  1
  H  H75  1  0.15502486  0.18318389  0.86092466  1
  H  H76  1  0.15502502  0.81681583  0.36092464  1
  H  H77  1  0.84497514  0.81681611  0.13907534  1
  H  H78  1  0.67326611  0.17102730  0.64607301  1
  H  H79  1  0.32673385  0.17102735  0.85392707  1
  H  H80  1  0.32673389  0.82897270  0.35392699  1
  H  H81  1  0.67326615  0.82897265  0.14607293  1
  H  H82  1  0.77390623  0.17680235  0.74822464  1
  H  H83  1  0.22609378  0.17680252  0.75177521  1
  H  H84  1  0.22609377  0.82319765  0.25177536  1
  H  H85  1  0.77390622  0.82319748  0.24822479  1
  N  N86  1  0.88545240  0.55296611  0.66959679  1
  N  N87  1  0.11454771  0.55296581  0.83040370  1
  N  N88  1  0.11454760  0.44703389  0.33040321  1
  N  N89  1  0.88545229  0.44703419  0.16959630  1
  N  N90  1  0.14564110  0.64638668  0.63120889  1
  N  N91  1  0.85435923  0.64638665  0.86879125  1
  N  N92  1  0.85435890  0.35361332  0.36879111  1
  N  N93  1  0.14564077  0.35361335  0.13120875  1
  N  N94  1  0.79271041  0.80806042  0.67928532  1
  N  N95  1  0.20728978  0.80806040  0.82071474  1
  N  N96  1  0.20728959  0.19193958  0.32071468  1
  N  N97  1  0.79271022  0.19193960  0.17928526  1
  N  N98  1  0.05474998  0.90102970  0.64535140  1
  N  N99  1  0.94525035  0.90102936  0.85464881  1
  N  N100  1  0.94525002  0.09897030  0.35464860  1
  N  N101  1  0.05474965  0.09897064  0.14535119  1
  N  N102  1  0.62418381  0.93164999  0.89714668  1
  N  N103  1  0.37581602  0.93164989  0.60285361  1
  N  N104  1  0.37581619  0.06835001  0.10285332  1
  N  N105  1  0.62418398  0.06835011  0.39714639  1
  N  N106  1  0.52419327  0.30546344  0.94117479  1
  N  N107  1  0.47580665  0.30546370  0.55882517  1
  N  N108  1  0.47580673  0.69453656  0.05882521  1
  N  N109  1  0.52419335  0.69453630  0.44117483  1
  N  N110  1  0.76696906  0.13698773  0.67764749  1
  N  N111  1  0.23303176  0.13698686  0.82235202  1
  N  N112  1  0.23303094  0.86301227  0.32235251  1
  N  N113  1  0.76696824  0.86301314  0.17764798  1
  Cl  Cl114  1  0.08792526  0.70913271  0.06132314  1
  Cl  Cl115  1  0.91207393  0.70913275  0.43867760  1
  Cl  Cl116  1  0.91207474  0.29086729  0.93867686  1
  Cl  Cl117  1  0.08792607  0.29086725  0.56132240  1
  Cl  Cl118  1  0.50000093  0.63234120  0.75000008  1
  Cl  Cl119  1  0.49999907  0.36765880  0.24999992  1
