# generated using pymatgen
data_Ca2Co2O5
_symmetry_space_group_name_H-M   'P 1'
_cell_length_a   5.33786033
_cell_length_b   11.11998803
_cell_length_c   14.91850211
_cell_angle_alpha   90.00000000
_cell_angle_beta   90.00000000
_cell_angle_gamma   90.00000000
_symmetry_Int_Tables_number   1
_chemical_formula_structural   Ca2Co2O5
_chemical_formula_sum   'Ca16 Co16 O40'
_cell_volume   885.51667902
_cell_formula_units_Z   8
loop_
 _symmetry_equiv_pos_site_id
 _symmetry_equiv_pos_as_xyz
  1  'x, y, z'
loop_
 _atom_site_type_symbol
 _atom_site_label
 _atom_site_symmetry_multiplicity
 _atom_site_fract_x
 _atom_site_fract_y
 _atom_site_fract_z
 _atom_site_occupancy
  Ca  Ca0  1  0.01245565  0.26052646  0.39255750  1
  Ca  Ca1  1  0.98754435  0.73947354  0.89255750  1
  Ca  Ca2  1  0.01245565  0.23947354  0.60744250  1
  Ca  Ca3  1  0.98754435  0.76052646  0.10744250  1
  Ca  Ca4  1  0.98754435  0.73947354  0.60744250  1
  Ca  Ca5  1  0.01245565  0.26052646  0.10744250  1
  Ca  Ca6  1  0.98754435  0.76052646  0.39255750  1
  Ca  Ca7  1  0.01245565  0.23947354  0.89255750  1
  Ca  Ca8  1  0.51090393  0.98983207  0.10753258  1
  Ca  Ca9  1  0.48909607  0.01016793  0.60753258  1
  Ca  Ca10  1  0.51090393  0.51016793  0.89246742  1
  Ca  Ca11  1  0.48909607  0.48983207  0.39246742  1
  Ca  Ca12  1  0.48909607  0.01016793  0.89246742  1
  Ca  Ca13  1  0.51090393  0.98983207  0.39246742  1
  Ca  Ca14  1  0.48909607  0.48983207  0.10753258  1
  Ca  Ca15  1  0.51090393  0.51016793  0.60753258  1
  Co  Co16  1  0.54903854  0.21893651  0.25000000  1
  Co  Co17  1  0.45096146  0.78106349  0.75000000  1
  Co  Co18  1  0.54903854  0.28106349  0.75000000  1
  Co  Co19  1  0.45096146  0.71893651  0.25000000  1
  Co  Co20  1  0.04581904  0.03149479  0.25000000  1
  Co  Co21  1  0.95418096  0.96850521  0.75000000  1
  Co  Co22  1  0.04581904  0.46850521  0.75000000  1
  Co  Co23  1  0.95418096  0.53149479  0.25000000  1
  Co  Co24  1  -0.00000000  -0.00000000  0.50000000  1
  Co  Co25  1  -0.00000000  -0.00000000  -0.00000000  1
  Co  Co26  1  -0.00000000  0.50000000  0.50000000  1
  Co  Co27  1  -0.00000000  0.50000000  -0.00000000  1
  Co  Co28  1  0.50384661  0.25000000  0.50000000  1
  Co  Co29  1  0.49615339  0.75000000  -0.00000000  1
  Co  Co30  1  0.49615339  0.75000000  0.50000000  1
  Co  Co31  1  0.50384661  0.25000000  -0.00000000  1
  O  O32  1  0.91382261  0.19353730  0.25000000  1
  O  O33  1  0.08617739  0.80646270  0.75000000  1
  O  O34  1  0.91382261  0.30646270  0.75000000  1
  O  O35  1  0.08617739  0.69353730  0.25000000  1
  O  O36  1  0.40965221  0.05737266  0.25000000  1
  O  O37  1  0.59034779  0.94262734  0.75000000  1
  O  O38  1  0.40965221  0.44262734  0.75000000  1
  O  O39  1  0.59034779  0.55737266  0.25000000  1
  O  O40  1  0.97720185  0.96869379  0.14068845  1
  O  O41  1  0.02279815  0.03130621  0.64068845  1
  O  O42  1  0.97720185  0.53130621  0.85931155  1
  O  O43  1  0.02279815  0.46869379  0.35931155  1
  O  O44  1  0.02279815  0.03130621  0.85931155  1
  O  O45  1  0.97720185  0.96869379  0.35931155  1
  O  O46  1  0.02279815  0.46869379  0.14068845  1
  O  O47  1  0.97720185  0.53130621  0.64068845  1
  O  O48  1  0.48855287  0.28062880  0.35981022  1
  O  O49  1  0.51144713  0.71937120  0.85981022  1
  O  O50  1  0.48855287  0.21937120  0.64018978  1
  O  O51  1  0.51144713  0.78062880  0.14018978  1
  O  O52  1  0.51144713  0.71937120  0.64018978  1
  O  O53  1  0.48855287  0.28062880  0.14018978  1
  O  O54  1  0.51144713  0.78062880  0.35981022  1
  O  O55  1  0.48855287  0.21937120  0.85981022  1
  O  O56  1  0.24463439  0.87378062  0.51041246  1
  O  O57  1  0.75536561  0.12621938  0.01041246  1
  O  O58  1  0.24463439  0.62621938  0.48958754  1
  O  O59  1  0.75536561  0.37378062  0.98958754  1
  O  O60  1  0.75536561  0.12621938  0.48958754  1
  O  O61  1  0.24463439  0.87378062  0.98958754  1
  O  O62  1  0.75536561  0.37378062  0.51041246  1
  O  O63  1  0.24463439  0.62621938  0.01041246  1
  O  O64  1  0.25500473  0.12373273  0.48533300  1
  O  O65  1  0.74499527  0.87626727  0.98533300  1
  O  O66  1  0.25500473  0.37626727  0.51466700  1
  O  O67  1  0.74499527  0.62373273  0.01466700  1
  O  O68  1  0.74499527  0.87626727  0.51466700  1
  O  O69  1  0.25500473  0.12373273  0.01466700  1
  O  O70  1  0.74499527  0.62373273  0.48533300  1
  O  O71  1  0.25500473  0.37626727  0.98533300  1
