# generated using pymatgen
data_TiZn2WO6
_symmetry_space_group_name_H-M   'P 1'
_cell_length_a   5.27984466
_cell_length_b   5.30871337
_cell_length_c   7.76801851
_cell_angle_alpha   90.00000000
_cell_angle_beta   91.44725040
_cell_angle_gamma   90.00000000
_symmetry_Int_Tables_number   1
_chemical_formula_structural   TiZn2WO6
_chemical_formula_sum   'Ti2 Zn4 W2 O12'
_cell_volume   217.66174810
_cell_formula_units_Z   2
loop_
 _symmetry_equiv_pos_site_id
 _symmetry_equiv_pos_as_xyz
  1  'x, y, z'
loop_
 _atom_site_type_symbol
 _atom_site_label
 _atom_site_symmetry_multiplicity
 _atom_site_fract_x
 _atom_site_fract_y
 _atom_site_fract_z
 _atom_site_occupancy
  Ti  Ti0  1  0.50000000  0.00000000  0.00000000  1
  Ti  Ti1  1  0.00000100  0.49999900  0.50000000  1
  Zn  Zn2  1  0.00618991  0.03129549  0.25349450  1
  Zn  Zn3  1  0.49381009  0.53129649  0.24650550  1
  Zn  Zn4  1  0.99381109  0.96870551  0.74650550  1
  Zn  Zn5  1  0.50618891  0.46870451  0.75349450  1
  W  W6  1  0.50000000  0.00000000  0.49999900  1
  W  W7  1  0.00000000  0.49999900  0.00000000  1
  O  O8  1  0.67828699  0.32601634  0.43410372  1
  O  O9  1  0.82171301  0.82601734  0.06589628  1
  O  O10  1  0.32171201  0.67398366  0.56589628  1
  O  O11  1  0.17828799  0.17398266  0.93410372  1
  O  O12  1  0.16334037  0.18714253  0.56896365  1
  O  O13  1  0.33665963  0.68714153  0.93103635  1
  O  O14  1  0.83666063  0.81285747  0.43103635  1
  O  O15  1  0.66333937  0.31285847  0.06896365  1
  O  O16  1  0.11691189  0.42198463  0.25517751  1
  O  O17  1  0.38308911  0.92198563  0.24482149  1
  O  O18  1  0.61691189  0.07801437  0.75517851  1
  O  O19  1  0.88308911  0.57801537  0.74482249  1
