# generated using pymatgen
data_Mn5H8SO12
_symmetry_space_group_name_H-M   'P 1'
_cell_length_a   7.72520661
_cell_length_b   8.69460975
_cell_length_c   8.71005106
_cell_angle_alpha   99.04606904
_cell_angle_beta   103.36140816
_cell_angle_gamma   99.08925136
_symmetry_Int_Tables_number   1
_chemical_formula_structural   Mn5H8SO12
_chemical_formula_sum   'Mn10 H16 S2 O24'
_cell_volume   550.50406937
_cell_formula_units_Z   2
loop_
 _symmetry_equiv_pos_site_id
 _symmetry_equiv_pos_as_xyz
  1  'x, y, z'
loop_
 _atom_site_type_symbol
 _atom_site_label
 _atom_site_symmetry_multiplicity
 _atom_site_fract_x
 _atom_site_fract_y
 _atom_site_fract_z
 _atom_site_occupancy
  Mn  Mn0  1  0.99413250  0.41260486  0.31427240  1
  Mn  Mn1  1  0.00586750  0.58739514  0.68572760  1
  Mn  Mn2  1  0.00503580  0.17878278  0.56367445  1
  Mn  Mn3  1  0.99496420  0.82121722  0.43632555  1
  Mn  Mn4  1  0.01421697  0.31056221  0.94598503  1
  Mn  Mn5  1  0.98578303  0.68943779  0.05401497  1
  Mn  Mn6  1  0.69529302  0.00615275  0.12643167  1
  Mn  Mn7  1  0.30470698  0.99384725  0.87356833  1
  Mn  Mn8  1  0.69440516  0.89744135  0.73618452  1
  Mn  Mn9  1  0.30559484  0.10255865  0.26381548  1
  H  H10  1  0.72335465  0.22404792  0.36858593  1
  H  H11  1  0.27664535  0.77595208  0.63141407  1
  H  H12  1  0.26792440  0.43518039  0.59537367  1
  H  H13  1  0.73207560  0.56481961  0.40462633  1
  H  H14  1  0.73485123  0.42294759  0.02987549  1
  H  H15  1  0.26514877  0.57705241  0.97012451  1
  H  H16  1  0.28584947  0.39322314  0.21731537  1
  H  H17  1  0.71415053  0.60677686  0.78268463  1
  H  H18  1  0.71817053  0.94980829  0.46601725  1
  H  H19  1  0.28182947  0.05019171  0.53398275  1
  H  H20  1  0.28279998  0.27079665  0.80848529  1
  H  H21  1  0.71720002  0.72920335  0.19151471  1
  H  H22  1  0.96420334  0.06896511  0.03375755  1
  H  H23  1  0.03579666  0.93103489  0.96624245  1
  H  H24  1  0.47774027  0.74885683  0.89302414  1
  H  H25  1  0.52225973  0.25114317  0.10697586  1
  S  S26  1  0.39712248  0.73241390  0.34844696  1
  S  S27  1  0.60287752  0.26758610  0.65155304  1
  O  O28  1  0.82779462  0.19396256  0.33277414  1
  O  O29  1  0.17220538  0.80603744  0.66722586  1
  O  O30  1  0.13556646  0.41966881  0.56197137  1
  O  O31  1  0.86443354  0.58033119  0.43802863  1
  O  O32  1  0.86510911  0.45372943  0.07855141  1
  O  O33  1  0.13489089  0.54627057  0.92144859  1
  O  O34  1  0.18019458  0.30573418  0.19520385  1
  O  O35  1  0.81980542  0.69426582  0.80479615  1
  O  O36  1  0.82528773  0.95352269  0.55428138  1
  O  O37  1  0.17471227  0.04647731  0.44571862  1
  O  O38  1  0.17830057  0.18972428  0.80672895  1
  O  O39  1  0.82169943  0.81027572  0.19327105  1
  O  O40  1  0.81020351  0.30711804  0.69934901  1
  O  O41  1  0.18979649  0.69288196  0.30065099  1
  O  O42  1  0.85354718  0.08243275  0.96016119  1
  O  O43  1  0.14645282  0.91756725  0.03983881  1
  O  O44  1  0.52178683  0.86127495  0.89914540  1
  O  O45  1  0.47821317  0.13872505  0.10085460  1
  O  O46  1  0.45803469  0.74248161  0.52639730  1
  O  O47  1  0.54196531  0.25751839  0.47360270  1
  O  O48  1  0.53855011  0.11038819  0.69172196  1
  O  O49  1  0.46144989  0.88961181  0.30827804  1
  O  O50  1  0.46564795  0.60584023  0.25945840  1
  O  O51  1  0.53435205  0.39415977  0.74054160  1
