# generated using pymatgen
data_SbH2SO3F7
_symmetry_space_group_name_H-M   'P 1'
_cell_length_a   7.03250655
_cell_length_b   8.57215505
_cell_length_c   13.73040637
_cell_angle_alpha   90.00000000
_cell_angle_beta   90.00000000
_cell_angle_gamma   92.34194625
_symmetry_Int_Tables_number   1
_chemical_formula_structural   SbH2SO3F7
_chemical_formula_sum   'Sb4 H8 S4 O12 F28'
_cell_volume   827.02884444
_cell_formula_units_Z   4
loop_
 _symmetry_equiv_pos_site_id
 _symmetry_equiv_pos_as_xyz
  1  'x, y, z'
loop_
 _atom_site_type_symbol
 _atom_site_label
 _atom_site_symmetry_multiplicity
 _atom_site_fract_x
 _atom_site_fract_y
 _atom_site_fract_z
 _atom_site_occupancy
  Sb  Sb0  1  0.75532326  0.76717193  0.98158599  1
  Sb  Sb1  1  0.25532326  0.26717193  0.51841401  1
  Sb  Sb2  1  0.24467674  0.23282807  0.01841401  1
  Sb  Sb3  1  0.74467674  0.73282807  0.48158599  1
  H  H4  1  0.79126859  0.02163836  0.16040818  1
  H  H5  1  0.29126859  0.52163836  0.33959182  1
  H  H6  1  0.20873141  0.97836164  0.83959182  1
  H  H7  1  0.70873141  0.47836164  0.66040818  1
  H  H8  1  0.67588711  0.23184196  0.41909784  1
  H  H9  1  0.17588711  0.73184196  0.08090216  1
  H  H10  1  0.32411289  0.76815804  0.58090216  1
  H  H11  1  0.82411289  0.26815804  0.91909784  1
  S  S12  1  0.67772741  0.18358320  0.26634958  1
  S  S13  1  0.17772741  0.68358320  0.23365042  1
  S  S14  1  0.32227259  0.81641680  0.73365042  1
  S  S15  1  0.82227259  0.31641680  0.76634958  1
  O  O16  1  0.83172711  0.11591324  0.20554345  1
  O  O17  1  0.33172711  0.61591324  0.29445655  1
  O  O18  1  0.16827289  0.88408676  0.79445655  1
  O  O19  1  0.66827289  0.38408676  0.70554345  1
  O  O20  1  0.77344716  0.21539487  0.36305697  1
  O  O21  1  0.27344716  0.71539487  0.13694303  1
  O  O22  1  0.22655284  0.78460513  0.63694303  1
  O  O23  1  0.72655284  0.28460513  0.86305697  1
  O  O24  1  0.49440798  0.10960131  0.26690175  1
  O  O25  1  0.99440798  0.60960131  0.23309825  1
  O  O26  1  0.50559202  0.89039869  0.73309825  1
  O  O27  1  0.00559202  0.39039869  0.76690175  1
  F  F28  1  0.75392919  0.88012480  0.10717848  1
  F  F29  1  0.25392919  0.38012480  0.39282152  1
  F  F30  1  0.24607081  0.11987520  0.89282152  1
  F  F31  1  0.74607081  0.61987520  0.60717848  1
  F  F32  1  0.02571205  0.73196271  0.00779183  1
  F  F33  1  0.52571205  0.23196271  0.49220817  1
  F  F34  1  0.97428795  0.26803729  0.99220817  1
  F  F35  1  0.47428795  0.76803729  0.50779183  1
  F  F36  1  0.77585611  0.65841738  0.86140775  1
  F  F37  1  0.27585611  0.15841738  0.63859225  1
  F  F38  1  0.22414389  0.34158262  0.13859225  1
  F  F39  1  0.72414389  0.84158262  0.36140775  1
  F  F40  1  0.69404514  0.58053782  0.05044870  1
  F  F41  1  0.19404514  0.08053782  0.44955130  1
  F  F42  1  0.30595486  0.41946218  0.94955130  1
  F  F43  1  0.80595486  0.91946218  0.55044870  1
  F  F44  1  0.49398461  0.80989023  0.96257326  1
  F  F45  1  0.99398461  0.30989023  0.53742674  1
  F  F46  1  0.50601539  0.19010977  0.03742674  1
  F  F47  1  0.00601539  0.69010977  0.46257326  1
  F  F48  1  0.83620586  0.95775943  0.92057251  1
  F  F49  1  0.33620586  0.45775943  0.57942749  1
  F  F50  1  0.16379414  0.04224057  0.07942749  1
  F  F51  1  0.66379414  0.54224057  0.42057251  1
  F  F52  1  0.66889838  0.35051801  0.22246425  1
  F  F53  1  0.16889838  0.85051801  0.27753575  1
  F  F54  1  0.33110162  0.64948199  0.77753575  1
  F  F55  1  0.83110162  0.14948199  0.72246425  1
