# generated using pymatgen
data_YbV4O8
_symmetry_space_group_name_H-M   'P 1'
_cell_length_a   5.90541770
_cell_length_b   9.22007356
_cell_length_c   11.22045038
_cell_angle_alpha   90.00000000
_cell_angle_beta   105.74994172
_cell_angle_gamma   90.00000000
_symmetry_Int_Tables_number   1
_chemical_formula_structural   YbV4O8
_chemical_formula_sum   'Yb4 V16 O32'
_cell_volume   587.99815189
_cell_formula_units_Z   4
loop_
 _symmetry_equiv_pos_site_id
 _symmetry_equiv_pos_as_xyz
  1  'x, y, z'
loop_
 _atom_site_type_symbol
 _atom_site_label
 _atom_site_symmetry_multiplicity
 _atom_site_fract_x
 _atom_site_fract_y
 _atom_site_fract_z
 _atom_site_occupancy
  Yb  Yb0  1  0.05362314  0.74240046  0.84396993  1
  Yb  Yb1  1  0.94637686  0.25759954  0.15603007  1
  Yb  Yb2  1  0.94637686  0.24240046  0.65603007  1
  Yb  Yb3  1  0.05362314  0.75759954  0.34396993  1
  V  V4  1  0.92438115  0.56614919  0.60618245  1
  V  V5  1  0.07561885  0.43385081  0.39381755  1
  V  V6  1  0.07561885  0.06614919  0.89381755  1
  V  V7  1  0.92438115  0.93385081  0.10618245  1
  V  V8  1  0.43640545  0.56164874  0.61976532  1
  V  V9  1  0.56359455  0.43835126  0.38023468  1
  V  V10  1  0.56359455  0.06164874  0.88023468  1
  V  V11  1  0.43640545  0.93835126  0.11976532  1
  V  V12  1  0.67645542  0.58607908  0.10071098  1
  V  V13  1  0.32354458  0.41392092  0.89928902  1
  V  V14  1  0.32354458  0.08607908  0.39928902  1
  V  V15  1  0.67645542  0.91392092  0.60071098  1
  V  V16  1  0.18295033  0.57991077  0.10488510  1
  V  V17  1  0.81704967  0.42008923  0.89511490  1
  V  V18  1  0.81704967  0.07991077  0.39511490  1
  V  V19  1  0.18295033  0.92008923  0.60488510  1
  O  O20  1  0.18661854  0.79206262  0.15128095  1
  O  O21  1  0.81338146  0.20793738  0.84871905  1
  O  O22  1  0.81338146  0.29206262  0.34871905  1
  O  O23  1  0.18661854  0.70793738  0.65128095  1
  O  O24  1  0.71995865  0.79673670  0.15198433  1
  O  O25  1  0.28004135  0.20326330  0.84801567  1
  O  O26  1  0.28004135  0.29673670  0.34801567  1
  O  O27  1  0.71995865  0.70326330  0.65198433  1
  O  O28  1  0.35318084  0.88618807  0.47901565  1
  O  O29  1  0.64681916  0.11381193  0.52098435  1
  O  O30  1  0.64681916  0.38618807  0.02098435  1
  O  O31  1  0.35318084  0.61381193  0.97901565  1
  O  O32  1  0.88419071  0.88421451  0.48033670  1
  O  O33  1  0.11580929  0.11578549  0.51966330  1
  O  O34  1  0.11580929  0.38421451  0.01966330  1
  O  O35  1  0.88419071  0.61578549  0.98033670  1
  O  O36  1  0.98904224  0.97699128  0.72149343  1
  O  O37  1  0.01095776  0.02300872  0.27850657  1
  O  O38  1  0.01095776  0.47699128  0.77850657  1
  O  O39  1  0.98904224  0.52300872  0.22149343  1
  O  O40  1  0.46710566  0.97445683  0.71184850  1
  O  O41  1  0.53289434  0.02554317  0.28815150  1
  O  O42  1  0.53289434  0.47445683  0.78815150  1
  O  O43  1  0.46710566  0.52554317  0.21184850  1
  O  O44  1  0.32677972  0.57629488  0.43351821  1
  O  O45  1  0.67322028  0.42370512  0.56648179  1
  O  O46  1  0.67322028  0.07629488  0.06648179  1
  O  O47  1  0.32677972  0.92370512  0.93351821  1
  O  O48  1  0.85190457  0.57925482  0.42469500  1
  O  O49  1  0.14809543  0.42074518  0.57530500  1
  O  O50  1  0.14809543  0.07925482  0.07530500  1
  O  O51  1  0.85190457  0.92074518  0.92469500  1
