# generated using pymatgen
data_NaCu5Se2Cl3O8
_symmetry_space_group_name_H-M   'P 1'
_cell_length_a   6.49445666
_cell_length_b   10.64779518
_cell_length_c   18.07185400
_cell_angle_alpha   90.00000000
_cell_angle_beta   90.00000000
_cell_angle_gamma   90.00000000
_symmetry_Int_Tables_number   1
_chemical_formula_structural   NaCu5Se2Cl3O8
_chemical_formula_sum   'Na4 Cu20 Se8 Cl12 O32'
_cell_volume   1249.69842003
_cell_formula_units_Z   4
loop_
 _symmetry_equiv_pos_site_id
 _symmetry_equiv_pos_as_xyz
  1  'x, y, z'
loop_
 _atom_site_type_symbol
 _atom_site_label
 _atom_site_symmetry_multiplicity
 _atom_site_fract_x
 _atom_site_fract_y
 _atom_site_fract_z
 _atom_site_occupancy
  Na  Na0  1  0.25000000  0.76407065  0.90556593  1
  Na  Na1  1  0.25000000  0.73592935  0.40556593  1
  Na  Na2  1  0.75000000  0.23592935  0.09443407  1
  Na  Na3  1  0.75000000  0.26407065  0.59443407  1
  Cu  Cu4  1  0.25000000  0.00029518  0.09767652  1
  Cu  Cu5  1  0.25000000  0.49970482  0.59767652  1
  Cu  Cu6  1  0.75000000  0.99970482  0.90232348  1
  Cu  Cu7  1  0.75000000  0.50029518  0.40232348  1
  Cu  Cu8  1  0.25000000  0.50246878  0.13347661  1
  Cu  Cu9  1  0.25000000  0.99753122  0.63347661  1
  Cu  Cu10  1  0.75000000  0.49753122  0.86652339  1
  Cu  Cu11  1  0.75000000  0.00246878  0.36652339  1
  Cu  Cu12  1  0.25000000  0.21894683  0.21980753  1
  Cu  Cu13  1  0.25000000  0.28105317  0.71980753  1
  Cu  Cu14  1  0.75000000  0.78105317  0.78019247  1
  Cu  Cu15  1  0.75000000  0.71894683  0.28019247  1
  Cu  Cu16  1  0.00500493  0.95941160  0.23664163  1
  Cu  Cu17  1  0.49499507  0.54058840  0.73664163  1
  Cu  Cu18  1  0.50500493  0.04058840  0.76335837  1
  Cu  Cu19  1  0.99499507  0.45941160  0.26335837  1
  Cu  Cu20  1  0.99499507  0.04058840  0.76335837  1
  Cu  Cu21  1  0.50500493  0.45941160  0.26335837  1
  Cu  Cu22  1  0.49499507  0.95941160  0.23664163  1
  Cu  Cu23  1  0.00500493  0.54058840  0.73664163  1
  Se  Se24  1  0.25000000  0.07634291  0.93081750  1
  Se  Se25  1  0.25000000  0.42365709  0.43081750  1
  Se  Se26  1  0.75000000  0.92365709  0.06918250  1
  Se  Se27  1  0.75000000  0.57634291  0.56918250  1
  Se  Se28  1  0.75000000  0.58336583  0.11672645  1
  Se  Se29  1  0.75000000  0.91663417  0.61672645  1
  Se  Se30  1  0.25000000  0.41663417  0.88327355  1
  Se  Se31  1  0.25000000  0.08336583  0.38327355  1
  Cl  Cl32  1  0.25000000  0.24483224  0.09022790  1
  Cl  Cl33  1  0.25000000  0.25516776  0.59022790  1
  Cl  Cl34  1  0.75000000  0.75516776  0.90977210  1
  Cl  Cl35  1  0.75000000  0.74483224  0.40977210  1
  Cl  Cl36  1  0.25000000  0.63092203  0.03712587  1
  Cl  Cl37  1  0.25000000  0.86907797  0.53712587  1
  Cl  Cl38  1  0.75000000  0.36907797  0.96287413  1
  Cl  Cl39  1  0.75000000  0.13092203  0.46287413  1
  Cl  Cl40  1  0.25000000  0.73607705  0.25501344  1
  Cl  Cl41  1  0.25000000  0.76392295  0.75501344  1
  Cl  Cl42  1  0.75000000  0.26392295  0.74498656  1
  Cl  Cl43  1  0.75000000  0.23607705  0.24498656  1
  O  O44  1  0.75000000  0.89869237  0.27448966  1
  O  O45  1  0.75000000  0.60130763  0.77448966  1
  O  O46  1  0.25000000  0.10130763  0.72551034  1
  O  O47  1  0.25000000  0.39869237  0.22551034  1
  O  O48  1  0.25000000  0.04033876  0.20341234  1
  O  O49  1  0.25000000  0.45966124  0.70341234  1
  O  O50  1  0.75000000  0.95966124  0.79658766  1
  O  O51  1  0.75000000  0.54033876  0.29658766  1
  O  O52  1  0.94999954  0.48942202  0.15316992  1
  O  O53  1  0.55000046  0.01057798  0.65316992  1
  O  O54  1  0.44999954  0.51057798  0.84683008  1
  O  O55  1  0.05000046  0.98942202  0.34683008  1
  O  O56  1  0.05000046  0.51057798  0.84683008  1
  O  O57  1  0.44999954  0.98942202  0.34683008  1
  O  O58  1  0.55000046  0.48942202  0.15316992  1
  O  O59  1  0.94999954  0.01057798  0.65316992  1
  O  O60  1  0.25000000  0.95367430  0.99341053  1
  O  O61  1  0.25000000  0.54632570  0.49341053  1
  O  O62  1  0.75000000  0.04632570  0.00658947  1
  O  O63  1  0.75000000  0.45367430  0.50658947  1
  O  O64  1  0.75000000  0.71333675  0.17144710  1
  O  O65  1  0.75000000  0.78666325  0.67144710  1
  O  O66  1  0.25000000  0.28666325  0.82855290  1
  O  O67  1  0.25000000  0.21333675  0.32855290  1
  O  O68  1  0.04741239  0.02480866  0.87401103  1
  O  O69  1  0.45258761  0.47519134  0.37401103  1
  O  O70  1  0.54741239  0.97519134  0.12598897  1
  O  O71  1  0.95258761  0.52480866  0.62598897  1
  O  O72  1  0.95258761  0.97519134  0.12598897  1
  O  O73  1  0.54741239  0.52480866  0.62598897  1
  O  O74  1  0.45258761  0.02480866  0.87401103  1
  O  O75  1  0.04741239  0.47519134  0.37401103  1
