# generated using pymatgen
data_Sm2USe5
_symmetry_space_group_name_H-M   'P 1'
_cell_length_a   7.81745181
_cell_length_b   8.37689791
_cell_length_c   12.38018054
_cell_angle_alpha   90.00000000
_cell_angle_beta   90.00000000
_cell_angle_gamma   90.00000000
_symmetry_Int_Tables_number   1
_chemical_formula_structural   Sm2USe5
_chemical_formula_sum   'Sm8 U4 Se20'
_cell_volume   810.72844996
_cell_formula_units_Z   4
loop_
 _symmetry_equiv_pos_site_id
 _symmetry_equiv_pos_as_xyz
  1  'x, y, z'
loop_
 _atom_site_type_symbol
 _atom_site_label
 _atom_site_symmetry_multiplicity
 _atom_site_fract_x
 _atom_site_fract_y
 _atom_site_fract_z
 _atom_site_occupancy
  Sm  Sm0  1  0.97319553  0.00228464  0.17869210  1
  Sm  Sm1  1  0.52680447  0.49771536  0.67869210  1
  Sm  Sm2  1  0.02680447  0.50228464  0.82130790  1
  Sm  Sm3  1  0.47319553  0.99771536  0.32130790  1
  Sm  Sm4  1  0.02680447  0.99771536  0.82130790  1
  Sm  Sm5  1  0.47319553  0.50228464  0.32130790  1
  Sm  Sm6  1  0.97319553  0.49771536  0.17869210  1
  Sm  Sm7  1  0.52680447  0.00228464  0.67869210  1
  U  U8  1  0.42597818  0.75000000  0.00921377  1
  U  U9  1  0.07402182  0.75000000  0.50921377  1
  U  U10  1  0.57402182  0.25000000  0.99078623  1
  U  U11  1  0.92597818  0.25000000  0.49078623  1
  Se  Se12  1  0.66766512  0.54545952  0.90517639  1
  Se  Se13  1  0.83233488  0.95454048  0.40517639  1
  Se  Se14  1  0.33233488  0.04545952  0.09482361  1
  Se  Se15  1  0.16766512  0.45454048  0.59482361  1
  Se  Se16  1  0.33233488  0.45454048  0.09482361  1
  Se  Se17  1  0.16766512  0.04545952  0.59482361  1
  Se  Se18  1  0.66766512  0.95454048  0.90517639  1
  Se  Se19  1  0.83233488  0.54545952  0.40517639  1
  Se  Se20  1  0.66924503  0.75000000  0.18666357  1
  Se  Se21  1  0.83075497  0.75000000  0.68666357  1
  Se  Se22  1  0.33075497  0.25000000  0.81333643  1
  Se  Se23  1  0.16924503  0.25000000  0.31333643  1
  Se  Se24  1  0.04194310  0.75000000  0.99930290  1
  Se  Se25  1  0.45805690  0.75000000  0.49930290  1
  Se  Se26  1  0.95805690  0.25000000  0.00069710  1
  Se  Se27  1  0.54194310  0.25000000  0.50069710  1
  Se  Se28  1  0.30590101  0.75000000  0.78354229  1
  Se  Se29  1  0.19409899  0.75000000  0.28354229  1
  Se  Se30  1  0.69409899  0.25000000  0.21645771  1
  Se  Se31  1  0.80590101  0.25000000  0.71645771  1
