# generated using pymatgen
data_Bi20(PtI12)3
_symmetry_space_group_name_H-M   'P 1'
_cell_length_a   12.09230787
_cell_length_b   12.12292052
_cell_length_c   19.50830281
_cell_angle_alpha   74.38151264
_cell_angle_beta   74.46173922
_cell_angle_gamma   86.31462032
_symmetry_Int_Tables_number   1
_chemical_formula_structural   Bi20(PtI12)3
_chemical_formula_sum   'Bi20 Pt3 I36'
_cell_volume   2653.44965475
_cell_formula_units_Z   1
loop_
 _symmetry_equiv_pos_site_id
 _symmetry_equiv_pos_as_xyz
  1  'x, y, z'
loop_
 _atom_site_type_symbol
 _atom_site_label
 _atom_site_symmetry_multiplicity
 _atom_site_fract_x
 _atom_site_fract_y
 _atom_site_fract_z
 _atom_site_occupancy
  Bi  Bi0  1  0.90363499  0.86024290  0.94050361  1
  Bi  Bi1  1  0.09636501  0.13975710  0.05949639  1
  Bi  Bi2  1  0.03023748  0.81671197  0.11312713  1
  Bi  Bi3  1  0.96976252  0.18328803  0.88687287  1
  Bi  Bi4  1  0.42274777  0.46267894  0.39787812  1
  Bi  Bi5  1  0.57725223  0.53732106  0.60212188  1
  Bi  Bi6  1  0.53531498  0.27640234  0.25307340  1
  Bi  Bi7  1  0.46468502  0.72359766  0.74692660  1
  Bi  Bi8  1  0.22031409  0.18133612  0.28466212  1
  Bi  Bi9  1  0.77968591  0.81866388  0.71533788  1
  Bi  Bi10  1  0.35127860  0.13799630  0.45085015  1
  Bi  Bi11  1  0.64872140  0.86200370  0.54914985  1
  Bi  Bi12  1  0.65943477  0.66064373  0.16899468  1
  Bi  Bi13  1  0.34056523  0.33935627  0.83100532  1
  Bi  Bi14  1  0.78649606  0.04591566  0.08322229  1
  Bi  Bi15  1  0.21350394  0.95408434  0.91677771  1
  Bi  Bi16  1  0.28834840  0.50651257  0.22600592  1
  Bi  Bi17  1  0.71165160  0.49348743  0.77399408  1
  Bi  Bi18  1  0.11152113  0.36315724  0.42508777  1
  Bi  Bi19  1  0.88847887  0.63684276  0.57491223  1
  Pt  Pt20  1  0.00000000  0.00000000  -0.00000000  1
  Pt  Pt21  1  0.32508158  0.32500158  0.33771527  1
  Pt  Pt22  1  0.67491842  0.67499842  0.66228473  1
  I  I23  1  0.27462886  0.74945110  0.03565407  1
  I  I24  1  0.72537114  0.25054890  0.96434593  1
  I  I25  1  0.13515032  0.95255929  0.19505387  1
  I  I26  1  0.86484968  0.04744071  0.80494613  1
  I  I27  1  0.90848098  0.62177042  0.06864727  1
  I  I28  1  0.09151902  0.37822958  0.93135273  1
  I  I29  1  0.77944992  0.83032382  0.22803566  1
  I  I30  1  0.22055008  0.16967618  0.77196434  1
  I  I31  1  0.55024386  0.50426125  0.10473807  1
  I  I32  1  0.44975614  0.49573875  0.89526193  1
  I  I33  1  0.69634968  0.45813410  0.29334809  1
  I  I34  1  0.30365032  0.54186590  0.70665191  1
  I  I35  1  0.45855976  0.11957165  0.17579477  1
  I  I36  1  0.54144024  0.88042835  0.82420523  1
  I  I37  1  0.60819816  0.08134401  0.36744219  1
  I  I38  1  0.39180184  0.91865599  0.63255781  1
  I  I39  1  0.47499753  0.28281090  0.52659423  1
  I  I40  1  0.52500247  0.71718910  0.47340577  1
  I  I41  1  0.24782342  0.95622444  0.40004770  1
  I  I42  1  0.75217658  0.04377556  0.59995230  1
  I  I43  1  0.12041309  0.16690435  0.56174530  1
  I  I44  1  0.87958691  0.83309565  0.43825470  1
  I  I45  1  0.86965265  0.21291137  0.15516417  1
  I  I46  1  0.13034735  0.78708863  0.84483583  1
  I  I47  1  0.63700089  0.87652588  0.03533028  1
  I  I48  1  0.36299911  0.12347412  0.96466972  1
  I  I49  1  0.42533887  0.71070952  0.26276330  1
  I  I50  1  0.57466113  0.28929048  0.73723670  1
  I  I51  1  0.19054762  0.37694039  0.14058147  1
  I  I52  1  0.80945238  0.62305961  0.85941853  1
  I  I53  1  0.05625299  0.58616504  0.30223485  1
  I  I54  1  0.94374701  0.41383496  0.69776515  1
  I  I55  1  0.20438175  0.54497409  0.49007493  1
  I  I56  1  0.79561825  0.45502591  0.50992507  1
  I  I57  1  0.97124487  0.21520402  0.36891949  1
  I  I58  1  0.02875513  0.78479598  0.63108051  1
