# generated using pymatgen
data_SrBe(HO)4
_symmetry_space_group_name_H-M   'P 1'
_cell_length_a   10.01333493
_cell_length_b   10.01333493
_cell_length_c   11.08531010
_cell_angle_alpha   116.84952124
_cell_angle_beta   116.84952124
_cell_angle_gamma   90.00000000
_symmetry_Int_Tables_number   1
_chemical_formula_structural   SrBe(HO)4
_chemical_formula_sum   'Sr8 Be8 H32 O32'
_cell_volume   855.21628070
_cell_formula_units_Z   8
loop_
 _symmetry_equiv_pos_site_id
 _symmetry_equiv_pos_as_xyz
  1  'x, y, z'
loop_
 _atom_site_type_symbol
 _atom_site_label
 _atom_site_symmetry_multiplicity
 _atom_site_fract_x
 _atom_site_fract_y
 _atom_site_fract_z
 _atom_site_occupancy
  Sr  Sr0  1  0.87500000  0.62500000  0.75000000  1
  Sr  Sr1  1  0.37500000  0.12500000  0.75000000  1
  Sr  Sr2  1  0.62500000  0.87500000  0.25000000  1
  Sr  Sr3  1  0.12500000  0.37500000  0.25000000  1
  Sr  Sr4  1  0.87500000  0.12500000  0.75000000  1
  Sr  Sr5  1  0.37500000  0.62500000  0.75000000  1
  Sr  Sr6  1  0.12500000  0.87500000  0.25000000  1
  Sr  Sr7  1  0.62500000  0.37500000  0.25000000  1
  Be  Be8  1  0.78116993  0.25000000  0.50000000  1
  Be  Be9  1  0.21883007  0.75000000  0.50000000  1
  Be  Be10  1  0.75000000  0.71883007  -0.00000000  1
  Be  Be11  1  0.75000000  0.21883007  -0.00000000  1
  Be  Be12  1  0.25000000  0.28116993  -0.00000000  1
  Be  Be13  1  0.25000000  0.78116993  -0.00000000  1
  Be  Be14  1  0.28116993  0.25000000  0.50000000  1
  Be  Be15  1  0.71883007  0.75000000  0.50000000  1
  H  H16  1  0.55810185  0.62305907  0.52937210  1
  H  H17  1  0.47127025  0.12305907  0.52937210  1
  H  H18  1  0.40631303  0.97127025  0.02937210  1
  H  H19  1  0.12305907  0.47127025  0.02937210  1
  H  H20  1  0.44189815  0.37694093  0.47062790  1
  H  H21  1  0.52872975  0.87694093  0.47062790  1
  H  H22  1  0.59368697  0.02872975  0.97062790  1
  H  H23  1  0.87694093  0.52872975  0.97062790  1
  H  H24  1  0.05810185  0.90631303  0.52937210  1
  H  H25  1  0.97127025  0.40631303  0.52937210  1
  H  H26  1  0.90631303  0.05810185  0.02937210  1
  H  H27  1  0.62305907  0.55810185  0.02937210  1
  H  H28  1  0.94189815  0.09368697  0.47062790  1
  H  H29  1  0.02872975  0.59368697  0.47062790  1
  H  H30  1  0.09368697  0.94189815  0.97062790  1
  H  H31  1  0.37694093  0.44189815  0.97062790  1
  H  H32  1  0.66527872  0.32916197  0.64099703  1
  H  H33  1  0.47571831  0.82916197  0.64099703  1
  H  H34  1  0.81183506  0.97571831  0.14099703  1
  H  H35  1  0.82916197  0.47571831  0.14099703  1
  H  H36  1  0.33472128  0.67083803  0.35900297  1
  H  H37  1  0.52428169  0.17083803  0.35900297  1
  H  H38  1  0.18816494  0.02428169  0.85900297  1
  H  H39  1  0.17083803  0.52428169  0.85900297  1
  H  H40  1  0.16527872  0.31183506  0.64099703  1
  H  H41  1  0.97571831  0.81183506  0.64099703  1
  H  H42  1  0.31183506  0.16527872  0.14099703  1
  H  H43  1  0.32916197  0.66527872  0.14099703  1
  H  H44  1  0.83472128  0.68816494  0.35900297  1
  H  H45  1  0.02428169  0.18816494  0.35900297  1
  H  H46  1  0.68816494  0.83472128  0.85900297  1
  H  H47  1  0.67083803  0.33472128  0.85900297  1
  O  O48  1  0.62932096  0.60483381  0.49057055  1
  O  O49  1  0.36124959  0.10483381  0.49057055  1
  O  O50  1  0.38573674  0.86124959  0.99057055  1
  O  O51  1  0.10483381  0.36124959  0.99057055  1
  O  O52  1  0.37067904  0.39516619  0.50942945  1
  O  O53  1  0.63875041  0.89516619  0.50942945  1
  O  O54  1  0.61426326  0.13875041  0.00942945  1
  O  O55  1  0.89516619  0.63875041  0.00942945  1
  O  O56  1  0.12932096  0.88573674  0.49057055  1
  O  O57  1  0.86124959  0.38573674  0.49057055  1
  O  O58  1  0.88573674  0.12932096  0.99057055  1
  O  O59  1  0.60483381  0.62932096  0.99057055  1
  O  O60  1  0.87067904  0.11426326  0.50942945  1
  O  O61  1  0.13875041  0.61426326  0.50942945  1
  O  O62  1  0.11426326  0.87067904  0.00942945  1
  O  O63  1  0.39516619  0.37067904  0.00942945  1
  O  O64  1  0.77082987  0.33432172  0.66096593  1
  O  O65  1  0.39013606  0.83432172  0.66096593  1
  O  O66  1  0.82664421  0.89013606  0.16096593  1
  O  O67  1  0.83432172  0.39013606  0.16096593  1
  O  O68  1  0.22917013  0.66567828  0.33903407  1
  O  O69  1  0.60986394  0.16567828  0.33903407  1
  O  O70  1  0.17335579  0.10986394  0.83903407  1
  O  O71  1  0.16567828  0.60986394  0.83903407  1
  O  O72  1  0.27082987  0.32664421  0.66096593  1
  O  O73  1  0.89013606  0.82664421  0.66096593  1
  O  O74  1  0.32664421  0.27082987  0.16096593  1
  O  O75  1  0.33432172  0.77082987  0.16096593  1
  O  O76  1  0.72917013  0.67335579  0.33903407  1
  O  O77  1  0.10986394  0.17335579  0.33903407  1
  O  O78  1  0.67335579  0.72917013  0.83903407  1
  O  O79  1  0.66567828  0.22917013  0.83903407  1
