# generated using pymatgen
data_InAgP2(HO4)2
_symmetry_space_group_name_H-M   'P 1'
_cell_length_a   6.71893015
_cell_length_b   6.77223169
_cell_length_c   14.99862697
_cell_angle_alpha   90.00000000
_cell_angle_beta   90.00000000
_cell_angle_gamma   96.62467384
_symmetry_Int_Tables_number   1
_chemical_formula_structural   InAgP2(HO4)2
_chemical_formula_sum   'In4 Ag4 P8 H8 O32'
_cell_volume   677.91306974
_cell_formula_units_Z   4
loop_
 _symmetry_equiv_pos_site_id
 _symmetry_equiv_pos_as_xyz
  1  'x, y, z'
loop_
 _atom_site_type_symbol
 _atom_site_label
 _atom_site_symmetry_multiplicity
 _atom_site_fract_x
 _atom_site_fract_y
 _atom_site_fract_z
 _atom_site_occupancy
  In  In0  1  0.22738610  0.37995414  0.10867835  1
  In  In1  1  0.77261390  0.12004586  0.60867835  1
  In  In2  1  0.77261390  0.62004586  0.89132165  1
  In  In3  1  0.22738610  0.87995414  0.39132165  1
  Ag  Ag4  1  0.79085651  0.51291380  0.43565927  1
  Ag  Ag5  1  0.20914349  0.98708620  0.93565927  1
  Ag  Ag6  1  0.20914349  0.48708620  0.56434073  1
  Ag  Ag7  1  0.79085651  0.01291380  0.06434073  1
  P  P8  1  0.26786348  0.38221051  0.34397878  1
  P  P9  1  0.73213652  0.11778949  0.84397878  1
  P  P10  1  0.73213652  0.61778949  0.65602122  1
  P  P11  1  0.26786348  0.88221051  0.15602122  1
  P  P12  1  0.25123080  0.49850915  0.88578139  1
  P  P13  1  0.74876920  0.00149085  0.38578139  1
  P  P14  1  0.74876920  0.50149085  0.11421861  1
  P  P15  1  0.25123080  0.99850915  0.61421861  1
  H  H16  1  0.55230365  0.42926990  0.26824499  1
  H  H17  1  0.44769635  0.07073010  0.76824499  1
  H  H18  1  0.44769635  0.57073010  0.73175501  1
  H  H19  1  0.55230365  0.92926990  0.23175501  1
  H  H20  1  0.06342530  0.31407312  0.78333851  1
  H  H21  1  0.93657470  0.18592688  0.28333851  1
  H  H22  1  0.93657470  0.68592688  0.21666149  1
  H  H23  1  0.06342530  0.81407312  0.71666149  1
  O  O24  1  0.25148929  0.35042644  0.96414806  1
  O  O25  1  0.74851071  0.14957356  0.46414806  1
  O  O26  1  0.74851071  0.64957356  0.03585194  1
  O  O27  1  0.25148929  0.85042644  0.53585194  1
  O  O28  1  0.90099098  0.34943149  0.09965770  1
  O  O29  1  0.09900902  0.15056851  0.59965770  1
  O  O30  1  0.09900902  0.65056851  0.90034230  1
  O  O31  1  0.90099098  0.84943149  0.40034230  1
  O  O32  1  0.54164198  0.39111418  0.13591358  1
  O  O33  1  0.45835802  0.10888582  0.63591358  1
  O  O34  1  0.45835802  0.60888582  0.86408642  1
  O  O35  1  0.54164198  0.89111418  0.36408642  1
  O  O36  1  0.19596674  0.05445776  0.10122793  1
  O  O37  1  0.80403326  0.44554224  0.60122793  1
  O  O38  1  0.80403326  0.94554224  0.89877207  1
  O  O39  1  0.19596674  0.55445776  0.39877207  1
  O  O40  1  0.23337037  0.69428066  0.09906090  1
  O  O41  1  0.76662963  0.80571934  0.59906090  1
  O  O42  1  0.76662963  0.30571934  0.90093910  1
  O  O43  1  0.23337037  0.19428066  0.40093910  1
  O  O44  1  0.16333536  0.35455698  0.25320290  1
  O  O45  1  0.83666464  0.14544302  0.75320290  1
  O  O46  1  0.83666464  0.64544302  0.74679710  1
  O  O47  1  0.16333536  0.85455698  0.24679710  1
  O  O48  1  0.50458311  0.43644553  0.33025692  1
  O  O49  1  0.49541689  0.06355447  0.83025692  1
  O  O50  1  0.49541689  0.56355447  0.66974308  1
  O  O51  1  0.50458311  0.93644553  0.16974308  1
  O  O52  1  0.20135810  0.37535946  0.79620326  1
  O  O53  1  0.79864190  0.12464054  0.29620326  1
  O  O54  1  0.79864190  0.62464054  0.20379674  1
  O  O55  1  0.20135810  0.87535946  0.70379674  1
