# generated using pymatgen
data_K9Fe2O7
_symmetry_space_group_name_H-M   'P 1'
_cell_length_a   11.13899305
_cell_length_b   11.13899305
_cell_length_c   11.13899305
_cell_angle_alpha   90.00000000
_cell_angle_beta   90.00000000
_cell_angle_gamma   90.00000000
_symmetry_Int_Tables_number   1
_chemical_formula_structural   K9Fe2O7
_chemical_formula_sum   'K36 Fe8 O28'
_cell_volume   1382.09469161
_cell_formula_units_Z   4
loop_
 _symmetry_equiv_pos_site_id
 _symmetry_equiv_pos_as_xyz
  1  'x, y, z'
loop_
 _atom_site_type_symbol
 _atom_site_label
 _atom_site_symmetry_multiplicity
 _atom_site_fract_x
 _atom_site_fract_y
 _atom_site_fract_z
 _atom_site_occupancy
  K  K0  1  0.09709819  0.59709819  0.90290181  1
  K  K1  1  0.59709819  0.90290181  0.09709819  1
  K  K2  1  0.90290181  0.09709819  0.59709819  1
  K  K3  1  0.40290181  0.40290181  0.40290181  1
  K  K4  1  0.26329856  0.76329856  0.73670144  1
  K  K5  1  0.76329856  0.73670144  0.26329856  1
  K  K6  1  0.73670144  0.26329856  0.76329856  1
  K  K7  1  0.23670144  0.23670144  0.23670144  1
  K  K8  1  0.42544051  0.92544051  0.57455949  1
  K  K9  1  0.92544051  0.57455949  0.42544051  1
  K  K10  1  0.57455949  0.42544051  0.92544051  1
  K  K11  1  0.07455949  0.07455949  0.07455949  1
  K  K12  1  0.21505727  0.16224336  0.50907374  1
  K  K13  1  0.49092626  0.71505727  0.33775664  1
  K  K14  1  0.66224336  0.99092626  0.78494273  1
  K  K15  1  0.71505727  0.33775664  0.49092626  1
  K  K16  1  0.99092626  0.78494273  0.66224336  1
  K  K17  1  0.16224336  0.50907374  0.21505727  1
  K  K18  1  0.78494273  0.66224336  0.99092626  1
  K  K19  1  0.50907374  0.21505727  0.16224336  1
  K  K20  1  0.33775664  0.49092626  0.71505727  1
  K  K21  1  0.28494273  0.83775664  0.00907374  1
  K  K22  1  0.00907374  0.28494273  0.83775664  1
  K  K23  1  0.83775664  0.00907374  0.28494273  1
  K  K24  1  0.71808770  0.83550094  0.53098431  1
  K  K25  1  0.46901569  0.21808770  0.66449906  1
  K  K26  1  0.33550094  0.96901569  0.28191230  1
  K  K27  1  0.21808770  0.66449906  0.46901569  1
  K  K28  1  0.96901569  0.28191230  0.33550094  1
  K  K29  1  0.83550094  0.53098431  0.71808770  1
  K  K30  1  0.28191230  0.33550094  0.96901569  1
  K  K31  1  0.53098431  0.71808770  0.83550094  1
  K  K32  1  0.66449906  0.46901569  0.21808770  1
  K  K33  1  0.78191230  0.16449906  0.03098431  1
  K  K34  1  0.03098431  0.78191230  0.16449906  1
  K  K35  1  0.16449906  0.03098431  0.78191230  1
  Fe  Fe36  1  0.92798017  0.42798017  0.07201983  1
  Fe  Fe37  1  0.42798017  0.07201983  0.92798017  1
  Fe  Fe38  1  0.07201983  0.92798017  0.42798017  1
  Fe  Fe39  1  0.57201983  0.57201983  0.57201983  1
  Fe  Fe40  1  0.59506183  0.09506183  0.40493817  1
  Fe  Fe41  1  0.09506183  0.40493817  0.59506183  1
  Fe  Fe42  1  0.40493817  0.59506183  0.09506183  1
  Fe  Fe43  1  0.90493817  0.90493817  0.90493817  1
  O  O44  1  0.66047017  0.08837524  0.56635322  1
  O  O45  1  0.43364678  0.16047017  0.41162476  1
  O  O46  1  0.58837524  0.93364678  0.33952983  1
  O  O47  1  0.16047017  0.41162476  0.43364678  1
  O  O48  1  0.93364678  0.33952983  0.58837524  1
  O  O49  1  0.08837524  0.56635322  0.66047017  1
  O  O50  1  0.33952983  0.58837524  0.93364678  1
  O  O51  1  0.56635322  0.66047017  0.08837524  1
  O  O52  1  0.41162476  0.43364678  0.16047017  1
  O  O53  1  0.83952983  0.91162476  0.06635322  1
  O  O54  1  0.06635322  0.83952983  0.91162476  1
  O  O55  1  0.91162476  0.06635322  0.83952983  1
  O  O56  1  0.18040683  0.91512722  0.56070645  1
  O  O57  1  0.43929355  0.68040683  0.58487278  1
  O  O58  1  0.41512722  0.93929355  0.81959317  1
  O  O59  1  0.68040683  0.58487278  0.43929355  1
  O  O60  1  0.93929355  0.81959317  0.41512722  1
  O  O61  1  0.91512722  0.56070645  0.18040683  1
  O  O62  1  0.81959317  0.41512722  0.93929355  1
  O  O63  1  0.56070645  0.18040683  0.91512722  1
  O  O64  1  0.58487278  0.43929355  0.68040683  1
  O  O65  1  0.31959317  0.08487278  0.06070645  1
  O  O66  1  0.06070645  0.31959317  0.08487278  1
  O  O67  1  0.08487278  0.06070645  0.31959317  1
  O  O68  1  0.69597986  0.19597986  0.30402014  1
  O  O69  1  0.19597986  0.30402014  0.69597986  1
  O  O70  1  0.30402014  0.69597986  0.19597986  1
  O  O71  1  0.80402014  0.80402014  0.80402014  1
