# generated using pymatgen
data_Ca3GeH12S2O17
_symmetry_space_group_name_H-M   'P 1'
_cell_length_a   8.66260028
_cell_length_b   8.66255918
_cell_length_c   10.96081644
_cell_angle_alpha   90.00000000
_cell_angle_beta   90.00000000
_cell_angle_gamma   119.99910581
_symmetry_Int_Tables_number   1
_chemical_formula_structural   Ca3GeH12S2O17
_chemical_formula_sum   'Ca6 Ge2 H24 S4 O34'
_cell_volume   712.31475296
_cell_formula_units_Z   2
loop_
 _symmetry_equiv_pos_site_id
 _symmetry_equiv_pos_as_xyz
  1  'x, y, z'
loop_
 _atom_site_type_symbol
 _atom_site_label
 _atom_site_symmetry_multiplicity
 _atom_site_fract_x
 _atom_site_fract_y
 _atom_site_fract_z
 _atom_site_occupancy
  Ca  Ca0  1  0.69641005  0.84820892  0.75000000  1
  Ca  Ca1  1  0.15178914  0.30358776  0.75000000  1
  Ca  Ca2  1  0.15177997  0.84821106  0.75000000  1
  Ca  Ca3  1  0.30358995  0.15179108  0.25000000  1
  Ca  Ca4  1  0.84821086  0.69641224  0.25000000  1
  Ca  Ca5  1  0.84822003  0.15178894  0.25000000  1
  Ge  Ge6  1  0.00000000  0.00000000  0.50000000  1
  Ge  Ge7  1  0.00000000  0.00000000  0.00000000  1
  H  H8  1  0.84590417  0.69181453  0.55944418  1
  H  H9  1  0.84590645  0.15410676  0.55945216  1
  H  H10  1  0.30818746  0.15409179  0.55945354  1
  H  H11  1  0.15409583  0.30818547  0.44055582  1
  H  H12  1  0.15409355  0.84589324  0.44054784  1
  H  H13  1  0.69181254  0.84590821  0.44054646  1
  H  H14  1  0.15409583  0.30818547  0.05944418  1
  H  H15  1  0.15409355  0.84589324  0.05945216  1
  H  H16  1  0.69181254  0.84590821  0.05945354  1
  H  H17  1  0.84590417  0.69181453  0.94055582  1
  H  H18  1  0.84590645  0.15410676  0.94054784  1
  H  H19  1  0.30818746  0.15409179  0.94054646  1
  H  H20  1  0.44885667  0.55113712  0.18098746  1
  H  H21  1  0.10227491  0.55114205  0.18098491  1
  H  H22  1  0.44884998  0.89771983  0.18098524  1
  H  H23  1  0.55114333  0.44886288  0.81901254  1
  H  H24  1  0.89772509  0.44885795  0.81901509  1
  H  H25  1  0.55115002  0.10228017  0.81901476  1
  H  H26  1  0.55114333  0.44886288  0.68098746  1
  H  H27  1  0.89772509  0.44885795  0.68098491  1
  H  H28  1  0.55115002  0.10228017  0.68098524  1
  H  H29  1  0.44885667  0.55113712  0.31901254  1
  H  H30  1  0.10227491  0.55114205  0.31901509  1
  H  H31  1  0.44884998  0.89771983  0.31901476  1
  S  S32  1  0.66667500  0.33332822  0.02685761  1
  S  S33  1  0.33332500  0.66667178  0.97314239  1
  S  S34  1  0.33332500  0.66667178  0.52685761  1
  S  S35  1  0.66667500  0.33332822  0.47314239  1
  O  O36  1  0.66666966  0.33334582  0.60946047  1
  O  O37  1  0.33333034  0.66665418  0.39053953  1
  O  O38  1  0.33333034  0.66665418  0.10946047  1
  O  O39  1  0.66666966  0.33334582  0.89053953  1
  O  O40  1  0.52132075  0.76064861  0.56965291  1
  O  O41  1  0.23934611  0.47867053  0.56966152  1
  O  O42  1  0.23935105  0.76064591  0.56965690  1
  O  O43  1  0.47867925  0.23935139  0.43034709  1
  O  O44  1  0.76065389  0.52132947  0.43033848  1
  O  O45  1  0.76064895  0.23935409  0.43034310  1
  O  O46  1  0.47867925  0.23935139  0.06965291  1
  O  O47  1  0.76065389  0.52132947  0.06966152  1
  O  O48  1  0.76064895  0.23935409  0.06965690  1
  O  O49  1  0.52132075  0.76064861  0.93034709  1
  O  O50  1  0.23934611  0.47867053  0.93033848  1
  O  O51  1  0.23935105  0.76064591  0.93034310  1
  O  O52  1  0.89988727  0.79979197  0.61030478  1
  O  O53  1  0.89990409  0.10009792  0.61031117  1
  O  O54  1  0.20019788  0.10009993  0.61030701  1
  O  O55  1  0.10011273  0.20020803  0.38969522  1
  O  O56  1  0.10009591  0.89990208  0.38968883  1
  O  O57  1  0.79980212  0.89990007  0.38969299  1
  O  O58  1  0.10011273  0.20020803  0.11030478  1
  O  O59  1  0.10009591  0.89990208  0.11031117  1
  O  O60  1  0.79980212  0.89990007  0.11030701  1
  O  O61  1  0.89988727  0.79979197  0.88969522  1
  O  O62  1  0.89990409  0.10009792  0.88968883  1
  O  O63  1  0.20019788  0.10009993  0.88969299  1
  O  O64  1  0.49084562  0.50914661  0.25000000  1
  O  O65  1  0.01829715  0.50915641  0.25000000  1
  O  O66  1  0.49083285  0.98170121  0.25000000  1
  O  O67  1  0.50915438  0.49085339  0.75000000  1
  O  O68  1  0.98170285  0.49084359  0.75000000  1
  O  O69  1  0.50916715  0.01829879  0.75000000  1
