# generated using pymatgen
data_Ga5Pt
_symmetry_space_group_name_H-M   'P 1'
_cell_length_a   6.49088400
_cell_length_b   9.05196199
_cell_length_c   15.83681814
_cell_angle_alpha   90.00000000
_cell_angle_beta   90.00000000
_cell_angle_gamma   110.04509584
_symmetry_Int_Tables_number   1
_chemical_formula_structural   Ga5Pt
_chemical_formula_sum   'Ga40 Pt8'
_cell_volume   874.12944716
_cell_formula_units_Z   8
loop_
 _symmetry_equiv_pos_site_id
 _symmetry_equiv_pos_as_xyz
  1  'x, y, z'
loop_
 _atom_site_type_symbol
 _atom_site_label
 _atom_site_symmetry_multiplicity
 _atom_site_fract_x
 _atom_site_fract_y
 _atom_site_fract_z
 _atom_site_occupancy
  Ga  Ga0  1  0.31076968  0.07881893  0.83545291  1
  Ga  Ga1  1  0.68923032  0.92118107  0.33545291  1
  Ga  Ga2  1  0.68923032  0.92118107  0.16454709  1
  Ga  Ga3  1  0.31076968  0.07881893  0.66454709  1
  Ga  Ga4  1  0.29888697  0.57218931  0.83722547  1
  Ga  Ga5  1  0.70111303  0.42781069  0.33722547  1
  Ga  Ga6  1  0.70111303  0.42781069  0.16277453  1
  Ga  Ga7  1  0.29888697  0.57218931  0.66277453  1
  Ga  Ga8  1  0.07538744  0.77536204  0.83320907  1
  Ga  Ga9  1  0.92461256  0.22463796  0.33320907  1
  Ga  Ga10  1  0.92461256  0.22463796  0.16679093  1
  Ga  Ga11  1  0.07538744  0.77536204  0.66679093  1
  Ga  Ga12  1  0.07746201  0.26430715  0.83385069  1
  Ga  Ga13  1  0.92253799  0.73569285  0.33385069  1
  Ga  Ga14  1  0.92253799  0.73569285  0.16614931  1
  Ga  Ga15  1  0.07746201  0.26430715  0.66614931  1
  Ga  Ga16  1  0.55002261  0.63845504  0.05674417  1
  Ga  Ga17  1  0.44997739  0.36154496  0.55674417  1
  Ga  Ga18  1  0.44997739  0.36154496  0.94325583  1
  Ga  Ga19  1  0.55002261  0.63845504  0.44325583  1
  Ga  Ga20  1  0.44324353  0.86331900  0.93951315  1
  Ga  Ga21  1  0.55675647  0.13668100  0.43951315  1
  Ga  Ga22  1  0.55675647  0.13668100  0.06048685  1
  Ga  Ga23  1  0.44324353  0.86331900  0.56048685  1
  Ga  Ga24  1  0.78249624  0.44751753  0.83013372  1
  Ga  Ga25  1  0.21750376  0.55248247  0.33013372  1
  Ga  Ga26  1  0.21750376  0.55248247  0.16986628  1
  Ga  Ga27  1  0.78249624  0.44751753  0.66986628  1
  Ga  Ga28  1  0.99860180  0.64227050  0.99963502  1
  Ga  Ga29  1  0.00139820  0.35772950  0.49963502  1
  Ga  Ga30  1  0.00139820  0.35772950  0.00036498  1
  Ga  Ga31  1  0.99860180  0.64227050  0.50036498  1
  Ga  Ga32  1  0.89897435  0.97374033  0.93061924  1
  Ga  Ga33  1  0.10102565  0.02625967  0.43061924  1
  Ga  Ga34  1  0.10102565  0.02625967  0.06938076  1
  Ga  Ga35  1  0.89897435  0.97374033  0.56938076  1
  Ga  Ga36  1  0.67941044  0.06011209  0.75000000  1
  Ga  Ga37  1  0.32058956  0.93988791  0.25000000  1
  Ga  Ga38  1  0.67546062  0.77800328  0.75000000  1
  Ga  Ga39  1  0.32453938  0.22199672  0.25000000  1
  Pt  Pt40  1  0.68765714  0.67455553  0.90434592  1
  Pt  Pt41  1  0.31234286  0.32544447  0.40434592  1
  Pt  Pt42  1  0.31234286  0.32544447  0.09565408  1
  Pt  Pt43  1  0.68765714  0.67455553  0.59565408  1
  Pt  Pt44  1  0.69225632  0.17143193  0.90499029  1
  Pt  Pt45  1  0.30774368  0.82856807  0.40499029  1
  Pt  Pt46  1  0.30774368  0.82856807  0.09500971  1
  Pt  Pt47  1  0.69225632  0.17143193  0.59500971  1
