# generated using pymatgen
data_Ag2Te4MoO12
_symmetry_space_group_name_H-M   'P 1'
_cell_length_a   5.92207009
_cell_length_b   9.40490084
_cell_length_c   11.58711523
_cell_angle_alpha   103.84002969
_cell_angle_beta   90.00000000
_cell_angle_gamma   108.35113272
_symmetry_Int_Tables_number   1
_chemical_formula_structural   Ag2Te4MoO12
_chemical_formula_sum   'Ag4 Te8 Mo2 O24'
_cell_volume   592.76860381
_cell_formula_units_Z   2
loop_
 _symmetry_equiv_pos_site_id
 _symmetry_equiv_pos_as_xyz
  1  'x, y, z'
loop_
 _atom_site_type_symbol
 _atom_site_label
 _atom_site_symmetry_multiplicity
 _atom_site_fract_x
 _atom_site_fract_y
 _atom_site_fract_z
 _atom_site_occupancy
  Ag  Ag0  1  0.93409395  0.42873536  0.27031359  1
  Ag  Ag1  1  0.50535860  0.57126464  0.22968641  1
  Ag  Ag2  1  0.06590605  0.57126464  0.72968641  1
  Ag  Ag3  1  0.49464140  0.42873536  0.77031359  1
  Te  Te4  1  0.01450693  0.68839842  0.06948142  1
  Te  Te5  1  0.32610851  0.31160158  0.43051858  1
  Te  Te6  1  0.98549307  0.31160158  0.93051858  1
  Te  Te7  1  0.67389149  0.68839842  0.56948142  1
  Te  Te8  1  0.62852368  0.81545539  0.90441068  1
  Te  Te9  1  0.81306829  0.18454461  0.59558932  1
  Te  Te10  1  0.37147632  0.18454461  0.09558932  1
  Te  Te11  1  0.18693171  0.81545539  0.40441068  1
  Mo  Mo12  1  0.15804796  0.00000000  0.75000000  1
  Mo  Mo13  1  0.84195204  1.00000000  0.25000000  1
  O  O14  1  0.86226942  0.98038086  0.86574563  1
  O  O15  1  0.88188856  0.01961914  0.63425437  1
  O  O16  1  0.13773058  0.01961914  0.13425437  1
  O  O17  1  0.11811144  0.98038086  0.36574563  1
  O  O18  1  0.79134749  0.78045013  0.16595877  1
  O  O19  1  0.01089735  0.21954987  0.33404123  1
  O  O20  1  0.20865251  0.21954987  0.83404123  1
  O  O21  1  0.98910265  0.78045013  0.66595877  1
  O  O22  1  0.81301468  0.48932095  0.07475638  1
  O  O23  1  0.32369373  0.51067905  0.42524362  1
  O  O24  1  0.18698532  0.51067905  0.92524362  1
  O  O25  1  0.67630627  0.48932095  0.57475638  1
  O  O26  1  0.32359469  0.95693804  0.85676795  1
  O  O27  1  0.36665666  0.04306196  0.64323205  1
  O  O28  1  0.67640531  0.04306196  0.14323205  1
  O  O29  1  0.63334334  0.95693804  0.35676795  1
  O  O30  1  0.83030903  0.68712084  0.91700684  1
  O  O31  1  0.14318820  0.31287916  0.58299316  1
  O  O32  1  0.16969097  0.31287916  0.08299316  1
  O  O33  1  0.85681180  0.68712084  0.41700684  1
  O  O34  1  0.50176611  0.68887661  0.74754585  1
  O  O35  1  0.81288950  0.31112339  0.75245415  1
  O  O36  1  0.49823389  0.31112339  0.25245415  1
  O  O37  1  0.18711050  0.68887661  0.24754585  1
