# generated using pymatgen
data_Mg2VWO6
_symmetry_space_group_name_H-M   'P 1'
_cell_length_a   5.21128967
_cell_length_b   5.37400894
_cell_length_c   7.66235308
_cell_angle_alpha   90.00000000
_cell_angle_beta   90.58650120
_cell_angle_gamma   90.00000000
_symmetry_Int_Tables_number   1
_chemical_formula_structural   Mg2VWO6
_chemical_formula_sum   'Mg4 V2 W2 O12'
_cell_volume   214.57691921
_cell_formula_units_Z   2
loop_
 _symmetry_equiv_pos_site_id
 _symmetry_equiv_pos_as_xyz
  1  'x, y, z'
loop_
 _atom_site_type_symbol
 _atom_site_label
 _atom_site_symmetry_multiplicity
 _atom_site_fract_x
 _atom_site_fract_y
 _atom_site_fract_z
 _atom_site_occupancy
  Mg  Mg0  1  0.99777463  0.04635192  0.25199627  1
  Mg  Mg1  1  0.50222537  0.54635292  0.24800373  1
  Mg  Mg2  1  0.00222637  0.95364908  0.74800373  1
  Mg  Mg3  1  0.49777363  0.45364808  0.75199627  1
  V  V4  1  0.50000000  0.00000000  0.00000000  1
  V  V5  1  0.00000100  0.49999900  0.50000000  1
  W  W6  1  0.50000000  0.00000000  0.49999900  1
  W  W7  1  0.00000000  0.49999900  0.00000000  1
  O  O8  1  0.67845473  0.31728094  0.42917758  1
  O  O9  1  0.82154527  0.81728194  0.07082242  1
  O  O10  1  0.32154427  0.68271906  0.57082242  1
  O  O11  1  0.17845573  0.18271806  0.92917758  1
  O  O12  1  0.18025162  0.17705123  0.56577068  1
  O  O13  1  0.31974838  0.67705023  0.93422932  1
  O  O14  1  0.81974938  0.82294877  0.43422932  1
  O  O15  1  0.68025062  0.32294977  0.06577068  1
  O  O16  1  0.12732504  0.42274172  0.24614316  1
  O  O17  1  0.37267596  0.92274272  0.25385584  1
  O  O18  1  0.62732504  0.07725728  0.74614416  1
  O  O19  1  0.87267596  0.57725828  0.75385684  1
