# generated using pymatgen
data_LaTmS3
_symmetry_space_group_name_H-M   'P 1'
_cell_length_a   4.00190368
_cell_length_b   11.06630848
_cell_length_c   21.62965075
_cell_angle_alpha   101.47795211
_cell_angle_beta   90.00000000
_cell_angle_gamma   90.00000000
_symmetry_Int_Tables_number   1
_chemical_formula_structural   LaTmS3
_chemical_formula_sum   'La8 Tm8 S24'
_cell_volume   938.74056490
_cell_formula_units_Z   8
loop_
 _symmetry_equiv_pos_site_id
 _symmetry_equiv_pos_as_xyz
  1  'x, y, z'
loop_
 _atom_site_type_symbol
 _atom_site_label
 _atom_site_symmetry_multiplicity
 _atom_site_fract_x
 _atom_site_fract_y
 _atom_site_fract_z
 _atom_site_occupancy
  La  La0  1  0.25000000  0.69813315  0.76485796  1
  La  La1  1  0.75000000  0.30186685  0.23514204  1
  La  La2  1  0.25000000  0.09238353  0.86396857  1
  La  La3  1  0.75000000  0.90761647  0.13603143  1
  La  La4  1  0.25000000  0.30869747  0.73206377  1
  La  La5  1  0.75000000  0.69130253  0.26793623  1
  La  La6  1  0.25000000  0.20016671  0.53540642  1
  La  La7  1  0.75000000  0.79983329  0.46459358  1
  Tm  Tm8  1  0.25000000  0.44778702  0.41728843  1
  Tm  Tm9  1  0.75000000  0.55221298  0.58271157  1
  Tm  Tm10  1  0.25000000  0.02897002  0.35101438  1
  Tm  Tm11  1  0.75000000  0.97102998  0.64898562  1
  Tm  Tm12  1  0.25000000  0.18008239  0.04704488  1
  Tm  Tm13  1  0.75000000  0.81991761  0.95295512  1
  Tm  Tm14  1  0.25000000  0.52265616  0.08768288  1
  Tm  Tm15  1  0.75000000  0.47734384  0.91231712  1
  S  S16  1  0.25000000  0.91373293  0.03554656  1
  S  S17  1  0.75000000  0.08626707  0.96445344  1
  S  S18  1  0.25000000  0.79578059  0.36620164  1
  S  S19  1  0.75000000  0.20421941  0.63379836  1
  S  S20  1  0.25000000  0.25403209  0.32575375  1
  S  S21  1  0.75000000  0.74596791  0.67424625  1
  S  S22  1  0.25000000  0.36550569  0.96382143  1
  S  S23  1  0.75000000  0.63449431  0.03617857  1
  S  S24  1  0.25000000  0.49353228  0.22094477  1
  S  S25  1  0.75000000  0.50646772  0.77905523  1
  S  S26  1  0.25000000  0.74709121  0.17381008  1
  S  S27  1  0.75000000  0.25290879  0.82618992  1
  S  S28  1  0.25000000  0.12453491  0.16330251  1
  S  S29  1  0.75000000  0.87546509  0.83669749  1
  S  S30  1  0.25000000  0.64282468  0.51453255  1
  S  S31  1  0.75000000  0.35717532  0.48546745  1
  S  S32  1  0.25000000  0.94195179  0.55685329  1
  S  S33  1  0.75000000  0.05804821  0.44314671  1
  S  S34  1  0.25000000  0.03573054  0.72813062  1
  S  S35  1  0.75000000  0.96426946  0.27186938  1
  S  S36  1  0.25000000  0.45407328  0.63296676  1
  S  S37  1  0.75000000  0.54592672  0.36703324  1
  S  S38  1  0.25000000  0.65785239  0.90142958  1
  S  S39  1  0.75000000  0.34214761  0.09857042  1
