# generated using pymatgen
data_Ba4NaB10Cl(O9F)2
_symmetry_space_group_name_H-M   'P 1'
_cell_length_a   6.82359420
_cell_length_b   11.57749585
_cell_length_c   11.58504334
_cell_angle_alpha   90.00000000
_cell_angle_beta   91.93385742
_cell_angle_gamma   90.00000000
_symmetry_Int_Tables_number   1
_chemical_formula_structural   Ba4NaB10Cl(O9F)2
_chemical_formula_sum   'Ba8 Na2 B20 Cl2 O36 F4'
_cell_volume   914.69870707
_cell_formula_units_Z   2
loop_
 _symmetry_equiv_pos_site_id
 _symmetry_equiv_pos_as_xyz
  1  'x, y, z'
loop_
 _atom_site_type_symbol
 _atom_site_label
 _atom_site_symmetry_multiplicity
 _atom_site_fract_x
 _atom_site_fract_y
 _atom_site_fract_z
 _atom_site_occupancy
  Ba  Ba0  1  0.32396704  0.29575452  0.96829814  1
  Ba  Ba1  1  0.82396704  0.20424548  0.46829814  1
  Ba  Ba2  1  0.67603296  0.70424548  0.03170186  1
  Ba  Ba3  1  0.17603296  0.79575452  0.53170186  1
  Ba  Ba4  1  0.49846323  0.03031006  0.19617769  1
  Ba  Ba5  1  0.99846323  0.46968994  0.69617769  1
  Ba  Ba6  1  0.50153677  0.96968994  0.80382231  1
  Ba  Ba7  1  0.00153677  0.53031006  0.30382231  1
  Na  Na8  1  0.00000000  -0.00000000  -0.00000000  1
  Na  Na9  1  0.50000000  0.50000000  0.50000000  1
  B  B10  1  0.03378731  0.21819697  0.19750238  1
  B  B11  1  0.53378731  0.28180303  0.69750238  1
  B  B12  1  0.96621269  0.78180303  0.80249762  1
  B  B13  1  0.46621269  0.71819697  0.30249762  1
  B  B14  1  0.19426747  0.77281289  0.97588567  1
  B  B15  1  0.69426747  0.72718711  0.47588567  1
  B  B16  1  0.80573253  0.22718711  0.02411433  1
  B  B17  1  0.30573253  0.27281289  0.52411433  1
  B  B18  1  0.35441372  0.29866581  0.30269499  1
  B  B19  1  0.85441372  0.20133419  0.80269499  1
  B  B20  1  0.64558628  0.70133419  0.69730501  1
  B  B21  1  0.14558628  0.79866581  0.19730501  1
  B  B22  1  0.00072139  0.99071631  0.25717681  1
  B  B23  1  0.50072139  0.50928369  0.75717681  1
  B  B24  1  0.99927861  0.00928369  0.74282319  1
  B  B25  1  0.49927861  0.49071631  0.24282319  1
  B  B26  1  0.19090817  0.19179009  0.71045093  1
  B  B27  1  0.69090817  0.30820991  0.21045093  1
  B  B28  1  0.80909183  0.80820991  0.28954907  1
  B  B29  1  0.30909183  0.69179009  0.78954907  1
  Cl  Cl30  1  0.00000000  0.50000000  -0.00000000  1
  Cl  Cl31  1  0.50000000  -0.00000000  0.50000000  1
  O  O32  1  0.06044753  0.24116109  0.79823544  1
  O  O33  1  0.56044753  0.25883891  0.29823544  1
  O  O34  1  0.93955247  0.75883891  0.20176456  1
  O  O35  1  0.43955247  0.74116109  0.70176456  1
  O  O36  1  0.60075882  0.80329216  0.25363628  1
  O  O37  1  0.10075882  0.69670784  0.75363628  1
  O  O38  1  0.39924118  0.19670784  0.74636372  1
  O  O39  1  0.89924118  0.30329216  0.24636372  1
  O  O40  1  0.01093057  0.79987440  0.93096660  1
  O  O41  1  0.51093057  0.70012560  0.43096660  1
  O  O42  1  0.98906943  0.20012560  0.06903340  1
  O  O43  1  0.48906943  0.29987440  0.56903340  1
  O  O44  1  0.65365025  0.24383085  0.09967259  1
  O  O45  1  0.15365025  0.25616915  0.59967259  1
  O  O46  1  0.34634975  0.75616915  0.90032741  1
  O  O47  1  0.84634975  0.74383085  0.40032741  1
  O  O48  1  0.14331546  0.93174290  0.19967754  1
  O  O49  1  0.64331546  0.56825710  0.69967754  1
  O  O50  1  0.85668454  0.06825710  0.80032246  1
  O  O51  1  0.35668454  0.43174290  0.30032246  1
  O  O52  1  0.24066213  0.25070934  0.20412558  1
  O  O53  1  0.74066213  0.24929066  0.70412558  1
  O  O54  1  0.75933787  0.74929066  0.79587442  1
  O  O55  1  0.25933787  0.75070934  0.29587442  1
  O  O56  1  0.48886744  0.39184700  0.76131924  1
  O  O57  1  0.98886744  0.10815300  0.26131924  1
  O  O58  1  0.51113256  0.60815300  0.23868076  1
  O  O59  1  0.01113256  0.89184700  0.73868076  1
  O  O60  1  0.85531989  0.93201838  0.31212092  1
  O  O61  1  0.35531989  0.56798162  0.81212092  1
  O  O62  1  0.14468011  0.06798162  0.68787908  1
  O  O63  1  0.64468011  0.43201838  0.18787908  1
  O  O64  1  0.75519744  0.23080533  0.90955003  1
  O  O65  1  0.25519744  0.26919467  0.40955003  1
  O  O66  1  0.24480256  0.76919467  0.09044997  1
  O  O67  1  0.74480256  0.73080533  0.59044997  1
  F  F68  1  0.68360839  0.93986800  0.02176334  1
  F  F69  1  0.18360839  0.56013200  0.52176334  1
  F  F70  1  0.31639161  0.06013200  0.97823666  1
  F  F71  1  0.81639161  0.43986800  0.47823666  1
