# generated using pymatgen
data_Ba5V4(ClO7)2
_symmetry_space_group_name_H-M   'P 1'
_cell_length_a   10.23295054
_cell_length_b   11.80302255
_cell_length_c   15.39929972
_cell_angle_alpha   90.00000000
_cell_angle_beta   90.00000000
_cell_angle_gamma   90.00000000
_symmetry_Int_Tables_number   1
_chemical_formula_structural   Ba5V4(ClO7)2
_chemical_formula_sum   'Ba20 V16 Cl8 O56'
_cell_volume   1859.92350840
_cell_formula_units_Z   4
loop_
 _symmetry_equiv_pos_site_id
 _symmetry_equiv_pos_as_xyz
  1  'x, y, z'
loop_
 _atom_site_type_symbol
 _atom_site_label
 _atom_site_symmetry_multiplicity
 _atom_site_fract_x
 _atom_site_fract_y
 _atom_site_fract_z
 _atom_site_occupancy
  Ba  Ba0  1  0.82058690  0.52578206  0.04170790  1
  Ba  Ba1  1  0.82058690  0.97421794  0.04170790  1
  Ba  Ba2  1  0.82058690  0.52578206  0.45829210  1
  Ba  Ba3  1  0.82058690  0.97421794  0.45829210  1
  Ba  Ba4  1  0.17941310  0.47421794  0.95829210  1
  Ba  Ba5  1  0.17941310  0.02578206  0.95829210  1
  Ba  Ba6  1  0.17941310  0.47421794  0.54170790  1
  Ba  Ba7  1  0.17941310  0.02578206  0.54170790  1
  Ba  Ba8  1  0.63491593  0.25000000  0.54422617  1
  Ba  Ba9  1  0.63491593  0.25000000  0.95577383  1
  Ba  Ba10  1  0.36508407  0.75000000  0.45577383  1
  Ba  Ba11  1  0.36508407  0.75000000  0.04422617  1
  Ba  Ba12  1  0.35217238  0.75000000  0.75000000  1
  Ba  Ba13  1  0.64782762  0.25000000  0.25000000  1
  Ba  Ba14  1  0.83264496  0.51424041  0.75000000  1
  Ba  Ba15  1  0.83264496  0.98575959  0.75000000  1
  Ba  Ba16  1  0.16735504  0.48575959  0.25000000  1
  Ba  Ba17  1  0.16735504  0.01424041  0.25000000  1
  Ba  Ba18  1  0.32544547  0.25000000  0.75000000  1
  Ba  Ba19  1  0.67455453  0.75000000  0.25000000  1
  V  V20  1  0.01707495  0.75000000  0.63141769  1
  V  V21  1  0.01707495  0.75000000  0.86858231  1
  V  V22  1  0.98292505  0.25000000  0.36858231  1
  V  V23  1  0.98292505  0.25000000  0.13141769  1
  V  V24  1  0.50156575  0.50266622  0.63349456  1
  V  V25  1  0.50156575  0.99733378  0.63349456  1
  V  V26  1  0.50156575  0.50266622  0.86650544  1
  V  V27  1  0.50156575  0.99733378  0.86650544  1
  V  V28  1  0.49843425  0.49733378  0.36650544  1
  V  V29  1  0.49843425  0.00266622  0.36650544  1
  V  V30  1  0.49843425  0.49733378  0.13349456  1
  V  V31  1  0.49843425  0.00266622  0.13349456  1
  V  V32  1  0.01646289  0.75000000  0.13259762  1
  V  V33  1  0.01646289  0.75000000  0.36740238  1
  V  V34  1  0.98353711  0.25000000  0.86740238  1
  V  V35  1  0.98353711  0.25000000  0.63259762  1
  Cl  Cl36  1  0.65575617  0.25000000  0.75000000  1
  Cl  Cl37  1  0.34424383  0.75000000  0.25000000  1
  Cl  Cl38  1  0.67890982  0.75000000  0.75000000  1
  Cl  Cl39  1  0.32109018  0.25000000  0.25000000  1
  Cl  Cl40  1  0.16699934  0.00415663  0.75000000  1
  Cl  Cl41  1  0.16699934  0.49584337  0.75000000  1
  Cl  Cl42  1  0.83300066  0.99584337  0.25000000  1
  Cl  Cl43  1  0.83300066  0.50415663  0.25000000  1
  O  O44  1  0.01186372  0.75000000  0.75000000  1
  O  O45  1  0.98813628  0.25000000  0.25000000  1
  O  O46  1  0.94432195  0.62616528  0.59601086  1
  O  O47  1  0.94432195  0.87383472  0.59601086  1
  O  O48  1  0.94432195  0.62616528  0.90398914  1
  O  O49  1  0.94432195  0.87383472  0.90398914  1
  O  O50  1  0.05567805  0.37383472  0.40398914  1
  O  O51  1  0.05567805  0.12616528  0.40398914  1
  O  O52  1  0.05567805  0.37383472  0.09601086  1
  O  O53  1  0.05567805  0.12616528  0.09601086  1
  O  O54  1  0.17686018  0.75000000  0.59847278  1
  O  O55  1  0.17686018  0.75000000  0.90152722  1
  O  O56  1  0.82313982  0.25000000  0.40152722  1
  O  O57  1  0.82313982  0.25000000  0.09847278  1
  O  O58  1  0.65857351  0.48918323  0.59496867  1
  O  O59  1  0.65857351  0.01081677  0.59496867  1
  O  O60  1  0.65857351  0.48918323  0.90503133  1
  O  O61  1  0.65857351  0.01081677  0.90503133  1
  O  O62  1  0.34142649  0.51081677  0.40503133  1
  O  O63  1  0.34142649  0.98918323  0.40503133  1
  O  O64  1  0.34142649  0.51081677  0.09496867  1
  O  O65  1  0.34142649  0.98918323  0.09496867  1
  O  O66  1  0.41842359  0.38016039  0.60927056  1
  O  O67  1  0.41842359  0.11983961  0.60927056  1
  O  O68  1  0.41842359  0.38016039  0.89072944  1
  O  O69  1  0.41842359  0.11983961  0.89072944  1
  O  O70  1  0.58157641  0.61983961  0.39072944  1
  O  O71  1  0.58157641  0.88016039  0.39072944  1
  O  O72  1  0.58157641  0.61983961  0.10927056  1
  O  O73  1  0.58157641  0.88016039  0.10927056  1
  O  O74  1  0.41284431  0.61297606  0.59191822  1
  O  O75  1  0.41284431  0.88702394  0.59191822  1
  O  O76  1  0.41284431  0.61297606  0.90808178  1
  O  O77  1  0.41284431  0.88702394  0.90808178  1
  O  O78  1  0.58715569  0.38702394  0.40808178  1
  O  O79  1  0.58715569  0.11297606  0.40808178  1
  O  O80  1  0.58715569  0.38702394  0.09191822  1
  O  O81  1  0.58715569  0.11297606  0.09191822  1
  O  O82  1  0.50774770  0.52313637  0.75000000  1
  O  O83  1  0.50774770  0.97686363  0.75000000  1
  O  O84  1  0.49225230  0.47686363  0.25000000  1
  O  O85  1  0.49225230  0.02313637  0.25000000  1
  O  O86  1  0.08835998  0.62951924  0.09226541  1
  O  O87  1  0.08835998  0.87048076  0.09226541  1
  O  O88  1  0.08835998  0.62951924  0.40773459  1
  O  O89  1  0.08835998  0.87048076  0.40773459  1
  O  O90  1  0.91164002  0.37048076  0.90773459  1
  O  O91  1  0.91164002  0.12951924  0.90773459  1
  O  O92  1  0.91164002  0.37048076  0.59226541  1
  O  O93  1  0.91164002  0.12951924  0.59226541  1
  O  O94  1  0.85295341  0.75000000  0.10524961  1
  O  O95  1  0.85295341  0.75000000  0.39475039  1
  O  O96  1  0.14704659  0.25000000  0.89475039  1
  O  O97  1  0.14704659  0.25000000  0.60524961  1
  O  O98  1  0.03025429  0.75000000  0.25000000  1
  O  O99  1  0.96974571  0.25000000  0.75000000  1
