# generated using pymatgen
data_Mn7(PbO5)3
_symmetry_space_group_name_H-M   'P 1'
_cell_length_a   10.17535687
_cell_length_b   10.17535687
_cell_length_c   13.82721809
_cell_angle_alpha   90.00000000
_cell_angle_beta   90.00000000
_cell_angle_gamma   118.43293372
_symmetry_Int_Tables_number   1
_chemical_formula_structural   Mn7(PbO5)3
_chemical_formula_sum   'Mn28 Pb12 O60'
_cell_volume   1258.94931504
_cell_formula_units_Z   4
loop_
 _symmetry_equiv_pos_site_id
 _symmetry_equiv_pos_as_xyz
  1  'x, y, z'
loop_
 _atom_site_type_symbol
 _atom_site_label
 _atom_site_symmetry_multiplicity
 _atom_site_fract_x
 _atom_site_fract_y
 _atom_site_fract_z
 _atom_site_occupancy
  Mn  Mn0  1  0.16553709  0.83066107  0.50422379  1
  Mn  Mn1  1  0.83066107  0.16553709  0.50422379  1
  Mn  Mn2  1  0.83446291  0.16933893  0.00422379  1
  Mn  Mn3  1  0.16933893  0.83446291  0.00422379  1
  Mn  Mn4  1  0.83478498  0.66641889  0.50719638  1
  Mn  Mn5  1  0.66641889  0.83478498  0.50719638  1
  Mn  Mn6  1  0.16521502  0.33358111  0.00719638  1
  Mn  Mn7  1  0.33358111  0.16521502  0.00719638  1
  Mn  Mn8  1  0.67870879  0.34193247  0.65543582  1
  Mn  Mn9  1  0.34193247  0.67870879  0.65543582  1
  Mn  Mn10  1  0.32129121  0.65806753  0.15543582  1
  Mn  Mn11  1  0.65806753  0.32129121  0.15543582  1
  Mn  Mn12  1  0.00197464  0.50027708  0.50529182  1
  Mn  Mn13  1  0.50027708  0.00197464  0.50529182  1
  Mn  Mn14  1  0.99802536  0.49972292  0.00529182  1
  Mn  Mn15  1  0.49972292  0.99802536  0.00529182  1
  Mn  Mn16  1  0.99709163  0.99709163  0.49965331  1
  Mn  Mn17  1  0.00290837  0.00290837  -0.00034669  1
  Mn  Mn18  1  0.50858674  0.50858674  0.51257150  1
  Mn  Mn19  1  0.49141326  0.49141326  0.01257150  1
  Mn  Mn20  1  0.82976518  0.66123895  0.00492940  1
  Mn  Mn21  1  0.66123895  0.82976518  0.00492940  1
  Mn  Mn22  1  0.17023482  0.33876105  0.50492940  1
  Mn  Mn23  1  0.33876105  0.17023482  0.50492940  1
  Mn  Mn24  1  0.67170460  0.33418271  0.86027306  1
  Mn  Mn25  1  0.33418271  0.67170460  0.86027306  1
  Mn  Mn26  1  0.32829540  0.66581729  0.36027306  1
  Mn  Mn27  1  0.66581729  0.32829540  0.36027306  1
  Pb  Pb28  1  0.00635572  0.61634116  0.75530848  1
  Pb  Pb29  1  0.61634116  0.00635572  0.75530848  1
  Pb  Pb30  1  0.99364428  0.38365884  0.25530848  1
  Pb  Pb31  1  0.38365884  0.99364428  0.25530848  1
  Pb  Pb32  1  0.99219662  0.72821705  0.25623475  1
  Pb  Pb33  1  0.72821705  0.99219662  0.25623475  1
  Pb  Pb34  1  0.00780338  0.27178295  0.75623475  1
  Pb  Pb35  1  0.27178295  0.00780338  0.75623475  1
  Pb  Pb36  1  0.72811799  0.72811799  0.76672748  1
  Pb  Pb37  1  0.27188201  0.27188201  0.26672748  1
  Pb  Pb38  1  0.60656693  0.60656693  0.24654272  1
  Pb  Pb39  1  0.39343307  0.39343307  0.74654272  1
  O  O40  1  0.16854771  0.67701691  0.58696887  1
  O  O41  1  0.67701691  0.16854771  0.58696887  1
  O  O42  1  0.83145229  0.32298309  0.08696887  1
  O  O43  1  0.32298309  0.83145229  0.08696887  1
  O  O44  1  0.83678087  0.35507692  0.74689447  1
  O  O45  1  0.35507692  0.83678087  0.74689447  1
  O  O46  1  0.16321913  0.64492308  0.24689447  1
  O  O47  1  0.64492308  0.16321913  0.24689447  1
  O  O48  1  0.67064442  0.51352728  0.43601701  1
  O  O49  1  0.51352728  0.67064442  0.43601701  1
  O  O50  1  0.32935558  0.48647272  0.93601701  1
  O  O51  1  0.48647272  0.32935558  0.93601701  1
  O  O52  1  0.16855691  0.68265983  0.92276052  1
  O  O53  1  0.68265983  0.16855691  0.92276052  1
  O  O54  1  0.83144309  0.31734017  0.42276052  1
  O  O55  1  0.31734017  0.83144309  0.42276052  1
  O  O56  1  0.83003535  0.83003535  0.43400481  1
  O  O57  1  0.16996465  0.16996465  0.93400481  1
  O  O58  1  0.65325979  0.65325979  0.93728518  1
  O  O59  1  0.34674021  0.34674021  0.43728518  1
  O  O60  1  0.83802496  0.83802496  0.07002052  1
  O  O61  1  0.16197504  0.16197504  0.57002052  1
  O  O62  1  0.67270573  0.67270573  0.58287317  1
  O  O63  1  0.32729427  0.32729427  0.08287317  1
  O  O64  1  0.15519298  0.48969509  0.42452425  1
  O  O65  1  0.48969509  0.15519298  0.42452425  1
  O  O66  1  0.84480702  0.51030491  0.92452425  1
  O  O67  1  0.51030491  0.84480702  0.92452425  1
  O  O68  1  -0.00007534  0.83529624  0.57698895  1
  O  O69  1  0.83529624  -0.00007534  0.57698895  1
  O  O70  1  0.00007534  0.16470376  0.07698895  1
  O  O71  1  0.16470376  0.00007534  0.07698895  1
  O  O72  1  0.01917724  0.85323034  0.92562238  1
  O  O73  1  0.85323034  0.01917724  0.92562238  1
  O  O74  1  0.98082276  0.14676966  0.42562238  1
  O  O75  1  0.14676966  0.98082276  0.42562238  1
  O  O76  1  0.65328789  0.49587326  0.09402817  1
  O  O77  1  0.49587326  0.65328789  0.09402817  1
  O  O78  1  0.34671211  0.50412674  0.59402817  1
  O  O79  1  0.50412674  0.34671211  0.59402817  1
  O  O80  1  0.65666776  0.47570369  0.76145562  1
  O  O81  1  0.47570369  0.65666776  0.76145562  1
  O  O82  1  0.34333224  0.52429631  0.26145562  1
  O  O83  1  0.52429631  0.34333224  0.26145562  1
  O  O84  1  0.14620101  0.47910863  0.08344854  1
  O  O85  1  0.47910863  0.14620101  0.08344854  1
  O  O86  1  0.85379899  0.52089137  0.58344854  1
  O  O87  1  0.52089137  0.85379899  0.58344854  1
  O  O88  1  0.82341619  0.47371953  0.26622708  1
  O  O89  1  0.47371953  0.82341619  0.26622708  1
  O  O90  1  0.17658381  0.52628047  0.76622708  1
  O  O91  1  0.52628047  0.17658381  0.76622708  1
  O  O92  1  0.99904661  0.67004711  0.43318052  1
  O  O93  1  0.67004711  0.99904661  0.43318052  1
  O  O94  1  0.00095339  0.32995289  0.93318052  1
  O  O95  1  0.32995289  0.00095339  0.93318052  1
  O  O96  1  0.00422865  0.67587544  0.07420079  1
  O  O97  1  0.67587544  0.00422865  0.07420079  1
  O  O98  1  0.99577135  0.32412456  0.57420079  1
  O  O99  1  0.32412456  0.99577135  0.57420079  1
