# generated using pymatgen
data_In2Bi3Se7I
_symmetry_space_group_name_H-M   'P 1'
_cell_length_a   4.20490196
_cell_length_b   13.71167944
_cell_length_c   27.32682061
_cell_angle_alpha   90.00000000
_cell_angle_beta   90.00000000
_cell_angle_gamma   90.00000000
_symmetry_Int_Tables_number   1
_chemical_formula_structural   In2Bi3Se7I
_chemical_formula_sum   'In8 Bi12 Se28 I4'
_cell_volume   1575.56248591
_cell_formula_units_Z   4
loop_
 _symmetry_equiv_pos_site_id
 _symmetry_equiv_pos_as_xyz
  1  'x, y, z'
loop_
 _atom_site_type_symbol
 _atom_site_label
 _atom_site_symmetry_multiplicity
 _atom_site_fract_x
 _atom_site_fract_y
 _atom_site_fract_z
 _atom_site_occupancy
  In  In0  1  0.25000000  0.91568885  0.53377395  1
  In  In1  1  0.25000000  0.58431115  0.03377395  1
  In  In2  1  0.75000000  0.08431115  0.46622605  1
  In  In3  1  0.75000000  0.41568885  0.96622605  1
  In  In4  1  0.25000000  0.95852780  0.94729890  1
  In  In5  1  0.25000000  0.54147220  0.44729890  1
  In  In6  1  0.75000000  0.04147220  0.05270110  1
  In  In7  1  0.75000000  0.45852780  0.55270110  1
  Bi  Bi8  1  0.25000000  0.07420718  0.68596074  1
  Bi  Bi9  1  0.25000000  0.42579282  0.18596074  1
  Bi  Bi10  1  0.75000000  0.92579282  0.31403926  1
  Bi  Bi11  1  0.75000000  0.57420718  0.81403926  1
  Bi  Bi12  1  0.25000000  0.44942492  0.69203776  1
  Bi  Bi13  1  0.25000000  0.05057508  0.19203776  1
  Bi  Bi14  1  0.75000000  0.55057508  0.30796224  1
  Bi  Bi15  1  0.75000000  0.94942492  0.80796224  1
  Bi  Bi16  1  0.25000000  0.29661435  0.84366340  1
  Bi  Bi17  1  0.25000000  0.20338565  0.34366340  1
  Bi  Bi18  1  0.75000000  0.70338565  0.15633660  1
  Bi  Bi19  1  0.75000000  0.79661435  0.65633660  1
  Se  Se20  1  0.25000000  0.37905776  0.50977605  1
  Se  Se21  1  0.25000000  0.12094224  0.00977605  1
  Se  Se22  1  0.75000000  0.62094224  0.49022395  1
  Se  Se23  1  0.75000000  0.87905776  0.99022395  1
  Se  Se24  1  0.25000000  0.11044010  0.52713390  1
  Se  Se25  1  0.25000000  0.38955990  0.02713390  1
  Se  Se26  1  0.75000000  0.88955990  0.47286610  1
  Se  Se27  1  0.75000000  0.61044010  0.97286610  1
  Se  Se28  1  0.25000000  0.75390696  0.58798087  1
  Se  Se29  1  0.25000000  0.74609304  0.08798087  1
  Se  Se30  1  0.75000000  0.24609304  0.41201913  1
  Se  Se31  1  0.75000000  0.25390696  0.91201913  1
  Se  Se32  1  0.25000000  0.89169284  0.73125444  1
  Se  Se33  1  0.25000000  0.60830716  0.23125444  1
  Se  Se34  1  0.75000000  0.10830716  0.26874556  1
  Se  Se35  1  0.75000000  0.39169284  0.76874556  1
  Se  Se36  1  0.25000000  0.62556801  0.74204780  1
  Se  Se37  1  0.25000000  0.87443199  0.24204780  1
  Se  Se38  1  0.75000000  0.37443199  0.25795220  1
  Se  Se39  1  0.75000000  0.12556801  0.75795220  1
  Se  Se40  1  0.25000000  0.04975077  0.86320524  1
  Se  Se41  1  0.25000000  0.45024923  0.36320524  1
  Se  Se42  1  0.75000000  0.95024923  0.13679476  1
  Se  Se43  1  0.75000000  0.54975077  0.63679476  1
  Se  Se44  1  0.25000000  0.48366254  0.87859470  1
  Se  Se45  1  0.25000000  0.01633746  0.37859470  1
  Se  Se46  1  0.75000000  0.51633746  0.12140530  1
  Se  Se47  1  0.75000000  0.98366254  0.62140530  1
  I  I48  1  0.25000000  0.76649201  0.86612190  1
  I  I49  1  0.25000000  0.73350799  0.36612190  1
  I  I50  1  0.75000000  0.23350799  0.13387810  1
  I  I51  1  0.75000000  0.26649201  0.63387810  1
