# generated using pymatgen
data_SnH7Cl3O4
_symmetry_space_group_name_H-M   'P 1'
_cell_length_a   6.57620148
_cell_length_b   9.97920756
_cell_length_c   12.84879869
_cell_angle_alpha   93.58261928
_cell_angle_beta   90.00000000
_cell_angle_gamma   90.00000000
_symmetry_Int_Tables_number   1
_chemical_formula_structural   SnH7Cl3O4
_chemical_formula_sum   'Sn4 H28 Cl12 O16'
_cell_volume   841.55815356
_cell_formula_units_Z   4
loop_
 _symmetry_equiv_pos_site_id
 _symmetry_equiv_pos_as_xyz
  1  'x, y, z'
loop_
 _atom_site_type_symbol
 _atom_site_label
 _atom_site_symmetry_multiplicity
 _atom_site_fract_x
 _atom_site_fract_y
 _atom_site_fract_z
 _atom_site_occupancy
  Sn  Sn0  1  0.96731272  0.66989186  0.99773350  1
  Sn  Sn1  1  0.53268728  0.16989186  0.49773350  1
  Sn  Sn2  1  0.03268728  0.33010814  0.00226650  1
  Sn  Sn3  1  0.46731272  0.83010814  0.50226650  1
  H  H4  1  0.29026270  0.51294249  0.91429051  1
  H  H5  1  0.20973730  0.01294249  0.41429051  1
  H  H6  1  0.70973730  0.48705751  0.08570949  1
  H  H7  1  0.79026270  0.98705751  0.58570949  1
  H  H8  1  0.95054322  0.59351491  0.78444106  1
  H  H9  1  0.54945678  0.09351491  0.28444106  1
  H  H10  1  0.04945678  0.40648509  0.21555894  1
  H  H11  1  0.45054322  0.90648509  0.71555894  1
  H  H12  1  0.72319730  0.57246609  0.83363399  1
  H  H13  1  0.77680270  0.07246609  0.33363399  1
  H  H14  1  0.27680270  0.42753391  0.16636601  1
  H  H15  1  0.22319730  0.92753391  0.66636601  1
  H  H16  1  0.50557367  0.40682969  0.79867981  1
  H  H17  1  0.99442633  0.90682969  0.29867981  1
  H  H18  1  0.49442633  0.59317031  0.20132019  1
  H  H19  1  0.00557367  0.09317031  0.70132019  1
  H  H20  1  0.40634134  0.53609691  0.75930415  1
  H  H21  1  0.09365866  0.03609691  0.25930415  1
  H  H22  1  0.59365866  0.46390309  0.24069585  1
  H  H23  1  0.90634134  0.96390309  0.74069585  1
  H  H24  1  0.11456679  0.60818716  0.62963470  1
  H  H25  1  0.38543321  0.10818716  0.12963470  1
  H  H26  1  0.88543321  0.39181284  0.37036530  1
  H  H27  1  0.61456679  0.89181284  0.87036530  1
  H  H28  1  0.10849017  0.46062103  0.66238386  1
  H  H29  1  0.39150983  0.96062103  0.16238386  1
  H  H30  1  0.89150983  0.53937897  0.33761614  1
  H  H31  1  0.60849017  0.03937897  0.83761614  1
  Cl  Cl32  1  0.10174942  0.71505029  0.17332092  1
  Cl  Cl33  1  0.39825058  0.21505029  0.67332092  1
  Cl  Cl34  1  0.89825058  0.28494971  0.82667908  1
  Cl  Cl35  1  0.60174942  0.78494971  0.32667908  1
  Cl  Cl36  1  0.65135058  0.78933654  0.03052910  1
  Cl  Cl37  1  0.84864942  0.28933654  0.53052910  1
  Cl  Cl38  1  0.34864942  0.21066346  0.96947090  1
  Cl  Cl39  1  0.15135058  0.71066346  0.46947090  1
  Cl  Cl40  1  0.15515297  0.84408638  0.92327656  1
  Cl  Cl41  1  0.34484703  0.34408638  0.42327656  1
  Cl  Cl42  1  0.84484703  0.15591362  0.07672344  1
  Cl  Cl43  1  0.65515297  0.65591362  0.57672344  1
  O  O44  1  0.17929245  0.51235219  0.96742604  1
  O  O45  1  0.32070755  0.01235219  0.46742604  1
  O  O46  1  0.82070755  0.48764781  0.03257396  1
  O  O47  1  0.67929245  0.98764781  0.53257396  1
  O  O48  1  0.85125157  0.62704020  0.83995620  1
  O  O49  1  0.64874843  0.12704020  0.33995620  1
  O  O50  1  0.14874843  0.37295980  0.16004380  1
  O  O51  1  0.35125157  0.87295980  0.66004380  1
  O  O52  1  0.48441716  0.50267319  0.81790682  1
  O  O53  1  0.01558284  0.00267319  0.31790682  1
  O  O54  1  0.51558284  0.49732681  0.18209318  1
  O  O55  1  0.98441716  0.99732681  0.68209318  1
  O  O56  1  0.12501174  0.55344618  0.69057968  1
  O  O57  1  0.37498826  0.05344618  0.19057968  1
  O  O58  1  0.87498826  0.44655382  0.30942032  1
  O  O59  1  0.62501174  0.94655382  0.80942032  1
