# generated using pymatgen
data_Ag7AsSe6
_symmetry_space_group_name_H-M   'P 1'
_cell_length_a   11.05144563
_cell_length_b   11.05144563
_cell_length_c   11.05144563
_cell_angle_alpha   90.00000000
_cell_angle_beta   90.00000000
_cell_angle_gamma   90.00000000
_symmetry_Int_Tables_number   1
_chemical_formula_structural   Ag7AsSe6
_chemical_formula_sum   'Ag28 As4 Se24'
_cell_volume   1349.76223939
_cell_formula_units_Z   4
loop_
 _symmetry_equiv_pos_site_id
 _symmetry_equiv_pos_as_xyz
  1  'x, y, z'
loop_
 _atom_site_type_symbol
 _atom_site_label
 _atom_site_symmetry_multiplicity
 _atom_site_fract_x
 _atom_site_fract_y
 _atom_site_fract_z
 _atom_site_occupancy
  Ag  Ag0  1  0.22703440  0.92736568  0.89645343  1
  Ag  Ag1  1  0.10354657  0.72703440  0.57263432  1
  Ag  Ag2  1  0.42736568  0.60354657  0.77296560  1
  Ag  Ag3  1  0.72703440  0.57263432  0.10354657  1
  Ag  Ag4  1  0.60354657  0.77296560  0.42736568  1
  Ag  Ag5  1  0.92736568  0.89645343  0.22703440  1
  Ag  Ag6  1  0.77296560  0.42736568  0.60354657  1
  Ag  Ag7  1  0.89645343  0.22703440  0.92736568  1
  Ag  Ag8  1  0.57263432  0.10354657  0.72703440  1
  Ag  Ag9  1  0.27296560  0.07263432  0.39645343  1
  Ag  Ag10  1  0.39645343  0.27296560  0.07263432  1
  Ag  Ag11  1  0.07263432  0.39645343  0.27296560  1
  Ag  Ag12  1  0.01041789  0.77586863  0.98215756  1
  Ag  Ag13  1  0.01784244  0.51041789  0.72413137  1
  Ag  Ag14  1  0.27586863  0.51784244  0.98958211  1
  Ag  Ag15  1  0.51041789  0.72413137  0.01784244  1
  Ag  Ag16  1  0.51784244  0.98958211  0.27586863  1
  Ag  Ag17  1  0.77586863  0.98215756  0.01041789  1
  Ag  Ag18  1  0.98958211  0.27586863  0.51784244  1
  Ag  Ag19  1  0.98215756  0.01041789  0.77586863  1
  Ag  Ag20  1  0.72413137  0.01784244  0.51041789  1
  Ag  Ag21  1  0.48958211  0.22413137  0.48215756  1
  Ag  Ag22  1  0.48215756  0.48958211  0.22413137  1
  Ag  Ag23  1  0.22413137  0.48215756  0.48958211  1
  Ag  Ag24  1  0.34865745  0.84865745  0.65134255  1
  Ag  Ag25  1  0.84865745  0.65134255  0.34865745  1
  Ag  Ag26  1  0.65134255  0.34865745  0.84865745  1
  Ag  Ag27  1  0.15134255  0.15134255  0.15134255  1
  As  As28  1  0.75129592  0.25129592  0.24870408  1
  As  As29  1  0.25129592  0.24870408  0.75129592  1
  As  As30  1  0.24870408  0.75129592  0.25129592  1
  As  As31  1  0.74870408  0.74870408  0.74870408  1
  Se  Se32  1  0.87622447  0.37622447  0.12377553  1
  Se  Se33  1  0.37622447  0.12377553  0.87622447  1
  Se  Se34  1  0.12377553  0.87622447  0.37622447  1
  Se  Se35  1  0.62377553  0.62377553  0.62377553  1
  Se  Se36  1  0.36226970  0.87926490  0.12121948  1
  Se  Se37  1  0.87878052  0.86226970  0.62073510  1
  Se  Se38  1  0.37926490  0.37878052  0.63773030  1
  Se  Se39  1  0.86226970  0.62073510  0.87878052  1
  Se  Se40  1  0.37878052  0.63773030  0.37926490  1
  Se  Se41  1  0.87926490  0.12121948  0.36226970  1
  Se  Se42  1  0.63773030  0.37926490  0.37878052  1
  Se  Se43  1  0.12121948  0.36226970  0.87926490  1
  Se  Se44  1  0.62073510  0.87878052  0.86226970  1
  Se  Se45  1  0.13773030  0.12073510  0.62121948  1
  Se  Se46  1  0.62121948  0.13773030  0.12073510  1
  Se  Se47  1  0.12073510  0.62121948  0.13773030  1
  Se  Se48  1  0.21613802  0.71613802  0.78386198  1
  Se  Se49  1  0.71613802  0.78386198  0.21613802  1
  Se  Se50  1  0.78386198  0.21613802  0.71613802  1
  Se  Se51  1  0.28386198  0.28386198  0.28386198  1
  Se  Se52  1  0.48366102  0.98366102  0.51633898  1
  Se  Se53  1  0.98366102  0.51633898  0.48366102  1
  Se  Se54  1  0.51633898  0.48366102  0.98366102  1
  Se  Se55  1  0.01633898  0.01633898  0.01633898  1
