# generated using pymatgen
data_NaSi2HO5
_symmetry_space_group_name_H-M   'P 1'
_cell_length_a   8.32670076
_cell_length_b   15.72289226
_cell_length_c   27.65543373
_cell_angle_alpha   90.00000000
_cell_angle_beta   90.00000000
_cell_angle_gamma   90.00000000
_symmetry_Int_Tables_number   1
_chemical_formula_structural   NaSi2HO5
_chemical_formula_sum   'Na32 Si64 H32 O160'
_cell_volume   3620.64437638
_cell_formula_units_Z   32
loop_
 _symmetry_equiv_pos_site_id
 _symmetry_equiv_pos_as_xyz
  1  'x, y, z'
loop_
 _atom_site_type_symbol
 _atom_site_label
 _atom_site_symmetry_multiplicity
 _atom_site_fract_x
 _atom_site_fract_y
 _atom_site_fract_z
 _atom_site_occupancy
  Na  Na0  1  0.91974764  0.50143942  0.37217360  1
  Na  Na1  1  0.41974764  0.49856058  0.62782640  1
  Na  Na2  1  0.41974764  0.00143942  0.12782640  1
  Na  Na3  1  0.91974764  0.99856058  0.87217360  1
  Na  Na4  1  0.80003243  0.99020203  0.54616322  1
  Na  Na5  1  0.30003243  0.00979797  0.45383678  1
  Na  Na6  1  0.30003243  0.49020203  0.95383678  1
  Na  Na7  1  0.80003243  0.50979797  0.04616322  1
  Na  Na8  1  0.60684721  0.75363522  0.57964472  1
  Na  Na9  1  0.10684721  0.24636478  0.42035528  1
  Na  Na10  1  0.10684721  0.25363522  0.92035528  1
  Na  Na11  1  0.60684721  0.74636478  0.07964472  1
  Na  Na12  1  0.82112453  0.01550373  0.69895217  1
  Na  Na13  1  0.32112453  0.98449627  0.30104783  1
  Na  Na14  1  0.32112453  0.51550373  0.80104783  1
  Na  Na15  1  0.82112453  0.48449627  0.19895217  1
  Na  Na16  1  0.38181638  0.00457438  0.62245125  1
  Na  Na17  1  0.88181638  0.99542562  0.37754875  1
  Na  Na18  1  0.88181638  0.50457438  0.87754875  1
  Na  Na19  1  0.38181638  0.49542562  0.12245125  1
  Na  Na20  1  0.13831755  0.77053197  0.84032023  1
  Na  Na21  1  0.63831755  0.22946803  0.15967977  1
  Na  Na22  1  0.63831755  0.27053197  0.65967977  1
  Na  Na23  1  0.13831755  0.72946803  0.34032023  1
  Na  Na24  1  0.34166787  0.99868478  0.79862877  1
  Na  Na25  1  0.84166787  0.00131522  0.20137123  1
  Na  Na26  1  0.84166787  0.49868478  0.70137123  1
  Na  Na27  1  0.34166787  0.50131522  0.29862877  1
  Na  Na28  1  0.37200230  0.01647658  0.95772047  1
  Na  Na29  1  0.87200230  0.98352342  0.04227953  1
  Na  Na30  1  0.87200230  0.51647658  0.54227953  1
  Na  Na31  1  0.37200230  0.48352342  0.45772047  1
  Si  Si32  1  0.64912659  0.83308226  0.47174238  1
  Si  Si33  1  0.14912659  0.16691774  0.52825762  1
  Si  Si34  1  0.14912659  0.33308226  0.02825762  1
  Si  Si35  1  0.64912659  0.66691774  0.97174238  1
  Si  Si36  1  0.70290918  0.63207697  0.46550580  1
  Si  Si37  1  0.20290918  0.36792303  0.53449420  1
  Si  Si38  1  0.20290918  0.13207697  0.03449420  1
  Si  Si39  1  0.70290918  0.86792303  0.96550580  1
  Si  Si40  1  0.06805621  0.65272048  0.44842232  1
  Si  Si41  1  0.56805621  0.34727952  0.55157768  1
  Si  Si42  1  0.56805621  0.15272048  0.05157768  1
  Si  Si43  1  0.06805621  0.84727952  0.94842232  1
  Si  Si44  1  0.01143284  0.85102991  0.45138830  1
  Si  Si45  1  0.51143284  0.14897009  0.54861170  1
  Si  Si46  1  0.51143284  0.35102991  0.04861170  1
  Si  Si47  1  0.01143284  0.64897009  0.95138830  1
  Si  Si48  1  0.21973380  0.86489331  0.54440111  1
  Si  Si49  1  0.71973380  0.13510669  0.45559889  1
  Si  Si50  1  0.71973380  0.36489331  0.95559889  1
  Si  Si51  1  0.21973380  0.63510669  0.04440111  1
  Si  Si52  1  0.25928215  0.66472480  0.54425565  1
  Si  Si53  1  0.75928215  0.33527520  0.45574435  1
  Si  Si54  1  0.75928215  0.16472480  0.95574435  1
  Si  Si55  1  0.25928215  0.83527520  0.04425565  1
  Si  Si56  1  0.97010611  0.66857905  0.61835381  1
  Si  Si57  1  0.47010611  0.33142095  0.38164619  1
  Si  Si58  1  0.47010611  0.16857905  0.88164619  1
  Si  Si59  1  0.97010611  0.83142095  0.11835381  1
  Si  Si60  1  0.00528598  0.87210247  0.63330714  1
  Si  Si61  1  0.50528598  0.12789753  0.36669286  1
  Si  Si62  1  0.50528598  0.37210247  0.86669286  1
  Si  Si63  1  0.00528598  0.62789753  0.13330714  1
  Si  Si64  1  0.19093123  0.84526357  0.72875039  1
  Si  Si65  1  0.69093123  0.15473643  0.27124961  1
  Si  Si66  1  0.69093123  0.34526357  0.77124961  1
  Si  Si67  1  0.19093123  0.65473643  0.22875039  1
  Si  Si68  1  0.15862919  0.64247939  0.71324129  1
  Si  Si69  1  0.65862919  0.35752061  0.28675871  1
  Si  Si70  1  0.65862919  0.14247939  0.78675871  1
  Si  Si71  1  0.15862919  0.85752061  0.21324129  1
  Si  Si72  1  0.52715313  0.64412817  0.69566062  1
  Si  Si73  1  0.02715313  0.35587183  0.30433938  1
  Si  Si74  1  0.02715313  0.14412817  0.80433938  1
  Si  Si75  1  0.52715313  0.85587183  0.19566062  1
  Si  Si76  1  0.54652888  0.84202707  0.68686773  1
  Si  Si77  1  0.04652888  0.15797293  0.31313227  1
  Si  Si78  1  0.04652888  0.34202707  0.81313227  1
  Si  Si79  1  0.54652888  0.65797293  0.18686773  1
  Si  Si80  1  0.73606032  0.85543861  0.78369285  1
  Si  Si81  1  0.23606032  0.14456139  0.21630715  1
  Si  Si82  1  0.23606032  0.35543861  0.71630715  1
  Si  Si83  1  0.73606032  0.64456139  0.28369285  1
  Si  Si84  1  0.71240617  0.65609493  0.79537025  1
  Si  Si85  1  0.21240617  0.34390507  0.20462975  1
  Si  Si86  1  0.21240617  0.15609493  0.70462975  1
  Si  Si87  1  0.71240617  0.84390507  0.29537025  1
  Si  Si88  1  0.45943787  0.67163248  0.87805637  1
  Si  Si89  1  0.95943787  0.32836752  0.12194363  1
  Si  Si90  1  0.95943787  0.17163248  0.62194363  1
  Si  Si91  1  0.45943787  0.82836752  0.37805637  1
  Si  Si92  1  0.51553230  0.87114575  0.87151012  1
  Si  Si93  1  0.01553230  0.12885425  0.12848988  1
  Si  Si94  1  0.01553230  0.37114575  0.62848988  1
  Si  Si95  1  0.51553230  0.62885425  0.37151012  1
  H  H96  1  0.48422833  0.90829774  0.52629900  1
  H  H97  1  0.98422833  0.09170226  0.47370100  1
  H  H98  1  0.98422833  0.40829774  0.97370100  1
  H  H99  1  0.48422833  0.59170226  0.02629900  1
  H  H100  1  0.50712577  0.59172474  0.53109947  1
  H  H101  1  0.00712577  0.40827526  0.46890053  1
  H  H102  1  0.00712577  0.09172474  0.96890053  1
  H  H103  1  0.50712577  0.90827526  0.03109947  1
  H  H104  1  0.24551425  0.58062837  0.39053631  1
  H  H105  1  0.74551425  0.41937163  0.60946369  1
  H  H106  1  0.74551425  0.08062837  0.10946369  1
  H  H107  1  0.24551425  0.91937163  0.89053631  1
  H  H108  1  0.19486560  0.89354040  0.38778516  1
  H  H109  1  0.69486560  0.10645960  0.61221484  1
  H  H110  1  0.69486560  0.39354040  0.11221484  1
  H  H111  1  0.19486560  0.60645960  0.88778516  1
  H  H112  1  0.71315030  0.60680059  0.63157441  1
  H  H113  1  0.21315030  0.39319941  0.36842559  1
  H  H114  1  0.21315030  0.10680059  0.86842559  1
  H  H115  1  0.71315030  0.89319941  0.13157441  1
  H  H116  1  0.71077008  0.91088584  0.62962219  1
  H  H117  1  0.21077008  0.08911416  0.37037781  1
  H  H118  1  0.21077008  0.41088584  0.87037781  1
  H  H119  1  0.71077008  0.58911416  0.12962219  1
  H  H120  1  0.00920577  0.90323741  0.78957080  1
  H  H121  1  0.50920577  0.09676259  0.21042920  1
  H  H122  1  0.50920577  0.40323741  0.71042920  1
  H  H123  1  0.00920577  0.59676259  0.28957080  1
  H  H124  1  0.98994232  0.58741086  0.77532074  1
  H  H125  1  0.48994232  0.41258914  0.22467926  1
  H  H126  1  0.48994232  0.08741086  0.72467926  1
  H  H127  1  0.98994232  0.91258914  0.27532074  1
  O  O128  1  0.65517919  0.72982046  0.48071662  1
  O  O129  1  0.15517919  0.27017954  0.51928338  1
  O  O130  1  0.15517919  0.22982046  0.01928338  1
  O  O131  1  0.65517919  0.77017954  0.98071662  1
  O  O132  1  0.62429620  0.87848378  0.52312680  1
  O  O133  1  0.12429620  0.12151622  0.47687320  1
  O  O134  1  0.12429620  0.37848378  0.97687320  1
  O  O135  1  0.62429620  0.62151622  0.02312680  1
  O  O136  1  0.50199026  0.85632043  0.43399022  1
  O  O137  1  0.00199026  0.14367957  0.56600978  1
  O  O138  1  0.00199026  0.35632043  0.06600978  1
  O  O139  1  0.50199026  0.64367957  0.93399022  1
  O  O140  1  0.81736837  0.86418967  0.44593617  1
  O  O141  1  0.31736837  0.13581033  0.55406383  1
  O  O142  1  0.31736837  0.36418967  0.05406383  1
  O  O143  1  0.81736837  0.63581033  0.94593617  1
  O  O144  1  0.60678946  0.56442491  0.49761112  1
  O  O145  1  0.10678946  0.43557509  0.50238888  1
  O  O146  1  0.10678946  0.06442491  0.00238888  1
  O  O147  1  0.60678946  0.93557509  0.99761112  1
  O  O148  1  0.67475585  0.61919757  0.40659674  1
  O  O149  1  0.17475585  0.38080243  0.59340326  1
  O  O150  1  0.17475585  0.11919757  0.09340326  1
  O  O151  1  0.67475585  0.88080243  0.90659674  1
  O  O152  1  0.89893282  0.62041353  0.47364318  1
  O  O153  1  0.39893282  0.37958647  0.52635682  1
  O  O154  1  0.39893282  0.12041353  0.02635682  1
  O  O155  1  0.89893282  0.87958647  0.97364318  1
  O  O156  1  0.10653961  0.60153811  0.39954184  1
  O  O157  1  0.60653961  0.39846189  0.60045816  1
  O  O158  1  0.60653961  0.10153811  0.10045816  1
  O  O159  1  0.10653961  0.89846189  0.89954184  1
  O  O160  1  0.05518082  0.75409882  0.43375553  1
  O  O161  1  0.55518082  0.24590118  0.56624447  1
  O  O162  1  0.55518082  0.25409882  0.06624447  1
  O  O163  1  0.05518082  0.74590118  0.93375553  1
  O  O164  1  0.21216057  0.64088700  0.48827768  1
  O  O165  1  0.71216057  0.35911300  0.51172232  1
  O  O166  1  0.71216057  0.14088700  0.01172232  1
  O  O167  1  0.21216057  0.85911300  0.98827768  1
  O  O168  1  0.09850059  0.91877946  0.41645306  1
  O  O169  1  0.59850059  0.08122054  0.58354694  1
  O  O170  1  0.59850059  0.41877946  0.08354694  1
  O  O171  1  0.09850059  0.58122054  0.91645306  1
  O  O172  1  0.06052466  0.86324752  0.50882211  1
  O  O173  1  0.56052466  0.13675248  0.49117789  1
  O  O174  1  0.56052466  0.36324752  0.99117789  1
  O  O175  1  0.06052466  0.63675248  0.00882211  1
  O  O176  1  0.35235173  0.93230565  0.52669944  1
  O  O177  1  0.85235173  0.06769435  0.47330056  1
  O  O178  1  0.85235173  0.43230565  0.97330056  1
  O  O179  1  0.35235173  0.56769435  0.02669944  1
  O  O180  1  0.15897015  0.89709904  0.59821438  1
  O  O181  1  0.65897015  0.10290096  0.40178562  1
  O  O182  1  0.65897015  0.39709904  0.90178562  1
  O  O183  1  0.15897015  0.60290096  0.09821438  1
  O  O184  1  0.29409131  0.76795757  0.54941265  1
  O  O185  1  0.79409131  0.23204243  0.45058735  1
  O  O186  1  0.79409131  0.26795757  0.95058735  1
  O  O187  1  0.29409131  0.73204243  0.04941265  1
  O  O188  1  0.41846378  0.61283923  0.56007352  1
  O  O189  1  0.91846378  0.38716077  0.43992648  1
  O  O190  1  0.91846378  0.11283923  0.93992648  1
  O  O191  1  0.41846378  0.88716077  0.06007352  1
  O  O192  1  0.10641342  0.63979943  0.57871416  1
  O  O193  1  0.60641342  0.36020057  0.42128584  1
  O  O194  1  0.60641342  0.13979943  0.92128584  1
  O  O195  1  0.10641342  0.86020057  0.07871416  1
  O  O196  1  0.79715541  0.63561645  0.60034665  1
  O  O197  1  0.29715541  0.36438355  0.39965335  1
  O  O198  1  0.29715541  0.13561645  0.89965335  1
  O  O199  1  0.79715541  0.86438355  0.10034665  1
  O  O200  1  0.02116502  0.62719275  0.67103970  1
  O  O201  1  0.52116502  0.37280725  0.32896030  1
  O  O202  1  0.52116502  0.12719275  0.82896030  1
  O  O203  1  0.02116502  0.87280725  0.17103970  1
  O  O204  1  0.96648456  0.77198917  0.62399380  1
  O  O205  1  0.46648456  0.22801083  0.37600620  1
  O  O206  1  0.46648456  0.27198917  0.87600620  1
  O  O207  1  0.96648456  0.72801083  0.12399380  1
  O  O208  1  0.85468531  0.93271854  0.62253030  1
  O  O209  1  0.35468531  0.06728146  0.37746970  1
  O  O210  1  0.35468531  0.43271854  0.87746970  1
  O  O211  1  0.85468531  0.56728146  0.12253030  1
  O  O212  1  0.06543564  0.88760636  0.68924430  1
  O  O213  1  0.56543564  0.11239364  0.31075570  1
  O  O214  1  0.56543564  0.38760636  0.81075570  1
  O  O215  1  0.06543564  0.61239364  0.18924430  1
  O  O216  1  0.16516811  0.88323495  0.78176832  1
  O  O217  1  0.66516811  0.11676505  0.21823168  1
  O  O218  1  0.66516811  0.38323495  0.71823168  1
  O  O219  1  0.16516811  0.61676505  0.28176832  1
  O  O220  1  0.37304747  0.86610079  0.70993006  1
  O  O221  1  0.87304747  0.13389921  0.29006994  1
  O  O222  1  0.87304747  0.36610079  0.79006994  1
  O  O223  1  0.37304747  0.63389921  0.20993006  1
  O  O224  1  0.16143168  0.74220380  0.72955752  1
  O  O225  1  0.66143168  0.25779620  0.27044248  1
  O  O226  1  0.66143168  0.24220380  0.77044248  1
  O  O227  1  0.16143168  0.75779620  0.22955752  1
  O  O228  1  0.11695419  0.58081185  0.75786669  1
  O  O229  1  0.61695419  0.41918815  0.24213331  1
  O  O230  1  0.61695419  0.08081185  0.74213331  1
  O  O231  1  0.11695419  0.91918815  0.25786669  1
  O  O232  1  0.33554614  0.61880474  0.69029499  1
  O  O233  1  0.83554614  0.38119526  0.30970501  1
  O  O234  1  0.83554614  0.11880474  0.80970501  1
  O  O235  1  0.33554614  0.88119526  0.19029499  1
  O  O236  1  0.63109900  0.57796300  0.66460416  1
  O  O237  1  0.13109900  0.42203700  0.33539584  1
  O  O238  1  0.13109900  0.07796300  0.83539584  1
  O  O239  1  0.63109900  0.92203700  0.16460416  1
  O  O240  1  0.57287590  0.64473030  0.75325865  1
  O  O241  1  0.07287590  0.35526970  0.24674135  1
  O  O242  1  0.07287590  0.14473030  0.74674135  1
  O  O243  1  0.57287590  0.85526970  0.25325865  1
  O  O244  1  0.55272796  0.74042714  0.67350915  1
  O  O245  1  0.05272796  0.25957286  0.32649085  1
  O  O246  1  0.05272796  0.24042714  0.82649085  1
  O  O247  1  0.55272796  0.75957286  0.17350915  1
  O  O248  1  0.57721331  0.89380266  0.63739040  1
  O  O249  1  0.07721331  0.10619734  0.36260960  1
  O  O250  1  0.07721331  0.39380266  0.86260960  1
  O  O251  1  0.57721331  0.60619734  0.13739040  1
  O  O252  1  0.68708371  0.86641525  0.72636029  1
  O  O253  1  0.18708371  0.13358475  0.27363971  1
  O  O254  1  0.18708371  0.36641525  0.77363971  1
  O  O255  1  0.68708371  0.63358475  0.22636029  1
  O  O256  1  0.88265469  0.91801755  0.79710044  1
  O  O257  1  0.38265469  0.08198245  0.20289956  1
  O  O258  1  0.38265469  0.41801755  0.70289956  1
  O  O259  1  0.88265469  0.58198245  0.29710044  1
  O  O260  1  0.78067506  0.75520356  0.79451326  1
  O  O261  1  0.28067506  0.24479644  0.20548674  1
  O  O262  1  0.28067506  0.25520356  0.70548674  1
  O  O263  1  0.78067506  0.74479644  0.29451326  1
  O  O264  1  0.57877220  0.88473136  0.81562364  1
  O  O265  1  0.07877220  0.11526864  0.18437636  1
  O  O266  1  0.07877220  0.38473136  0.68437636  1
  O  O267  1  0.57877220  0.61526864  0.31562364  1
  O  O268  1  0.85250027  0.58690077  0.79333156  1
  O  O269  1  0.35250027  0.41309923  0.20666844  1
  O  O270  1  0.35250027  0.08690077  0.70666844  1
  O  O271  1  0.85250027  0.91309923  0.29333156  1
  O  O272  1  0.61374610  0.64122653  0.84600156  1
  O  O273  1  0.11374610  0.35877347  0.15399844  1
  O  O274  1  0.11374610  0.14122653  0.65399844  1
  O  O275  1  0.61374610  0.85877347  0.34600156  1
  O  O276  1  0.29330233  0.63211190  0.85857748  1
  O  O277  1  0.79330233  0.36788810  0.14142252  1
  O  O278  1  0.79330233  0.13211190  0.64142252  1
  O  O279  1  0.29330233  0.86788810  0.35857748  1
  O  O280  1  0.43862061  0.77573270  0.87592901  1
  O  O281  1  0.93862061  0.22426730  0.12407099  1
  O  O282  1  0.93862061  0.27573270  0.62407099  1
  O  O283  1  0.43862061  0.72426730  0.37592901  1
  O  O284  1  0.38007623  0.94118266  0.88290424  1
  O  O285  1  0.88007623  0.05881734  0.11709576  1
  O  O286  1  0.88007623  0.44118266  0.61709576  1
  O  O287  1  0.38007623  0.55881734  0.38290424  1
