# generated using pymatgen
data_Mg(AgO2)2
_symmetry_space_group_name_H-M   'P 1'
_cell_length_a   6.29470778
_cell_length_b   6.47915700
_cell_length_c   19.12057413
_cell_angle_alpha   59.43322439
_cell_angle_beta   59.25500742
_cell_angle_gamma   59.07689554
_symmetry_Int_Tables_number   1
_chemical_formula_structural   Mg(AgO2)2
_chemical_formula_sum   'Mg6 Ag12 O24'
_cell_volume   542.05004175
_cell_formula_units_Z   6
loop_
 _symmetry_equiv_pos_site_id
 _symmetry_equiv_pos_as_xyz
  1  'x, y, z'
loop_
 _atom_site_type_symbol
 _atom_site_label
 _atom_site_symmetry_multiplicity
 _atom_site_fract_x
 _atom_site_fract_y
 _atom_site_fract_z
 _atom_site_occupancy
  Mg  Mg0  1  0.14966630  0.11216109  0.04191802  1
  Mg  Mg1  1  0.49900478  0.49951337  0.33399383  1
  Mg  Mg2  1  0.00079069  0.49930805  0.16679739  1
  Mg  Mg3  1  0.50065104  0.50095266  0.66578492  1
  Mg  Mg4  1  0.99980813  0.50049220  0.49970423  1
  Mg  Mg5  1  0.00291512  0.49845951  0.83346196  1
  Ag  Ag6  1  0.50251141  0.99499269  0.16789714  1
  Ag  Ag7  1  0.14173684  0.11080143  0.37881397  1
  Ag  Ag8  1  0.49983374  0.49889378  0.00075216  1
  Ag  Ag9  1  0.50257237  0.49894852  0.16782173  1
  Ag  Ag10  1  0.50007738  0.00023231  0.49984465  1
  Ag  Ag11  1  0.14617195  0.11359098  0.70904006  1
  Ag  Ag12  1  0.50002132  0.50009692  0.49990309  1
  Ag  Ag13  1  0.49717380  0.00876440  0.83198404  1
  Ag  Ag14  1  0.85770216  0.88560916  0.29013125  1
  Ag  Ag15  1  0.49700218  0.49818035  0.83212777  1
  Ag  Ag16  1  0.85550109  0.88823324  0.62264267  1
  Ag  Ag17  1  0.86481265  0.88251390  0.95663482  1
  O  O18  1  0.26190432  0.26011457  0.08736002  1
  O  O19  1  0.27014003  0.26177926  0.23492140  1
  O  O20  1  0.26288610  0.71521268  0.08744963  1
  O  O21  1  0.74669459  0.24603100  0.08653938  1
  O  O22  1  0.26830803  0.26847766  0.42265220  1
  O  O23  1  0.27748875  0.74104217  0.24726517  1
  O  O24  1  0.26738404  0.26129543  0.56997598  1
  O  O25  1  0.73264173  0.30238208  0.24425243  1
  O  O26  1  0.26871725  0.69500953  0.42269608  1
  O  O27  1  0.73197751  0.73713802  0.09864254  1
  O  O28  1  0.71365167  0.26050524  0.42188121  1
  O  O29  1  0.73349711  0.73131847  0.24440139  1
  O  O30  1  0.26506997  0.27040597  0.75619078  1
  O  O31  1  0.28521903  0.74084217  0.57773534  1
  O  O32  1  0.73196893  0.30444230  0.57672984  1
  O  O33  1  0.26550642  0.69612884  0.75615980  1
  O  O34  1  0.24653353  0.26110960  0.91113262  1
  O  O35  1  0.73231047  0.73885822  0.43002453  1
  O  O36  1  0.72027848  0.26161317  0.75219928  1
  O  O37  1  0.73214861  0.73309533  0.57669905  1
  O  O38  1  0.28188727  0.74467193  0.90981664  1
  O  O39  1  0.72637736  0.30306495  0.91172814  1
  O  O40  1  0.73278069  0.73845545  0.76260531  1
  O  O41  1  0.72667418  0.73525941  0.91168852  1
