# generated using pymatgen
data_U(H2O3)2
_symmetry_space_group_name_H-M   'P 1'
_cell_length_a   6.71738319
_cell_length_b   8.48081650
_cell_length_c   8.87395624
_cell_angle_alpha   90.00000000
_cell_angle_beta   90.00000000
_cell_angle_gamma   90.00000000
_symmetry_Int_Tables_number   1
_chemical_formula_structural   U(H2O3)2
_chemical_formula_sum   'U4 H16 O24'
_cell_volume   505.53947412
_cell_formula_units_Z   4
loop_
 _symmetry_equiv_pos_site_id
 _symmetry_equiv_pos_as_xyz
  1  'x, y, z'
loop_
 _atom_site_type_symbol
 _atom_site_label
 _atom_site_symmetry_multiplicity
 _atom_site_fract_x
 _atom_site_fract_y
 _atom_site_fract_z
 _atom_site_occupancy
  U  U0  1  0.74791827  0.65118113  0.25000000  1
  U  U1  1  0.75208173  0.15118113  0.25000000  1
  U  U2  1  0.25208173  0.34881887  0.75000000  1
  U  U3  1  0.24791827  0.84881887  0.75000000  1
  H  H4  1  0.61338399  0.62810523  0.58302369  1
  H  H5  1  0.88661601  0.12810523  0.91697631  1
  H  H6  1  0.38661601  0.37189477  0.08302369  1
  H  H7  1  0.11338399  0.87189477  0.41697631  1
  H  H8  1  0.38661601  0.37189477  0.41697631  1
  H  H9  1  0.11338399  0.87189477  0.08302369  1
  H  H10  1  0.61338399  0.62810523  0.91697631  1
  H  H11  1  0.88661601  0.12810523  0.58302369  1
  H  H12  1  0.83691728  0.68885033  0.59749693  1
  H  H13  1  0.66308272  0.18885033  0.90250307  1
  H  H14  1  0.16308272  0.31114967  0.09749693  1
  H  H15  1  0.33691728  0.81114967  0.40250307  1
  H  H16  1  0.16308272  0.31114967  0.40250307  1
  H  H17  1  0.33691728  0.81114967  0.09749693  1
  H  H18  1  0.83691728  0.68885033  0.90250307  1
  H  H19  1  0.66308272  0.18885033  0.59749693  1
  O  O20  1  0.12101355  0.09966776  0.83176063  1
  O  O21  1  0.37898645  0.59966776  0.66823937  1
  O  O22  1  0.87898645  0.90033224  0.33176063  1
  O  O23  1  0.62101355  0.40033224  0.16823937  1
  O  O24  1  0.87898645  0.90033224  0.16823937  1
  O  O25  1  0.62101355  0.40033224  0.33176063  1
  O  O26  1  0.12101355  0.09966776  0.66823937  1
  O  O27  1  0.37898645  0.59966776  0.83176063  1
  O  O28  1  0.73673863  0.65057808  0.97532896  1
  O  O29  1  0.76326137  0.15057808  0.52467104  1
  O  O30  1  0.26326137  0.34942192  0.47532896  1
  O  O31  1  0.23673863  0.84942192  0.02467104  1
  O  O32  1  0.26326137  0.34942192  0.02467104  1
  O  O33  1  0.23673863  0.84942192  0.47532896  1
  O  O34  1  0.73673863  0.65057808  0.52467104  1
  O  O35  1  0.76326137  0.15057808  0.97532896  1
  O  O36  1  0.48985355  0.72578912  0.25000000  1
  O  O37  1  0.01014645  0.22578912  0.25000000  1
  O  O38  1  0.51014645  0.27421088  0.75000000  1
  O  O39  1  0.98985355  0.77421088  0.75000000  1
  O  O40  1  0.00201680  0.58248155  0.25000000  1
  O  O41  1  0.49798320  0.08248155  0.25000000  1
  O  O42  1  0.99798320  0.41751845  0.75000000  1
  O  O43  1  0.50201680  0.91751845  0.75000000  1
