# generated using pymatgen
data_HC2N3
_symmetry_space_group_name_H-M   'P 1'
_cell_length_a   4.22585790
_cell_length_b   12.77288262
_cell_length_c   16.96000076
_cell_angle_alpha   90.01736058
_cell_angle_beta   89.93159013
_cell_angle_gamma   90.37821643
_symmetry_Int_Tables_number   1
_chemical_formula_structural   HC2N3
_chemical_formula_sum   'H12 C24 N36'
_cell_volume   915.41892497
_cell_formula_units_Z   12
loop_
 _symmetry_equiv_pos_site_id
 _symmetry_equiv_pos_as_xyz
  1  'x, y, z'
loop_
 _atom_site_type_symbol
 _atom_site_label
 _atom_site_symmetry_multiplicity
 _atom_site_fract_x
 _atom_site_fract_y
 _atom_site_fract_z
 _atom_site_occupancy
  H  H0  1  0.97527125  0.04968490  0.57847143  1
  H  H1  1  0.96211823  0.17507975  0.62590841  1
  H  H2  1  0.02441755  0.94309766  0.42238126  1
  H  H3  1  0.03771325  0.81782499  0.37536536  1
  H  H4  1  0.96176267  0.38463204  0.61838090  1
  H  H5  1  0.03758867  0.60507964  0.38196161  1
  H  H6  1  0.97461469  0.55436732  0.91957636  1
  H  H7  1  0.96247083  0.68214770  0.87621225  1
  H  H8  1  0.02404557  0.44305486  0.07594161  1
  H  H9  1  0.03772820  0.31863236  0.12460682  1
  H  H10  1  0.96302415  0.89067978  0.88373931  1
  H  H11  1  0.03598202  0.10403476  0.11956965  1
  C  C12  1  0.95667976  0.03577571  0.83721687  1
  C  C13  1  0.97734209  0.17036048  0.92627043  1
  C  C14  1  0.94984507  0.19760517  0.78340208  1
  C  C15  1  0.96352495  0.34722217  0.87082632  1
  C  C16  1  0.94961335  0.36651028  0.73760388  1
  C  C17  1  0.95707058  0.53476655  0.66129410  1
  C  C18  1  0.97759526  0.67016358  0.57316829  1
  C  C19  1  0.95006287  0.86533711  0.76317232  1
  C  C20  1  0.96381491  0.84683957  0.62942257  1
  C  C21  1  0.99985801  0.81881732  0.49606525  1
  C  C22  1  0.99978913  0.17392493  0.50527038  1
  C  C23  1  0.03623591  0.14460419  0.37218193  1
  C  C24  1  0.05012569  0.12525585  0.23904373  1
  C  C25  1  0.02227771  0.32170020  0.42749180  1
  C  C26  1  0.04985220  0.29409398  0.28464608  1
  C  C27  1  0.04277209  0.45610340  0.33860450  1
  C  C28  1  0.05010108  0.62457684  0.26248171  1
  C  C29  1  0.03634719  0.64438742  0.12923968  1
  C  C30  1  0.05032022  0.79367950  0.21724460  1
  C  C31  1  0.02302340  0.82211951  0.07488759  1
  C  C32  1  0.04317928  0.95607859  0.16392758  1
  C  C33  1  0.99983329  0.31806449  0.00384769  1
  C  C34  1  0.95020432  0.69654443  0.71632383  1
  C  C35  1  0.00026174  0.67534773  0.99640148  1
  N  N36  1  0.94471180  0.09471223  0.77209366  1
  N  N37  1  0.97316613  0.06721745  0.91287528  1
  N  N38  1  0.96119837  0.23816414  0.85998965  1
  N  N39  1  0.94624488  0.26243031  0.72174942  1
  N  N40  1  0.98027613  0.38659250  0.94220978  1
  N  N41  1  0.95225628  0.41103776  0.80830149  1
  N  N42  1  0.95317619  0.42682009  0.66993616  1
  N  N43  1  0.94529708  0.59374650  0.72668488  1
  N  N44  1  0.97369055  0.56665598  0.58580277  1
  N  N45  1  0.99812897  0.71169321  0.50148931  1
  N  N46  1  0.96127844  0.73770431  0.63984668  1
  N  N47  1  0.94653625  0.76120917  0.77865237  1
  N  N48  1  0.95323055  0.92764930  0.83001586  1
  N  N49  1  0.95301535  0.90991213  0.69246108  1
  N  N50  1  0.98022920  0.88688458  0.55813933  1
  N  N51  1  0.02340884  0.86268369  0.42559794  1
  N  N52  1  0.97616109  0.13011415  0.57572059  1
  N  N53  1  0.01937199  0.10531672  0.44373842  1
  N  N54  1  0.04759694  0.08072839  0.30977642  1
  N  N55  1  0.04621647  0.06399553  0.17193402  1
  N  N56  1  0.00166730  0.28091328  0.49949313  1
  N  N57  1  0.03855203  0.25361695  0.36132035  1
  N  N58  1  0.05356685  0.22916287  0.22290187  1
  N  N59  1  0.02621815  0.42490550  0.41431017  1
  N  N60  1  0.05475423  0.39687431  0.27354355  1
  N  N61  1  0.04637057  0.56388517  0.32999305  1
  N  N62  1  0.04711784  0.58026975  0.19154432  1
  N  N63  1  0.01951018  0.60572893  0.05726096  1
  N  N64  1  0.05386701  0.72846612  0.27873871  1
  N  N65  1  0.03913418  0.75342290  0.14054469  1
  N  N66  1  0.05516744  0.89649306  0.22876026  1
  N  N67  1  0.02686970  0.92514539  0.08823788  1
  N  N68  1  0.00246890  0.78209744  0.00277121  1
  N  N69  1  0.02342417  0.36255730  0.07404199  1
  N  N70  1  0.99784252  0.21108224  0.99822818  1
  N  N71  1  0.97621022  0.63431589  0.92494492  1
