# generated using pymatgen
data_Nd5Mg41
_symmetry_space_group_name_H-M   'P 1'
_cell_length_a   10.45341866
_cell_length_b   11.63095383
_cell_length_c   11.63095383
_cell_angle_alpha   78.34947192
_cell_angle_beta   63.29613564
_cell_angle_gamma   63.29613564
_symmetry_Int_Tables_number   1
_chemical_formula_structural   Nd5Mg41
_chemical_formula_sum   'Nd5 Mg41'
_cell_volume   1128.55731499
_cell_formula_units_Z   1
loop_
 _symmetry_equiv_pos_site_id
 _symmetry_equiv_pos_as_xyz
  1  'x, y, z'
loop_
 _atom_site_type_symbol
 _atom_site_label
 _atom_site_symmetry_multiplicity
 _atom_site_fract_x
 _atom_site_fract_y
 _atom_site_fract_z
 _atom_site_occupancy
  Nd  Nd0  1  0.00000000  0.00000000  0.00000000  1
  Nd  Nd1  1  0.57072383  0.66543162  0.19312073  1
  Nd  Nd2  1  0.42927617  0.33456838  0.80687927  1
  Nd  Nd3  1  0.76384456  0.80687927  0.66543162  1
  Nd  Nd4  1  0.23615544  0.19312073  0.33456838  1
  Mg  Mg5  1  0.50000000  0.00000000  0.00000000  1
  Mg  Mg6  1  0.00000000  0.50000000  0.00000000  1
  Mg  Mg7  1  0.50000000  0.50000000  0.00000000  1
  Mg  Mg8  1  0.00000000  0.00000000  0.50000000  1
  Mg  Mg9  1  0.50000000  0.00000000  0.50000000  1
  Mg  Mg10  1  0.59745722  0.39310605  0.41197952  1
  Mg  Mg11  1  0.40254278  0.60689395  0.58802048  1
  Mg  Mg12  1  0.00943673  0.58802048  0.39310605  1
  Mg  Mg13  1  0.99056327  0.41197952  0.60689395  1
  Mg  Mg14  1  0.77849414  0.34358487  0.09942686  1
  Mg  Mg15  1  0.22150586  0.65641513  0.90057314  1
  Mg  Mg16  1  0.87792099  0.90057314  0.34358487  1
  Mg  Mg17  1  0.12207901  0.09942686  0.65641513  1
  Mg  Mg18  1  0.78261557  0.55845977  0.87630909  1
  Mg  Mg19  1  0.21738443  0.44154023  0.12369091  1
  Mg  Mg20  1  0.65892466  0.12369091  0.55845977  1
  Mg  Mg21  1  0.34107534  0.87630909  0.44154023  1
  Mg  Mg22  1  0.08609242  0.28744366  0.83438317  1
  Mg  Mg23  1  0.20791924  0.71255634  0.16561683  1
  Mg  Mg24  1  0.92047558  0.16561683  0.28744366  1
  Mg  Mg25  1  0.37353607  0.83438317  0.71255634  1
  Mg  Mg26  1  0.91390758  0.71255634  0.16561683  1
  Mg  Mg27  1  0.79208076  0.28744366  0.83438317  1
  Mg  Mg28  1  0.07952442  0.83438317  0.71255634  1
  Mg  Mg29  1  0.62646393  0.16561683  0.28744366  1
  Mg  Mg30  1  0.82597595  0.78727049  0.94073342  1
  Mg  Mg31  1  0.55397986  0.21272951  0.05926658  1
  Mg  Mg32  1  0.76670937  0.05926658  0.78727049  1
  Mg  Mg33  1  0.61324644  0.94073342  0.21272951  1
  Mg  Mg34  1  0.17402405  0.21272951  0.05926658  1
  Mg  Mg35  1  0.44602014  0.78727049  0.94073342  1
  Mg  Mg36  1  0.23329063  0.94073342  0.21272951  1
  Mg  Mg37  1  0.38675356  0.05926658  0.78727049  1
  Mg  Mg38  1  0.89161856  0.44336354  0.29030451  1
  Mg  Mg39  1  0.62528661  0.55663646  0.70969549  1
  Mg  Mg40  1  0.18192307  0.70969549  0.44336354  1
  Mg  Mg41  1  0.33498210  0.29030451  0.55663646  1
  Mg  Mg42  1  0.10838144  0.55663646  0.70969549  1
  Mg  Mg43  1  0.37471339  0.44336354  0.29030451  1
  Mg  Mg44  1  0.81807693  0.29030451  0.55663646  1
  Mg  Mg45  1  0.66501790  0.70969549  0.44336354  1
