# generated using pymatgen
data_Ca4As3H9O16
_symmetry_space_group_name_H-M   'P 1'
_cell_length_a   5.90630046
_cell_length_b   10.33998887
_cell_length_c   23.23005803
_cell_angle_alpha   90.00000000
_cell_angle_beta   96.95366550
_cell_angle_gamma   90.00000000
_symmetry_Int_Tables_number   1
_chemical_formula_structural   Ca4As3H9O16
_chemical_formula_sum   'Ca16 As12 H36 O64'
_cell_volume   1408.24945157
_cell_formula_units_Z   4
loop_
 _symmetry_equiv_pos_site_id
 _symmetry_equiv_pos_as_xyz
  1  'x, y, z'
loop_
 _atom_site_type_symbol
 _atom_site_label
 _atom_site_symmetry_multiplicity
 _atom_site_fract_x
 _atom_site_fract_y
 _atom_site_fract_z
 _atom_site_occupancy
  Ca  Ca0  1  0.67063520  0.77239657  0.50226860  1
  Ca  Ca1  1  0.32936480  0.27239657  0.99773140  1
  Ca  Ca2  1  0.32936480  0.22760343  0.49773140  1
  Ca  Ca3  1  0.67063520  0.72760343  0.00226860  1
  Ca  Ca4  1  0.00459357  0.64527617  0.64165382  1
  Ca  Ca5  1  0.99540643  0.14527617  0.85834618  1
  Ca  Ca6  1  0.99540643  0.35472383  0.35834618  1
  Ca  Ca7  1  0.00459357  0.85472383  0.14165382  1
  Ca  Ca8  1  0.88529073  0.17929758  0.60655384  1
  Ca  Ca9  1  0.11470927  0.67929758  0.89344616  1
  Ca  Ca10  1  0.11470927  0.82070242  0.39344616  1
  Ca  Ca11  1  0.88529073  0.32070242  0.10655384  1
  Ca  Ca12  1  0.43490034  0.13338690  0.74632820  1
  Ca  Ca13  1  0.56509966  0.63338690  0.75367180  1
  Ca  Ca14  1  0.56509966  0.86661310  0.25367180  1
  Ca  Ca15  1  0.43490034  0.36661310  0.24632820  1
  As  As16  1  0.87241131  0.94741998  0.71399783  1
  As  As17  1  0.12758869  0.44741998  0.78600217  1
  As  As18  1  0.12758869  0.05258002  0.28600217  1
  As  As19  1  0.87241131  0.55258002  0.21399783  1
  As  As20  1  0.53832949  0.49687510  0.59776064  1
  As  As21  1  0.46167051  0.99687510  0.90223936  1
  As  As22  1  0.46167051  0.50312490  0.40223936  1
  As  As23  1  0.53832949  0.00312490  0.09776064  1
  As  As24  1  0.22637936  0.91272561  0.54931829  1
  As  As25  1  0.77362064  0.41272561  0.95068171  1
  As  As26  1  0.77362064  0.08727439  0.45068171  1
  As  As27  1  0.22637936  0.58727439  0.04931829  1
  H  H28  1  0.90837147  0.37246635  0.51337603  1
  H  H29  1  0.09162853  0.87246635  0.98662397  1
  H  H30  1  0.09162853  0.62753365  0.48662397  1
  H  H31  1  0.90837147  0.12753365  0.01337603  1
  H  H32  1  0.10967952  0.42654668  0.55938471  1
  H  H33  1  0.89032048  0.92654668  0.94061529  1
  H  H34  1  0.89032048  0.57345332  0.44061529  1
  H  H35  1  0.10967952  0.07345332  0.05938471  1
  H  H36  1  0.23661878  0.35644112  0.68160425  1
  H  H37  1  0.76338122  0.85644112  0.81839575  1
  H  H38  1  0.76338122  0.64355888  0.31839575  1
  H  H39  1  0.23661878  0.14355888  0.18160425  1
  H  H40  1  0.36120894  0.28382200  0.63378699  1
  H  H41  1  0.63879106  0.78382200  0.86621301  1
  H  H42  1  0.63879106  0.71617800  0.36621301  1
  H  H43  1  0.36120894  0.21617800  0.13378699  1
  H  H44  1  0.73378395  0.36540565  0.69048624  1
  H  H45  1  0.26621605  0.86540565  0.80951376  1
  H  H46  1  0.26621605  0.63459435  0.30951376  1
  H  H47  1  0.73378395  0.13459435  0.19048624  1
  H  H48  1  0.90013293  0.26778586  0.72909699  1
  H  H49  1  0.09986707  0.76778586  0.77090301  1
  H  H50  1  0.09986707  0.73221414  0.27090301  1
  H  H51  1  0.90013293  0.23221414  0.22909699  1
  H  H52  1  0.72694559  0.35475630  0.80488171  1
  H  H53  1  0.27305441  0.85475630  0.69511829  1
  H  H54  1  0.27305441  0.64524370  0.19511829  1
  H  H55  1  0.72694559  0.14524370  0.30488171  1
  H  H56  1  0.58843296  0.28991184  0.85115633  1
  H  H57  1  0.41156704  0.78991184  0.64884367  1
  H  H58  1  0.41156704  0.71008816  0.14884367  1
  H  H59  1  0.58843296  0.21008816  0.35115633  1
  H  H60  1  0.57315512  0.93213458  0.61870735  1
  H  H61  1  0.42684488  0.43213458  0.88129265  1
  H  H62  1  0.42684488  0.06786542  0.38129265  1
  H  H63  1  0.57315512  0.56786542  0.11870735  1
  O  O64  1  0.85971632  0.78021508  0.71383347  1
  O  O65  1  0.14028368  0.28021508  0.78616653  1
  O  O66  1  0.14028368  0.21978492  0.28616653  1
  O  O67  1  0.85971632  0.71978492  0.21383347  1
  O  O68  1  0.14371006  0.99460263  0.70415823  1
  O  O69  1  0.85628994  0.49460263  0.79584177  1
  O  O70  1  0.85628994  0.00539737  0.29584177  1
  O  O71  1  0.14371006  0.50539737  0.20415823  1
  O  O72  1  0.68574342  0.01609337  0.65891822  1
  O  O73  1  0.31425658  0.51609337  0.84108178  1
  O  O74  1  0.31425658  0.98390663  0.34108178  1
  O  O75  1  0.68574342  0.48390663  0.15891822  1
  O  O76  1  0.78679774  0.00379604  0.77785892  1
  O  O77  1  0.21320226  0.50379604  0.72214108  1
  O  O78  1  0.21320226  0.99620396  0.22214108  1
  O  O79  1  0.78679774  0.49620396  0.27785892  1
  O  O80  1  0.54123614  0.33285547  0.58248959  1
  O  O81  1  0.45876386  0.83285547  0.91751041  1
  O  O82  1  0.45876386  0.66714453  0.41751041  1
  O  O83  1  0.54123614  0.16714453  0.08248959  1
  O  O84  1  0.25762161  0.54484636  0.58700223  1
  O  O85  1  0.74237839  0.04484636  0.91299777  1
  O  O86  1  0.74237839  0.45515364  0.41299777  1
  O  O87  1  0.25762161  0.95515364  0.08700223  1
  O  O88  1  0.66826938  0.51897914  0.66851557  1
  O  O89  1  0.33173062  0.01897914  0.83148443  1
  O  O90  1  0.33173062  0.48102086  0.33148443  1
  O  O91  1  0.66826938  0.98102086  0.16851557  1
  O  O92  1  0.71086932  0.58690728  0.55911399  1
  O  O93  1  0.28913068  0.08690728  0.94088601  1
  O  O94  1  0.28913068  0.41309272  0.44088601  1
  O  O95  1  0.71086932  0.91309272  0.05911399  1
  O  O96  1  0.69463259  0.12066983  0.51753623  1
  O  O97  1  0.30536741  0.62066983  0.98246377  1
  O  O98  1  0.30536741  0.87933017  0.48246377  1
  O  O99  1  0.69463259  0.37933017  0.01753623  1
  O  O100  1  0.00970730  0.82074021  0.56948117  1
  O  O101  1  0.99029270  0.32074021  0.93051883  1
  O  O102  1  0.99029270  0.17925979  0.43051883  1
  O  O103  1  0.00970730  0.67925979  0.06948117  1
  O  O104  1  0.18822998  0.07357524  0.56069094  1
  O  O105  1  0.81177002  0.57357524  0.93930906  1
  O  O106  1  0.81177002  0.92642476  0.43930906  1
  O  O107  1  0.18822998  0.42642476  0.06069094  1
  O  O108  1  0.48665326  0.85936070  0.59052948  1
  O  O109  1  0.51334674  0.35936070  0.90947052  1
  O  O110  1  0.51334674  0.14063930  0.40947052  1
  O  O111  1  0.48665326  0.64063930  0.09052948  1
  O  O112  1  0.02834436  0.34446738  0.54342884  1
  O  O113  1  0.97165564  0.84446738  0.95657116  1
  O  O114  1  0.97165564  0.65553262  0.45657116  1
  O  O115  1  0.02834436  0.15553262  0.04342884  1
  O  O116  1  0.25255180  0.26961438  0.66322303  1
  O  O117  1  0.74744820  0.76961438  0.83677697  1
  O  O118  1  0.74744820  0.73038562  0.33677697  1
  O  O119  1  0.25255180  0.23038562  0.16322303  1
  O  O120  1  0.77031981  0.27091060  0.69760689  1
  O  O121  1  0.22968019  0.77091060  0.80239311  1
  O  O122  1  0.22968019  0.72908940  0.30239311  1
  O  O123  1  0.77031981  0.22908940  0.19760689  1
  O  O124  1  0.66057786  0.26877448  0.81540205  1
  O  O125  1  0.33942214  0.76877448  0.68459795  1
  O  O126  1  0.33942214  0.73122552  0.18459795  1
  O  O127  1  0.66057786  0.23122552  0.31540205  1
