# generated using pymatgen
data_Sm2Co17
_symmetry_space_group_name_H-M   'P 1'
_cell_length_a   8.13444872
_cell_length_b   8.36130614
_cell_length_c   8.36130614
_cell_angle_alpha   119.94959036
_cell_angle_beta   90.00000000
_cell_angle_gamma   90.00000000
_symmetry_Int_Tables_number   1
_chemical_formula_structural   Sm2Co17
_chemical_formula_sum   'Sm4 Co34'
_cell_volume   492.75085696
_cell_formula_units_Z   2
loop_
 _symmetry_equiv_pos_site_id
 _symmetry_equiv_pos_as_xyz
  1  'x, y, z'
loop_
 _atom_site_type_symbol
 _atom_site_label
 _atom_site_symmetry_multiplicity
 _atom_site_fract_x
 _atom_site_fract_y
 _atom_site_fract_z
 _atom_site_occupancy
  Sm  Sm0  1  0.75000000  -0.00001413  0.00001413  1
  Sm  Sm1  1  0.25000000  0.00001413  -0.00001413  1
  Sm  Sm2  1  0.25000000  0.66636446  0.33363554  1
  Sm  Sm3  1  0.75000000  0.33363554  0.66636446  1
  Co  Co4  1  0.60717689  0.66658841  0.33341159  1
  Co  Co5  1  0.39282311  0.33341159  0.66658841  1
  Co  Co6  1  0.10717689  0.33341159  0.66658841  1
  Co  Co7  1  0.89282311  0.66658841  0.33341159  1
  Co  Co8  1  0.50000000  0.50000000  0.00000000  1
  Co  Co9  1  0.50000000  0.50000000  0.50000000  1
  Co  Co10  1  0.50000000  0.00000000  0.50000000  1
  Co  Co11  1  -0.00000000  0.50000000  0.00000000  1
  Co  Co12  1  -0.00000000  0.50000000  0.50000000  1
  Co  Co13  1  -0.00000000  0.00000000  0.50000000  1
  Co  Co14  1  0.75000000  0.67099542  0.04963404  1
  Co  Co15  1  0.75000000  0.37890132  0.32914330  1
  Co  Co16  1  0.75000000  0.95004308  0.62124274  1
  Co  Co17  1  0.75000000  0.37875726  0.04995692  1
  Co  Co18  1  0.75000000  0.95036596  0.32900458  1
  Co  Co19  1  0.75000000  0.67085670  0.62109868  1
  Co  Co20  1  0.25000000  0.32900458  0.95036596  1
  Co  Co21  1  0.25000000  0.62109868  0.67085670  1
  Co  Co22  1  0.25000000  0.04995692  0.37875726  1
  Co  Co23  1  0.25000000  0.62124274  0.95004308  1
  Co  Co24  1  0.25000000  0.04963404  0.67099542  1
  Co  Co25  1  0.25000000  0.32914330  0.37890132  1
  Co  Co26  1  0.47881675  0.83283536  0.66599405  1
  Co  Co27  1  0.47896572  0.83306520  0.16693480  1
  Co  Co28  1  0.47881675  0.33400595  0.16716464  1
  Co  Co29  1  0.52118325  0.16716464  0.33400595  1
  Co  Co30  1  0.52103428  0.16693480  0.83306520  1
  Co  Co31  1  0.52118325  0.66599405  0.83283536  1
  Co  Co32  1  0.97881675  0.16716464  0.33400595  1
  Co  Co33  1  0.97896572  0.16693480  0.83306520  1
  Co  Co34  1  0.97881675  0.66599405  0.83283536  1
  Co  Co35  1  0.02118325  0.83283536  0.66599405  1
  Co  Co36  1  0.02103428  0.83306520  0.16693480  1
  Co  Co37  1  0.02118325  0.33400595  0.16716464  1
