# generated using pymatgen
data_Rb3Cr(HO)6
_symmetry_space_group_name_H-M   'P 1'
_cell_length_a   7.63883740
_cell_length_b   7.63883740
_cell_length_c   7.63883765
_cell_angle_alpha   95.43711733
_cell_angle_beta   95.43711733
_cell_angle_gamma   95.43711973
_symmetry_Int_Tables_number   1
_chemical_formula_structural   Rb3Cr(HO)6
_chemical_formula_sum   'Rb6 Cr2 H12 O12'
_cell_volume   439.31175260
_cell_formula_units_Z   2
loop_
 _symmetry_equiv_pos_site_id
 _symmetry_equiv_pos_as_xyz
  1  'x, y, z'
loop_
 _atom_site_type_symbol
 _atom_site_label
 _atom_site_symmetry_multiplicity
 _atom_site_fract_x
 _atom_site_fract_y
 _atom_site_fract_z
 _atom_site_occupancy
  Rb  Rb0  1  0.62612965  0.87387035  0.25000000  1
  Rb  Rb1  1  0.87387035  0.25000000  0.62612965  1
  Rb  Rb2  1  0.25000000  0.62612965  0.87387035  1
  Rb  Rb3  1  0.12612965  0.75000000  0.37387035  1
  Rb  Rb4  1  0.75000000  0.37387035  0.12612965  1
  Rb  Rb5  1  0.37387035  0.12612965  0.75000000  1
  Cr  Cr6  1  0.50000000  0.50000000  0.50000000  1
  Cr  Cr7  1  0.00000000  -0.00000000  0.00000000  1
  H  H8  1  0.07509646  0.12446062  0.31225273  1
  H  H9  1  0.12446062  0.31225273  0.07509646  1
  H  H10  1  0.31225273  0.07509646  0.12446062  1
  H  H11  1  0.57509646  0.81225273  0.62446062  1
  H  H12  1  0.81225273  0.62446062  0.57509646  1
  H  H13  1  0.62446062  0.57509646  0.81225273  1
  H  H14  1  0.92490354  0.87553938  0.68774727  1
  H  H15  1  0.87553938  0.68774727  0.92490354  1
  H  H16  1  0.68774727  0.92490354  0.87553938  1
  H  H17  1  0.42490354  0.18774727  0.37553938  1
  H  H18  1  0.18774727  0.37553938  0.42490354  1
  H  H19  1  0.37553938  0.42490354  0.18774727  1
  O  O20  1  0.95653160  0.09523536  0.25159539  1
  O  O21  1  0.09523536  0.25159539  0.95653160  1
  O  O22  1  0.25159539  0.95653160  0.09523536  1
  O  O23  1  0.45653160  0.75159539  0.59523536  1
  O  O24  1  0.75159539  0.59523536  0.45653160  1
  O  O25  1  0.59523536  0.45653160  0.75159539  1
  O  O26  1  0.04346840  0.90476464  0.74840461  1
  O  O27  1  0.90476464  0.74840461  0.04346840  1
  O  O28  1  0.74840461  0.04346840  0.90476464  1
  O  O29  1  0.54346840  0.24840461  0.40476464  1
  O  O30  1  0.24840461  0.40476464  0.54346840  1
  O  O31  1  0.40476464  0.54346840  0.24840461  1
