# generated using pymatgen
data_Ca2VP3H4O13
_symmetry_space_group_name_H-M   'P 1'
_cell_length_a   7.60089033
_cell_length_b   8.78579970
_cell_length_c   9.29117711
_cell_angle_alpha   79.96170473
_cell_angle_beta   66.23675538
_cell_angle_gamma   64.36943227
_symmetry_Int_Tables_number   1
_chemical_formula_structural   Ca2VP3H4O13
_chemical_formula_sum   'Ca4 V2 P6 H8 O26'
_cell_volume   511.98357891
_cell_formula_units_Z   2
loop_
 _symmetry_equiv_pos_site_id
 _symmetry_equiv_pos_as_xyz
  1  'x, y, z'
loop_
 _atom_site_type_symbol
 _atom_site_label
 _atom_site_symmetry_multiplicity
 _atom_site_fract_x
 _atom_site_fract_y
 _atom_site_fract_z
 _atom_site_occupancy
  Ca  Ca0  1  0.76120716  0.01653577  0.43798564  1
  Ca  Ca1  1  0.22225707  0.01653577  0.06201436  1
  Ca  Ca2  1  0.23879284  0.98346423  0.56201436  1
  Ca  Ca3  1  0.77774293  0.98346423  0.93798564  1
  V  V4  1  0.00000000  0.50000000  -0.00000000  1
  V  V5  1  0.50000000  0.50000000  0.50000000  1
  P  P6  1  0.60259322  0.79481356  0.25000000  1
  P  P7  1  0.39740678  0.20518644  0.75000000  1
  P  P8  1  0.01598955  0.30111250  0.34767479  1
  P  P9  1  0.68289795  0.30111250  0.15232521  1
  P  P10  1  0.98401045  0.69888750  0.65232521  1
  P  P11  1  0.31710205  0.69888750  0.84767479  1
  H  H12  1  0.20836839  0.38128274  0.42811267  1
  H  H13  1  0.41034887  0.38128274  0.07188733  1
  H  H14  1  0.79163161  0.61871726  0.57188733  1
  H  H15  1  0.58965113  0.61871726  0.92811267  1
  H  H16  1  0.21364804  0.73358013  0.28609279  1
  H  H17  1  0.05277184  0.73358013  0.21390721  1
  H  H18  1  0.78635196  0.26641987  0.71390721  1
  H  H19  1  0.94722816  0.26641987  0.78609279  1
  O  O20  1  0.84116952  0.69078929  0.15690458  1
  O  O21  1  0.46804119  0.69078929  0.34309542  1
  O  O22  1  0.15883048  0.30921071  0.84309542  1
  O  O23  1  0.53195881  0.30921071  0.65690458  1
  O  O24  1  0.58404635  0.90553527  0.37049504  1
  O  O25  1  0.51041837  0.90553527  0.12950496  1
  O  O26  1  0.41595365  0.09446473  0.62950496  1
  O  O27  1  0.48958163  0.09446473  0.87049504  1
  O  O28  1  0.02063496  0.12209267  0.37849389  1
  O  O29  1  0.85727237  0.12209267  0.12150611  1
  O  O30  1  0.97936504  0.87790733  0.62150611  1
  O  O31  1  0.14272763  0.87790733  0.87849389  1
  O  O32  1  0.81302828  0.44390017  0.44560496  1
  O  O33  1  0.74307155  0.44390017  0.05439504  1
  O  O34  1  0.18697172  0.55609983  0.55439504  1
  O  O35  1  0.25692845  0.55609983  0.94560496  1
  O  O36  1  0.08546393  0.33362532  0.16846585  1
  O  O37  1  0.58091075  0.33362532  0.33153415  1
  O  O38  1  0.91453607  0.66637468  0.83153415  1
  O  O39  1  0.41908925  0.66637468  0.66846585  1
  O  O40  1  0.19397325  0.28096642  0.40882737  1
  O  O41  1  0.52506033  0.28096642  0.09117263  1
  O  O42  1  0.80602675  0.71903358  0.59117263  1
  O  O43  1  0.47493967  0.71903358  0.90882737  1
  O  O44  1  0.09740144  0.80519712  0.25000000  1
  O  O45  1  0.90259856  0.19480288  0.75000000  1
