# generated using pymatgen
data_Ba3V2(SeO4)4
_symmetry_space_group_name_H-M   'P 1'
_cell_length_a   9.13866220
_cell_length_b   11.75795192
_cell_length_c   15.68952194
_cell_angle_alpha   90.00000000
_cell_angle_beta   90.00000000
_cell_angle_gamma   92.37733850
_symmetry_Int_Tables_number   1
_chemical_formula_structural   Ba3V2(SeO4)4
_chemical_formula_sum   'Ba12 V8 Se16 O64'
_cell_volume   1684.41873601
_cell_formula_units_Z   4
loop_
 _symmetry_equiv_pos_site_id
 _symmetry_equiv_pos_as_xyz
  1  'x, y, z'
loop_
 _atom_site_type_symbol
 _atom_site_label
 _atom_site_symmetry_multiplicity
 _atom_site_fract_x
 _atom_site_fract_y
 _atom_site_fract_z
 _atom_site_occupancy
  Ba  Ba0  1  0.74941033  0.41618521  0.32461718  1
  Ba  Ba1  1  0.24941033  0.91618521  0.17538282  1
  Ba  Ba2  1  0.25058967  0.58381479  0.67538282  1
  Ba  Ba3  1  0.75058967  0.08381479  0.82461718  1
  Ba  Ba4  1  0.74000906  0.85498919  0.30762686  1
  Ba  Ba5  1  0.24000906  0.35498919  0.19237314  1
  Ba  Ba6  1  0.25999094  0.14501081  0.69237314  1
  Ba  Ba7  1  0.75999094  0.64501081  0.80762686  1
  Ba  Ba8  1  0.59826833  0.60721095  0.08989589  1
  Ba  Ba9  1  0.09826833  0.10721095  0.41010411  1
  Ba  Ba10  1  0.40173167  0.39278905  0.91010411  1
  Ba  Ba11  1  0.90173167  0.89278905  0.58989589  1
  V  V12  1  0.99840982  0.61731378  0.20903965  1
  V  V13  1  0.49840982  0.11731378  0.29096035  1
  V  V14  1  0.00159018  0.38268622  0.79096035  1
  V  V15  1  0.50159018  0.88268622  0.70903965  1
  V  V16  1  0.61770177  0.65554150  0.49234464  1
  V  V17  1  0.11770177  0.15554150  0.00765536  1
  V  V18  1  0.38229823  0.34445850  0.50765536  1
  V  V19  1  0.88229823  0.84445850  0.99234464  1
  Se  Se20  1  0.10981144  0.77950700  0.37985915  1
  Se  Se21  1  0.60981144  0.27950700  0.12014085  1
  Se  Se22  1  0.89018856  0.22049300  0.62014085  1
  Se  Se23  1  0.39018856  0.72049300  0.87985915  1
  Se  Se24  1  0.14189000  0.60886972  0.04541653  1
  Se  Se25  1  0.64189000  0.10886972  0.45458347  1
  Se  Se26  1  0.85811000  0.39113028  0.95458347  1
  Se  Se27  1  0.35811000  0.89113028  0.54541653  1
  Se  Se28  1  0.87549649  0.55541408  0.56190314  1
  Se  Se29  1  0.37549649  0.05541408  0.93809686  1
  Se  Se30  1  0.12450351  0.44458592  0.43809686  1
  Se  Se31  1  0.62450351  0.94458592  0.06190314  1
  Se  Se32  1  0.43198760  0.63275608  0.30584516  1
  Se  Se33  1  0.93198760  0.13275608  0.19415484  1
  Se  Se34  1  0.56801240  0.36724392  0.69415484  1
  Se  Se35  1  0.06801240  0.86724392  0.80584516  1
  O  O36  1  0.03141305  0.75406929  0.27443571  1
  O  O37  1  0.53141305  0.25406929  0.22556429  1
  O  O38  1  0.96858695  0.24593071  0.72556429  1
  O  O39  1  0.46858695  0.74593071  0.77443571  1
  O  O40  1  0.96936111  0.85236530  0.42137697  1
  O  O41  1  0.46936111  0.35236530  0.07862303  1
  O  O42  1  0.03063889  0.14763470  0.57862303  1
  O  O43  1  0.53063889  0.64763470  0.92137697  1
  O  O44  1  0.23241594  0.88461861  0.35331456  1
  O  O45  1  0.73241594  0.38461861  0.14668544  1
  O  O46  1  0.76758406  0.11538139  0.64668544  1
  O  O47  1  0.26758406  0.61538139  0.85331456  1
  O  O48  1  0.01702660  0.52032642  0.10438963  1
  O  O49  1  0.51702660  0.02032642  0.39561037  1
  O  O50  1  0.98297340  0.47967358  0.89561037  1
  O  O51  1  0.48297340  0.97967358  0.60438963  1
  O  O52  1  0.15522629  0.69651300  0.13802896  1
  O  O53  1  0.65522629  0.19651300  0.36197104  1
  O  O54  1  0.84477371  0.30348700  0.86197104  1
  O  O55  1  0.34477371  0.80348700  0.63802896  1
  O  O56  1  0.29676928  0.53597981  0.05250966  1
  O  O57  1  0.79676928  0.03597981  0.44749034  1
  O  O58  1  0.70323072  0.46402019  0.94749034  1
  O  O59  1  0.20323072  0.96402019  0.55250966  1
  O  O60  1  0.81365860  0.62162523  0.21019059  1
  O  O61  1  0.31365860  0.12162523  0.28980941  1
  O  O62  1  0.18634140  0.37837477  0.78980941  1
  O  O63  1  0.68634140  0.87837477  0.71019059  1
  O  O64  1  0.04893087  0.51461500  0.27601347  1
  O  O65  1  0.54893087  0.01461500  0.22398653  1
  O  O66  1  0.95106913  0.48538500  0.72398653  1
  O  O67  1  0.45106913  0.98538500  0.77601347  1
  O  O68  1  0.72504228  0.62792539  0.60406727  1
  O  O69  1  0.22504228  0.12792539  0.89593273  1
  O  O70  1  0.27495772  0.37207461  0.39593273  1
  O  O71  1  0.77495772  0.87207461  0.10406727  1
  O  O72  1  0.80357463  0.57440927  0.45831846  1
  O  O73  1  0.30357463  0.07440927  0.04168154  1
  O  O74  1  0.19642537  0.42559073  0.54168154  1
  O  O75  1  0.69642537  0.92559073  0.95831846  1
  O  O76  1  0.01572428  0.65292098  0.56837495  1
  O  O77  1  0.51572428  0.15292098  0.93162505  1
  O  O78  1  0.98427572  0.34707902  0.43162505  1
  O  O79  1  0.48427572  0.84707902  0.06837495  1
  O  O80  1  0.59588997  0.63222425  0.36982942  1
  O  O81  1  0.09588997  0.13222425  0.13017058  1
  O  O82  1  0.40411003  0.36777575  0.63017058  1
  O  O83  1  0.90411003  0.86777575  0.86982942  1
  O  O84  1  0.46117277  0.51564767  0.24511206  1
  O  O85  1  0.96117277  0.01564767  0.25488794  1
  O  O86  1  0.53882723  0.48435233  0.75488794  1
  O  O87  1  0.03882723  0.98435233  0.74511206  1
  O  O88  1  0.48328719  0.74212638  0.23976444  1
  O  O89  1  0.98328719  0.24212638  0.26023556  1
  O  O90  1  0.51671281  0.25787362  0.76023556  1
  O  O91  1  0.01671281  0.75787362  0.73976444  1
  O  O92  1  0.64386307  0.79784246  0.49267885  1
  O  O93  1  0.14386307  0.29784246  0.00732115  1
  O  O94  1  0.35613693  0.20215754  0.50732115  1
  O  O95  1  0.85613693  0.70215754  0.99267885  1
  O  O96  1  0.44861980  0.62028314  0.52591727  1
  O  O97  1  0.94861980  0.12028314  0.97408273  1
  O  O98  1  0.55138020  0.37971686  0.47408273  1
  O  O99  1  0.05138020  0.87971686  0.02591727  1
