# generated using pymatgen
data_V2ZnO4
_symmetry_space_group_name_H-M   'P 1'
_cell_length_a   6.09040338
_cell_length_b   6.07213052
_cell_length_c   18.30326667
_cell_angle_alpha   60.09699186
_cell_angle_beta   59.30211726
_cell_angle_gamma   60.16324681
_symmetry_Int_Tables_number   1
_chemical_formula_structural   V2ZnO4
_chemical_formula_sum   'V12 Zn6 O24'
_cell_volume   476.97975094
_cell_formula_units_Z   6
loop_
 _symmetry_equiv_pos_site_id
 _symmetry_equiv_pos_as_xyz
  1  'x, y, z'
loop_
 _atom_site_type_symbol
 _atom_site_label
 _atom_site_symmetry_multiplicity
 _atom_site_fract_x
 _atom_site_fract_y
 _atom_site_fract_z
 _atom_site_occupancy
  V  V0  1  0.49566067  0.00289615  0.16701902  1
  V  V1  1  0.13048752  0.11863863  0.37729119  1
  V  V2  1  0.49770758  0.49736369  0.00215507  1
  V  V3  1  0.49657598  0.50080920  0.16640610  1
  V  V4  1  0.50069822  0.00007629  0.49949660  1
  V  V5  1  0.13337875  0.12013582  0.70889604  1
  V  V6  1  0.50081894  0.50101655  0.49941639  1
  V  V7  1  0.50132433  0.00008297  0.83334852  1
  V  V8  1  0.86807224  0.88331891  0.28795796  1
  V  V9  1  0.50304945  0.49666573  0.83325616  1
  V  V10  1  0.86842022  0.88128195  0.62312899  1
  V  V11  1  0.87074381  0.87642694  0.95896575  1
  Zn  Zn12  1  0.13416905  0.11977362  0.04218203  1
  Zn  Zn13  1  0.50094759  0.50012513  0.33318284  1
  Zn  Zn14  1  0.99677617  0.50239061  0.16653723  1
  Zn  Zn15  1  0.49807081  0.50149659  0.66653466  1
  Zn  Zn16  1  -0.00005995  0.50103689  0.49933186  1
  Zn  Zn17  1  0.00519979  0.49669329  0.83359054  1
  O  O18  1  0.26884899  0.25903285  0.08444462  1
  O  O19  1  0.26147782  0.24650840  0.24612758  1
  O  O20  1  0.26983207  0.71875869  0.08723264  1
  O  O21  1  0.71905489  0.25902338  0.08686518  1
  O  O22  1  0.26077421  0.24943283  0.42052073  1
  O  O23  1  0.26536729  0.75510444  0.24226559  1
  O  O24  1  0.27284710  0.25082326  0.57686960  1
  O  O25  1  0.73311665  0.27381973  0.24421811  1
  O  O26  1  0.26430685  0.72659025  0.42111955  1
  O  O27  1  0.73200230  0.75376734  0.08907080  1
  O  O28  1  0.73382491  0.24430794  0.42252977  1
  O  O29  1  0.73670294  0.75390086  0.24582508  1
  O  O30  1  0.26405786  0.24350447  0.75409285  1
  O  O31  1  0.26548561  0.75546045  0.57780754  1
  O  O32  1  0.73624372  0.27212182  0.57929616  1
  O  O33  1  0.26203689  0.73104490  0.75457254  1
  O  O34  1  0.27489610  0.25008006  0.90642440  1
  O  O35  1  0.72838033  0.75126425  0.42155119  1
  O  O36  1  0.73679822  0.24968472  0.75630438  1
  O  O37  1  0.74005579  0.75070983  0.57969826  1
  O  O38  1  0.27401379  0.73806822  0.91490052  1
  O  O39  1  0.73433892  0.27038962  0.91559266  1
  O  O40  1  0.73256733  0.75094771  0.75691984  1
  O  O41  1  0.73092724  0.74542303  0.91705444  1
