# generated using pymatgen
data_PrH3CSO7
_symmetry_space_group_name_H-M   'P 1'
_cell_length_a   7.05952995
_cell_length_b   7.05952995
_cell_length_c   11.98053819
_cell_angle_alpha   90.00000000
_cell_angle_beta   90.00000000
_cell_angle_gamma   90.00000000
_symmetry_Int_Tables_number   1
_chemical_formula_structural   PrH3CSO7
_chemical_formula_sum   'Pr4 H12 C4 S4 O28'
_cell_volume   597.07363987
_cell_formula_units_Z   4
loop_
 _symmetry_equiv_pos_site_id
 _symmetry_equiv_pos_as_xyz
  1  'x, y, z'
loop_
 _atom_site_type_symbol
 _atom_site_label
 _atom_site_symmetry_multiplicity
 _atom_site_fract_x
 _atom_site_fract_y
 _atom_site_fract_z
 _atom_site_occupancy
  Pr  Pr0  1  0.11446403  0.63118463  0.90721196  1
  Pr  Pr1  1  0.88553597  0.36881537  0.40721196  1
  Pr  Pr2  1  0.63118463  0.88553597  0.65721196  1
  Pr  Pr3  1  0.36881537  0.11446403  0.15721196  1
  H  H4  1  0.03158901  0.14033789  0.86638617  1
  H  H5  1  0.96841099  0.85966211  0.36638617  1
  H  H6  1  0.14033789  0.96841099  0.61638617  1
  H  H7  1  0.85966211  0.03158901  0.11638617  1
  H  H8  1  0.17536116  0.39965839  0.68838208  1
  H  H9  1  0.82463884  0.60034161  0.18838208  1
  H  H10  1  0.39965839  0.82463884  0.43838208  1
  H  H11  1  0.60034161  0.17536116  0.93838208  1
  H  H12  1  0.38288611  0.45874992  0.72542773  1
  H  H13  1  0.61711389  0.54125008  0.22542773  1
  H  H14  1  0.45874992  0.61711389  0.47542773  1
  H  H15  1  0.54125008  0.38288611  0.97542773  1
  C  C16  1  0.11352546  0.13594163  0.94456005  1
  C  C17  1  0.88647454  0.86405837  0.44456005  1
  C  C18  1  0.13594163  0.88647454  0.69456005  1
  C  C19  1  0.86405837  0.11352546  0.19456005  1
  S  S20  1  0.76501917  0.38734618  0.71313263  1
  S  S21  1  0.23498083  0.61265382  0.21313263  1
  S  S22  1  0.38734618  0.23498083  0.46313263  1
  S  S23  1  0.61265382  0.76501917  0.96313263  1
  O  O24  1  0.88824432  0.36667573  0.61344463  1
  O  O25  1  0.11175568  0.63332427  0.11344463  1
  O  O26  1  0.36667573  0.11175568  0.36344463  1
  O  O27  1  0.63332427  0.88824432  0.86344463  1
  O  O28  1  0.61827691  0.53788713  0.69265364  1
  O  O29  1  0.38172309  0.46211287  0.19265364  1
  O  O30  1  0.53788713  0.38172309  0.44265364  1
  O  O31  1  0.46211287  0.61827691  0.94265364  1
  O  O32  1  0.88252327  0.44102094  0.80999381  1
  O  O33  1  0.11747673  0.55897906  0.30999381  1
  O  O34  1  0.44102094  0.11747673  0.55999381  1
  O  O35  1  0.55897906  0.88252327  0.05999381  1
  O  O36  1  0.66962151  0.20628469  0.73930314  1
  O  O37  1  0.33037849  0.79371531  0.23930314  1
  O  O38  1  0.20628469  0.33037849  0.48930314  1
  O  O39  1  0.79371531  0.66962151  0.98930314  1
  O  O40  1  0.15579661  0.29068383  0.99245505  1
  O  O41  1  0.84420339  0.70931617  0.49245505  1
  O  O42  1  0.29068383  0.84420339  0.74245505  1
  O  O43  1  0.70931617  0.15579661  0.24245505  1
  O  O44  1  0.16099263  0.97543232  0.98537252  1
  O  O45  1  0.83900737  0.02456768  0.48537252  1
  O  O46  1  0.97543232  0.83900737  0.73537252  1
  O  O47  1  0.02456768  0.16099263  0.23537252  1
  O  O48  1  0.25371793  0.43173540  0.75315659  1
  O  O49  1  0.74628207  0.56826460  0.25315659  1
  O  O50  1  0.43173540  0.74628207  0.50315659  1
  O  O51  1  0.56826460  0.25371793  0.00315659  1
