# generated using pymatgen
data_Er5Bi3
_symmetry_space_group_name_H-M   'P 1'
_cell_length_a   8.28517934
_cell_length_b   9.44935243
_cell_length_c   11.96008166
_cell_angle_alpha   90.00000000
_cell_angle_beta   90.00000000
_cell_angle_gamma   90.00000000
_symmetry_Int_Tables_number   1
_chemical_formula_structural   Er5Bi3
_chemical_formula_sum   'Er20 Bi12'
_cell_volume   936.34976430
_cell_formula_units_Z   4
loop_
 _symmetry_equiv_pos_site_id
 _symmetry_equiv_pos_as_xyz
  1  'x, y, z'
loop_
 _atom_site_type_symbol
 _atom_site_label
 _atom_site_symmetry_multiplicity
 _atom_site_fract_x
 _atom_site_fract_y
 _atom_site_fract_z
 _atom_site_occupancy
  Er  Er0  1  0.69621219  0.94092934  0.43134912  1
  Er  Er1  1  0.80378781  0.55907066  0.93134912  1
  Er  Er2  1  0.30378781  0.44092934  0.56865088  1
  Er  Er3  1  0.19621219  0.05907066  0.06865088  1
  Er  Er4  1  0.30378781  0.05907066  0.56865088  1
  Er  Er5  1  0.19621219  0.44092934  0.06865088  1
  Er  Er6  1  0.69621219  0.55907066  0.43134912  1
  Er  Er7  1  0.80378781  0.94092934  0.93134912  1
  Er  Er8  1  0.32714871  0.75000000  0.26750060  1
  Er  Er9  1  0.17285129  0.75000000  0.76750060  1
  Er  Er10  1  0.67285129  0.25000000  0.73249940  1
  Er  Er11  1  0.82714871  0.25000000  0.23249940  1
  Er  Er12  1  0.02648057  0.75000000  0.49119118  1
  Er  Er13  1  0.47351943  0.75000000  0.99119118  1
  Er  Er14  1  0.97351943  0.25000000  0.50880882  1
  Er  Er15  1  0.52648057  0.25000000  0.00880882  1
  Er  Er16  1  0.84659942  0.75000000  0.21181159  1
  Er  Er17  1  0.65340058  0.75000000  0.71181159  1
  Er  Er18  1  0.15340058  0.25000000  0.78818841  1
  Er  Er19  1  0.34659942  0.25000000  0.28818841  1
  Bi  Bi20  1  0.08976805  0.75000000  0.02037052  1
  Bi  Bi21  1  0.41023195  0.75000000  0.52037052  1
  Bi  Bi22  1  0.91023195  0.25000000  0.97962948  1
  Bi  Bi23  1  0.58976805  0.25000000  0.47962948  1
  Bi  Bi24  1  0.56865894  0.98882852  0.17376816  1
  Bi  Bi25  1  0.93134106  0.51117148  0.67376816  1
  Bi  Bi26  1  0.43134106  0.48882852  0.82623184  1
  Bi  Bi27  1  0.06865894  0.01117148  0.32623184  1
  Bi  Bi28  1  0.43134106  0.01117148  0.82623184  1
  Bi  Bi29  1  0.06865894  0.48882852  0.32623184  1
  Bi  Bi30  1  0.56865894  0.51117148  0.17376816  1
  Bi  Bi31  1  0.93134106  0.98882852  0.67376816  1
