# generated using pymatgen
data_Rb2GaB5(H4O7)2
_symmetry_space_group_name_H-M   'P 1'
_cell_length_a   7.18458858
_cell_length_b   7.18458858
_cell_length_c   13.97907787
_cell_angle_alpha   90.00000000
_cell_angle_beta   90.00000000
_cell_angle_gamma   96.31623624
_symmetry_Int_Tables_number   1
_chemical_formula_structural   Rb2GaB5(H4O7)2
_chemical_formula_sum   'Rb4 Ga2 B10 H16 O28'
_cell_volume   717.19631864
_cell_formula_units_Z   2
loop_
 _symmetry_equiv_pos_site_id
 _symmetry_equiv_pos_as_xyz
  1  'x, y, z'
loop_
 _atom_site_type_symbol
 _atom_site_label
 _atom_site_symmetry_multiplicity
 _atom_site_fract_x
 _atom_site_fract_y
 _atom_site_fract_z
 _atom_site_occupancy
  Rb  Rb0  1  0.91573207  0.38082754  0.34373513  1
  Rb  Rb1  1  0.38082754  0.91573207  0.65626487  1
  Rb  Rb2  1  0.08426793  0.61917246  0.84373513  1
  Rb  Rb3  1  0.61917246  0.08426793  0.15626487  1
  Ga  Ga4  1  0.62778182  0.62778182  0.00000000  1
  Ga  Ga5  1  0.37221818  0.37221818  0.50000000  1
  B  B6  1  0.20062476  0.79937524  0.25000000  1
  B  B7  1  0.79937524  0.20062476  0.75000000  1
  B  B8  1  0.25846941  0.69434471  0.08177250  1
  B  B9  1  0.69434471  0.25846941  0.91822750  1
  B  B10  1  0.74153059  0.30565529  0.58177250  1
  B  B11  1  0.30565529  0.74153059  0.41822750  1
  B  B12  1  0.93662923  0.71626907  0.13127013  1
  B  B13  1  0.71626907  0.93662923  0.86872987  1
  B  B14  1  0.06337077  0.28373093  0.63127013  1
  B  B15  1  0.28373093  0.06337077  0.36872987  1
  H  H16  1  0.43532387  0.43486829  0.28374245  1
  H  H17  1  0.43486829  0.43532387  0.71625755  1
  H  H18  1  0.56467613  0.56513171  0.78374245  1
  H  H19  1  0.56513171  0.56467613  0.21625755  1
  H  H20  1  0.85858061  0.89802118  0.29691597  1
  H  H21  1  0.89802118  0.85858061  0.70308403  1
  H  H22  1  0.14141939  0.10197882  0.79691597  1
  H  H23  1  0.10197882  0.14141939  0.20308403  1
  H  H24  1  0.75715866  0.91068519  0.39439347  1
  H  H25  1  0.91068519  0.75715866  0.60560653  1
  H  H26  1  0.24284134  0.08931481  0.89439347  1
  H  H27  1  0.08931481  0.24284134  0.10560653  1
  H  H28  1  0.74430149  0.61219390  0.48384178  1
  H  H29  1  0.61219390  0.74430149  0.51615822  1
  H  H30  1  0.25569851  0.38780610  0.98384178  1
  H  H31  1  0.38780610  0.25569851  0.01615822  1
  O  O32  1  -0.00065122  0.76209228  0.22252686  1
  O  O33  1  0.76209228  -0.00065122  0.77747314  1
  O  O34  1  0.00065122  0.23790772  0.72252686  1
  O  O35  1  0.23790772  0.00065122  0.27747314  1
  O  O36  1  0.32244504  0.76216532  0.16856247  1
  O  O37  1  0.76216532  0.32244504  0.83143753  1
  O  O38  1  0.67755496  0.23783468  0.66856247  1
  O  O39  1  0.23783468  0.67755496  0.33143753  1
  O  O40  1  0.06510866  0.67536047  0.06062222  1
  O  O41  1  0.67536047  0.06510866  0.93937778  1
  O  O42  1  0.93489134  0.32463953  0.56062222  1
  O  O43  1  0.32463953  0.93489134  0.43937778  1
  O  O44  1  0.75028742  0.71104526  0.11075933  1
  O  O45  1  0.71104526  0.75028742  0.88924067  1
  O  O46  1  0.24971258  0.28895474  0.61075933  1
  O  O47  1  0.28895474  0.24971258  0.38924067  1
  O  O48  1  0.37080901  0.64145175  0.00985522  1
  O  O49  1  0.64145175  0.37080901  0.99014478  1
  O  O50  1  0.62919099  0.35854825  0.50985522  1
  O  O51  1  0.35854825  0.62919099  0.49014478  1
  O  O52  1  0.55540584  0.44459416  0.25000000  1
  O  O53  1  0.44459416  0.55540584  0.75000000  1
  O  O54  1  0.74647606  0.74647606  0.50000000  1
  O  O55  1  0.25352394  0.25352394  0.00000000  1
  O  O56  1  0.78139891  0.97918623  0.33402450  1
  O  O57  1  0.97918623  0.78139891  0.66597550  1
  O  O58  1  0.21860109  0.02081377  0.83402450  1
  O  O59  1  0.02081377  0.21860109  0.16597550  1
