# generated using pymatgen
data_ScV(SeO4)2
_symmetry_space_group_name_H-M   'P 1'
_cell_length_a   6.72698242
_cell_length_b   6.80377652
_cell_length_c   16.23768373
_cell_angle_alpha   90.00000000
_cell_angle_beta   90.00000000
_cell_angle_gamma   93.17783942
_symmetry_Int_Tables_number   1
_chemical_formula_structural   ScV(SeO4)2
_chemical_formula_sum   'Sc4 V4 Se8 O32'
_cell_volume   742.03787620
_cell_formula_units_Z   4
loop_
 _symmetry_equiv_pos_site_id
 _symmetry_equiv_pos_as_xyz
  1  'x, y, z'
loop_
 _atom_site_type_symbol
 _atom_site_label
 _atom_site_symmetry_multiplicity
 _atom_site_fract_x
 _atom_site_fract_y
 _atom_site_fract_z
 _atom_site_occupancy
  Sc  Sc0  1  0.55773216  0.35671789  0.69694921  1
  Sc  Sc1  1  0.44226784  0.14328211  0.19694921  1
  Sc  Sc2  1  0.44226784  0.64328211  0.30305079  1
  Sc  Sc3  1  0.55773216  0.85671789  0.80305079  1
  V  V4  1  0.83087435  0.31487028  0.51595930  1
  V  V5  1  0.16912565  0.18512972  0.01595930  1
  V  V6  1  0.16912565  0.68512972  0.48404070  1
  V  V7  1  0.83087435  0.81487028  0.98404070  1
  Se  Se8  1  0.06566790  0.52457557  0.68308474  1
  Se  Se9  1  0.93433210  0.97542443  0.18308474  1
  Se  Se10  1  0.93433210  0.47542443  0.31691526  1
  Se  Se11  1  0.06566790  0.02457557  0.81691526  1
  Se  Se12  1  0.54003056  0.35287423  0.89357272  1
  Se  Se13  1  0.45996944  0.14712577  0.39357272  1
  Se  Se14  1  0.45996944  0.64712577  0.10642728  1
  Se  Se15  1  0.54003056  0.85287423  0.60642728  1
  O  O16  1  0.00595634  0.52772626  0.57125699  1
  O  O17  1  0.99404366  0.97227374  0.07125699  1
  O  O18  1  0.99404366  0.47227374  0.42874301  1
  O  O19  1  0.00595634  0.02772626  0.92874301  1
  O  O20  1  0.62023767  0.36597906  0.56991978  1
  O  O21  1  0.37976233  0.13402094  0.06991978  1
  O  O22  1  0.37976233  0.63402094  0.43008022  1
  O  O23  1  0.62023767  0.86597906  0.93008022  1
  O  O24  1  0.92612113  0.12866989  0.56039940  1
  O  O25  1  0.07387887  0.37133011  0.06039940  1
  O  O26  1  0.07387887  0.87133011  0.43960060  1
  O  O27  1  0.92612113  0.62866989  0.93960060  1
  O  O28  1  0.28886596  0.30966051  0.91862856  1
  O  O29  1  0.71113404  0.19033949  0.41862856  1
  O  O30  1  0.71113404  0.69033949  0.08137144  1
  O  O31  1  0.28886596  0.80966051  0.58137144  1
  O  O32  1  0.24937439  0.36282893  0.68448740  1
  O  O33  1  0.75062561  0.13717107  0.18448740  1
  O  O34  1  0.75062561  0.63717107  0.31551260  1
  O  O35  1  0.24937439  0.86282893  0.81551260  1
  O  O36  1  0.86814980  0.37991450  0.71572300  1
  O  O37  1  0.13185020  0.12008550  0.21572300  1
  O  O38  1  0.13185020  0.62008550  0.28427700  1
  O  O39  1  0.86814980  0.87991450  0.78427700  1
  O  O40  1  0.52421950  0.53678926  0.82161744  1
  O  O41  1  0.47578050  0.96321074  0.32161744  1
  O  O42  1  0.47578050  0.46321074  0.17838256  1
  O  O43  1  0.52421950  0.03678926  0.67838256  1
  O  O44  1  0.56730553  0.17894258  0.81719686  1
  O  O45  1  0.43269447  0.32105742  0.31719686  1
  O  O46  1  0.43269447  0.82105742  0.18280314  1
  O  O47  1  0.56730553  0.67894258  0.68280314  1
