# generated using pymatgen
data_MnBP(HO3)2
_symmetry_space_group_name_H-M   'P 1'
_cell_length_a   7.72548972
_cell_length_b   7.72548868
_cell_length_c   12.96707202
_cell_angle_alpha   90.00010561
_cell_angle_beta   89.99985190
_cell_angle_gamma   120.00002629
_symmetry_Int_Tables_number   1
_chemical_formula_structural   MnBP(HO3)2
_chemical_formula_sum   'Mn6 B6 P6 H12 O36'
_cell_volume   670.23085770
_cell_formula_units_Z   6
loop_
 _symmetry_equiv_pos_site_id
 _symmetry_equiv_pos_as_xyz
  1  'x, y, z'
loop_
 _atom_site_type_symbol
 _atom_site_label
 _atom_site_symmetry_multiplicity
 _atom_site_fract_x
 _atom_site_fract_y
 _atom_site_fract_z
 _atom_site_occupancy
  Mn  Mn0  1  0.12376298  0.12375818  0.33334026  1
  Mn  Mn1  1  0.99999512  0.87623955  0.66667145  1
  Mn  Mn2  1  0.87624496  0.00000564  0.00000596  1
  Mn  Mn3  1  0.74684579  0.00000556  0.50000869  1
  Mn  Mn4  1  0.25316026  0.25315679  0.83334169  1
  Mn  Mn5  1  0.99998963  0.74683701  0.16667740  1
  B  B6  1  0.68586588  0.24034021  0.12758008  1
  B  B7  1  0.55447456  0.31413333  0.46091365  1
  B  B8  1  0.75965873  0.44552536  0.79424693  1
  B  B9  1  0.44552428  0.75966784  0.87241358  1
  B  B10  1  0.24033013  0.68585584  0.53908025  1
  B  B11  1  0.31414463  0.55447581  0.20574720  1
  P  P12  1  0.67173419  0.91839244  0.23486417  1
  P  P13  1  0.24665747  0.32826706  0.56819747  1
  P  P14  1  0.08160823  0.75334363  0.90153171  1
  P  P15  1  0.75334753  0.08162034  0.76514084  1
  P  P16  1  0.91837893  0.67172643  0.43180710  1
  P  P17  1  0.32827177  0.24665009  0.09847434  1
  H  H18  1  0.40708890  0.72096024  0.40721419  1
  H  H19  1  0.31387171  0.59291084  0.74054842  1
  H  H20  1  0.27904016  0.68612888  0.07388077  1
  H  H21  1  0.68610672  0.27905509  0.59279298  1
  H  H22  1  0.72094499  0.40705134  0.25945862  1
  H  H23  1  0.59294794  0.31389291  0.92612614  1
  H  H24  1  0.41922465  0.05143213  0.38030658  1
  H  H25  1  0.63220844  0.58077554  0.71364071  1
  H  H26  1  0.94856557  0.36779015  0.04697368  1
  H  H27  1  0.36775324  0.94852985  0.61970654  1
  H  H28  1  0.05147007  0.41922317  0.28637246  1
  H  H29  1  0.58077671  0.63224734  0.95303961  1
  O  O30  1  0.41930358  0.78840583  0.47338088  1
  O  O31  1  0.36910335  0.58069803  0.80671527  1
  O  O32  1  0.21159635  0.63089615  0.14004751  1
  O  O33  1  0.63090243  0.21160630  0.52662458  1
  O  O34  1  0.78839282  0.41929283  0.19329094  1
  O  O35  1  0.58070725  0.36909956  0.85995690  1
  O  O36  1  0.41333482  0.17445458  0.38553566  1
  O  O37  1  0.76111982  0.58666432  0.71886857  1
  O  O38  1  0.82554347  0.23888030  0.05220317  1
  O  O39  1  0.23884735  0.82552289  0.61445709  1
  O  O40  1  0.17447555  0.41332321  0.28112346  1
  O  O41  1  0.58667709  0.76115208  0.94779155  1
  O  O42  1  0.79215892  0.01557448  0.33375095  1
  O  O43  1  0.22341827  0.20784639  0.66708441  1
  O  O44  1  0.98442815  0.77658282  0.00041740  1
  O  O45  1  0.77660290  0.98443770  0.66625920  1
  O  O46  1  0.01556127  0.79216493  0.33292520  1
  O  O47  1  0.20783284  0.22339620  0.99959162  1
  O  O48  1  0.59244437  0.05267471  0.18815277  1
  O  O49  1  0.46022764  0.40755629  0.52148891  1
  O  O50  1  0.94732719  0.53977155  0.85482056  1
  O  O51  1  0.53975258  0.94732633  0.81183050  1
  O  O52  1  0.05267451  0.59242669  0.47849647  1
  O  O53  1  0.40756867  0.46024842  0.14516415  1
  O  O54  1  0.47993061  0.71993337  0.26857669  1
  O  O55  1  0.24000551  0.52006503  0.60191006  1
  O  O56  1  0.28006400  0.75999742  0.93524281  1
  O  O57  1  0.76000085  0.28006842  0.73141929  1
  O  O58  1  0.71993399  0.47993263  0.39808452  1
  O  O59  1  0.52007250  0.24000257  0.06475162  1
  O  O60  1  0.79320303  0.87656303  0.15577237  1
  O  O61  1  0.08335969  0.20679853  0.48910774  1
  O  O62  1  0.12343730  0.91663959  0.82244113  1
  O  O63  1  0.91662506  0.12344339  0.84423735  1
  O  O64  1  0.87655573  0.79318165  0.51090429  1
  O  O65  1  0.20681640  0.08337318  0.17757095  1
