# generated using pymatgen
data_MgH14SeO11
_symmetry_space_group_name_H-M   'P 1'
_cell_length_a   6.88269873
_cell_length_b   12.26755549
_cell_length_c   12.35298552
_cell_angle_alpha   90.00000000
_cell_angle_beta   90.00000000
_cell_angle_gamma   90.00000000
_symmetry_Int_Tables_number   1
_chemical_formula_structural   MgH14SeO11
_chemical_formula_sum   'Mg4 H56 Se4 O44'
_cell_volume   1043.01060316
_cell_formula_units_Z   4
loop_
 _symmetry_equiv_pos_site_id
 _symmetry_equiv_pos_as_xyz
  1  'x, y, z'
loop_
 _atom_site_type_symbol
 _atom_site_label
 _atom_site_symmetry_multiplicity
 _atom_site_fract_x
 _atom_site_fract_y
 _atom_site_fract_z
 _atom_site_occupancy
  Mg  Mg0  1  0.95931621  0.89484134  0.58437336  1
  Mg  Mg1  1  0.45931621  0.10515866  0.91562664  1
  Mg  Mg2  1  0.04068379  0.60515866  0.08437336  1
  Mg  Mg3  1  0.54068379  0.39484134  0.41562664  1
  H  H4  1  0.90083572  0.77852822  0.76617158  1
  H  H5  1  0.40083572  0.22147178  0.73382842  1
  H  H6  1  0.09916428  0.72147178  0.26617158  1
  H  H7  1  0.59916428  0.27852822  0.23382842  1
  H  H8  1  0.12877708  0.80630544  0.76552988  1
  H  H9  1  0.62877708  0.19369456  0.73447012  1
  H  H10  1  0.87122292  0.69369456  0.26552988  1
  H  H11  1  0.37122292  0.30630544  0.23447012  1
  H  H12  1  0.69881403  0.72777400  0.57892730  1
  H  H13  1  0.19881403  0.27222600  0.92107270  1
  H  H14  1  0.30118597  0.77222600  0.07892730  1
  H  H15  1  0.80118597  0.22777400  0.42107270  1
  H  H16  1  0.75028560  0.74903577  0.45675449  1
  H  H17  1  0.25028560  0.25096423  0.04324551  1
  H  H18  1  0.24971440  0.75096423  0.95675449  1
  H  H19  1  0.74971440  0.24903577  0.54324551  1
  H  H20  1  0.30419760  0.77659598  0.57699172  1
  H  H21  1  0.80419760  0.22340402  0.92300828  1
  H  H22  1  0.69580240  0.72340402  0.07699172  1
  H  H23  1  0.19580240  0.27659598  0.42300828  1
  H  H24  1  0.24805935  0.81739910  0.45788866  1
  H  H25  1  0.74805935  0.18260090  0.04211134  1
  H  H26  1  0.75194065  0.68260090  0.95788866  1
  H  H27  1  0.25194065  0.31739910  0.54211134  1
  H  H28  1  0.80134010  0.95006737  0.38842408  1
  H  H29  1  0.30134010  0.04993263  0.11157592  1
  H  H30  1  0.19865990  0.54993263  0.88842408  1
  H  H31  1  0.69865990  0.45006737  0.61157592  1
  H  H32  1  0.97993928  0.02885731  0.40651400  1
  H  H33  1  0.47993928  0.97114269  0.09348600  1
  H  H34  1  0.02006072  0.47114269  0.90651400  1
  H  H35  1  0.52006072  0.52885731  0.59348600  1
  H  H36  1  0.02486627  0.10636995  0.63686546  1
  H  H37  1  0.52486627  0.89363005  0.86313454  1
  H  H38  1  0.97513373  0.39363005  0.13686546  1
  H  H39  1  0.47513373  0.60636995  0.36313454  1
  H  H40  1  0.22302725  0.05866060  0.58597451  1
  H  H41  1  0.72302725  0.94133940  0.91402549  1
  H  H42  1  0.77697275  0.44133940  0.08597451  1
  H  H43  1  0.27697275  0.55866060  0.41402549  1
  H  H44  1  0.67028852  0.96938402  0.71991500  1
  H  H45  1  0.17028852  0.03061598  0.78008500  1
  H  H46  1  0.32971148  0.53061598  0.21991500  1
  H  H47  1  0.82971148  0.46938402  0.28008500  1
  H  H48  1  0.60508219  0.00051248  0.59919727  1
  H  H49  1  0.10508219  0.99948752  0.90080273  1
  H  H50  1  0.39491781  0.49948752  0.09919727  1
  H  H51  1  0.89491781  0.50051248  0.40080273  1
  H  H52  1  0.45401721  0.01997801  0.43983176  1
  H  H53  1  0.95401721  0.98002199  0.06016824  1
  H  H54  1  0.54598279  0.48002199  0.93983176  1
  H  H55  1  0.04598279  0.51997801  0.56016824  1
  H  H56  1  0.50066810  0.13614941  0.48567872  1
  H  H57  1  0.00066810  0.86385059  0.01432128  1
  H  H58  1  0.49933190  0.36385059  0.98567872  1
  H  H59  1  0.99933190  0.63614941  0.51432128  1
  Se  Se60  1  0.99621980  0.32322487  0.71906323  1
  Se  Se61  1  0.49621980  0.67677513  0.78093677  1
  Se  Se62  1  0.00378020  0.17677513  0.21906323  1
  Se  Se63  1  0.50378020  0.82322487  0.28093677  1
  O  O64  1  0.92175071  0.44296750  0.67070102  1
  O  O65  1  0.42175071  0.55703250  0.82929898  1
  O  O66  1  0.07824929  0.05703250  0.17070102  1
  O  O67  1  0.57824929  0.94296750  0.32929898  1
  O  O68  1  0.98624450  0.32210116  0.85533885  1
  O  O69  1  0.48624450  0.67789884  0.64466115  1
  O  O70  1  0.01375550  0.17789884  0.35533885  1
  O  O71  1  0.51375550  0.82210116  0.14466115  1
  O  O72  1  0.22234850  0.29771310  0.67701835  1
  O  O73  1  0.72234850  0.70228690  0.82298165  1
  O  O74  1  0.77765150  0.20228690  0.17701835  1
  O  O75  1  0.27765150  0.79771310  0.32298165  1
  O  O76  1  0.85206926  0.22237932  0.66999294  1
  O  O77  1  0.35206926  0.77762068  0.83000706  1
  O  O78  1  0.14793074  0.27762068  0.16999294  1
  O  O79  1  0.64793074  0.72237932  0.33000706  1
  O  O80  1  0.00126584  0.82766887  0.73493827  1
  O  O81  1  0.50126584  0.17233113  0.76506173  1
  O  O82  1  0.99873416  0.67233113  0.23493827  1
  O  O83  1  0.49873416  0.32766887  0.26506173  1
  O  O84  1  0.80656306  0.75257654  0.53109524  1
  O  O85  1  0.30656306  0.24742346  0.96890476  1
  O  O86  1  0.19343694  0.74742346  0.03109524  1
  O  O87  1  0.69343694  0.25257654  0.46890476  1
  O  O88  1  0.22147652  0.82765540  0.53666129  1
  O  O89  1  0.72147652  0.17234460  0.96333871  1
  O  O90  1  0.77852348  0.67234460  0.03666129  1
  O  O91  1  0.27852348  0.32765540  0.46333871  1
  O  O92  1  0.92104798  0.96063106  0.43254424  1
  O  O93  1  0.42104798  0.03936894  0.06745576  1
  O  O94  1  0.07895202  0.53936894  0.93254424  1
  O  O95  1  0.57895202  0.46063106  0.56745576  1
  O  O96  1  0.10724262  0.04037129  0.63085023  1
  O  O97  1  0.60724262  0.95962871  0.86914977  1
  O  O98  1  0.89275738  0.45962871  0.13085023  1
  O  O99  1  0.39275738  0.54037129  0.36914977  1
  O  O100  1  0.70402921  0.96160050  0.64304094  1
  O  O101  1  0.20402921  0.03839950  0.85695906  1
  O  O102  1  0.29597079  0.53839950  0.14304094  1
  O  O103  1  0.79597079  0.46160050  0.35695906  1
  O  O104  1  0.43891682  0.06599965  0.50510988  1
  O  O105  1  0.93891682  0.93400035  0.99489012  1
  O  O106  1  0.56108318  0.43400035  0.00510988  1
  O  O107  1  0.06108318  0.56599965  0.49489012  1
