# generated using pymatgen
data_LiFe(Se2O5)2
_symmetry_space_group_name_H-M   'P 1'
_cell_length_a   6.10721887
_cell_length_b   6.90637657
_cell_length_c   10.51890822
_cell_angle_alpha   90.00000000
_cell_angle_beta   90.00000000
_cell_angle_gamma   90.00000000
_symmetry_Int_Tables_number   1
_chemical_formula_structural   LiFe(Se2O5)2
_chemical_formula_sum   'Li2 Fe2 Se8 O20'
_cell_volume   443.67443492
_cell_formula_units_Z   2
loop_
 _symmetry_equiv_pos_site_id
 _symmetry_equiv_pos_as_xyz
  1  'x, y, z'
loop_
 _atom_site_type_symbol
 _atom_site_label
 _atom_site_symmetry_multiplicity
 _atom_site_fract_x
 _atom_site_fract_y
 _atom_site_fract_z
 _atom_site_occupancy
  Li  Li0  1  0.50000000  0.50000000  0.27720756  1
  Li  Li1  1  0.50000000  -0.00000000  0.77720756  1
  Fe  Fe2  1  0.00000000  0.50000000  0.40161701  1
  Fe  Fe3  1  -0.00000000  -0.00000000  0.90161701  1
  Se  Se4  1  0.72065673  0.36820568  0.00042963  1
  Se  Se5  1  0.27934327  0.63179432  0.00042963  1
  Se  Se6  1  0.27934327  0.86820568  0.50042963  1
  Se  Se7  1  0.72065673  0.13179432  0.50042963  1
  Se  Se8  1  0.22128208  0.13740116  0.18992294  1
  Se  Se9  1  0.77871792  0.86259884  0.18992294  1
  Se  Se10  1  0.77871792  0.63740116  0.68992294  1
  Se  Se11  1  0.22128208  0.36259884  0.68992294  1
  O  O12  1  0.58677744  0.29551541  0.13173284  1
  O  O13  1  0.41322256  0.70448459  0.13173284  1
  O  O14  1  0.41322256  0.79551541  0.63173284  1
  O  O15  1  0.58677744  0.20448459  0.63173284  1
  O  O16  1  0.72465261  0.16257143  0.90504145  1
  O  O17  1  0.27534739  0.83742857  0.90504145  1
  O  O18  1  0.27534739  0.66257143  0.40504145  1
  O  O19  1  0.72465261  0.33742857  0.40504145  1
  O  O20  1  0.50000000  0.50000000  0.90975223  1
  O  O21  1  0.50000000  -0.00000000  0.40975223  1
  O  O22  1  0.10223639  0.18485696  0.04504320  1
  O  O23  1  0.89776361  0.81514304  0.04504320  1
  O  O24  1  0.89776361  0.68485696  0.54504320  1
  O  O25  1  0.10223639  0.31514304  0.54504320  1
  O  O26  1  0.18445114  0.35090551  0.26974376  1
  O  O27  1  0.81554886  0.64909449  0.26974376  1
  O  O28  1  0.81554886  0.85090551  0.76974376  1
  O  O29  1  0.18445114  0.14909449  0.76974376  1
  O  O30  1  0.00000000  -0.00000000  0.27091556  1
  O  O31  1  0.00000000  0.50000000  0.77091556  1
