# generated using pymatgen
data_Li3V(H4O3)4
_symmetry_space_group_name_H-M   'P 1'
_cell_length_a   6.00329973
_cell_length_b   6.53227832
_cell_length_c   7.34380203
_cell_angle_alpha   89.43783289
_cell_angle_beta   89.65623001
_cell_angle_gamma   89.38854397
_symmetry_Int_Tables_number   1
_chemical_formula_structural   Li3V(H4O3)4
_chemical_formula_sum   'Li3 V1 H16 O12'
_cell_volume   287.95358121
_cell_formula_units_Z   1
loop_
 _symmetry_equiv_pos_site_id
 _symmetry_equiv_pos_as_xyz
  1  'x, y, z'
loop_
 _atom_site_type_symbol
 _atom_site_label
 _atom_site_symmetry_multiplicity
 _atom_site_fract_x
 _atom_site_fract_y
 _atom_site_fract_z
 _atom_site_occupancy
  Li  Li0  1  0.59880279  0.73301099  0.06395806  1
  Li  Li1  1  0.00420203  0.23483450  0.35658367  1
  Li  Li2  1  0.50071532  0.12003846  0.58942900  1
  V  V3  1  0.08621431  0.61574083  0.85313738  1
  H  H4  1  0.35314287  0.58161849  0.31323512  1
  H  H5  1  0.54549606  0.69654945  0.41582092  1
  H  H6  1  0.55277756  0.11891869  0.98019731  1
  H  H7  1  0.35413511  0.04763976  0.10531242  1
  H  H8  1  0.04368931  0.61341325  0.45402426  1
  H  H9  1  0.00970583  0.60519242  0.23414106  1
  H  H10  1  0.05028571  0.19634793  0.01299637  1
  H  H11  1  0.01045010  0.96574977  0.08735303  1
  H  H12  1  0.11146288  0.97919569  0.60534327  1
  H  H13  1  0.11038811  0.21094034  0.67717582  1
  H  H14  1  0.61920826  0.15023836  0.26613164  1
  H  H15  1  0.62053941  0.37324527  0.35084809  1
  H  H16  1  0.50095870  0.40756135  0.83345549  1
  H  H17  1  0.74867056  0.31380126  0.81104020  1
  H  H18  1  0.50008044  0.75572535  0.70879800  1
  H  H19  1  0.74724302  0.79937087  0.63247401  1
  O  O20  1  0.01357641  0.74287555  0.65107297  1
  O  O21  1  0.01493787  0.35701485  0.83676890  1
  O  O22  1  0.37471239  0.63008647  0.88217398  1
  O  O23  1  0.93575462  0.72146467  0.03467095  1
  O  O24  1  0.51661811  0.61071617  0.30587568  1
  O  O25  1  0.51906957  0.02895911  0.08884043  1
  O  O26  1  0.07642096  0.53088205  0.34167629  1
  O  O27  1  0.07553235  0.10197668  0.12057277  1
  O  O28  1  0.16677783  0.12097013  0.57468699  1
  O  O29  1  0.67061153  0.22853281  0.37575420  1
  O  O30  1  0.58579313  0.27757661  0.80440135  1
  O  O31  1  0.58433685  0.82986184  0.60967035  1
