# generated using pymatgen
data_Na5Zr2MnF15
_symmetry_space_group_name_H-M   'P 1'
_cell_length_a   7.60409753
_cell_length_b   7.80494152
_cell_length_c   11.43924657
_cell_angle_alpha   109.94680347
_cell_angle_beta   90.00000000
_cell_angle_gamma   90.00000000
_symmetry_Int_Tables_number   1
_chemical_formula_structural   Na5Zr2MnF15
_chemical_formula_sum   'Na10 Zr4 Mn2 F30'
_cell_volume   638.18577348
_cell_formula_units_Z   2
loop_
 _symmetry_equiv_pos_site_id
 _symmetry_equiv_pos_as_xyz
  1  'x, y, z'
loop_
 _atom_site_type_symbol
 _atom_site_label
 _atom_site_symmetry_multiplicity
 _atom_site_fract_x
 _atom_site_fract_y
 _atom_site_fract_z
 _atom_site_occupancy
  Na  Na0  1  0.50000000  0.24151668  0.48303336  1
  Na  Na1  1  0.00000000  0.24151668  0.48303336  1
  Na  Na2  1  0.50000000  0.75848332  0.51696664  1
  Na  Na3  1  0.00000000  0.75848332  0.51696664  1
  Na  Na4  1  0.25000000  0.12239027  0.75377592  1
  Na  Na5  1  0.75000000  0.63138565  0.75377592  1
  Na  Na6  1  0.75000000  0.87760973  0.24622408  1
  Na  Na7  1  0.25000000  0.36861435  0.24622408  1
  Na  Na8  1  0.50000000  0.50000000  -0.00000000  1
  Na  Na9  1  0.00000000  0.50000000  -0.00000000  1
  Zr  Zr10  1  0.25000000  0.85674290  0.27050655  1
  Zr  Zr11  1  0.75000000  0.41376365  0.27050655  1
  Zr  Zr12  1  0.75000000  0.14325710  0.72949345  1
  Zr  Zr13  1  0.25000000  0.58623635  0.72949345  1
  Mn  Mn14  1  0.50000000  -0.00000000  -0.00000000  1
  Mn  Mn15  1  0.00000000  -0.00000000  -0.00000000  1
  F  F16  1  0.75000000  0.29335912  0.61117164  1
  F  F17  1  0.25000000  0.31781253  0.61117164  1
  F  F18  1  0.25000000  0.70664088  0.38882836  1
  F  F19  1  0.75000000  0.68218747  0.38882836  1
  F  F20  1  0.01426249  0.92269834  0.36623090  1
  F  F21  1  0.98573751  0.44353255  0.36623090  1
  F  F22  1  0.48573751  0.92269834  0.36623090  1
  F  F23  1  0.51426249  0.44353255  0.36623090  1
  F  F24  1  0.98573751  0.07730166  0.63376910  1
  F  F25  1  0.01426249  0.55646745  0.63376910  1
  F  F26  1  0.51426249  0.07730166  0.63376910  1
  F  F27  1  0.48573751  0.55646745  0.63376910  1
  F  F28  1  0.75000000  0.56354709  0.14581532  1
  F  F29  1  0.25000000  0.58226824  0.14581532  1
  F  F30  1  0.25000000  0.43645291  0.85418468  1
  F  F31  1  0.75000000  0.41773176  0.85418468  1
  F  F32  1  0.75000000  0.86069089  0.67456991  1
  F  F33  1  0.25000000  0.81387902  0.67456991  1
  F  F34  1  0.25000000  0.13930911  0.32543009  1
  F  F35  1  0.75000000  0.18612098  0.32543009  1
  F  F36  1  0.75000000  0.88951916  -0.00000000  1
  F  F37  1  0.25000000  0.11048084  -0.00000000  1
  F  F38  1  0.56488839  0.13425522  0.86767977  1
  F  F39  1  0.43511161  0.73342455  0.86767977  1
  F  F40  1  0.93511161  0.13425522  0.86767977  1
  F  F41  1  0.06488839  0.73342455  0.86767977  1
  F  F42  1  0.43511161  0.86574478  0.13232023  1
  F  F43  1  0.56488839  0.26657545  0.13232023  1
  F  F44  1  0.06488839  0.86574478  0.13232023  1
  F  F45  1  0.93511161  0.26657545  0.13232023  1
