# generated using pymatgen
data_Lu2Zn17
_symmetry_space_group_name_H-M   'P 1'
_cell_length_a   8.64994448
_cell_length_b   8.98986678
_cell_length_c   8.98986678
_cell_angle_alpha   120.25708261
_cell_angle_beta   90.00000000
_cell_angle_gamma   90.00000000
_symmetry_Int_Tables_number   1
_chemical_formula_structural   Lu2Zn17
_chemical_formula_sum   'Lu4 Zn34'
_cell_volume   603.83678961
_cell_formula_units_Z   2
loop_
 _symmetry_equiv_pos_site_id
 _symmetry_equiv_pos_as_xyz
  1  'x, y, z'
loop_
 _atom_site_type_symbol
 _atom_site_label
 _atom_site_symmetry_multiplicity
 _atom_site_fract_x
 _atom_site_fract_y
 _atom_site_fract_z
 _atom_site_occupancy
  Lu  Lu0  1  0.75000000  0.99943116  0.00056884  1
  Lu  Lu1  1  0.25000000  0.00056884  0.99943116  1
  Lu  Lu2  1  0.25000000  0.66619303  0.33380697  1
  Lu  Lu3  1  0.75000000  0.33380697  0.66619303  1
  Zn  Zn4  1  0.59735466  0.66679410  0.33320590  1
  Zn  Zn5  1  0.40264534  0.33320590  0.66679410  1
  Zn  Zn6  1  0.09735466  0.33320590  0.66679410  1
  Zn  Zn7  1  0.90264534  0.66679410  0.33320590  1
  Zn  Zn8  1  0.50000000  0.50000000  -0.00000000  1
  Zn  Zn9  1  0.50000000  0.50000000  0.50000000  1
  Zn  Zn10  1  0.50000000  0.00000000  0.50000000  1
  Zn  Zn11  1  -0.00000000  0.50000000  -0.00000000  1
  Zn  Zn12  1  -0.00000000  0.50000000  0.50000000  1
  Zn  Zn13  1  -0.00000000  0.00000000  0.50000000  1
  Zn  Zn14  1  0.75000000  0.66936369  0.02873696  1
  Zn  Zn15  1  0.75000000  0.35911290  0.33022185  1
  Zn  Zn16  1  0.75000000  0.97180271  0.64141919  1
  Zn  Zn17  1  0.75000000  0.35858081  0.02819729  1
  Zn  Zn18  1  0.75000000  0.97126304  0.33063631  1
  Zn  Zn19  1  0.75000000  0.66977815  0.64088710  1
  Zn  Zn20  1  0.25000000  0.33063631  0.97126304  1
  Zn  Zn21  1  0.25000000  0.64088710  0.66977815  1
  Zn  Zn22  1  0.25000000  0.02819729  0.35858081  1
  Zn  Zn23  1  0.25000000  0.64141919  0.97180271  1
  Zn  Zn24  1  0.25000000  0.02873696  0.66936369  1
  Zn  Zn25  1  0.25000000  0.33022185  0.35911290  1
  Zn  Zn26  1  0.48442691  0.83821746  0.67634567  1
  Zn  Zn27  1  0.48425495  0.83801198  0.16198802  1
  Zn  Zn28  1  0.48442691  0.32365433  0.16178254  1
  Zn  Zn29  1  0.51557309  0.16178254  0.32365433  1
  Zn  Zn30  1  0.51574505  0.16198802  0.83801198  1
  Zn  Zn31  1  0.51557309  0.67634567  0.83821746  1
  Zn  Zn32  1  0.98442691  0.16178254  0.32365433  1
  Zn  Zn33  1  0.98425495  0.16198802  0.83801198  1
  Zn  Zn34  1  0.98442691  0.67634567  0.83821746  1
  Zn  Zn35  1  0.01557309  0.83821746  0.67634567  1
  Zn  Zn36  1  0.01574505  0.83801198  0.16198802  1
  Zn  Zn37  1  0.01557309  0.32365433  0.16178254  1
