# generated using pymatgen
data_Cs5GeP3
_symmetry_space_group_name_H-M   'P 1'
_cell_length_a   6.03226919
_cell_length_b   14.54421540
_cell_length_c   15.97646601
_cell_angle_alpha   90.00000000
_cell_angle_beta   90.00000000
_cell_angle_gamma   90.00000000
_symmetry_Int_Tables_number   1
_chemical_formula_structural   Cs5GeP3
_chemical_formula_sum   'Cs20 Ge4 P12'
_cell_volume   1401.68921347
_cell_formula_units_Z   4
loop_
 _symmetry_equiv_pos_site_id
 _symmetry_equiv_pos_as_xyz
  1  'x, y, z'
loop_
 _atom_site_type_symbol
 _atom_site_label
 _atom_site_symmetry_multiplicity
 _atom_site_fract_x
 _atom_site_fract_y
 _atom_site_fract_z
 _atom_site_occupancy
  Cs  Cs0  1  0.75000000  0.93913352  0.94963041  1
  Cs  Cs1  1  0.75000000  0.43913352  0.55036959  1
  Cs  Cs2  1  0.25000000  0.06086648  0.05036959  1
  Cs  Cs3  1  0.25000000  0.56086648  0.44963041  1
  Cs  Cs4  1  0.75000000  0.88361072  0.18934427  1
  Cs  Cs5  1  0.75000000  0.38361072  0.31065573  1
  Cs  Cs6  1  0.25000000  0.11638928  0.81065573  1
  Cs  Cs7  1  0.25000000  0.61638928  0.68934427  1
  Cs  Cs8  1  0.75000000  0.64552671  0.04912147  1
  Cs  Cs9  1  0.75000000  0.14552671  0.45087853  1
  Cs  Cs10  1  0.25000000  0.35447329  0.95087853  1
  Cs  Cs11  1  0.25000000  0.85447329  0.54912147  1
  Cs  Cs12  1  0.75000000  0.22631881  0.70616169  1
  Cs  Cs13  1  0.75000000  0.72631881  0.79383831  1
  Cs  Cs14  1  0.25000000  0.77368119  0.29383831  1
  Cs  Cs15  1  0.25000000  0.27368119  0.20616169  1
  Cs  Cs16  1  0.75000000  0.45227291  0.85092573  1
  Cs  Cs17  1  0.75000000  0.95227291  0.64907427  1
  Cs  Cs18  1  0.25000000  0.54772709  0.14907427  1
  Cs  Cs19  1  0.25000000  0.04772709  0.35092573  1
  Ge  Ge20  1  0.75000000  0.23891563  0.06388818  1
  Ge  Ge21  1  0.75000000  0.73891563  0.43611182  1
  Ge  Ge22  1  0.25000000  0.76108437  0.93611182  1
  Ge  Ge23  1  0.25000000  0.26108437  0.56388818  1
  P  P24  1  0.75000000  0.39454584  0.08730346  1
  P  P25  1  0.75000000  0.89454584  0.41269654  1
  P  P26  1  0.25000000  0.60545416  0.91269654  1
  P  P27  1  0.25000000  0.10545416  0.58730346  1
  P  P28  1  0.75000000  0.19282134  0.92650740  1
  P  P29  1  0.75000000  0.69282134  0.57349260  1
  P  P30  1  0.25000000  0.80717866  0.07349260  1
  P  P31  1  0.25000000  0.30717866  0.42650740  1
  P  P32  1  0.75000000  0.13519967  0.17226370  1
  P  P33  1  0.75000000  0.63519967  0.32773630  1
  P  P34  1  0.25000000  0.86480033  0.82773630  1
  P  P35  1  0.25000000  0.36480033  0.67226370  1
