# generated using pymatgen
data_SnP2O7
_symmetry_space_group_name_H-M   'P 1'
_cell_length_a   6.53606608
_cell_length_b   6.47333219
_cell_length_c   7.03175344
_cell_angle_alpha   114.00536005
_cell_angle_beta   91.60890883
_cell_angle_gamma   84.88121623
_symmetry_Int_Tables_number   1
_chemical_formula_structural   SnP2O7
_chemical_formula_sum   'Sn2 P4 O14'
_cell_volume   270.68664160
_cell_formula_units_Z   2
loop_
 _symmetry_equiv_pos_site_id
 _symmetry_equiv_pos_as_xyz
  1  'x, y, z'
loop_
 _atom_site_type_symbol
 _atom_site_label
 _atom_site_symmetry_multiplicity
 _atom_site_fract_x
 _atom_site_fract_y
 _atom_site_fract_z
 _atom_site_occupancy
  Sn  Sn0  1  0.65712367  0.09452918  0.21557116  1
  Sn  Sn1  1  0.34287656  0.90547907  0.78442899  1
  P  P2  1  0.38701411  0.33929964  0.65012203  1
  P  P3  1  0.61298569  0.66070121  0.34987664  1
  P  P4  1  0.13630972  0.22712614  0.24667342  1
  P  P5  1  0.86368938  0.77286889  0.75332782  1
  O  O6  1  0.60743923  0.40837305  0.21045035  1
  O  O7  1  0.91092623  0.58591710  0.81862801  1
  O  O8  1  0.08906207  0.41408037  0.18137657  1
  O  O9  1  0.03365152  0.92979939  0.76236036  1
  O  O10  1  0.20797231  0.30978320  0.48622059  1
  O  O11  1  0.34048625  0.22187852  0.79045293  1
  O  O12  1  0.33181025  0.05225013  0.12040120  1
  O  O13  1  0.39256200  0.59162702  0.78954281  1
  O  O14  1  0.79202337  0.69020855  0.51378217  1
  O  O15  1  0.58851884  0.23505830  0.52609557  1
  O  O16  1  0.96635354  0.07018746  0.23763457  1
  O  O17  1  0.66819128  0.94775535  0.87959962  1
  O  O18  1  0.65952232  0.77812609  0.20955196  1
  O  O19  1  0.41148267  0.76494932  0.47390424  1
