# generated using pymatgen
data_HC2N3
_symmetry_space_group_name_H-M   'P 1'
_cell_length_a   4.21627878
_cell_length_b   12.75390048
_cell_length_c   17.00156369
_cell_angle_alpha   90.11488836
_cell_angle_beta   90.00000000
_cell_angle_gamma   90.00000000
_symmetry_Int_Tables_number   1
_chemical_formula_structural   HC2N3
_chemical_formula_sum   'H12 C24 N36'
_cell_volume   914.24024729
_cell_formula_units_Z   12
loop_
 _symmetry_equiv_pos_site_id
 _symmetry_equiv_pos_as_xyz
  1  'x, y, z'
loop_
 _atom_site_type_symbol
 _atom_site_label
 _atom_site_symmetry_multiplicity
 _atom_site_fract_x
 _atom_site_fract_y
 _atom_site_fract_z
 _atom_site_occupancy
  H  H0  1  -0.00000000  0.05687171  0.57729395  1
  H  H1  1  0.00000000  0.94312829  0.42270605  1
  H  H2  1  -0.00000000  0.18218798  0.62494936  1
  H  H3  1  0.00000000  0.81781202  0.37505064  1
  H  H4  1  -0.00000000  0.61554939  0.38165878  1
  H  H5  1  -0.00000000  0.38445061  0.61834122  1
  H  H6  1  -0.00000000  0.44214463  0.07799062  1
  H  H7  1  -0.00000000  0.55785537  0.92200938  1
  H  H8  1  -0.00000000  0.31617118  0.12446911  1
  H  H9  1  -0.00000000  0.68382882  0.87553089  1
  H  H10  1  -0.00000000  0.11109370  0.11756768  1
  H  H11  1  -0.00000000  0.88890630  0.88243232  1
  C  C12  1  -0.00000000  0.96433102  0.16315864  1
  C  C13  1  -0.00000000  0.03566898  0.83684136  1
  C  C14  1  0.00000000  0.82931601  0.07439060  1
  C  C15  1  0.00000000  0.17068399  0.92560940  1
  C  C16  1  -0.00000000  0.80217559  0.21674243  1
  C  C17  1  0.00000000  0.19782441  0.78325757  1
  C  C18  1  -0.00000000  0.65197193  0.12932297  1
  C  C19  1  -0.00000000  0.34802807  0.87067703  1
  C  C20  1  0.00000000  0.63308199  0.26232056  1
  C  C21  1  0.00000000  0.36691801  0.73767944  1
  C  C22  1  -0.00000000  0.46520540  0.33878354  1
  C  C23  1  0.00000000  0.53479460  0.66121646  1
  C  C24  1  -0.00000000  0.32993052  0.42688916  1
  C  C25  1  -0.00000000  0.67006948  0.57311084  1
  C  C26  1  0.00000000  0.13410067  0.23768303  1
  C  C27  1  -0.00000000  0.86589933  0.76231697  1
  C  C28  1  0.00000000  0.15267644  0.37089209  1
  C  C29  1  -0.00000000  0.84732356  0.62910791  1
  C  C30  1  -0.00000000  0.18126962  0.50392448  1
  C  C31  1  -0.00000000  0.81873038  0.49607552  1
  C  C32  1  -0.00000000  0.30306982  0.28418150  1
  C  C33  1  0.00000000  0.69693018  0.71581850  1
  C  C34  1  -0.00000000  0.31845305  0.00363274  1
  C  C35  1  0.00000000  0.68154695  0.99636726  1
  N  N36  1  0.00000000  0.90529094  0.22812203  1
  N  N37  1  -0.00000000  0.09470906  0.77187797  1
  N  N38  1  -0.00000000  0.93265390  0.08770286  1
  N  N39  1  0.00000000  0.06734610  0.91229714  1
  N  N40  1  0.00000000  0.76130413  0.14032375  1
  N  N41  1  0.00000000  0.23869587  0.85967625  1
  N  N42  1  0.00000000  0.73730212  0.27814547  1
  N  N43  1  0.00000000  0.26269788  0.72185453  1
  N  N44  1  -0.00000000  0.61265219  0.05772010  1
  N  N45  1  0.00000000  0.38734781  0.94227990  1
  N  N46  1  -0.00000000  0.58820197  0.19176117  1
  N  N47  1  -0.00000000  0.41179803  0.80823883  1
  N  N48  1  0.00000000  0.57317981  0.33004069  1
  N  N49  1  -0.00000000  0.42682019  0.66995931  1
  N  N50  1  0.00000000  0.40593871  0.27355226  1
  N  N51  1  -0.00000000  0.59406129  0.72644774  1
  N  N52  1  -0.00000000  0.43348732  0.41415396  1
  N  N53  1  -0.00000000  0.56651268  0.58584604  1
  N  N54  1  -0.00000000  0.28848503  0.49864055  1
  N  N55  1  0.00000000  0.71151497  0.50135945  1
  N  N56  1  0.00000000  0.26200174  0.36042194  1
  N  N57  1  -0.00000000  0.73799826  0.63957806  1
  N  N58  1  0.00000000  0.23822428  0.22213486  1
  N  N59  1  -0.00000000  0.76177572  0.77786514  1
  N  N60  1  0.00000000  0.07250998  0.17063045  1
  N  N61  1  -0.00000000  0.92749002  0.82936955  1
  N  N62  1  -0.00000000  0.08925641  0.30799601  1
  N  N63  1  -0.00000000  0.91074359  0.69200399  1
  N  N64  1  0.00000000  0.11279632  0.44206752  1
  N  N65  1  0.00000000  0.88720368  0.55793248  1
  N  N66  1  0.00000000  0.13729669  0.57448930  1
  N  N67  1  0.00000000  0.86270331  0.42551070  1
  N  N68  1  -0.00000000  0.78863465  0.00231331  1
  N  N69  1  -0.00000000  0.21136535  0.99768669  1
  N  N70  1  -0.00000000  0.36175109  0.07450559  1
  N  N71  1  0.00000000  0.63824891  0.92549441  1
