# generated using pymatgen
data_Fe3H28(S2O15)2
_symmetry_space_group_name_H-M   'P 1'
_cell_length_a   6.42312510
_cell_length_b   6.54052511
_cell_length_c   15.66112472
_cell_angle_alpha   94.72852234
_cell_angle_beta   90.27165053
_cell_angle_gamma   79.76251562
_symmetry_Int_Tables_number   1
_chemical_formula_structural   Fe3H28(S2O15)2
_chemical_formula_sum   'Fe3 H28 S4 O30'
_cell_volume   645.22223387
_cell_formula_units_Z   1
loop_
 _symmetry_equiv_pos_site_id
 _symmetry_equiv_pos_as_xyz
  1  'x, y, z'
loop_
 _atom_site_type_symbol
 _atom_site_label
 _atom_site_symmetry_multiplicity
 _atom_site_fract_x
 _atom_site_fract_y
 _atom_site_fract_z
 _atom_site_occupancy
  Fe  Fe0  1  0.00000000  -0.00000000  -0.00000000  1
  Fe  Fe1  1  0.59415498  0.66077338  0.32030463  1
  Fe  Fe2  1  0.40584502  0.33922662  0.67969537  1
  H  H3  1  0.79947601  0.65944885  0.01103771  1
  H  H4  1  0.20052399  0.34055115  0.98896229  1
  H  H5  1  0.85365080  0.73405455  0.10776486  1
  H  H6  1  0.14634920  0.26594545  0.89223514  1
  H  H7  1  0.33102388  0.73464429  0.06387484  1
  H  H8  1  0.66897612  0.26535571  0.93612516  1
  H  H9  1  0.37212828  0.96496926  0.09375375  1
  H  H10  1  0.62787172  0.03503074  0.90624625  1
  H  H11  1  0.23725002  0.81523248  0.85901027  1
  H  H12  1  0.76274998  0.18476752  0.14098973  1
  H  H13  1  0.00918261  0.75024348  0.84255399  1
  H  H14  1  0.99081739  0.24975652  0.15744601  1
  H  H15  1  0.96508899  0.62326762  0.24143363  1
  H  H16  1  0.03491101  0.37673238  0.75856637  1
  H  H17  1  0.89970915  0.86276379  0.28097822  1
  H  H18  1  0.10029085  0.13723621  0.71902178  1
  H  H19  1  0.46473201  0.04283863  0.25530808  1
  H  H20  1  0.53526799  0.95716137  0.74469192  1
  H  H21  1  0.28231522  0.99262917  0.31516150  1
  H  H22  1  0.71768478  0.00737083  0.68483850  1
  H  H23  1  0.79250309  0.71698592  0.47632439  1
  H  H24  1  0.20749691  0.28301408  0.52367561  1
  H  H25  1  0.71940817  0.93788643  0.43816072  1
  H  H26  1  0.28059183  0.06211357  0.56183928  1
  H  H27  1  0.30714659  0.69297670  0.44932159  1
  H  H28  1  0.69285341  0.30702330  0.55067841  1
  H  H29  1  0.24688570  0.51538134  0.38206750  1
  H  H30  1  0.75311430  0.48461866  0.61793250  1
  S  S31  1  0.35984930  0.40446471  0.16669592  1
  S  S32  1  0.64015070  0.59553529  0.83330408  1
  S  S33  1  0.90843952  0.23855107  0.38646985  1
  S  S34  1  0.09156048  0.76144893  0.61353015  1
  O  O35  1  0.48024677  0.56127137  0.21129149  1
  O  O36  1  0.51975323  0.43872863  0.78870851  1
  O  O37  1  0.15514455  0.41750128  0.21267504  1
  O  O38  1  0.84485545  0.58249872  0.78732496  1
  O  O39  1  0.48631692  0.18973830  0.17084571  1
  O  O40  1  0.51368308  0.81026170  0.82915429  1
  O  O41  1  0.33261210  0.45884320  0.07784660  1
  O  O42  1  0.66738790  0.54115680  0.92215340  1
  O  O43  1  0.76172006  0.38142700  0.33241518  1
  O  O44  1  0.23827994  0.61857300  0.66758482  1
  O  O45  1  0.07258042  0.34942546  0.42418126  1
  O  O46  1  0.92741958  0.65057454  0.57581874  1
  O  O47  1  0.77886266  0.17313495  0.45445243  1
  O  O48  1  0.22113734  0.82686505  0.54554757  1
  O  O49  1  0.00564077  0.05384665  0.32925989  1
  O  O50  1  0.99435923  0.94615335  0.67074011  1
  O  O51  1  0.88144388  0.74616410  0.04762557  1
  O  O52  1  0.11855612  0.25383590  0.95237443  1
  O  O53  1  0.30319684  0.88243561  0.05106919  1
  O  O54  1  0.69680316  0.11756439  0.94893081  1
  O  O55  1  0.09375116  0.82600538  0.88254912  1
  O  O56  1  0.90624884  0.17399462  0.11745088  1
  O  O57  1  0.84214924  0.74126255  0.25225798  1
  O  O58  1  0.15785076  0.25873745  0.74774202  1
  O  O59  1  0.43797092  0.96106730  0.30410080  1
  O  O60  1  0.56202908  0.03893270  0.69589920  1
  O  O61  1  0.70028357  0.78787651  0.43268911  1
  O  O62  1  0.29971643  0.21212349  0.56731089  1
  O  O63  1  0.33750100  0.62281972  0.39040817  1
  O  O64  1  0.66249900  0.37718028  0.60959183  1
