# generated using pymatgen
data_Li4CaB10(HO5)4
_symmetry_space_group_name_H-M   'P 1'
_cell_length_a   8.39744694
_cell_length_b   8.87785830
_cell_length_c   9.54618318
_cell_angle_alpha   90.00000000
_cell_angle_beta   90.00000000
_cell_angle_gamma   90.00000000
_symmetry_Int_Tables_number   1
_chemical_formula_structural   Li4CaB10(HO5)4
_chemical_formula_sum   'Li8 Ca2 B20 H8 O40'
_cell_volume   711.68078628
_cell_formula_units_Z   2
loop_
 _symmetry_equiv_pos_site_id
 _symmetry_equiv_pos_as_xyz
  1  'x, y, z'
loop_
 _atom_site_type_symbol
 _atom_site_label
 _atom_site_symmetry_multiplicity
 _atom_site_fract_x
 _atom_site_fract_y
 _atom_site_fract_z
 _atom_site_occupancy
  Li  Li0  1  0.42705121  0.44236802  0.78947792  1
  Li  Li1  1  0.07294879  0.55763198  0.78947792  1
  Li  Li2  1  0.07294879  0.94236802  0.28947792  1
  Li  Li3  1  0.42705121  0.05763198  0.28947792  1
  Li  Li4  1  0.57402370  0.95167276  0.98796447  1
  Li  Li5  1  0.92597630  0.04832724  0.98796447  1
  Li  Li6  1  0.92597630  0.45167276  0.48796447  1
  Li  Li7  1  0.57402370  0.54832724  0.48796447  1
  Ca  Ca8  1  0.25000000  0.50000000  0.16665263  1
  Ca  Ca9  1  0.25000000  0.00000000  0.66665263  1
  B  B10  1  0.68058664  0.26095072  0.88913693  1
  B  B11  1  0.81941336  0.73904928  0.88913693  1
  B  B12  1  0.81941336  0.76095072  0.38913693  1
  B  B13  1  0.68058664  0.23904928  0.38913693  1
  B  B14  1  0.32143574  0.74888363  0.89979418  1
  B  B15  1  0.17856426  0.25111637  0.89979418  1
  B  B16  1  0.17856426  0.24888363  0.39979418  1
  B  B17  1  0.32143574  0.75111637  0.39979418  1
  B  B18  1  0.75000000  0.50000000  0.76404139  1
  B  B19  1  0.75000000  0.00000000  0.26404139  1
  B  B20  1  0.56712969  0.72334436  0.74849948  1
  B  B21  1  0.93287031  0.27665564  0.74849948  1
  B  B22  1  0.93287031  0.22334436  0.24849948  1
  B  B23  1  0.56712969  0.77665564  0.24849948  1
  B  B24  1  0.43046300  0.27516891  0.54132558  1
  B  B25  1  0.06953700  0.72483109  0.54132558  1
  B  B26  1  0.06953700  0.77516891  0.04132558  1
  B  B27  1  0.43046300  0.22483109  0.04132558  1
  B  B28  1  0.25000000  0.50000000  0.51056428  1
  B  B29  1  0.25000000  0.00000000  0.01056428  1
  H  H30  1  0.56766069  0.12500166  0.65626081  1
  H  H31  1  0.93233931  0.87499834  0.65626081  1
  H  H32  1  0.93233931  0.62500166  0.15626081  1
  H  H33  1  0.56766069  0.37499834  0.15626081  1
  H  H34  1  0.57307913  0.86128119  0.57387495  1
  H  H35  1  0.92692087  0.13871881  0.57387495  1
  H  H36  1  0.92692087  0.36128119  0.07387495  1
  H  H37  1  0.57307913  0.63871881  0.07387495  1
  O  O38  1  0.35212677  0.40778255  0.59625041  1
  O  O39  1  0.14787323  0.59221745  0.59625041  1
  O  O40  1  0.14787323  0.90778255  0.09625041  1
  O  O41  1  0.35212677  0.09221745  0.09625041  1
  O  O42  1  0.64466139  0.40778748  0.85867438  1
  O  O43  1  0.85533861  0.59221252  0.85867438  1
  O  O44  1  0.85533861  0.90778748  0.35867438  1
  O  O45  1  0.64466139  0.09221252  0.35867438  1
  O  O46  1  0.42740888  0.66160576  0.82831852  1
  O  O47  1  0.07259112  0.33839424  0.82831852  1
  O  O48  1  0.07259112  0.16160576  0.32831852  1
  O  O49  1  0.42740888  0.83839424  0.32831852  1
  O  O50  1  0.57480848  0.17605958  0.96607300  1
  O  O51  1  0.92519152  0.82394042  0.96607300  1
  O  O52  1  0.92519152  0.67605958  0.46607300  1
  O  O53  1  0.57480848  0.32394042  0.46607300  1
  O  O54  1  0.64901329  0.59936637  0.67933965  1
  O  O55  1  0.85098671  0.40063363  0.67933965  1
  O  O56  1  0.85098671  0.09936637  0.17933965  1
  O  O57  1  0.64901329  0.90063363  0.17933965  1
  O  O58  1  0.31586682  0.31817399  0.95174460  1
  O  O59  1  0.18413318  0.68182601  0.95174460  1
  O  O60  1  0.18413318  0.81817399  0.45174460  1
  O  O61  1  0.31586682  0.18182601  0.45174460  1
  O  O62  1  0.67772387  0.80526053  0.84784497  1
  O  O63  1  0.82227613  0.19473947  0.84784497  1
  O  O64  1  0.82227613  0.30526053  0.34784497  1
  O  O65  1  0.67772387  0.69473947  0.34784497  1
  O  O66  1  0.46527033  0.17506339  0.66243649  1
  O  O67  1  0.03472967  0.82493661  0.66243649  1
  O  O68  1  0.03472967  0.67506339  0.16243649  1
  O  O69  1  0.46527033  0.32493661  0.16243649  1
  O  O70  1  0.49766471  0.83297073  0.64646233  1
  O  O71  1  0.00233529  0.16702927  0.64646233  1
  O  O72  1  0.00233529  0.33297073  0.14646233  1
  O  O73  1  0.49766471  0.66702927  0.14646233  1
  O  O74  1  0.34702107  0.90266229  0.91099216  1
  O  O75  1  0.15297893  0.09733771  0.91099216  1
  O  O76  1  0.15297893  0.40266229  0.41099216  1
  O  O77  1  0.34702107  0.59733771  0.41099216  1
