# generated using pymatgen
data_Cu3P4Pb3O16
_symmetry_space_group_name_H-M   'P 1'
_cell_length_a   4.99238291
_cell_length_b   9.29311766
_cell_length_c   16.51444073
_cell_angle_alpha   84.31361511
_cell_angle_beta   81.30630499
_cell_angle_gamma   74.41863999
_symmetry_Int_Tables_number   1
_chemical_formula_structural   Cu3P4Pb3O16
_chemical_formula_sum   'Cu6 P8 Pb6 O32'
_cell_volume   728.17002591
_cell_formula_units_Z   2
loop_
 _symmetry_equiv_pos_site_id
 _symmetry_equiv_pos_as_xyz
  1  'x, y, z'
loop_
 _atom_site_type_symbol
 _atom_site_label
 _atom_site_symmetry_multiplicity
 _atom_site_fract_x
 _atom_site_fract_y
 _atom_site_fract_z
 _atom_site_occupancy
  Cu  Cu0  1  0.50000000  0.50000000  0.50000000  1
  Cu  Cu1  1  0.00000000  -0.00000000  0.00000000  1
  Cu  Cu2  1  0.99604325  0.59706543  0.35281646  1
  Cu  Cu3  1  0.44592515  0.90293457  0.14718354  1
  Cu  Cu4  1  0.00395675  0.40293457  0.64718354  1
  Cu  Cu5  1  0.55407485  0.09706543  0.85281646  1
  P  P6  1  0.10851314  0.30042798  0.46991251  1
  P  P7  1  0.37885363  0.19957202  0.03008749  1
  P  P8  1  0.89148686  0.69957202  0.53008749  1
  P  P9  1  0.62114637  0.80042798  0.96991251  1
  P  P10  1  0.87689214  0.93679823  0.26192169  1
  P  P11  1  0.57561206  0.56320177  0.23807831  1
  P  P12  1  0.12310786  0.06320177  0.73807831  1
  P  P13  1  0.42438794  0.43679823  0.76192169  1
  Pb  Pb14  1  0.21163013  0.25000000  0.25000000  1
  Pb  Pb15  1  0.78836987  0.75000000  0.75000000  1
  Pb  Pb16  1  0.30305424  0.88045048  0.40523559  1
  Pb  Pb17  1  0.08874032  0.61954952  0.09476441  1
  Pb  Pb18  1  0.69694576  0.11954952  0.59476441  1
  Pb  Pb19  1  0.91125968  0.38045048  0.90523559  1
  O  O20  1  0.85795956  0.37692796  0.53694526  1
  O  O21  1  0.27183277  0.12307204  0.96305474  1
  O  O22  1  0.14204044  0.62307204  0.46305474  1
  O  O23  1  0.72816723  0.87692796  0.03694526  1
  O  O24  1  0.04931445  0.37978667  0.38493626  1
  O  O25  1  0.31403738  0.12021333  0.11506374  1
  O  O26  1  0.95068555  0.62021333  0.61506374  1
  O  O27  1  0.68596262  0.87978667  0.88493626  1
  O  O28  1  0.38783743  0.31661915  0.49453983  1
  O  O29  1  0.69899640  0.18338085  0.00546017  1
  O  O30  1  0.61216257  0.68338085  0.50546017  1
  O  O31  1  0.30100360  0.81661915  0.99453983  1
  O  O32  1  0.11478270  0.13420394  0.47286913  1
  O  O33  1  0.22185576  0.36579606  0.02713087  1
  O  O34  1  0.88521730  0.86579606  0.52713087  1
  O  O35  1  0.77814424  0.63420394  0.97286913  1
  O  O36  1  0.55852036  0.96108929  0.25845492  1
  O  O37  1  0.27806457  0.53891071  0.24154508  1
  O  O38  1  0.44147964  0.03891071  0.74154508  1
  O  O39  1  0.72193543  0.46108929  0.75845492  1
  O  O40  1  0.96372546  0.81213568  0.33318966  1
  O  O41  1  0.60905080  0.68786432  0.16681034  1
  O  O42  1  0.03627454  0.18786432  0.66681034  1
  O  O43  1  0.39094920  0.31213568  0.83318966  1
  O  O44  1  0.04376385  0.88767928  0.17788526  1
  O  O45  1  0.60932838  0.61232072  0.32211474  1
  O  O46  1  0.95623615  0.11232072  0.82211474  1
  O  O47  1  0.39067162  0.38767928  0.67788526  1
  O  O48  1  0.93408936  0.07676840  0.29189437  1
  O  O49  1  0.80275213  0.42323160  0.20810563  1
  O  O50  1  0.06591064  0.92323160  0.70810563  1
  O  O51  1  0.19724787  0.57676840  0.79189437  1
