# generated using pymatgen
data_PrH3CSO7
_symmetry_space_group_name_H-M   'P 1'
_cell_length_a   7.04453657
_cell_length_b   7.04453657
_cell_length_c   12.01095184
_cell_angle_alpha   90.00000000
_cell_angle_beta   90.00000000
_cell_angle_gamma   90.00000000
_symmetry_Int_Tables_number   1
_chemical_formula_structural   PrH3CSO7
_chemical_formula_sum   'Pr4 H12 C4 S4 O28'
_cell_volume   596.04943632
_cell_formula_units_Z   4
loop_
 _symmetry_equiv_pos_site_id
 _symmetry_equiv_pos_as_xyz
  1  'x, y, z'
loop_
 _atom_site_type_symbol
 _atom_site_label
 _atom_site_symmetry_multiplicity
 _atom_site_fract_x
 _atom_site_fract_y
 _atom_site_fract_z
 _atom_site_occupancy
  Pr  Pr0  1  0.13062348  0.38519691  0.47901433  1
  Pr  Pr1  1  0.86937652  0.61480309  0.97901433  1
  Pr  Pr2  1  0.38519691  0.86937652  0.72901433  1
  Pr  Pr3  1  0.61480309  0.13062348  0.22901433  1
  H  H4  1  0.63950525  0.47987152  0.51547633  1
  H  H5  1  0.36049475  0.52012848  0.01547633  1
  H  H6  1  0.47987152  0.36049475  0.76547633  1
  H  H7  1  0.52012848  0.63950525  0.26547633  1
  H  H8  1  0.89567060  0.32544967  0.69563785  1
  H  H9  1  0.10432940  0.67455033  0.19563785  1
  H  H10  1  0.32544967  0.10432940  0.94563785  1
  H  H11  1  0.67455033  0.89567060  0.44563785  1
  H  H12  1  0.95909336  0.11735310  0.66146038  1
  H  H13  1  0.04090664  0.88264690  0.16146038  1
  H  H14  1  0.11735310  0.04090664  0.91146038  1
  H  H15  1  0.88264690  0.95909336  0.41146038  1
  C  C16  1  0.63540761  0.39122462  0.44008861  1
  C  C17  1  0.36459239  0.60877538  0.94008861  1
  C  C18  1  0.39122462  0.36459239  0.69008861  1
  C  C19  1  0.60877538  0.63540761  0.19008861  1
  S  S20  1  0.11330549  0.26494465  0.17275015  1
  S  S21  1  0.88669451  0.73505535  0.67275015  1
  S  S22  1  0.26494465  0.88669451  0.42275015  1
  S  S23  1  0.73505535  0.11330549  0.92275015  1
  O  O24  1  0.29491418  0.16883451  0.14697954  1
  O  O25  1  0.70508582  0.83116549  0.64697954  1
  O  O26  1  0.16883451  0.70508582  0.39697954  1
  O  O27  1  0.83116549  0.29491418  0.89697954  1
  O  O28  1  0.13320593  0.38900621  0.27199365  1
  O  O29  1  0.86679407  0.61099379  0.77199365  1
  O  O30  1  0.38900621  0.86679407  0.52199365  1
  O  O31  1  0.61099379  0.13320593  0.02199365  1
  O  O32  1  0.05979504  0.38217395  0.07567288  1
  O  O33  1  0.94020496  0.61782605  0.57567288  1
  O  O34  1  0.38217395  0.94020496  0.32567288  1
  O  O35  1  0.61782605  0.05979504  0.82567288  1
  O  O36  1  0.96230418  0.11761252  0.19331390  1
  O  O37  1  0.03769582  0.88238748  0.69331390  1
  O  O38  1  0.11761252  0.03769582  0.44331390  1
  O  O39  1  0.88238748  0.96230418  0.94331390  1
  O  O40  1  0.47448582  0.33982179  0.40054203  1
  O  O41  1  0.52551418  0.66017821  0.90054203  1
  O  O42  1  0.33982179  0.52551418  0.65054203  1
  O  O43  1  0.66017821  0.47448582  0.15054203  1
  O  O44  1  0.79050165  0.34537960  0.39325316  1
  O  O45  1  0.20949835  0.65462040  0.89325316  1
  O  O46  1  0.34537960  0.20949835  0.64325316  1
  O  O47  1  0.65462040  0.79050165  0.14325316  1
  O  O48  1  0.92903044  0.24497498  0.63195718  1
  O  O49  1  0.07096956  0.75502502  0.13195718  1
  O  O50  1  0.24497498  0.07096956  0.88195718  1
  O  O51  1  0.75502502  0.92903044  0.38195718  1
