# generated using pymatgen
data_Nd6Fe13Au
_symmetry_space_group_name_H-M   'P 1'
_cell_length_a   8.03791205
_cell_length_b   8.03791205
_cell_length_c   12.84279977
_cell_angle_alpha   108.23617059
_cell_angle_beta   108.23617059
_cell_angle_gamma   90.00000000
_symmetry_Int_Tables_number   1
_chemical_formula_structural   Nd6Fe13Au
_chemical_formula_sum   'Nd12 Fe26 Au2'
_cell_volume   744.06880988
_cell_formula_units_Z   2
loop_
 _symmetry_equiv_pos_site_id
 _symmetry_equiv_pos_as_xyz
  1  'x, y, z'
loop_
 _atom_site_type_symbol
 _atom_site_label
 _atom_site_symmetry_multiplicity
 _atom_site_fract_x
 _atom_site_fract_y
 _atom_site_fract_z
 _atom_site_occupancy
  Nd  Nd0  1  0.97660337  0.47660337  0.62544722  1
  Nd  Nd1  1  0.64884386  0.14884386  0.62544722  1
  Nd  Nd2  1  0.14884386  0.97660337  0.62544722  1
  Nd  Nd3  1  0.47660337  0.64884386  0.62544722  1
  Nd  Nd4  1  0.02339663  0.52339663  0.37455278  1
  Nd  Nd5  1  0.35115614  0.85115614  0.37455278  1
  Nd  Nd6  1  0.85115614  0.02339663  0.37455278  1
  Nd  Nd7  1  0.52339663  0.35115614  0.37455278  1
  Nd  Nd8  1  0.60717423  0.60717423  0.21434845  1
  Nd  Nd9  1  0.10717423  0.10717423  0.21434845  1
  Nd  Nd10  1  0.39282577  0.39282577  0.78565155  1
  Nd  Nd11  1  0.89282577  0.89282577  0.78565155  1
  Fe  Fe12  1  0.11893757  0.61893757  0.88084067  1
  Fe  Fe13  1  0.76190310  0.26190310  0.88084067  1
  Fe  Fe14  1  0.26190310  0.11893757  0.88084067  1
  Fe  Fe15  1  0.61893757  0.76190310  0.88084067  1
  Fe  Fe16  1  0.88106243  0.38106243  0.11915933  1
  Fe  Fe17  1  0.23809690  0.73809690  0.11915933  1
  Fe  Fe18  1  0.73809690  0.88106243  0.11915933  1
  Fe  Fe19  1  0.38106243  0.23809690  0.11915933  1
  Fe  Fe20  1  0.70980639  0.56671701  0.00000000  1
  Fe  Fe21  1  0.29019361  0.43328299  0.00000000  1
  Fe  Fe22  1  0.79019361  0.06671701  0.00000000  1
  Fe  Fe23  1  0.20980639  0.93328299  0.00000000  1
  Fe  Fe24  1  0.56671701  0.29019361  0.00000000  1
  Fe  Fe25  1  0.43328299  0.70980639  0.00000000  1
  Fe  Fe26  1  0.06671701  0.20980639  0.00000000  1
  Fe  Fe27  1  0.93328299  0.79019361  0.00000000  1
  Fe  Fe28  1  0.29030659  0.79030659  0.80826993  1
  Fe  Fe29  1  0.51796334  0.01796334  0.80826993  1
  Fe  Fe30  1  0.01796334  0.29030659  0.80826993  1
  Fe  Fe31  1  0.79030659  0.51796334  0.80826993  1
  Fe  Fe32  1  0.70969341  0.20969341  0.19173007  1
  Fe  Fe33  1  0.48203666  0.98203666  0.19173007  1
  Fe  Fe34  1  0.98203666  0.70969341  0.19173007  1
  Fe  Fe35  1  0.20969341  0.48203666  0.19173007  1
  Fe  Fe36  1  0.00000000  0.50000000  0.00000000  1
  Fe  Fe37  1  0.50000000  0.00000000  0.00000000  1
  Au  Au38  1  0.25000000  0.25000000  0.50000000  1
  Au  Au39  1  0.75000000  0.75000000  0.50000000  1
