# generated using pymatgen
data_KFe4(PO4)3
_symmetry_space_group_name_H-M   'P 1'
_cell_length_a   6.35114027
_cell_length_b   9.93671003
_cell_length_c   16.72077304
_cell_angle_alpha   90.00000000
_cell_angle_beta   90.00000000
_cell_angle_gamma   90.00000000
_symmetry_Int_Tables_number   1
_chemical_formula_structural   KFe4(PO4)3
_chemical_formula_sum   'K4 Fe16 P12 O48'
_cell_volume   1055.23860993
_cell_formula_units_Z   4
loop_
 _symmetry_equiv_pos_site_id
 _symmetry_equiv_pos_as_xyz
  1  'x, y, z'
loop_
 _atom_site_type_symbol
 _atom_site_label
 _atom_site_symmetry_multiplicity
 _atom_site_fract_x
 _atom_site_fract_y
 _atom_site_fract_z
 _atom_site_occupancy
  K  K0  1  0.00000000  0.70893721  0.53166115  1
  K  K1  1  -0.00000000  0.29106279  0.46833885  1
  K  K2  1  0.50000000  0.20893721  0.96833885  1
  K  K3  1  0.50000000  0.79106279  0.03166115  1
  Fe  Fe4  1  0.50000000  0.96169931  0.59438403  1
  Fe  Fe5  1  0.50000000  0.03830069  0.40561597  1
  Fe  Fe6  1  -0.00000000  0.46169931  0.90561597  1
  Fe  Fe7  1  0.00000000  0.53830069  0.09438403  1
  Fe  Fe8  1  0.50000000  0.51715448  0.63756241  1
  Fe  Fe9  1  0.50000000  0.48284552  0.36243759  1
  Fe  Fe10  1  -0.00000000  0.01715448  0.86243759  1
  Fe  Fe11  1  0.00000000  0.98284552  0.13756241  1
  Fe  Fe12  1  0.24908290  0.24955549  0.70414269  1
  Fe  Fe13  1  0.24908290  0.75044451  0.29585731  1
  Fe  Fe14  1  0.25091710  0.74955549  0.79585731  1
  Fe  Fe15  1  0.25091710  0.25044451  0.20414269  1
  Fe  Fe16  1  0.75091710  0.75044451  0.29585731  1
  Fe  Fe17  1  0.75091710  0.24955549  0.70414269  1
  Fe  Fe18  1  0.74908290  0.25044451  0.20414269  1
  Fe  Fe19  1  0.74908290  0.74955549  0.79585731  1
  P  P20  1  0.00000000  0.95760156  0.66607835  1
  P  P21  1  -0.00000000  0.04239844  0.33392165  1
  P  P22  1  0.50000000  0.45760156  0.83392165  1
  P  P23  1  0.50000000  0.54239844  0.16607835  1
  P  P24  1  0.00000000  0.54097735  0.71528969  1
  P  P25  1  0.00000000  0.45902265  0.28471031  1
  P  P26  1  0.50000000  0.04097735  0.78471031  1
  P  P27  1  0.50000000  0.95902265  0.21528969  1
  P  P28  1  0.50000000  0.28700396  0.53739578  1
  P  P29  1  0.50000000  0.71299604  0.46260422  1
  P  P30  1  0.00000000  0.78700396  0.96260422  1
  P  P31  1  0.00000000  0.21299604  0.03739578  1
  O  O32  1  0.00000000  0.11308504  0.68005469  1
  O  O33  1  0.00000000  0.88691496  0.31994531  1
  O  O34  1  0.50000000  0.61308504  0.81994531  1
  O  O35  1  0.50000000  0.38691496  0.18005469  1
  O  O36  1  -0.00000000  0.38507652  0.72257432  1
  O  O37  1  0.00000000  0.61492348  0.27742568  1
  O  O38  1  0.50000000  0.88507652  0.77742568  1
  O  O39  1  0.50000000  0.11492348  0.22257432  1
  O  O40  1  0.19777147  0.91289557  0.62078595  1
  O  O41  1  0.19777147  0.08710443  0.37921405  1
  O  O42  1  0.30222853  0.41289557  0.87921405  1
  O  O43  1  0.30222853  0.58710443  0.12078595  1
  O  O44  1  0.80222853  0.08710443  0.37921405  1
  O  O45  1  0.80222853  0.91289557  0.62078595  1
  O  O46  1  0.69777147  0.58710443  0.12078595  1
  O  O47  1  0.69777147  0.41289557  0.87921405  1
  O  O48  1  0.50000000  0.10367859  0.69725869  1
  O  O49  1  0.50000000  0.89632141  0.30274131  1
  O  O50  1  0.00000000  0.60367859  0.80274131  1
  O  O51  1  -0.00000000  0.39632141  0.19725869  1
  O  O52  1  -0.00000000  0.88588266  0.75230723  1
  O  O53  1  -0.00000000  0.11411734  0.24769277  1
  O  O54  1  0.50000000  0.38588266  0.74769277  1
  O  O55  1  0.50000000  0.61411734  0.25230723  1
  O  O56  1  0.50000000  0.64371437  0.54389067  1
  O  O57  1  0.50000000  0.35628563  0.45610933  1
  O  O58  1  -0.00000000  0.14371437  0.95610933  1
  O  O59  1  -0.00000000  0.85628563  0.04389067  1
  O  O60  1  0.30433692  0.33083017  0.58867716  1
  O  O61  1  0.30433692  0.66916983  0.41132284  1
  O  O62  1  0.19566308  0.83083017  0.91132284  1
  O  O63  1  0.19566308  0.16916983  0.08867716  1
  O  O64  1  0.69566308  0.66916983  0.41132284  1
  O  O65  1  0.69566308  0.33083017  0.58867716  1
  O  O66  1  0.80433692  0.16916983  0.08867716  1
  O  O67  1  0.80433692  0.83083017  0.91132284  1
  O  O68  1  0.79800531  0.59545566  0.67555888  1
  O  O69  1  0.79800531  0.40454434  0.32444112  1
  O  O70  1  0.70199469  0.09545566  0.82444112  1
  O  O71  1  0.70199469  0.90454434  0.17555888  1
  O  O72  1  0.20199469  0.40454434  0.32444112  1
  O  O73  1  0.20199469  0.59545566  0.67555888  1
  O  O74  1  0.29800531  0.90454434  0.17555888  1
  O  O75  1  0.29800531  0.09545566  0.82444112  1
  O  O76  1  0.50000000  0.13270379  0.52181433  1
  O  O77  1  0.50000000  0.86729621  0.47818567  1
  O  O78  1  0.00000000  0.63270379  0.97818567  1
  O  O79  1  0.00000000  0.36729621  0.02181433  1
