# generated using pymatgen
data_Sr5Pt4
_symmetry_space_group_name_H-M   'P 1'
_cell_length_a   7.89637159
_cell_length_b   8.22340477
_cell_length_c   15.73410534
_cell_angle_alpha   90.00000000
_cell_angle_beta   90.00000000
_cell_angle_gamma   90.00000000
_symmetry_Int_Tables_number   1
_chemical_formula_structural   Sr5Pt4
_chemical_formula_sum   'Sr20 Pt16'
_cell_volume   1021.69507114
_cell_formula_units_Z   4
loop_
 _symmetry_equiv_pos_site_id
 _symmetry_equiv_pos_as_xyz
  1  'x, y, z'
loop_
 _atom_site_type_symbol
 _atom_site_label
 _atom_site_symmetry_multiplicity
 _atom_site_fract_x
 _atom_site_fract_y
 _atom_site_fract_z
 _atom_site_occupancy
  Sr  Sr0  1  0.34275427  0.82793131  0.87878050  1
  Sr  Sr1  1  0.84275427  0.67206869  0.62121950  1
  Sr  Sr2  1  0.65724573  0.17206869  0.37878050  1
  Sr  Sr3  1  0.15724573  0.32793131  0.12121950  1
  Sr  Sr4  1  0.65724573  0.17206869  0.12121950  1
  Sr  Sr5  1  0.15724573  0.32793131  0.37878050  1
  Sr  Sr6  1  0.34275427  0.82793131  0.62121950  1
  Sr  Sr7  1  0.84275427  0.67206869  0.87878050  1
  Sr  Sr8  1  0.49862031  0.31886716  0.90468422  1
  Sr  Sr9  1  0.99862031  0.18113284  0.59531578  1
  Sr  Sr10  1  0.50137969  0.68113284  0.40468422  1
  Sr  Sr11  1  0.00137969  0.81886716  0.09531578  1
  Sr  Sr12  1  0.50137969  0.68113284  0.09531578  1
  Sr  Sr13  1  0.00137969  0.81886716  0.40468422  1
  Sr  Sr14  1  0.49862031  0.31886716  0.59531578  1
  Sr  Sr15  1  0.99862031  0.18113284  0.90468422  1
  Sr  Sr16  1  0.18426533  0.48691188  0.75000000  1
  Sr  Sr17  1  0.68426533  0.01308812  0.75000000  1
  Sr  Sr18  1  0.81573467  0.51308812  0.25000000  1
  Sr  Sr19  1  0.31573467  0.98691188  0.25000000  1
  Pt  Pt20  1  0.33164036  0.03002457  0.03946636  1
  Pt  Pt21  1  0.83164036  0.46997543  0.46053364  1
  Pt  Pt22  1  0.66835964  0.96997543  0.53946636  1
  Pt  Pt23  1  0.16835964  0.53002457  0.96053364  1
  Pt  Pt24  1  0.66835964  0.96997543  0.96053364  1
  Pt  Pt25  1  0.16835964  0.53002457  0.53946636  1
  Pt  Pt26  1  0.33164036  0.03002457  0.46053364  1
  Pt  Pt27  1  0.83164036  0.46997543  0.03946636  1
  Pt  Pt28  1  0.55192088  0.60144136  0.75000000  1
  Pt  Pt29  1  0.05192088  0.89855864  0.75000000  1
  Pt  Pt30  1  0.44807912  0.39855864  0.25000000  1
  Pt  Pt31  1  0.94807912  0.10144136  0.25000000  1
  Pt  Pt32  1  0.29828240  0.13078752  0.75000000  1
  Pt  Pt33  1  0.79828240  0.36921248  0.75000000  1
  Pt  Pt34  1  0.70171760  0.86921248  0.25000000  1
  Pt  Pt35  1  0.20171760  0.63078752  0.25000000  1
