# generated using pymatgen
data_Tb12(ReC3)5
_symmetry_space_group_name_H-M   'P 1'
_cell_length_a   5.13666072
_cell_length_b   10.77268443
_cell_length_c   10.77235485
_cell_angle_alpha   120.00101040
_cell_angle_beta   90.00000000
_cell_angle_gamma   90.00000000
_symmetry_Int_Tables_number   1
_chemical_formula_structural   Tb12(ReC3)5
_chemical_formula_sum   'Tb12 Re5 C15'
_cell_volume   516.22814630
_cell_formula_units_Z   1
loop_
 _symmetry_equiv_pos_site_id
 _symmetry_equiv_pos_as_xyz
  1  'x, y, z'
loop_
 _atom_site_type_symbol
 _atom_site_label
 _atom_site_symmetry_multiplicity
 _atom_site_fract_x
 _atom_site_fract_y
 _atom_site_fract_z
 _atom_site_occupancy
  Tb  Tb0  1  0.00000000  0.27001383  0.45597358  1
  Tb  Tb1  1  -0.00000000  0.18595018  0.73000148  1
  Tb  Tb2  1  0.00000000  0.54402081  0.81403117  1
  Tb  Tb3  1  0.00000000  0.81404025  0.54402642  1
  Tb  Tb4  1  -0.00000000  0.45594870  0.26999852  1
  Tb  Tb5  1  -0.00000000  0.72998964  0.18596883  1
  Tb  Tb6  1  0.50000000  0.42570955  1.00000000  1
  Tb  Tb7  1  0.50000000  0.57428317  0.57428596  1
  Tb  Tb8  1  0.50000000  0.99999721  0.42571404  1
  Tb  Tb9  1  0.50000000  0.79511780  0.00000000  1
  Tb  Tb10  1  0.50000000  0.20487938  0.20487245  1
  Tb  Tb11  1  0.50000000  0.00000693  0.79512755  1
  Re  Re12  1  0.00000000  0.15175658  0.00000000  1
  Re  Re13  1  0.00000000  0.84819006  0.84812790  1
  Re  Re14  1  0.00000000  0.00006216  0.15187210  1
  Re  Re15  1  0.50000000  0.33328962  0.66664504  1
  Re  Re16  1  0.50000000  0.66664458  0.33335496  1
  C  C17  1  0.50000000  0.27763621  0.46831424  1
  C  C18  1  0.50000000  0.19067822  0.72236233  1
  C  C19  1  0.50000000  0.53166458  0.80931057  1
  C  C20  1  0.50000000  0.80932196  0.53168576  1
  C  C21  1  0.50000000  0.46831588  0.27763767  1
  C  C22  1  0.50000000  0.72235401  0.19068943  1
  C  C23  1  0.00000000  0.33299612  1.00000000  1
  C  C24  1  -0.00000000  0.66697632  0.66696908  1
  C  C25  1  -0.00000000  0.00000724  0.33303092  1
  C  C26  1  -0.00000000  0.45849445  0.00000000  1
  C  C27  1  -0.00000000  0.54153785  0.54153757  1
  C  C28  1  -0.00000000  0.00000027  0.45846243  1
  C  C29  1  -0.00000000  0.78544560  1.00000000  1
  C  C30  1  0.00000000  0.21454408  0.21451734  1
  C  C31  1  -0.00000000  0.00002674  0.78548266  1
