# generated using pymatgen
data_Eu(Ga4Ir)2
_symmetry_space_group_name_H-M   'P 1'
_cell_length_a   4.17501257
_cell_length_b   12.73049325
_cell_length_c   14.69225571
_cell_angle_alpha   90.00000000
_cell_angle_beta   90.00000000
_cell_angle_gamma   90.00000000
_symmetry_Int_Tables_number   1
_chemical_formula_structural   Eu(Ga4Ir)2
_chemical_formula_sum   'Eu4 Ga32 Ir8'
_cell_volume   780.89294054
_cell_formula_units_Z   4
loop_
 _symmetry_equiv_pos_site_id
 _symmetry_equiv_pos_as_xyz
  1  'x, y, z'
loop_
 _atom_site_type_symbol
 _atom_site_label
 _atom_site_symmetry_multiplicity
 _atom_site_fract_x
 _atom_site_fract_y
 _atom_site_fract_z
 _atom_site_occupancy
  Eu  Eu0  1  0.50000000  0.15675897  0.31963026  1
  Eu  Eu1  1  0.50000000  0.84324103  0.68036974  1
  Eu  Eu2  1  0.50000000  0.65675897  0.18036974  1
  Eu  Eu3  1  0.50000000  0.34324103  0.81963026  1
  Ga  Ga4  1  0.00000000  0.50000000  0.50000000  1
  Ga  Ga5  1  0.00000000  0.00000000  0.00000000  1
  Ga  Ga6  1  0.50000000  0.50000000  0.00000000  1
  Ga  Ga7  1  0.50000000  -0.00000000  0.50000000  1
  Ga  Ga8  1  0.50000000  0.65907607  0.45647874  1
  Ga  Ga9  1  0.50000000  0.34092393  0.54352126  1
  Ga  Ga10  1  0.50000000  0.15907607  0.04352126  1
  Ga  Ga11  1  0.50000000  0.84092393  0.95647874  1
  Ga  Ga12  1  0.50000000  0.39909354  0.25147921  1
  Ga  Ga13  1  0.50000000  0.60090646  0.74852079  1
  Ga  Ga14  1  0.50000000  0.89909354  0.24852079  1
  Ga  Ga15  1  0.50000000  0.10090646  0.75147921  1
  Ga  Ga16  1  0.00000000  0.55074034  0.31510706  1
  Ga  Ga17  1  0.00000000  0.44925966  0.68489294  1
  Ga  Ga18  1  -0.00000000  0.05074034  0.18489294  1
  Ga  Ga19  1  -0.00000000  0.94925966  0.81510706  1
  Ga  Ga20  1  -0.00000000  0.33231527  0.37649518  1
  Ga  Ga21  1  0.00000000  0.66768473  0.62350482  1
  Ga  Ga22  1  0.00000000  0.83231527  0.12350482  1
  Ga  Ga23  1  0.00000000  0.16768473  0.87649518  1
  Ga  Ga24  1  -0.00000000  0.16998756  0.48685168  1
  Ga  Ga25  1  0.00000000  0.83001244  0.51314832  1
  Ga  Ga26  1  -0.00000000  0.66998756  0.01314832  1
  Ga  Ga27  1  0.00000000  0.33001244  0.98685168  1
  Ga  Ga28  1  -0.00000000  0.75829520  0.32292782  1
  Ga  Ga29  1  -0.00000000  0.24170480  0.67707218  1
  Ga  Ga30  1  0.00000000  0.25829520  0.17707218  1
  Ga  Ga31  1  -0.00000000  0.74170480  0.82292782  1
  Ga  Ga32  1  0.00000000  0.97955671  0.36686254  1
  Ga  Ga33  1  0.00000000  0.02044329  0.63313746  1
  Ga  Ga34  1  -0.00000000  0.47955671  0.13313746  1
  Ga  Ga35  1  0.00000000  0.52044329  0.86686254  1
  Ir  Ir36  1  0.50000000  0.84415649  0.40511811  1
  Ir  Ir37  1  0.50000000  0.15584351  0.59488189  1
  Ir  Ir38  1  0.50000000  0.34415649  0.09488189  1
  Ir  Ir39  1  0.50000000  0.65584351  0.90511811  1
  Ir  Ir40  1  0.50000000  0.46415031  0.40299711  1
  Ir  Ir41  1  0.50000000  0.53584969  0.59700289  1
  Ir  Ir42  1  0.50000000  0.96415031  0.09700289  1
  Ir  Ir43  1  0.50000000  0.03584969  0.90299711  1
