# generated using pymatgen
data_WSCl4
_symmetry_space_group_name_H-M   'P 1'
_cell_length_a   6.44390899
_cell_length_b   7.47810253
_cell_length_c   8.61714915
_cell_angle_alpha   75.42674021
_cell_angle_beta   68.23344865
_cell_angle_gamma   84.29207935
_symmetry_Int_Tables_number   1
_chemical_formula_structural   WSCl4
_chemical_formula_sum   'W2 S2 Cl8'
_cell_volume   373.22304888
_cell_formula_units_Z   2
loop_
 _symmetry_equiv_pos_site_id
 _symmetry_equiv_pos_as_xyz
  1  'x, y, z'
loop_
 _atom_site_type_symbol
 _atom_site_label
 _atom_site_symmetry_multiplicity
 _atom_site_fract_x
 _atom_site_fract_y
 _atom_site_fract_z
 _atom_site_occupancy
  W  W0  1  0.13949570  0.76047944  0.78455289  1
  W  W1  1  0.86050430  0.23952056  0.21544711  1
  S  S2  1  0.29877607  0.01762503  0.70987654  1
  S  S3  1  0.70122393  0.98237497  0.29012346  1
  Cl  Cl4  1  0.11746080  0.65756446  0.06899862  1
  Cl  Cl5  1  0.88253920  0.34243554  0.93100138  1
  Cl  Cl6  1  0.43412021  0.55812468  0.71803122  1
  Cl  Cl7  1  0.56587979  0.44187532  0.28196878  1
  Cl  Cl8  1  0.08241820  0.73414438  0.54299786  1
  Cl  Cl9  1  0.91758180  0.26585562  0.45700214  1
  Cl  Cl10  1  0.76791910  0.83732922  0.89186291  1
  Cl  Cl11  1  0.23208090  0.16267078  0.10813709  1
