# generated using pymatgen
data_SnH12C4(SCl2)2
_symmetry_space_group_name_H-M   'P 1'
_cell_length_a   7.25030845
_cell_length_b   8.50221565
_cell_length_c   12.76572149
_cell_angle_alpha   90.00000000
_cell_angle_beta   90.00000000
_cell_angle_gamma   106.03499424
_symmetry_Int_Tables_number   1
_chemical_formula_structural   SnH12C4(SCl2)2
_chemical_formula_sum   'Sn2 H24 C8 S4 Cl8'
_cell_volume   756.30932423
_cell_formula_units_Z   2
loop_
 _symmetry_equiv_pos_site_id
 _symmetry_equiv_pos_as_xyz
  1  'x, y, z'
loop_
 _atom_site_type_symbol
 _atom_site_label
 _atom_site_symmetry_multiplicity
 _atom_site_fract_x
 _atom_site_fract_y
 _atom_site_fract_z
 _atom_site_occupancy
  Sn  Sn0  1  -0.00000000  -0.00000000  0.00000000  1
  Sn  Sn1  1  0.50000000  0.50000000  0.50000000  1
  H  H2  1  0.13227228  0.59930202  0.20800444  1
  H  H3  1  0.63227228  0.09930202  0.29199556  1
  H  H4  1  0.86772772  0.40069798  0.79199556  1
  H  H5  1  0.36772772  0.90069798  0.70800444  1
  H  H6  1  0.20646885  0.64350141  0.07440653  1
  H  H7  1  0.70646885  0.14350141  0.42559347  1
  H  H8  1  0.79353115  0.35649859  0.92559347  1
  H  H9  1  0.29353115  0.85649859  0.57440653  1
  H  H10  1  0.95850345  0.61178395  0.10926055  1
  H  H11  1  0.45850345  0.11178395  0.39073945  1
  H  H12  1  0.04149655  0.38821605  0.89073945  1
  H  H13  1  0.54149655  0.88821605  0.60926055  1
  H  H14  1  0.85982678  0.83138439  0.25078327  1
  H  H15  1  0.35982678  0.33138439  0.24921673  1
  H  H16  1  0.14017322  0.16861561  0.74921673  1
  H  H17  1  0.64017322  0.66861561  0.75078327  1
  H  H18  1  0.04312429  0.00664168  0.29668809  1
  H  H19  1  0.54312429  0.50664168  0.20331191  1
  H  H20  1  0.95687571  0.99335832  0.70331191  1
  H  H21  1  0.45687571  0.49335832  0.79668809  1
  H  H22  1  0.05087598  0.80355554  0.33260185  1
  H  H23  1  0.55087598  0.30355554  0.16739815  1
  H  H24  1  0.94912402  0.19644446  0.66739815  1
  H  H25  1  0.44912402  0.69644446  0.83260185  1
  C  C26  1  0.10710796  0.65949450  0.13530481  1
  C  C27  1  0.60710796  0.15949450  0.36469519  1
  C  C28  1  0.89289204  0.34050550  0.86469519  1
  C  C29  1  0.39289204  0.84050550  0.63530481  1
  C  C30  1  0.01134687  0.87848830  0.27129770  1
  C  C31  1  0.51134687  0.37848830  0.22870230  1
  C  C32  1  0.98865313  0.12151170  0.72870230  1
  C  C33  1  0.48865313  0.62151170  0.77129770  1
  S  S34  1  0.16377580  0.87604732  0.16026744  1
  S  S35  1  0.66377580  0.37604732  0.33973256  1
  S  S36  1  0.83622420  0.12395268  0.83973256  1
  S  S37  1  0.33622420  0.62395268  0.66026744  1
  Cl  Cl38  1  0.31388980  0.18345910  0.95640235  1
  Cl  Cl39  1  0.81388980  0.68345910  0.54359765  1
  Cl  Cl40  1  0.68611020  0.81654090  0.04359765  1
  Cl  Cl41  1  0.18611020  0.31654090  0.45640235  1
  Cl  Cl42  1  0.05595304  0.79183675  0.88026176  1
  Cl  Cl43  1  0.55595304  0.29183675  0.61973824  1
  Cl  Cl44  1  0.94404696  0.20816325  0.11973824  1
  Cl  Cl45  1  0.44404696  0.70816325  0.38026176  1
