# generated using pymatgen
data_Tl2CuH12(SeO7)2
_symmetry_space_group_name_H-M   'P 1'
_cell_length_a   6.40957998
_cell_length_b   9.50663372
_cell_length_c   12.84065425
_cell_angle_alpha   90.00000000
_cell_angle_beta   90.00000000
_cell_angle_gamma   104.00343058
_symmetry_Int_Tables_number   1
_chemical_formula_structural   Tl2CuH12(SeO7)2
_chemical_formula_sum   'Tl4 Cu2 H24 Se4 O28'
_cell_volume   759.17363748
_cell_formula_units_Z   2
loop_
 _symmetry_equiv_pos_site_id
 _symmetry_equiv_pos_as_xyz
  1  'x, y, z'
loop_
 _atom_site_type_symbol
 _atom_site_label
 _atom_site_symmetry_multiplicity
 _atom_site_fract_x
 _atom_site_fract_y
 _atom_site_fract_z
 _atom_site_occupancy
  Tl  Tl0  1  0.34507328  0.62067938  0.14073127  1
  Tl  Tl1  1  0.65492672  0.87932062  0.64073127  1
  Tl  Tl2  1  0.65492672  0.37932062  0.85926873  1
  Tl  Tl3  1  0.34507328  0.12067938  0.35926873  1
  Cu  Cu4  1  -0.00000000  0.50000000  0.50000000  1
  Cu  Cu5  1  -0.00000000  -0.00000000  0.00000000  1
  H  H6  1  0.31133074  0.69216046  0.41316422  1
  H  H7  1  0.68866926  0.80783954  0.91316422  1
  H  H8  1  0.68866926  0.30783954  0.58683578  1
  H  H9  1  0.31133074  0.19216046  0.08683578  1
  H  H10  1  0.08916832  0.73026909  0.37696915  1
  H  H11  1  0.91083168  0.76973091  0.87696915  1
  H  H12  1  0.91083168  0.26973091  0.62303085  1
  H  H13  1  0.08916832  0.23026909  0.12303085  1
  H  H14  1  0.92841349  0.21857600  0.39969653  1
  H  H15  1  0.07158651  0.28142400  0.89969653  1
  H  H16  1  0.07158651  0.78142400  0.60030347  1
  H  H17  1  0.92841349  0.71857600  0.10030347  1
  H  H18  1  0.00881755  0.33652655  0.31299133  1
  H  H19  1  0.99118245  0.16347345  0.81299133  1
  H  H20  1  0.99118245  0.66347345  0.68700867  1
  H  H21  1  0.00881755  0.83652655  0.18700867  1
  H  H22  1  0.31969484  0.40029657  0.55832686  1
  H  H23  1  0.68030516  0.09970343  0.05832686  1
  H  H24  1  0.68030516  0.59970343  0.44167314  1
  H  H25  1  0.31969484  0.90029657  0.94167314  1
  H  H26  1  0.30992114  0.53300158  0.63447498  1
  H  H27  1  0.69007886  0.96699842  0.13447498  1
  H  H28  1  0.69007886  0.46699842  0.36552502  1
  H  H29  1  0.30992114  0.03300158  0.86552502  1
  Se  Se30  1  0.73333718  0.89281251  0.35800196  1
  Se  Se31  1  0.26666282  0.60718749  0.85800196  1
  Se  Se32  1  0.26666282  0.10718749  0.64199804  1
  Se  Se33  1  0.73333718  0.39281251  0.14199804  1
  O  O34  1  0.58773483  0.89957736  0.25053312  1
  O  O35  1  0.41226517  0.60042264  0.75053312  1
  O  O36  1  0.41226517  0.10042264  0.74946688  1
  O  O37  1  0.58773483  0.39957736  0.24946688  1
  O  O38  1  0.76046234  0.04445335  0.42765490  1
  O  O39  1  0.23953766  0.45554665  0.92765490  1
  O  O40  1  0.23953766  0.95554665  0.57234510  1
  O  O41  1  0.76046234  0.54445335  0.07234510  1
  O  O42  1  0.59717224  0.75534108  0.43336841  1
  O  O43  1  0.40282776  0.74465892  0.93336841  1
  O  O44  1  0.40282776  0.24465892  0.56663159  1
  O  O45  1  0.59717224  0.25534108  0.06663159  1
  O  O46  1  0.97537148  0.86588276  0.32538232  1
  O  O47  1  0.02462852  0.63411724  0.82538232  1
  O  O48  1  0.02462852  0.13411724  0.67461768  1
  O  O49  1  0.97537148  0.36588276  0.17461768  1
  O  O50  1  0.15833406  0.64959238  0.39368781  1
  O  O51  1  0.84166594  0.85040762  0.89368781  1
  O  O52  1  0.84166594  0.35040762  0.60631219  1
  O  O53  1  0.15833406  0.14959238  0.10631219  1
  O  O54  1  0.03593509  0.31013551  0.38567843  1
  O  O55  1  0.96406491  0.18986449  0.88567843  1
  O  O56  1  0.96406491  0.68986449  0.61432157  1
  O  O57  1  0.03593509  0.81013551  0.11432157  1
  O  O58  1  0.27861933  0.49549490  0.56210194  1
  O  O59  1  0.72138067  0.00450510  0.06210194  1
  O  O60  1  0.72138067  0.50450510  0.43789806  1
  O  O61  1  0.27861933  0.99549490  0.93789806  1
