# generated using pymatgen
data_CaSnAsO5
_symmetry_space_group_name_H-M   'P 1'
_cell_length_a   7.95634923
_cell_length_b   6.22335285
_cell_length_c   9.51007854
_cell_angle_alpha   89.86180526
_cell_angle_beta   83.20057256
_cell_angle_gamma   90.05039737
_symmetry_Int_Tables_number   1
_chemical_formula_structural   CaSnAsO5
_chemical_formula_sum   'Ca4 Sn4 As4 O20'
_cell_volume   467.57952336
_cell_formula_units_Z   4
loop_
 _symmetry_equiv_pos_site_id
 _symmetry_equiv_pos_as_xyz
  1  'x, y, z'
loop_
 _atom_site_type_symbol
 _atom_site_label
 _atom_site_symmetry_multiplicity
 _atom_site_fract_x
 _atom_site_fract_y
 _atom_site_fract_z
 _atom_site_occupancy
  Ca  Ca0  1  0.94037181  0.76663776  0.11143312  1
  Ca  Ca1  1  0.60043807  0.24750152  0.57517111  1
  Ca  Ca2  1  0.39687671  0.74588263  0.92256573  1
  Ca  Ca3  1  0.06326744  0.26519637  0.39294768  1
  Sn  Sn4  1  0.99118232  0.47924521  0.76174370  1
  Sn  Sn5  1  0.50923112  0.52331814  0.25538036  1
  Sn  Sn6  1  0.48994817  0.02305289  0.24323925  1
  Sn  Sn7  1  0.00845782  0.97959852  0.73944804  1
  As  As8  1  0.61347073  0.28193020  0.92299191  1
  As  As9  1  0.83225051  0.71142998  0.46491501  1
  As  As10  1  0.16999859  0.21197246  0.03589137  1
  As  As11  1  0.38494387  0.78240781  0.57589830  1
  O  O12  1  0.80922360  0.22418250  0.82307977  1
  O  O13  1  0.67028140  0.78728958  0.24988357  1
  O  O14  1  0.32933217  0.28691149  0.25102106  1
  O  O15  1  0.19058561  0.72423318  0.67839774  1
  O  O16  1  0.49010880  0.38404749  0.80292818  1
  O  O17  1  0.98974735  0.62890419  0.33065239  1
  O  O18  1  0.01474573  0.12872758  0.17215667  1
  O  O19  1  0.51055345  0.88313927  0.69323965  1
  O  O20  1  0.55429944  0.04494213  0.00841815  1
  O  O21  1  0.92864347  0.95954039  0.53883703  1
  O  O22  1  0.07306856  0.45972655  0.96128831  1
  O  O23  1  0.44242812  0.54511217  0.48976664  1
  O  O24  1  0.63077855  0.48875991  0.03997854  1
  O  O25  1  0.86846333  0.46973470  0.57826238  1
  O  O26  1  0.13197303  0.97099468  0.92303593  1
  O  O27  1  0.36480717  0.98825920  0.45816239  1
  O  O28  1  0.86334173  0.74359345  0.83210106  1
  O  O29  1  0.64312420  0.26009520  0.32174538  1
  O  O30  1  0.35673236  0.75966410  0.17637070  1
  O  O31  1  0.13732276  0.24397074  0.66904888  1
