# generated using pymatgen
data_H4Pd(NO4)2
_symmetry_space_group_name_H-M   'P 1'
_cell_length_a   4.99071367
_cell_length_b   10.89703107
_cell_length_c   12.13460644
_cell_angle_alpha   90.00000000
_cell_angle_beta   90.00000000
_cell_angle_gamma   90.00000000
_symmetry_Int_Tables_number   1
_chemical_formula_structural   H4Pd(NO4)2
_chemical_formula_sum   'H16 Pd4 N8 O32'
_cell_volume   659.92797459
_cell_formula_units_Z   4
loop_
 _symmetry_equiv_pos_site_id
 _symmetry_equiv_pos_as_xyz
  1  'x, y, z'
loop_
 _atom_site_type_symbol
 _atom_site_label
 _atom_site_symmetry_multiplicity
 _atom_site_fract_x
 _atom_site_fract_y
 _atom_site_fract_z
 _atom_site_occupancy
  H  H0  1  0.87781040  0.02630443  0.35983578  1
  H  H1  1  0.37781040  0.47369557  0.64016422  1
  H  H2  1  0.12218960  0.52630443  0.14016422  1
  H  H3  1  0.62218960  0.97369557  0.85983578  1
  H  H4  1  0.12218960  0.97369557  0.64016422  1
  H  H5  1  0.62218960  0.52630443  0.35983578  1
  H  H6  1  0.87781040  0.47369557  0.85983578  1
  H  H7  1  0.37781040  0.02630443  0.14016422  1
  H  H8  1  0.68326580  0.14562309  0.34789824  1
  H  H9  1  0.18326580  0.35437691  0.65210176  1
  H  H10  1  0.31673420  0.64562309  0.15210176  1
  H  H11  1  0.81673420  0.85437691  0.84789824  1
  H  H12  1  0.31673420  0.85437691  0.65210176  1
  H  H13  1  0.81673420  0.64562309  0.34789824  1
  H  H14  1  0.68326580  0.35437691  0.84789824  1
  H  H15  1  0.18326580  0.14562309  0.15210176  1
  Pd  Pd16  1  0.50000000  0.00000000  0.50000000  1
  Pd  Pd17  1  0.00000000  0.50000000  0.50000000  1
  Pd  Pd18  1  0.50000000  0.50000000  -0.00000000  1
  Pd  Pd19  1  0.00000000  0.00000000  -0.00000000  1
  N  N20  1  0.84627797  0.17400208  0.61456897  1
  N  N21  1  0.34627797  0.32599792  0.38543103  1
  N  N22  1  0.15372203  0.67400208  0.88543103  1
  N  N23  1  0.65372203  0.82599792  0.11456897  1
  N  N24  1  0.15372203  0.82599792  0.38543103  1
  N  N25  1  0.65372203  0.67400208  0.61456897  1
  N  N26  1  0.84627797  0.32599792  0.11456897  1
  N  N27  1  0.34627797  0.17400208  0.88543103  1
  O  O28  1  0.68952453  0.05483897  0.35666220  1
  O  O29  1  0.18952453  0.44516103  0.64333780  1
  O  O30  1  0.31047547  0.55483897  0.14333780  1
  O  O31  1  0.81047547  0.94516103  0.85666220  1
  O  O32  1  0.31047547  0.94516103  0.64333780  1
  O  O33  1  0.81047547  0.55483897  0.35666220  1
  O  O34  1  0.68952453  0.44516103  0.85666220  1
  O  O35  1  0.18952453  0.05483897  0.14333780  1
  O  O36  1  0.81392548  0.05356823  0.59480782  1
  O  O37  1  0.31392548  0.44643177  0.40519218  1
  O  O38  1  0.18607452  0.55356823  0.90519218  1
  O  O39  1  0.68607452  0.94643177  0.09480782  1
  O  O40  1  0.18607452  0.94643177  0.40519218  1
  O  O41  1  0.68607452  0.55356823  0.59480782  1
  O  O42  1  0.81392548  0.44643177  0.09480782  1
  O  O43  1  0.31392548  0.05356823  0.90519218  1
  O  O44  1  0.67924190  0.24765561  0.58085344  1
  O  O45  1  0.17924190  0.25234439  0.41914656  1
  O  O46  1  0.32075810  0.74765561  0.91914656  1
  O  O47  1  0.82075810  0.75234439  0.08085344  1
  O  O48  1  0.32075810  0.75234439  0.41914656  1
  O  O49  1  0.82075810  0.74765561  0.58085344  1
  O  O50  1  0.67924190  0.25234439  0.08085344  1
  O  O51  1  0.17924190  0.24765561  0.91914656  1
  O  O52  1  0.05396640  0.19997265  0.66697267  1
  O  O53  1  0.55396640  0.30002735  0.33302733  1
  O  O54  1  0.94603360  0.69997265  0.83302733  1
  O  O55  1  0.44603360  0.80002735  0.16697267  1
  O  O56  1  0.94603360  0.80002735  0.33302733  1
  O  O57  1  0.44603360  0.69997265  0.66697267  1
  O  O58  1  0.05396640  0.30002735  0.16697267  1
  O  O59  1  0.55396640  0.19997265  0.83302733  1
