# generated using pymatgen
data_Tb2S3
_symmetry_space_group_name_H-M   'P 1'
_cell_length_a   3.91248810
_cell_length_b   7.32031822
_cell_length_c   15.24465407
_cell_angle_alpha   90.00000000
_cell_angle_beta   90.00000000
_cell_angle_gamma   90.00000000
_symmetry_Int_Tables_number   1
_chemical_formula_structural   Tb2S3
_chemical_formula_sum   'Tb8 S12'
_cell_volume   436.61692239
_cell_formula_units_Z   4
loop_
 _symmetry_equiv_pos_site_id
 _symmetry_equiv_pos_as_xyz
  1  'x, y, z'
loop_
 _atom_site_type_symbol
 _atom_site_label
 _atom_site_symmetry_multiplicity
 _atom_site_fract_x
 _atom_site_fract_y
 _atom_site_fract_z
 _atom_site_occupancy
  Tb  Tb0  1  0.75000000  0.73328043  0.04342641  1
  Tb  Tb1  1  0.75000000  0.23328043  0.45657359  1
  Tb  Tb2  1  0.25000000  0.26671957  0.95657359  1
  Tb  Tb3  1  0.25000000  0.76671957  0.54342641  1
  Tb  Tb4  1  0.75000000  0.35812776  0.70420258  1
  Tb  Tb5  1  0.75000000  0.85812776  0.79579742  1
  Tb  Tb6  1  0.25000000  0.64187224  0.29579742  1
  Tb  Tb7  1  0.25000000  0.14187224  0.20420258  1
  S  S8  1  0.75000000  0.49102957  0.89136706  1
  S  S9  1  0.75000000  0.99102957  0.60863294  1
  S  S10  1  0.25000000  0.50897043  0.10863294  1
  S  S11  1  0.25000000  0.00897043  0.39136706  1
  S  S12  1  0.75000000  0.35128478  0.28152346  1
  S  S13  1  0.75000000  0.85128478  0.21847654  1
  S  S14  1  0.25000000  0.64871522  0.71847654  1
  S  S15  1  0.25000000  0.14871522  0.78152346  1
  S  S16  1  0.75000000  0.12429796  0.06713458  1
  S  S17  1  0.75000000  0.62429796  0.43286542  1
  S  S18  1  0.25000000  0.87570204  0.93286542  1
  S  S19  1  0.25000000  0.37570204  0.56713458  1
