# generated using pymatgen
data_Tb3InS6
_symmetry_space_group_name_H-M   'P 1'
_cell_length_a   3.87758750
_cell_length_b   13.47077494
_cell_length_c   16.65837773
_cell_angle_alpha   90.00000000
_cell_angle_beta   90.00000000
_cell_angle_gamma   90.00000000
_symmetry_Int_Tables_number   1
_chemical_formula_structural   Tb3InS6
_chemical_formula_sum   'Tb12 In4 S24'
_cell_volume   870.13551016
_cell_formula_units_Z   4
loop_
 _symmetry_equiv_pos_site_id
 _symmetry_equiv_pos_as_xyz
  1  'x, y, z'
loop_
 _atom_site_type_symbol
 _atom_site_label
 _atom_site_symmetry_multiplicity
 _atom_site_fract_x
 _atom_site_fract_y
 _atom_site_fract_z
 _atom_site_occupancy
  Tb  Tb0  1  0.25411450  0.03665572  0.77687198  1
  Tb  Tb1  1  0.25411450  0.96334428  0.22312802  1
  Tb  Tb2  1  0.74588550  0.46334428  0.27687198  1
  Tb  Tb3  1  0.74588550  0.53665572  0.72312802  1
  Tb  Tb4  1  0.26296904  0.24673642  0.61013546  1
  Tb  Tb5  1  0.26296904  0.75326358  0.38986454  1
  Tb  Tb6  1  0.73703096  0.25326358  0.11013546  1
  Tb  Tb7  1  0.73703096  0.74673642  0.88986454  1
  Tb  Tb8  1  0.74706787  0.30906422  0.85640969  1
  Tb  Tb9  1  0.74706787  0.69093578  0.14359031  1
  Tb  Tb10  1  0.25293213  0.19093578  0.35640969  1
  Tb  Tb11  1  0.25293213  0.80906422  0.64359031  1
  In  In12  1  0.75338853  -0.00000000  0.50000000  1
  In  In13  1  0.24661147  0.50000000  -0.00000000  1
  In  In14  1  0.39519628  0.50000000  0.50000000  1
  In  In15  1  0.60480372  -0.00000000  -0.00000000  1
  S  S16  1  0.76848661  0.39685768  0.59313399  1
  S  S17  1  0.76848661  0.60314232  0.40686601  1
  S  S18  1  0.23151339  0.10314232  0.09313399  1
  S  S19  1  0.23151339  0.89685768  0.90686601  1
  S  S20  1  0.24588861  0.30724213  0.98080180  1
  S  S21  1  0.24588861  0.69275787  0.01919820  1
  S  S22  1  0.75411139  0.19275787  0.48080180  1
  S  S23  1  0.75411139  0.80724213  0.51919820  1
  S  S24  1  0.75187583  0.10765024  0.88496057  1
  S  S25  1  0.75187583  0.89234976  0.11503943  1
  S  S26  1  0.24812417  0.39234976  0.38496057  1
  S  S27  1  0.24812417  0.60765024  0.61503943  1
  S  S28  1  0.75883484  0.17887106  0.71715855  1
  S  S29  1  0.75883484  0.82112894  0.28284145  1
  S  S30  1  0.24116516  0.32112894  0.21715855  1
  S  S31  1  0.24116516  0.67887106  0.78284145  1
  S  S32  1  0.24861311  0.38504749  0.75626290  1
  S  S33  1  0.24861311  0.61495251  0.24373710  1
  S  S34  1  0.75138689  0.11495251  0.25626290  1
  S  S35  1  0.75138689  0.88504749  0.74373710  1
  S  S36  1  0.25398537  0.02082292  0.60549969  1
  S  S37  1  0.25398537  0.97917708  0.39450031  1
  S  S38  1  0.74601463  0.47917708  0.10549969  1
  S  S39  1  0.74601463  0.52082292  0.89450031  1
