# generated using pymatgen
data_Tb3(AgSn)4
_symmetry_space_group_name_H-M   'P 1'
_cell_length_a   4.63010146
_cell_length_b   7.36881294
_cell_length_c   8.81307384
_cell_angle_alpha   114.71225938
_cell_angle_beta   105.22936241
_cell_angle_gamma   90.00000000
_symmetry_Int_Tables_number   1
_chemical_formula_structural   Tb3(AgSn)4
_chemical_formula_sum   'Tb3 Ag4 Sn4'
_cell_volume   261.48096200
_cell_formula_units_Z   1
loop_
 _symmetry_equiv_pos_site_id
 _symmetry_equiv_pos_as_xyz
  1  'x, y, z'
loop_
 _atom_site_type_symbol
 _atom_site_label
 _atom_site_symmetry_multiplicity
 _atom_site_fract_x
 _atom_site_fract_y
 _atom_site_fract_z
 _atom_site_occupancy
  Tb  Tb0  1  0.87173714  0.37173714  0.74347427  1
  Tb  Tb1  1  0.12826286  0.62826286  0.25652573  1
  Tb  Tb2  1  0.00000000  0.00000000  0.00000000  1
  Ag  Ag3  1  0.32857365  0.02569721  0.65714730  1
  Ag  Ag4  1  0.67142635  0.97430279  0.34285270  1
  Ag  Ag5  1  0.32857365  0.63145009  0.65714730  1
  Ag  Ag6  1  0.67142635  0.36854991  0.34285270  1
  Sn  Sn7  1  0.21423662  0.21423662  0.42847323  1
  Sn  Sn8  1  0.78576338  0.78576338  0.57152677  1
  Sn  Sn9  1  0.50000000  0.30427017  0.00000000  1
  Sn  Sn10  1  0.50000000  0.69572983  0.00000000  1
