# generated using pymatgen
data_KNa3Al4(GeO4)4
_symmetry_space_group_name_H-M   'P 1'
_cell_length_a   8.69244190
_cell_length_b   10.20934882
_cell_length_c   10.36372031
_cell_angle_alpha   119.05051497
_cell_angle_beta   90.00000000
_cell_angle_gamma   90.00000000
_symmetry_Int_Tables_number   1
_chemical_formula_structural   KNa3Al4(GeO4)4
_chemical_formula_sum   'K2 Na6 Al8 Ge8 O32'
_cell_volume   804.01160555
_cell_formula_units_Z   2
loop_
 _symmetry_equiv_pos_site_id
 _symmetry_equiv_pos_as_xyz
  1  'x, y, z'
loop_
 _atom_site_type_symbol
 _atom_site_label
 _atom_site_symmetry_multiplicity
 _atom_site_fract_x
 _atom_site_fract_y
 _atom_site_fract_z
 _atom_site_occupancy
  K  K0  1  0.07388494  0.01187109  0.00750830  1
  K  K1  1  0.57388494  0.98812891  0.99249170  1
  Na  Na2  1  0.07124643  0.43609524  0.45332905  1
  Na  Na3  1  0.57124643  0.56390476  0.54667095  1
  Na  Na4  1  0.07100417  0.56199465  0.99958134  1
  Na  Na5  1  0.57100417  0.43800535  0.00041866  1
  Na  Na6  1  0.57074335  0.00771560  0.43789055  1
  Na  Na7  1  0.07074335  0.99228440  0.56210945  1
  Al  Al8  1  0.76287632  0.34736257  0.66417642  1
  Al  Al9  1  0.26287632  0.65263743  0.33582358  1
  Al  Al10  1  0.26151146  0.24412382  0.90209443  1
  Al  Al11  1  0.76151146  0.75587618  0.09790557  1
  Al  Al12  1  0.25860548  0.09160438  0.34237675  1
  Al  Al13  1  0.75860548  0.90839562  0.65762325  1
  Al  Al14  1  0.25306942  0.68006081  0.76341170  1
  Al  Al15  1  0.75306942  0.31993919  0.23658830  1
  Ge  Ge16  1  0.37747596  0.34767038  0.66537175  1
  Ge  Ge17  1  0.87747596  0.65232962  0.33462825  1
  Ge  Ge18  1  0.88002786  0.24236754  0.90035644  1
  Ge  Ge19  1  0.38002786  0.75763246  0.09964356  1
  Ge  Ge20  1  0.88454548  0.09077791  0.34095257  1
  Ge  Ge21  1  0.38454548  0.90922209  0.65904743  1
  Ge  Ge22  1  0.88844440  0.67948211  0.76127940  1
  Ge  Ge23  1  0.38844440  0.32051789  0.23872060  1
  O  O24  1  0.26667249  0.48408047  0.64977518  1
  O  O25  1  0.76667249  0.51591953  0.35022482  1
  O  O26  1  0.07059444  0.73387672  0.72987910  1
  O  O27  1  0.57059444  0.26612328  0.27012090  1
  O  O28  1  0.26075879  0.73802974  0.95393489  1
  O  O29  1  0.76075879  0.26197026  0.04606511  1
  O  O30  1  0.88958395  0.05096599  0.76990715  1
  O  O31  1  0.38958395  0.94903401  0.23009285  1
  O  O32  1  0.39688955  0.77585094  0.72088477  1
  O  O33  1  0.89688955  0.22414906  0.27911523  1
  O  O34  1  0.87065314  0.48476728  0.64604169  1
  O  O35  1  0.37065314  0.51523272  0.35395831  1
  O  O36  1  0.34731659  0.35878219  0.83871910  1
  O  O37  1  0.84731659  0.64121781  0.16128090  1
  O  O38  1  0.88003623  0.73443075  0.95096412  1
  O  O39  1  0.38003623  0.26556925  0.04903588  1
  O  O40  1  0.25384795  0.05148956  0.77109052  1
  O  O41  1  0.75384795  0.94851044  0.22890948  1
  O  O42  1  0.07134344  0.01895567  0.33449247  1
  O  O43  1  0.57134344  0.98104433  0.66550753  1
  O  O44  1  0.06996419  0.30441467  0.96009088  1
  O  O45  1  0.56996419  0.69558533  0.03990912  1
  O  O46  1  0.24450191  0.22490298  0.28025330  1
  O  O47  1  0.74450191  0.77509702  0.71974670  1
  O  O48  1  0.81396908  0.16666817  0.52252447  1
  O  O49  1  0.31396908  0.83333183  0.47747553  1
  O  O50  1  0.56984434  0.39002779  0.64984196  1
  O  O51  1  0.06984434  0.60997221  0.35015804  1
  O  O52  1  0.32983366  0.16681382  0.52418397  1
  O  O53  1  0.82983366  0.83318618  0.47581603  1
  O  O54  1  0.79565498  0.35677740  0.83673959  1
  O  O55  1  0.29565498  0.64322260  0.16326041  1
