# generated using pymatgen
data_MgCrAsO5
_symmetry_space_group_name_H-M   'P 1'
_cell_length_a   7.72152463
_cell_length_b   6.05044878
_cell_length_c   8.49629781
_cell_angle_alpha   90.00287277
_cell_angle_beta   90.00128987
_cell_angle_gamma   89.99407480
_symmetry_Int_Tables_number   1
_chemical_formula_structural   MgCrAsO5
_chemical_formula_sum   'Mg4 Cr4 As4 O20'
_cell_volume   396.93589451
_cell_formula_units_Z   4
loop_
 _symmetry_equiv_pos_site_id
 _symmetry_equiv_pos_as_xyz
  1  'x, y, z'
loop_
 _atom_site_type_symbol
 _atom_site_label
 _atom_site_symmetry_multiplicity
 _atom_site_fract_x
 _atom_site_fract_y
 _atom_site_fract_z
 _atom_site_occupancy
  Mg  Mg0  1  0.92431686  0.69728586  0.06473048  1
  Mg  Mg1  1  0.57654613  0.30388839  0.56452747  1
  Mg  Mg2  1  0.42448829  0.80280826  0.93529132  1
  Mg  Mg3  1  0.07620248  0.19645667  0.43540844  1
  Cr  Cr4  1  0.99512561  0.49367055  0.74981171  1
  Cr  Cr5  1  0.50457595  0.50645227  0.24952667  1
  Cr  Cr6  1  0.49505962  0.00628912  0.25025353  1
  Cr  Cr7  1  0.00491719  0.99373848  0.75032942  1
  As  As8  1  0.64950604  0.26895188  0.93042439  1
  As  As9  1  0.85021072  0.73102718  0.43066497  1
  As  As10  1  0.14964683  0.23102570  0.06944019  1
  As  As11  1  0.35039601  0.76898889  0.56954961  1
  O  O12  1  0.84713205  0.24076135  0.83346186  1
  O  O13  1  0.65291686  0.75920689  0.33325635  1
  O  O14  1  0.34701806  0.25923241  0.16663944  1
  O  O15  1  0.15296227  0.74072098  0.66680870  1
  O  O16  1  0.50263113  0.32016114  0.78733473  1
  O  O17  1  0.99755539  0.67945548  0.28754875  1
  O  O18  1  0.00246587  0.17937515  0.21272579  1
  O  O19  1  0.49752666  0.82017653  0.71243445  1
  O  O20  1  0.61010048  0.02296757  0.02795185  1
  O  O21  1  0.88991702  0.97689483  0.52802601  1
  O  O22  1  0.10999151  0.47697703  0.97217212  1
  O  O23  1  0.38995263  0.52309520  0.47199091  1
  O  O24  1  0.66338012  0.49659537  0.05354836  1
  O  O25  1  0.83604239  0.50362902  0.55384645  1
  O  O26  1  0.16368453  0.00360539  0.94634862  1
  O  O27  1  0.33606082  0.99632917  0.44618324  1
  O  O28  1  0.87986576  0.75039826  0.84408457  1
  O  O29  1  0.62000136  0.24970920  0.34381207  1
  O  O30  1  0.37962340  0.74976075  0.15586117  1
  O  O31  1  0.12017797  0.25036704  0.65600640  1
