# generated using pymatgen
data_U3Sn7
_symmetry_space_group_name_H-M   'P 1'
_cell_length_a   4.49384043
_cell_length_b   4.65825669
_cell_length_c   12.27196169
_cell_angle_alpha   90.00000000
_cell_angle_beta   100.55001523
_cell_angle_gamma   90.00000000
_symmetry_Int_Tables_number   1
_chemical_formula_structural   U3Sn7
_chemical_formula_sum   'U3 Sn7'
_cell_volume   252.55195938
_cell_formula_units_Z   1
loop_
 _symmetry_equiv_pos_site_id
 _symmetry_equiv_pos_as_xyz
  1  'x, y, z'
loop_
 _atom_site_type_symbol
 _atom_site_label
 _atom_site_symmetry_multiplicity
 _atom_site_fract_x
 _atom_site_fract_y
 _atom_site_fract_z
 _atom_site_occupancy
  U  U0  1  0.80830084  -0.00000000  0.61660168  1
  U  U1  1  0.19169916  -0.00000000  0.38339832  1
  U  U2  1  0.00000000  -0.00000000  0.00000000  1
  Sn  Sn3  1  0.90101753  0.50000000  0.80203506  1
  Sn  Sn4  1  0.09898247  0.50000000  0.19796494  1
  Sn  Sn5  1  0.70575053  0.50000000  0.41150106  1
  Sn  Sn6  1  0.29424947  0.50000000  0.58849894  1
  Sn  Sn7  1  0.59726434  -0.00000000  0.19452868  1
  Sn  Sn8  1  0.40273566  -0.00000000  0.80547132  1
  Sn  Sn9  1  0.50000000  0.50000000  0.00000000  1
