# generated using pymatgen
data_K10Hf3Mo12PbO48
_symmetry_space_group_name_H-M   'P 1'
_cell_length_a   10.86937789
_cell_length_b   10.86937788
_cell_length_c   14.38065668
_cell_angle_alpha   67.79530853
_cell_angle_beta   67.79530855
_cell_angle_gamma   60.00000192
_symmetry_Int_Tables_number   1
_chemical_formula_structural   K10Hf3Mo12PbO48
_chemical_formula_sum   'K10 Hf3 Mo12 Pb1 O48'
_cell_volume   1323.87349909
_cell_formula_units_Z   1
loop_
 _symmetry_equiv_pos_site_id
 _symmetry_equiv_pos_as_xyz
  1  'x, y, z'
loop_
 _atom_site_type_symbol
 _atom_site_label
 _atom_site_symmetry_multiplicity
 _atom_site_fract_x
 _atom_site_fract_y
 _atom_site_fract_z
 _atom_site_occupancy
  K  K0  1  0.85061686  0.85061686  0.44814942  1
  K  K1  1  0.14938314  0.14938314  0.55185058  1
  K  K2  1  0.62827807  0.62827807  0.11516580  1
  K  K3  1  0.37172193  0.37172193  0.88483420  1
  K  K4  1  0.76382006  0.13515328  0.74183551  1
  K  K5  1  0.13515328  0.35919115  0.74183551  1
  K  K6  1  0.35919115  0.76382006  0.74183551  1
  K  K7  1  0.23617994  0.86484672  0.25816449  1
  K  K8  1  0.86484672  0.64080885  0.25816449  1
  K  K9  1  0.64080885  0.23617994  0.25816449  1
  Hf  Hf10  1  -0.00000000  0.00000000  0.00000000  1
  Hf  Hf11  1  0.75056618  0.75056618  0.74830147  1
  Hf  Hf12  1  0.24943382  0.24943382  0.25169853  1
  Mo  Mo13  1  0.77011743  0.51047883  0.60623645  1
  Mo  Mo14  1  0.51047883  0.11316729  0.60623645  1
  Mo  Mo15  1  0.11316729  0.77011743  0.60623645  1
  Mo  Mo16  1  0.22988257  0.48952117  0.39376355  1
  Mo  Mo17  1  0.48952117  0.88683271  0.39376355  1
  Mo  Mo18  1  0.88683271  0.22988257  0.39376355  1
  Mo  Mo19  1  0.95316882  0.75211499  0.90827107  1
  Mo  Mo20  1  0.75211499  0.38644513  0.90827107  1
  Mo  Mo21  1  0.38644513  0.95316882  0.90827107  1
  Mo  Mo22  1  0.04683118  0.24788501  0.09172893  1
  Mo  Mo23  1  0.24788501  0.61355487  0.09172893  1
  Mo  Mo24  1  0.61355487  0.04683118  0.09172893  1
  Pb  Pb25  1  0.50000000  0.50000000  0.50000000  1
  O  O26  1  0.13674543  0.83654356  0.47129403  1
  O  O27  1  0.83654356  0.55541698  0.47129403  1
  O  O28  1  0.55541698  0.13674543  0.47129403  1
  O  O29  1  0.86325457  0.16345644  0.52870597  1
  O  O30  1  0.16345644  0.44458302  0.52870597  1
  O  O31  1  0.44458302  0.86325457  0.52870597  1
  O  O32  1  0.90374118  0.34721116  0.66399169  1
  O  O33  1  0.34721116  0.08505597  0.66399169  1
  O  O34  1  0.08505597  0.90374118  0.66399169  1
  O  O35  1  0.09625882  0.65278884  0.33600831  1
  O  O36  1  0.65278884  0.91494403  0.33600831  1
  O  O37  1  0.91494403  0.09625882  0.33600831  1
  O  O38  1  0.61345775  0.47756362  0.63110766  1
  O  O39  1  0.47756362  0.27787097  0.63110766  1
  O  O40  1  0.27787097  0.61345775  0.63110766  1
  O  O41  1  0.38654225  0.52243638  0.36889234  1
  O  O42  1  0.52243638  0.72212903  0.36889234  1
  O  O43  1  0.72212903  0.38654225  0.36889234  1
  O  O44  1  0.71434024  0.67105627  0.65711509  1
  O  O45  1  0.67105627  0.95748841  0.65711509  1
  O  O46  1  0.95748841  0.71434024  0.65711509  1
  O  O47  1  0.28565976  0.32894373  0.34288491  1
  O  O48  1  0.32894373  0.04251159  0.34288491  1
  O  O49  1  0.04251159  0.28565976  0.34288491  1
  O  O50  1  0.90198369  0.66748916  0.03797030  1
  O  O51  1  0.66748916  0.39255685  0.03797030  1
  O  O52  1  0.39255685  0.90198369  0.03797030  1
  O  O53  1  0.09801631  0.33251084  0.96202970  1
  O  O54  1  0.33251084  0.60744315  0.96202970  1
  O  O55  1  0.60744315  0.09801631  0.96202970  1
  O  O56  1  0.11862954  0.62739127  0.84856107  1
  O  O57  1  0.62739127  0.40541812  0.84856107  1
  O  O58  1  0.40541812  0.11862954  0.84856107  1
  O  O59  1  0.88137046  0.37260873  0.15143893  1
  O  O60  1  0.37260873  0.59458188  0.15143893  1
  O  O61  1  0.59458188  0.88137046  0.15143893  1
  O  O62  1  0.97758093  0.91006685  0.90597704  1
  O  O63  1  0.91006685  0.20637518  0.90597704  1
  O  O64  1  0.20637518  0.97758093  0.90597704  1
  O  O65  1  0.02241907  0.08993315  0.09402296  1
  O  O66  1  0.08993315  0.79362482  0.09402296  1
  O  O67  1  0.79362482  0.02241907  0.09402296  1
  O  O68  1  0.80820132  0.81160640  0.84314041  1
  O  O69  1  0.81160640  0.53705186  0.84314041  1
  O  O70  1  0.53705186  0.80820132  0.84314041  1
  O  O71  1  0.19179868  0.18839360  0.15685959  1
  O  O72  1  0.18839360  0.46294814  0.15685959  1
  O  O73  1  0.46294814  0.19179868  0.15685959  1
