# generated using pymatgen
data_Sr2Zn3(AsO)2
_symmetry_space_group_name_H-M   'P 1'
_cell_length_a   4.13191463
_cell_length_b   4.13191463
_cell_length_c   9.99634687
_cell_angle_alpha   101.92734888
_cell_angle_beta   101.92734888
_cell_angle_gamma   90.00000000
_symmetry_Int_Tables_number   1
_chemical_formula_structural   Sr2Zn3(AsO)2
_chemical_formula_sum   'Sr2 Zn3 As2 O2'
_cell_volume   163.21250256
_cell_formula_units_Z   1
loop_
 _symmetry_equiv_pos_site_id
 _symmetry_equiv_pos_as_xyz
  1  'x, y, z'
loop_
 _atom_site_type_symbol
 _atom_site_label
 _atom_site_symmetry_multiplicity
 _atom_site_fract_x
 _atom_site_fract_y
 _atom_site_fract_z
 _atom_site_occupancy
  Sr  Sr0  1  0.41494964  0.41494964  0.82989928  1
  Sr  Sr1  1  0.58505036  0.58505036  0.17010072  1
  Zn  Zn2  1  0.25000000  0.75000000  0.50000000  1
  Zn  Zn3  1  0.75000000  0.25000000  0.50000000  1
  Zn  Zn4  1  -0.00000000  -0.00000000  -0.00000000  1
  As  As5  1  0.16834434  0.16834434  0.33668867  1
  As  As6  1  0.83165566  0.83165566  0.66331133  1
  O  O7  1  -0.00000000  0.50000000  -0.00000000  1
  O  O8  1  0.50000000  -0.00000000  -0.00000000  1
