# generated using pymatgen
data_V2NO5
_symmetry_space_group_name_H-M   'P 1'
_cell_length_a   3.66493150
_cell_length_b   6.11195853
_cell_length_c   11.65516303
_cell_angle_alpha   91.89695834
_cell_angle_beta   90.00000000
_cell_angle_gamma   107.44657943
_symmetry_Int_Tables_number   1
_chemical_formula_structural   V2NO5
_chemical_formula_sum   'V4 N2 O10'
_cell_volume   248.91437653
_cell_formula_units_Z   2
loop_
 _symmetry_equiv_pos_site_id
 _symmetry_equiv_pos_as_xyz
  1  'x, y, z'
loop_
 _atom_site_type_symbol
 _atom_site_label
 _atom_site_symmetry_multiplicity
 _atom_site_fract_x
 _atom_site_fract_y
 _atom_site_fract_z
 _atom_site_occupancy
  V  V0  1  0.22087636  0.44175271  0.33900632  1
  V  V1  1  0.77912364  0.55824729  0.66099368  1
  V  V2  1  0.06998682  0.13997364  0.65799901  1
  V  V3  1  0.93001318  0.86002636  0.34200099  1
  N  N4  1  0.45530183  0.91060365  0.98153095  1
  N  N5  1  0.54469817  0.08939635  0.01846905  1
  O  O6  1  0.60761857  0.21523714  0.62799147  1
  O  O7  1  0.39238143  0.78476286  0.37200853  1
  O  O8  1  0.79729154  0.59458309  0.79729198  1
  O  O9  1  0.20270846  0.40541691  0.20270802  1
  O  O10  1  0.07782239  0.15564478  0.39887459  1
  O  O11  1  0.92217761  0.84435522  0.60112541  1
  O  O12  1  0.24144774  0.48289547  0.62548682  1
  O  O13  1  0.75855226  0.51710453  0.37451318  1
  O  O14  1  0.06106404  0.12212809  0.79442398  1
  O  O15  1  0.93893596  0.87787191  0.20557602  1
