# generated using pymatgen
data_P2WO7
_symmetry_space_group_name_H-M   'P 1'
_cell_length_a   6.54442695
_cell_length_b   6.50312547
_cell_length_c   7.14616662
_cell_angle_alpha   114.28415015
_cell_angle_beta   92.67042177
_cell_angle_gamma   83.88332677
_symmetry_Int_Tables_number   1
_chemical_formula_structural   P2WO7
_chemical_formula_sum   'P4 W2 O14'
_cell_volume   275.64503016
_cell_formula_units_Z   2
loop_
 _symmetry_equiv_pos_site_id
 _symmetry_equiv_pos_as_xyz
  1  'x, y, z'
loop_
 _atom_site_type_symbol
 _atom_site_label
 _atom_site_symmetry_multiplicity
 _atom_site_fract_x
 _atom_site_fract_y
 _atom_site_fract_z
 _atom_site_occupancy
  P  P0  1  0.38708099  0.33953465  0.64673748  1
  P  P1  1  0.61296358  0.66041678  0.35321185  1
  P  P2  1  0.13538017  0.23709002  0.25175161  1
  P  P3  1  0.86462867  0.76279317  0.74828594  1
  W  W4  1  0.65112504  0.09010506  0.21080299  1
  W  W5  1  0.34887430  0.90986163  0.78921136  1
  O  O6  1  0.61168768  0.40691411  0.21511482  1
  O  O7  1  0.90924370  0.57245789  0.80739012  1
  O  O8  1  0.09077351  0.42771015  0.19259096  1
  O  O9  1  0.04117723  0.91273309  0.76964957  1
  O  O10  1  0.20114300  0.30701363  0.48909786  1
  O  O11  1  0.35007999  0.21787582  0.78345213  1
  O  O12  1  0.33068241  0.06484040  0.12904592  1
  O  O13  1  0.38830406  0.59308779  0.78491667  1
  O  O14  1  0.79886300  0.69299306  0.51088768  1
  O  O15  1  0.58460618  0.23822462  0.52230010  1
  O  O16  1  0.95885376  0.08733861  0.23031686  1
  O  O17  1  0.66930337  0.93519003  0.87092817  1
  O  O18  1  0.64987925  0.78205874  0.21654668  1
  O  O19  1  0.41535112  0.76175874  0.47776222  1
