# generated using pymatgen
data_Sr2NdBeO5
_symmetry_space_group_name_H-M   'P 1'
_cell_length_a   6.61751676
_cell_length_b   7.45617972
_cell_length_c   9.69899484
_cell_angle_alpha   90.00000000
_cell_angle_beta   90.00000000
_cell_angle_gamma   90.00000000
_symmetry_Int_Tables_number   1
_chemical_formula_structural   Sr2NdBeO5
_chemical_formula_sum   'Sr8 Nd4 Be4 O20'
_cell_volume   478.56192835
_cell_formula_units_Z   4
loop_
 _symmetry_equiv_pos_site_id
 _symmetry_equiv_pos_as_xyz
  1  'x, y, z'
loop_
 _atom_site_type_symbol
 _atom_site_label
 _atom_site_symmetry_multiplicity
 _atom_site_fract_x
 _atom_site_fract_y
 _atom_site_fract_z
 _atom_site_occupancy
  Sr  Sr0  1  0.91426520  0.97505759  0.67313785  1
  Sr  Sr1  1  0.08573480  0.02494241  0.32686215  1
  Sr  Sr2  1  0.41426520  0.02494241  0.82686215  1
  Sr  Sr3  1  0.08573480  0.47505759  0.32686215  1
  Sr  Sr4  1  0.58573480  0.97505759  0.17313785  1
  Sr  Sr5  1  0.91426520  0.52494241  0.67313785  1
  Sr  Sr6  1  0.58573480  0.52494241  0.17313785  1
  Sr  Sr7  1  0.41426520  0.47505759  0.82686215  1
  Nd  Nd8  1  0.40631300  0.75000000  0.52922244  1
  Nd  Nd9  1  0.59368700  0.25000000  0.47077756  1
  Nd  Nd10  1  0.90631300  0.25000000  0.97077756  1
  Nd  Nd11  1  0.09368700  0.75000000  0.02922244  1
  Be  Be12  1  0.68917637  0.75000000  0.89723107  1
  Be  Be13  1  0.31082363  0.25000000  0.10276893  1
  Be  Be14  1  0.18917637  0.25000000  0.60276893  1
  Be  Be15  1  0.81082363  0.75000000  0.39723107  1
  O  O16  1  0.17421018  0.75000000  0.78047004  1
  O  O17  1  0.82578982  0.25000000  0.21952996  1
  O  O18  1  0.67421018  0.25000000  0.71952996  1
  O  O19  1  0.32578982  0.75000000  0.28047004  1
  O  O20  1  0.81180065  0.93550179  0.93526567  1
  O  O21  1  0.18819935  0.06449821  0.06473433  1
  O  O22  1  0.31180065  0.06449821  0.56473433  1
  O  O23  1  0.18819935  0.43550179  0.06473433  1
  O  O24  1  0.68819935  0.93550179  0.43526567  1
  O  O25  1  0.81180065  0.56449821  0.93526567  1
  O  O26  1  0.68819935  0.56449821  0.43526567  1
  O  O27  1  0.31180065  0.43550179  0.56473433  1
  O  O28  1  0.47062615  0.75000000  0.98611086  1
  O  O29  1  0.52937385  0.25000000  0.01388914  1
  O  O30  1  0.97062615  0.25000000  0.51388914  1
  O  O31  1  0.02937385  0.75000000  0.48611086  1
  O  O32  1  0.62783533  0.75000000  0.73008411  1
  O  O33  1  0.37216467  0.25000000  0.26991589  1
  O  O34  1  0.12783533  0.25000000  0.76991589  1
  O  O35  1  0.87216467  0.75000000  0.23008411  1
