# generated using pymatgen
data_Y6Co2Sn
_symmetry_space_group_name_H-M   'P 1'
_cell_length_a   8.43506692
_cell_length_b   8.43506692
_cell_length_c   8.43506692
_cell_angle_alpha   107.46793144
_cell_angle_beta   109.90755989
_cell_angle_gamma   111.05871284
_symmetry_Int_Tables_number   1
_chemical_formula_structural   Y6Co2Sn
_chemical_formula_sum   'Y12 Co4 Sn2'
_cell_volume   461.53172339
_cell_formula_units_Z   2
loop_
 _symmetry_equiv_pos_site_id
 _symmetry_equiv_pos_as_xyz
  1  'x, y, z'
loop_
 _atom_site_type_symbol
 _atom_site_label
 _atom_site_symmetry_multiplicity
 _atom_site_fract_x
 _atom_site_fract_y
 _atom_site_fract_z
 _atom_site_occupancy
  Y  Y0  1  0.79056949  0.76662191  0.55719140  1
  Y  Y1  1  0.20943051  0.23337809  0.44280860  1
  Y  Y2  1  0.20943051  0.76662191  0.97605241  1
  Y  Y3  1  0.79056949  0.23337809  0.02394759  1
  Y  Y4  1  0.53017153  0.71568293  0.81448860  1
  Y  Y5  1  0.46982847  0.28431707  0.18551140  1
  Y  Y6  1  0.09880567  0.28431707  0.81448860  1
  Y  Y7  1  0.90119433  0.71568293  0.18551140  1
  Y  Y8  1  0.69195493  0.37090284  0.67894791  1
  Y  Y9  1  0.30804507  0.62909716  0.32105209  1
  Y  Y10  1  0.30804507  0.98699298  0.67894791  1
  Y  Y11  1  0.69195493  0.01300702  0.32105209  1
  Co  Co12  1  0.63898626  -0.00000000  0.63898626  1
  Co  Co13  1  0.36101374  0.00000000  0.36101374  1
  Co  Co14  1  0.50000000  0.38764538  0.88764538  1
  Co  Co15  1  0.50000000  0.61235462  0.11235462  1
  Sn  Sn16  1  0.00000000  0.50000000  0.50000000  1
  Sn  Sn17  1  0.00000000  0.00000000  0.00000000  1
