# generated using pymatgen
data_Ta10Si2MoSe8
_symmetry_space_group_name_H-M   'P 1'
_cell_length_a   3.49283246
_cell_length_b   11.93704609
_cell_length_c   19.49656968
_cell_angle_alpha   90.00000000
_cell_angle_beta   90.00000000
_cell_angle_gamma   90.00000000
_symmetry_Int_Tables_number   1
_chemical_formula_structural   Ta10Si2MoSe8
_chemical_formula_sum   'Ta20 Si4 Mo2 Se16'
_cell_volume   812.89196605
_cell_formula_units_Z   2
loop_
 _symmetry_equiv_pos_site_id
 _symmetry_equiv_pos_as_xyz
  1  'x, y, z'
loop_
 _atom_site_type_symbol
 _atom_site_label
 _atom_site_symmetry_multiplicity
 _atom_site_fract_x
 _atom_site_fract_y
 _atom_site_fract_z
 _atom_site_occupancy
  Ta  Ta0  1  0.00000000  0.33874666  0.21295396  1
  Ta  Ta1  1  -0.00000000  0.66125334  0.78704604  1
  Ta  Ta2  1  0.50000000  0.16125334  0.71295396  1
  Ta  Ta3  1  0.50000000  0.83874666  0.28704604  1
  Ta  Ta4  1  0.00000000  0.56346219  0.11278783  1
  Ta  Ta5  1  -0.00000000  0.43653781  0.88721217  1
  Ta  Ta6  1  0.50000000  0.93653781  0.61278783  1
  Ta  Ta7  1  0.50000000  0.06346219  0.38721217  1
  Ta  Ta8  1  -0.00000000  0.32139296  0.64456280  1
  Ta  Ta9  1  0.00000000  0.67860704  0.35543720  1
  Ta  Ta10  1  0.50000000  0.17860704  0.14456280  1
  Ta  Ta11  1  0.50000000  0.82139296  0.85543720  1
  Ta  Ta12  1  -0.00000000  0.32279658  0.04682066  1
  Ta  Ta13  1  -0.00000000  0.67720342  0.95317934  1
  Ta  Ta14  1  0.50000000  0.17720342  0.54682066  1
  Ta  Ta15  1  0.50000000  0.82279658  0.45317934  1
  Ta  Ta16  1  0.00000000  0.04820417  0.25860634  1
  Ta  Ta17  1  0.00000000  0.95179583  0.74139366  1
  Ta  Ta18  1  0.50000000  0.45179583  0.75860634  1
  Ta  Ta19  1  0.50000000  0.54820417  0.24139366  1
  Si  Si20  1  -0.00000000  0.09204258  0.62756456  1
  Si  Si21  1  0.00000000  0.90795742  0.37243544  1
  Si  Si22  1  0.50000000  0.40795742  0.12756456  1
  Si  Si23  1  0.50000000  0.59204258  0.87243544  1
  Mo  Mo24  1  0.00000000  0.00000000  0.50000000  1
  Mo  Mo25  1  0.50000000  0.50000000  0.00000000  1
  Se  Se26  1  -0.00000000  0.71600065  0.21240601  1
  Se  Se27  1  0.00000000  0.28399935  0.78759399  1
  Se  Se28  1  0.50000000  0.78399935  0.71240601  1
  Se  Se29  1  0.50000000  0.21600065  0.28759399  1
  Se  Se30  1  -0.00000000  0.21057128  0.44391886  1
  Se  Se31  1  0.00000000  0.78942872  0.55608114  1
  Se  Se32  1  0.50000000  0.28942872  0.94391886  1
  Se  Se33  1  0.50000000  0.71057128  0.05608114  1
  Se  Se34  1  0.00000000  0.45969729  0.32706654  1
  Se  Se35  1  -0.00000000  0.54030271  0.67293346  1
  Se  Se36  1  0.50000000  0.04030271  0.82706654  1
  Se  Se37  1  0.50000000  0.95969729  0.17293346  1
  Se  Se38  1  0.00000000  0.10947911  0.05337962  1
  Se  Se39  1  0.00000000  0.89052089  0.94662038  1
  Se  Se40  1  0.50000000  0.39052089  0.55337962  1
  Se  Se41  1  0.50000000  0.60947911  0.44662038  1
