# generated using pymatgen
data_YbCoGe
_symmetry_space_group_name_H-M   'P 1'
_cell_length_a   4.28840633
_cell_length_b   7.13922227
_cell_length_c   6.72786952
_cell_angle_alpha   90.00000000
_cell_angle_beta   90.00000000
_cell_angle_gamma   90.00000000
_symmetry_Int_Tables_number   1
_chemical_formula_structural   YbCoGe
_chemical_formula_sum   'Yb4 Co4 Ge4'
_cell_volume   205.97968607
_cell_formula_units_Z   4
loop_
 _symmetry_equiv_pos_site_id
 _symmetry_equiv_pos_as_xyz
  1  'x, y, z'
loop_
 _atom_site_type_symbol
 _atom_site_label
 _atom_site_symmetry_multiplicity
 _atom_site_fract_x
 _atom_site_fract_y
 _atom_site_fract_z
 _atom_site_occupancy
  Yb  Yb0  1  0.75000000  0.01702357  0.31602456  1
  Yb  Yb1  1  0.25000000  0.98297643  0.68397544  1
  Yb  Yb2  1  0.25000000  0.48297643  0.81602456  1
  Yb  Yb3  1  0.75000000  0.51702357  0.18397544  1
  Co  Co4  1  0.75000000  0.85815659  0.92855088  1
  Co  Co5  1  0.25000000  0.14184341  0.07144912  1
  Co  Co6  1  0.25000000  0.64184341  0.42855088  1
  Co  Co7  1  0.75000000  0.35815659  0.57144912  1
  Ge  Ge8  1  0.75000000  0.69347946  0.60572099  1
  Ge  Ge9  1  0.25000000  0.30652054  0.39427901  1
  Ge  Ge10  1  0.25000000  0.80652054  0.10572099  1
  Ge  Ge11  1  0.75000000  0.19347946  0.89427901  1
