# generated using pymatgen
data_U6Al43V4
_symmetry_space_group_name_H-M   'P 1'
_cell_length_a   10.97672530
_cell_length_b   10.97672530
_cell_length_c   17.42622206
_cell_angle_alpha   90.00000000
_cell_angle_beta   90.00000000
_cell_angle_gamma   119.99999626
_symmetry_Int_Tables_number   1
_chemical_formula_structural   U6Al43V4
_chemical_formula_sum   'U12 Al86 V8'
_cell_volume   1818.35838494
_cell_formula_units_Z   2
loop_
 _symmetry_equiv_pos_site_id
 _symmetry_equiv_pos_as_xyz
  1  'x, y, z'
loop_
 _atom_site_type_symbol
 _atom_site_label
 _atom_site_symmetry_multiplicity
 _atom_site_fract_x
 _atom_site_fract_y
 _atom_site_fract_z
 _atom_site_occupancy
  U  U0  1  0.47429216  0.47429216  0.91019979  1
  U  U1  1  0.52570784  0.52570784  0.08980021  1
  U  U2  1  0.00000000  0.52570784  0.91019979  1
  U  U3  1  0.52570784  0.52570784  0.41019979  1
  U  U4  1  0.00000000  0.52570784  0.58980021  1
  U  U5  1  1.00000000  0.47429216  0.08980021  1
  U  U6  1  0.47429216  0.47429216  0.58980021  1
  U  U7  1  1.00000000  0.47429216  0.41019979  1
  U  U8  1  0.52570784  0.00000000  0.91019979  1
  U  U9  1  0.47429216  1.00000000  0.08980021  1
  U  U10  1  0.47429216  1.00000000  0.41019979  1
  U  U11  1  0.52570784  0.00000000  0.58980021  1
  Al  Al12  1  0.85689880  0.45166770  0.75000000  1
  Al  Al13  1  0.14310120  0.54833230  0.25000000  1
  Al  Al14  1  0.59476890  0.14310120  0.75000000  1
  Al  Al15  1  0.40523110  0.54833230  0.75000000  1
  Al  Al16  1  0.40523110  0.85689880  0.25000000  1
  Al  Al17  1  0.59476890  0.45166770  0.25000000  1
  Al  Al18  1  0.54833230  0.40523110  0.75000000  1
  Al  Al19  1  0.45166770  0.85689880  0.75000000  1
  Al  Al20  1  0.45166770  0.59476890  0.25000000  1
  Al  Al21  1  0.54833230  0.14310120  0.25000000  1
  Al  Al22  1  0.14310120  0.59476890  0.75000000  1
  Al  Al23  1  0.85689880  0.40523110  0.25000000  1
  Al  Al24  1  0.84197808  0.84197808  0.38478779  1
  Al  Al25  1  0.15802192  0.15802192  0.61521221  1
  Al  Al26  1  0.00000000  0.15802192  0.38478779  1
  Al  Al27  1  0.15802192  0.15802192  0.88478779  1
  Al  Al28  1  0.00000000  0.15802192  0.11521221  1
  Al  Al29  1  1.00000000  0.84197808  0.61521221  1
  Al  Al30  1  0.84197808  0.84197808  0.11521221  1
  Al  Al31  1  1.00000000  0.84197808  0.88478779  1
  Al  Al32  1  0.15802192  0.00000000  0.38478779  1
  Al  Al33  1  0.84197808  1.00000000  0.61521221  1
  Al  Al34  1  0.84197808  1.00000000  0.88478779  1
  Al  Al35  1  0.15802192  0.00000000  0.11521221  1
  Al  Al36  1  0.75315997  0.24684003  0.00000000  1
  Al  Al37  1  0.24684003  0.75315997  0.00000000  1
  Al  Al38  1  0.49368006  0.24684003  0.00000000  1
  Al  Al39  1  0.24684003  0.75315997  0.50000000  1
  Al  Al40  1  0.50631994  0.75315997  0.50000000  1
  Al  Al41  1  0.50631994  0.75315997  0.00000000  1
  Al  Al42  1  0.75315997  0.24684003  0.50000000  1
  Al  Al43  1  0.49368006  0.24684003  0.50000000  1
  Al  Al44  1  0.75315997  0.50631994  0.00000000  1
  Al  Al45  1  0.24684003  0.49368006  0.00000000  1
  Al  Al46  1  0.24684003  0.49368006  0.50000000  1
  Al  Al47  1  0.75315997  0.50631994  0.50000000  1
  Al  Al48  1  0.85501093  0.85501093  0.75000000  1
  Al  Al49  1  0.14498907  0.14498907  0.25000000  1
  Al  Al50  1  1.00000000  0.14498907  0.75000000  1
  Al  Al51  1  0.00000000  0.85501093  0.25000000  1
  Al  Al52  1  0.14498907  1.00000000  0.75000000  1
  Al  Al53  1  0.85501093  0.00000000  0.25000000  1
  Al  Al54  1  0.66666700  0.33333300  0.87208788  1
  Al  Al55  1  0.33333300  0.66666700  0.12791212  1
  Al  Al56  1  0.33333300  0.66666700  0.37208788  1
  Al  Al57  1  0.33333300  0.66666700  0.62791212  1
  Al  Al58  1  0.66666700  0.33333300  0.62791212  1
  Al  Al59  1  0.66666700  0.33333300  0.37208788  1
  Al  Al60  1  0.66666700  0.33333300  0.12791212  1
  Al  Al61  1  0.33333300  0.66666700  0.87208788  1
  Al  Al62  1  0.74664873  0.74664873  0.97032693  1
  Al  Al63  1  0.25335127  0.25335127  0.02967307  1
  Al  Al64  1  1.00000000  0.25335127  0.97032693  1
  Al  Al65  1  0.25335127  0.25335127  0.47032693  1
  Al  Al66  1  1.00000000  0.25335127  0.52967307  1
  Al  Al67  1  0.00000000  0.74664873  0.02967307  1
  Al  Al68  1  0.74664873  0.74664873  0.52967307  1
  Al  Al69  1  0.00000000  0.74664873  0.47032693  1
  Al  Al70  1  0.25335127  1.00000000  0.97032693  1
  Al  Al71  1  0.74664873  0.00000000  0.02967307  1
  Al  Al72  1  0.74664873  0.00000000  0.47032693  1
  Al  Al73  1  0.25335127  1.00000000  0.52967307  1
  Al  Al74  1  0.84102309  0.23395206  0.83525556  1
  Al  Al75  1  0.15897691  0.76604794  0.16474444  1
  Al  Al76  1  0.39292897  0.15897691  0.83525556  1
  Al  Al77  1  0.15897691  0.76604794  0.33525556  1
  Al  Al78  1  0.60707103  0.76604794  0.66474444  1
  Al  Al79  1  0.60707103  0.84102309  0.16474444  1
  Al  Al80  1  0.84102309  0.23395206  0.66474444  1
  Al  Al81  1  0.39292897  0.23395206  0.33525556  1
  Al  Al82  1  0.76604794  0.60707103  0.83525556  1
  Al  Al83  1  0.60707103  0.84102309  0.33525556  1
  Al  Al84  1  0.23395206  0.84102309  0.66474444  1
  Al  Al85  1  0.23395206  0.39292897  0.16474444  1
  Al  Al86  1  0.39292897  0.15897691  0.66474444  1
  Al  Al87  1  0.76604794  0.15897691  0.33525556  1
  Al  Al88  1  0.39292897  0.23395206  0.16474444  1
  Al  Al89  1  0.60707103  0.76604794  0.83525556  1
  Al  Al90  1  0.23395206  0.39292897  0.33525556  1
  Al  Al91  1  0.76604794  0.15897691  0.16474444  1
  Al  Al92  1  0.76604794  0.60707103  0.66474444  1
  Al  Al93  1  0.23395206  0.84102309  0.83525556  1
  Al  Al94  1  0.15897691  0.39292897  0.66474444  1
  Al  Al95  1  0.84102309  0.60707103  0.33525556  1
  Al  Al96  1  0.84102309  0.60707103  0.16474444  1
  Al  Al97  1  0.15897691  0.39292897  0.83525556  1
  V  V98  1  0.00000000  0.00000000  0.00000000  1
  V  V99  1  0.00000000  0.00000000  0.50000000  1
  V  V100  1  0.27011944  0.27011944  0.75000000  1
  V  V101  1  0.72988056  0.72988056  0.25000000  1
  V  V102  1  1.00000000  0.72988056  0.75000000  1
  V  V103  1  0.00000000  0.27011944  0.25000000  1
  V  V104  1  0.72988056  1.00000000  0.75000000  1
  V  V105  1  0.27011944  0.00000000  0.25000000  1
