# generated using pymatgen
data_Sr2Ti5Al17O38
_symmetry_space_group_name_H-M   'P 1'
_cell_length_a   9.85129604
_cell_length_b   11.15208334
_cell_length_c   12.73043375
_cell_angle_alpha   115.97690190
_cell_angle_beta   97.49002883
_cell_angle_gamma   90.00000000
_symmetry_Int_Tables_number   1
_chemical_formula_structural   Sr2Ti5Al17O38
_chemical_formula_sum   'Sr4 Ti10 Al34 O76'
_cell_volume   1244.00952827
_cell_formula_units_Z   2
loop_
 _symmetry_equiv_pos_site_id
 _symmetry_equiv_pos_as_xyz
  1  'x, y, z'
loop_
 _atom_site_type_symbol
 _atom_site_label
 _atom_site_symmetry_multiplicity
 _atom_site_fract_x
 _atom_site_fract_y
 _atom_site_fract_z
 _atom_site_occupancy
  Sr  Sr0  1  0.93720718  0.18634596  0.10899092  1
  Sr  Sr1  1  0.06279282  0.81365404  0.89100908  1
  Sr  Sr2  1  0.56279282  0.07735504  0.89100908  1
  Sr  Sr3  1  0.43720718  0.92264496  0.10899092  1
  Ti  Ti4  1  0.75000000  0.89254222  -0.00000000  1
  Ti  Ti5  1  0.25000000  0.10745778  -0.00000000  1
  Ti  Ti6  1  0.63027843  0.56778590  0.37819537  1
  Ti  Ti7  1  0.36972157  0.43221410  0.62180463  1
  Ti  Ti8  1  0.86972157  0.18959053  0.62180463  1
  Ti  Ti9  1  0.13027843  0.81040947  0.37819537  1
  Ti  Ti10  1  0.36572563  0.77834086  0.79410570  1
  Ti  Ti11  1  0.63427437  0.22165914  0.20589430  1
  Ti  Ti12  1  0.13427437  0.98423516  0.20589430  1
  Ti  Ti13  1  0.86572563  0.01576484  0.79410570  1
  Al  Al14  1  0.88694051  0.52866248  0.79432933  1
  Al  Al15  1  0.11305949  0.47133752  0.20567067  1
  Al  Al16  1  0.61305949  0.73433315  0.20567067  1
  Al  Al17  1  0.38694051  0.26566685  0.79432933  1
  Al  Al18  1  0.63333032  0.65371979  0.78725544  1
  Al  Al19  1  0.36666968  0.34628021  0.21274456  1
  Al  Al20  1  0.86666968  0.86646435  0.21274456  1
  Al  Al21  1  0.13333032  0.13353565  0.78725544  1
  Al  Al22  1  0.75000000  0.62209406  -0.00000000  1
  Al  Al23  1  0.25000000  0.37790594  -0.00000000  1
  Al  Al24  1  0.91495126  0.34833164  0.94450889  1
  Al  Al25  1  0.08504874  0.65166836  0.05549111  1
  Al  Al26  1  0.58504874  0.40382276  0.05549111  1
  Al  Al27  1  0.41495126  0.59617724  0.94450889  1
  Al  Al28  1  0.68098163  0.39483471  0.54432954  1
  Al  Al29  1  0.31901837  0.60516529  0.45567046  1
  Al  Al30  1  0.81901837  0.85050518  0.45567046  1
  Al  Al31  1  0.18098163  0.14949482  0.54432954  1
  Al  Al32  1  0.58941068  0.80145132  0.60647285  1
  Al  Al33  1  0.41058932  0.19854868  0.39352715  1
  Al  Al34  1  0.91058932  0.19497847  0.39352715  1
  Al  Al35  1  0.08941068  0.80502153  0.60647285  1
  Al  Al36  1  0.90848108  0.45771744  0.39029753  1
  Al  Al37  1  0.09151892  0.54228256  0.60970247  1
  Al  Al38  1  0.59151892  0.06741991  0.60970247  1
  Al  Al39  1  0.40848108  0.93258009  0.39029753  1
  Al  Al40  1  0.84478209  0.67581078  0.61337644  1
  Al  Al41  1  0.15521791  0.32418922  0.38662356  1
  Al  Al42  1  0.65521791  0.06243434  0.38662356  1
  Al  Al43  1  0.34478209  0.93756566  0.61337644  1
  Al  Al44  1  0.86641086  0.58983931  0.20537282  1
  Al  Al45  1  0.13358914  0.41016069  0.79462718  1
  Al  Al46  1  0.63358914  0.38446649  0.79462718  1
  Al  Al47  1  0.36641086  0.61553351  0.20537282  1
  O  O48  1  0.80956382  0.27344661  0.29625511  1
  O  O49  1  0.19043618  0.72655339  0.70374489  1
  O  O50  1  0.69043618  0.97719149  0.70374489  1
  O  O51  1  0.30956382  0.02280851  0.29625511  1
  O  O52  1  0.58174124  0.56850672  0.89521162  1
  O  O53  1  0.41825876  0.43149328  0.10478838  1
  O  O54  1  0.91825876  0.67329510  0.10478838  1
  O  O55  1  0.08174124  0.32670490  0.89521162  1
  O  O56  1  0.58062657  0.81951231  0.89061202  1
  O  O57  1  0.41937343  0.18048769  0.10938798  1
  O  O58  1  0.91937343  0.92890030  0.10938798  1
  O  O59  1  0.08062657  0.07109970  0.89061202  1
  O  O60  1  0.69138547  0.71680016  0.68797469  1
  O  O61  1  0.30861453  0.28319984  0.31202531  1
  O  O62  1  0.80861453  0.02882547  0.31202531  1
  O  O63  1  0.19138547  0.97117453  0.68797469  1
  O  O64  1  0.80399797  0.68838059  0.89548380  1
  O  O65  1  0.19600203  0.31161941  0.10451620  1
  O  O66  1  0.69600203  0.79289679  0.10451620  1
  O  O67  1  0.30399797  0.20710321  0.89548380  1
  O  O68  1  0.99379998  0.62512084  0.52271405  1
  O  O69  1  0.00620002  0.37487916  0.47728595  1
  O  O70  1  0.50620002  0.10240678  0.47728595  1
  O  O71  1  0.49379998  0.89759322  0.52271405  1
  O  O72  1  0.94453167  0.43031912  0.10303863  1
  O  O73  1  0.05546833  0.56968088  0.89696137  1
  O  O74  1  0.55546833  0.32728048  0.89696137  1
  O  O75  1  0.44453167  0.67271952  0.10303863  1
  O  O76  1  0.73603419  0.74834339  0.50825660  1
  O  O77  1  0.26396581  0.25165661  0.49174340  1
  O  O78  1  0.76396581  0.24008679  0.49174340  1
  O  O79  1  0.23603419  0.75991321  0.50825660  1
  O  O80  1  0.95264408  0.36001881  0.71369018  1
  O  O81  1  0.04735592  0.63998119  0.28630982  1
  O  O82  1  0.54735592  0.64632862  0.28630982  1
  O  O83  1  0.45264408  0.35367138  0.71369018  1
  O  O84  1  0.66396646  0.28322653  0.09215739  1
  O  O85  1  0.33603354  0.71677347  0.90784261  1
  O  O86  1  0.83603354  0.19106914  0.90784261  1
  O  O87  1  0.16396646  0.80893086  0.09215739  1
  O  O88  1  0.70291584  0.47762278  0.70610945  1
  O  O89  1  0.29708416  0.52237722  0.29389055  1
  O  O90  1  0.79708416  0.77151333  0.29389055  1
  O  O91  1  0.20291584  0.22848667  0.70610945  1
  O  O92  1  0.45387597  0.60475831  0.70818578  1
  O  O93  1  0.54612403  0.39524169  0.29181422  1
  O  O94  1  0.04612403  0.89657253  0.29181422  1
  O  O95  1  0.95387597  0.10342747  0.70818578  1
  O  O96  1  0.94744101  0.59892372  0.70210545  1
  O  O97  1  0.05255899  0.40107628  0.29789455  1
  O  O98  1  0.55255899  0.89681826  0.29789455  1
  O  O99  1  0.44744101  0.10318174  0.70210545  1
  O  O100  1  0.94486252  0.84550186  0.69862048  1
  O  O101  1  0.05513748  0.15449814  0.30137952  1
  O  O102  1  0.55513748  0.14688137  0.30137952  1
  O  O103  1  0.44486252  0.85311863  0.69862048  1
  O  O104  1  0.75622634  0.50229005  0.49229728  1
  O  O105  1  0.24377366  0.49770995  0.50770272  1
  O  O106  1  0.74377366  0.00999277  0.50770272  1
  O  O107  1  0.25622634  0.99000723  0.49229728  1
  O  O108  1  0.49961216  0.63706019  0.49182309  1
  O  O109  1  0.50038784  0.36293981  0.50817691  1
  O  O110  1  0.00038784  0.14523710  0.50817691  1
  O  O111  1  0.99961216  0.85476290  0.49182309  1
  O  O112  1  0.33527113  0.95471985  0.91197963  1
  O  O113  1  0.66472887  0.04528015  0.08802037  1
  O  O114  1  0.16472887  0.04274021  0.08802037  1
  O  O115  1  0.83527113  0.95725979  0.91197963  1
  O  O116  1  0.80217636  0.53334279  0.30790821  1
  O  O117  1  0.19782364  0.46665721  0.69209179  1
  O  O118  1  0.69782364  0.22543458  0.69209179  1
  O  O119  1  0.30217636  0.77456542  0.30790821  1
  O  O120  1  0.80732106  0.45164357  0.89511394  1
  O  O121  1  0.19267894  0.54835643  0.10488606  1
  O  O122  1  0.69267894  0.55652963  0.10488606  1
  O  O123  1  0.30732106  0.44347037  0.89511394  1
