# generated using pymatgen
data_Sr2LaBeO5
_symmetry_space_group_name_H-M   'P 1'
_cell_length_a   6.69217960
_cell_length_b   7.50559634
_cell_length_c   9.76380174
_cell_angle_alpha   90.00000000
_cell_angle_beta   90.00000000
_cell_angle_gamma   90.00000000
_symmetry_Int_Tables_number   1
_chemical_formula_structural   Sr2LaBeO5
_chemical_formula_sum   'Sr8 La4 Be4 O20'
_cell_volume   490.42403227
_cell_formula_units_Z   4
loop_
 _symmetry_equiv_pos_site_id
 _symmetry_equiv_pos_as_xyz
  1  'x, y, z'
loop_
 _atom_site_type_symbol
 _atom_site_label
 _atom_site_symmetry_multiplicity
 _atom_site_fract_x
 _atom_site_fract_y
 _atom_site_fract_z
 _atom_site_occupancy
  Sr  Sr0  1  0.91415439  0.97506704  0.67341365  1
  Sr  Sr1  1  0.08584561  0.02493296  0.32658635  1
  Sr  Sr2  1  0.41415439  0.02493296  0.82658635  1
  Sr  Sr3  1  0.08584561  0.47506704  0.32658635  1
  Sr  Sr4  1  0.58584561  0.97506704  0.17341365  1
  Sr  Sr5  1  0.91415439  0.52493296  0.67341365  1
  Sr  Sr6  1  0.58584561  0.52493296  0.17341365  1
  Sr  Sr7  1  0.41415439  0.47506704  0.82658635  1
  La  La8  1  0.40389307  0.75000000  0.52945637  1
  La  La9  1  0.59610693  0.25000000  0.47054363  1
  La  La10  1  0.90389307  0.25000000  0.97054363  1
  La  La11  1  0.09610693  0.75000000  0.02945637  1
  Be  Be12  1  0.68853865  0.75000000  0.89849406  1
  Be  Be13  1  0.31146135  0.25000000  0.10150594  1
  Be  Be14  1  0.18853865  0.25000000  0.60150594  1
  Be  Be15  1  0.81146135  0.75000000  0.39849406  1
  O  O16  1  0.81045555  0.93452967  0.93554233  1
  O  O17  1  0.18954445  0.06547033  0.06445767  1
  O  O18  1  0.31045555  0.06547033  0.56445767  1
  O  O19  1  0.18954445  0.43452967  0.06445767  1
  O  O20  1  0.68954445  0.93452967  0.43554233  1
  O  O21  1  0.81045555  0.56547033  0.93554233  1
  O  O22  1  0.68954445  0.56547033  0.43554233  1
  O  O23  1  0.31045555  0.43452967  0.56445767  1
  O  O24  1  0.62882714  0.75000000  0.73191538  1
  O  O25  1  0.37117286  0.25000000  0.26808462  1
  O  O26  1  0.12882714  0.25000000  0.76808462  1
  O  O27  1  0.87117286  0.75000000  0.23191538  1
  O  O28  1  0.47427637  0.75000000  0.98720176  1
  O  O29  1  0.52572363  0.25000000  0.01279824  1
  O  O30  1  0.97427637  0.25000000  0.51279824  1
  O  O31  1  0.02572363  0.75000000  0.48720176  1
  O  O32  1  0.17224392  0.75000000  0.77816988  1
  O  O33  1  0.82775608  0.25000000  0.22183012  1
  O  O34  1  0.67224392  0.25000000  0.72183012  1
  O  O35  1  0.32775608  0.75000000  0.27816988  1
