# generated using pymatgen
data_TbAl3(BO3)4
_symmetry_space_group_name_H-M   'P 1'
_cell_length_a   5.93882901
_cell_length_b   5.93882901
_cell_length_c   11.14891166
_cell_angle_alpha   98.05845254
_cell_angle_beta   98.05845254
_cell_angle_gamma   104.46190084
_symmetry_Int_Tables_number   1
_chemical_formula_structural   TbAl3(BO3)4
_chemical_formula_sum   'Tb2 Al6 B8 O24'
_cell_volume   370.65188430
_cell_formula_units_Z   2
loop_
 _symmetry_equiv_pos_site_id
 _symmetry_equiv_pos_as_xyz
  1  'x, y, z'
loop_
 _atom_site_type_symbol
 _atom_site_label
 _atom_site_symmetry_multiplicity
 _atom_site_fract_x
 _atom_site_fract_y
 _atom_site_fract_z
 _atom_site_occupancy
  Tb  Tb0  1  0.96402382  0.03597618  0.75000000  1
  Tb  Tb1  1  0.03597618  0.96402382  0.25000000  1
  Al  Al2  1  0.69550474  0.19421624  0.47176900  1
  Al  Al3  1  0.30449526  0.80578376  0.52823100  1
  Al  Al4  1  0.80578376  0.30449526  0.02823100  1
  Al  Al5  1  0.19421624  0.69550474  0.97176900  1
  Al  Al6  1  0.41146476  0.58853524  0.75000000  1
  Al  Al7  1  0.58853524  0.41146476  0.25000000  1
  B  B8  1  0.49283129  0.11984546  0.77762753  1
  B  B9  1  0.50716871  0.88015454  0.22237247  1
  B  B10  1  0.88015454  0.50716871  0.72237247  1
  B  B11  1  0.11984546  0.49283129  0.27762753  1
  B  B12  1  0.72050030  0.77713119  0.99581923  1
  B  B13  1  0.27949970  0.22286881  0.00418077  1
  B  B14  1  0.22286881  0.27949970  0.50418077  1
  B  B15  1  0.77713119  0.72050030  0.49581923  1
  O  O16  1  0.19067116  0.99724780  0.93444702  1
  O  O17  1  0.80932884  0.00275220  0.06555298  1
  O  O18  1  0.00275220  0.80932884  0.56555298  1
  O  O19  1  0.99724780  0.19067116  0.43444702  1
  O  O20  1  0.42222508  0.89491054  0.70487758  1
  O  O21  1  0.57777492  0.10508946  0.29512242  1
  O  O22  1  0.10508946  0.57777492  0.79512242  1
  O  O23  1  0.89491054  0.42222508  0.20487758  1
  O  O24  1  0.70159539  0.17852151  0.86040331  1
  O  O25  1  0.29840461  0.82147849  0.13959669  1
  O  O26  1  0.82147849  0.29840461  0.63959669  1
  O  O27  1  0.17852151  0.70159539  0.36040331  1
  O  O28  1  0.62996792  0.86985784  0.50294860  1
  O  O29  1  0.37003208  0.13014216  0.49705140  1
  O  O30  1  0.13014216  0.37003208  0.99705140  1
  O  O31  1  0.86985784  0.62996792  0.00294860  1
  O  O32  1  0.34980878  0.26678041  0.75876730  1
  O  O33  1  0.65019122  0.73321959  0.24123270  1
  O  O34  1  0.73321959  0.65019122  0.74123270  1
  O  O35  1  0.26678041  0.34980878  0.25876730  1
  O  O36  1  0.49421228  0.69867946  0.92672291  1
  O  O37  1  0.50578772  0.30132054  0.07327709  1
  O  O38  1  0.30132054  0.50578772  0.57327709  1
  O  O39  1  0.69867946  0.49421228  0.42672291  1
