# generated using pymatgen
data_Ca2CoWO6
_symmetry_space_group_name_H-M   'P 1'
_cell_length_a   5.63702371
_cell_length_b   5.69588913
_cell_length_c   7.97735380
_cell_angle_alpha   89.98110899
_cell_angle_beta   135.10412692
_cell_angle_gamma   120.28702706
_symmetry_Int_Tables_number   1
_chemical_formula_structural   Ca2CoWO6
_chemical_formula_sum   'Ca2 Co1 W1 O6'
_cell_volume   126.53917101
_cell_formula_units_Z   1
loop_
 _symmetry_equiv_pos_site_id
 _symmetry_equiv_pos_as_xyz
  1  'x, y, z'
loop_
 _atom_site_type_symbol
 _atom_site_label
 _atom_site_symmetry_multiplicity
 _atom_site_fract_x
 _atom_site_fract_y
 _atom_site_fract_z
 _atom_site_occupancy
  Ca  Ca0  1  0.98962926  0.52825816  0.24253546  1
  Ca  Ca1  1  0.99802362  0.53333079  0.75244496  1
  Co  Co2  1  0.99438279  0.97984948  0.49674251  1
  W  W3  1  0.99457285  0.97648523  0.99717661  1
  O  O4  1  0.01252505  0.96902887  0.24903064  1
  O  O5  1  0.98496394  0.95518746  0.74931445  1
  O  O6  1  0.48668140  0.45817668  0.23961420  1
  O  O7  1  0.47917916  0.94381574  0.74244529  1
  O  O8  1  0.47623631  0.96502073  0.23321498  1
  O  O9  1  0.53072962  0.48507687  0.76940489  1
