# generated using pymatgen
data_PrGa4Os
_symmetry_space_group_name_H-M   'P 1'
_cell_length_a   7.70927179
_cell_length_b   8.86281746
_cell_length_c   9.76620265
_cell_angle_alpha   90.00000000
_cell_angle_beta   90.00000000
_cell_angle_gamma   90.00000000
_symmetry_Int_Tables_number   1
_chemical_formula_structural   PrGa4Os
_chemical_formula_sum   'Pr6 Ga24 Os6'
_cell_volume   667.28427922
_cell_formula_units_Z   6
loop_
 _symmetry_equiv_pos_site_id
 _symmetry_equiv_pos_as_xyz
  1  'x, y, z'
loop_
 _atom_site_type_symbol
 _atom_site_label
 _atom_site_symmetry_multiplicity
 _atom_site_fract_x
 _atom_site_fract_y
 _atom_site_fract_z
 _atom_site_occupancy
  Pr  Pr0  1  0.67983521  0.50000000  0.75000000  1
  Pr  Pr1  1  0.32016479  0.50000000  0.25000000  1
  Pr  Pr2  1  0.16108781  0.75099180  0.75000000  1
  Pr  Pr3  1  0.83891219  0.24900820  0.25000000  1
  Pr  Pr4  1  0.16108781  0.24900820  0.75000000  1
  Pr  Pr5  1  0.83891219  0.75099180  0.25000000  1
  Ga  Ga6  1  0.82135828  0.76377330  0.92475113  1
  Ga  Ga7  1  0.17864172  0.23622670  0.07524887  1
  Ga  Ga8  1  0.82135828  0.23622670  0.57524887  1
  Ga  Ga9  1  0.17864172  0.76377330  0.07524887  1
  Ga  Ga10  1  0.17864172  0.76377330  0.42475113  1
  Ga  Ga11  1  0.82135828  0.23622670  0.92475113  1
  Ga  Ga12  1  0.17864172  0.23622670  0.42475113  1
  Ga  Ga13  1  0.82135828  0.76377330  0.57524887  1
  Ga  Ga14  1  0.86995851  0.00000000  0.75000000  1
  Ga  Ga15  1  0.13004149  -0.00000000  0.25000000  1
  Ga  Ga16  1  0.66213521  0.00000000  0.43898404  1
  Ga  Ga17  1  0.33786479  -0.00000000  0.56101596  1
  Ga  Ga18  1  0.66213521  -0.00000000  0.06101596  1
  Ga  Ga19  1  0.33786479  -0.00000000  0.93898404  1
  Ga  Ga20  1  0.54729434  0.84365630  0.75000000  1
  Ga  Ga21  1  0.45270566  0.15634370  0.25000000  1
  Ga  Ga22  1  0.54729434  0.15634370  0.75000000  1
  Ga  Ga23  1  0.45270566  0.84365630  0.25000000  1
  Ga  Ga24  1  0.34357266  0.50000000  0.91471722  1
  Ga  Ga25  1  0.65642734  0.50000000  0.08528278  1
  Ga  Ga26  1  0.34357266  0.50000000  0.58528278  1
  Ga  Ga27  1  0.65642734  0.50000000  0.41471722  1
  Ga  Ga28  1  -0.00000000  0.50000000  0.00000000  1
  Ga  Ga29  1  -0.00000000  0.50000000  0.50000000  1
  Os  Os30  1  0.50000000  0.74077139  -0.00000000  1
  Os  Os31  1  0.50000000  0.25922861  0.00000000  1
  Os  Os32  1  0.50000000  0.25922861  0.50000000  1
  Os  Os33  1  0.50000000  0.74077139  0.50000000  1
  Os  Os34  1  -0.00000000  0.00000000  0.00000000  1
  Os  Os35  1  -0.00000000  -0.00000000  0.50000000  1
