# generated using pymatgen
data_Rb3CeCl6
_symmetry_space_group_name_H-M   'P 1'
_cell_length_a   8.19207549
_cell_length_b   13.29859068
_cell_length_c   13.98958993
_cell_angle_alpha   99.34797112
_cell_angle_beta   107.02517515
_cell_angle_gamma   90.00000000
_symmetry_Int_Tables_number   1
_chemical_formula_structural   Rb3CeCl6
_chemical_formula_sum   'Rb12 Ce4 Cl24'
_cell_volume   1436.09770494
_cell_formula_units_Z   4
loop_
 _symmetry_equiv_pos_site_id
 _symmetry_equiv_pos_as_xyz
  1  'x, y, z'
loop_
 _atom_site_type_symbol
 _atom_site_label
 _atom_site_symmetry_multiplicity
 _atom_site_fract_x
 _atom_site_fract_y
 _atom_site_fract_z
 _atom_site_occupancy
  Rb  Rb0  1  0.69651605  0.06736009  0.90130691  1
  Rb  Rb1  1  0.30348395  0.93263991  0.09869309  1
  Rb  Rb2  1  0.79520914  0.43263991  0.09869309  1
  Rb  Rb3  1  0.20479086  0.56736009  0.90130691  1
  Rb  Rb4  1  0.53436733  0.35561080  0.69318707  1
  Rb  Rb5  1  0.46563267  0.64438920  0.30681293  1
  Rb  Rb6  1  0.84118026  0.14438920  0.30681293  1
  Rb  Rb7  1  0.15881974  0.85561080  0.69318707  1
  Rb  Rb8  1  0.34865527  0.29880952  0.32319976  1
  Rb  Rb9  1  0.65134473  0.70119048  0.67680024  1
  Rb  Rb10  1  0.02545551  0.20119048  0.67680024  1
  Rb  Rb11  1  0.97454449  0.79880952  0.32319976  1
  Ce  Ce12  1  0.21738954  0.25000000  1.00000000  1
  Ce  Ce13  1  0.78261046  0.75000000  0.00000000  1
  Ce  Ce14  1  0.50000000  -0.00000000  0.50000000  1
  Ce  Ce15  1  -0.00000000  0.50000000  0.50000000  1
  Cl  Cl16  1  0.37682653  0.08305844  0.65779610  1
  Cl  Cl17  1  0.62317347  0.91694156  0.34220390  1
  Cl  Cl18  1  0.71903042  0.41694156  0.34220390  1
  Cl  Cl19  1  0.28096958  0.58305844  0.65779610  1
  Cl  Cl20  1  0.50955972  0.17786809  0.11955809  1
  Cl  Cl21  1  0.49044028  0.82213191  0.88044191  1
  Cl  Cl22  1  0.39000163  0.32213191  0.88044191  1
  Cl  Cl23  1  0.60999837  0.67786809  0.11955809  1
  Cl  Cl24  1  0.21370698  0.03559738  0.35098556  1
  Cl  Cl25  1  0.78629302  0.96440262  0.64901444  1
  Cl  Cl26  1  0.86272141  0.46440262  0.64901444  1
  Cl  Cl27  1  0.13727859  0.53559738  0.35098556  1
  Cl  Cl28  1  0.09110964  0.69486539  0.11960551  1
  Cl  Cl29  1  0.90889036  0.30513461  0.88039449  1
  Cl  Cl30  1  0.97150413  0.80513461  0.88039449  1
  Cl  Cl31  1  0.02849587  0.19486539  0.11960551  1
  Cl  Cl32  1  0.28453741  0.43780923  0.11807099  1
  Cl  Cl33  1  0.71546259  0.56219077  0.88192901  1
  Cl  Cl34  1  0.16646642  0.06219077  0.88192901  1
  Cl  Cl35  1  0.83353358  0.93780923  0.11807099  1
  Cl  Cl36  1  0.64244958  0.18957861  0.49861462  1
  Cl  Cl37  1  0.35755042  0.81042139  0.50138538  1
  Cl  Cl38  1  0.14383496  0.31042139  0.50138538  1
  Cl  Cl39  1  0.85616504  0.68957861  0.49861462  1
