# generated using pymatgen
data_SmVSb3
_symmetry_space_group_name_H-M   'P 1'
_cell_length_a   6.03701664
_cell_length_b   6.27042792
_cell_length_c   13.09078069
_cell_angle_alpha   90.00000000
_cell_angle_beta   90.00000000
_cell_angle_gamma   90.00000000
_symmetry_Int_Tables_number   1
_chemical_formula_structural   SmVSb3
_chemical_formula_sum   'Sm4 V4 Sb12'
_cell_volume   495.54728377
_cell_formula_units_Z   4
loop_
 _symmetry_equiv_pos_site_id
 _symmetry_equiv_pos_as_xyz
  1  'x, y, z'
loop_
 _atom_site_type_symbol
 _atom_site_label
 _atom_site_symmetry_multiplicity
 _atom_site_fract_x
 _atom_site_fract_y
 _atom_site_fract_z
 _atom_site_occupancy
  Sm  Sm0  1  0.75000000  0.99734820  0.69062542  1
  Sm  Sm1  1  0.25000000  0.00265180  0.30937458  1
  Sm  Sm2  1  0.75000000  0.49734820  0.30937458  1
  Sm  Sm3  1  0.25000000  0.50265180  0.69062542  1
  V  V4  1  0.00000000  0.75000000  0.09506784  1
  V  V5  1  -0.00000000  0.25000000  0.90493216  1
  V  V6  1  0.50000000  0.25000000  0.90493216  1
  V  V7  1  0.50000000  0.75000000  0.09506784  1
  Sb  Sb8  1  0.00000000  0.75000000  0.49883030  1
  Sb  Sb9  1  -0.00000000  0.25000000  0.50116970  1
  Sb  Sb10  1  0.50000000  0.25000000  0.50116970  1
  Sb  Sb11  1  0.50000000  0.75000000  0.49883030  1
  Sb  Sb12  1  0.75000000  0.89571591  0.93460313  1
  Sb  Sb13  1  0.25000000  0.10428409  0.06539687  1
  Sb  Sb14  1  0.75000000  0.39571591  0.06539687  1
  Sb  Sb15  1  0.25000000  0.60428409  0.93460313  1
  Sb  Sb16  1  0.75000000  0.50320318  0.77949328  1
  Sb  Sb17  1  0.25000000  0.49679682  0.22050672  1
  Sb  Sb18  1  0.75000000  0.00320318  0.22050672  1
  Sb  Sb19  1  0.25000000  0.99679682  0.77949328  1
