# generated using pymatgen
data_MgV2P2(H4O7)2
_symmetry_space_group_name_H-M   'P 1'
_cell_length_a   6.34655485
_cell_length_b   6.35594717
_cell_length_c   8.13836596
_cell_angle_alpha   113.20237323
_cell_angle_beta   112.89009813
_cell_angle_gamma   90.12728994
_symmetry_Int_Tables_number   1
_chemical_formula_structural   MgV2P2(H4O7)2
_chemical_formula_sum   'Mg1 V2 P2 H8 O14'
_cell_volume   273.24963145
_cell_formula_units_Z   1
loop_
 _symmetry_equiv_pos_site_id
 _symmetry_equiv_pos_as_xyz
  1  'x, y, z'
loop_
 _atom_site_type_symbol
 _atom_site_label
 _atom_site_symmetry_multiplicity
 _atom_site_fract_x
 _atom_site_fract_y
 _atom_site_fract_z
 _atom_site_occupancy
  Mg  Mg0  1  0.84011668  0.84388874  0.68327015  1
  V  V1  1  0.56463446  0.56323154  0.13021699  1
  V  V2  1  0.11875760  0.11701395  0.23648697  1
  P  P3  1  0.09129277  0.58929028  0.18244899  1
  P  P4  1  0.59218219  0.08994639  0.18333790  1
  H  H5  1  0.26456125  0.07158639  0.80039927  1
  H  H6  1  0.95600446  0.42341838  0.56411004  1
  H  H7  1  0.41561738  0.62382079  0.57265892  1
  H  H8  1  0.14366558  0.95814166  0.56334132  1
  H  H9  1  0.61568843  0.16037914  0.58107618  1
  H  H10  1  0.72164742  0.25941375  0.81688693  1
  H  H11  1  0.54454980  0.73114918  0.80920624  1
  H  H12  1  0.06948246  0.54018715  0.80136239  1
  O  O13  1  0.17648080  0.46229131  0.31825302  1
  O  O14  1  0.50736807  0.21707799  0.04688281  1
  O  O15  1  0.11487581  0.02446865  0.68313721  1
  O  O16  1  0.46284359  0.14001155  0.31820126  1
  O  O17  1  0.21920889  0.53840107  0.04594715  1
  O  O18  1  0.82631367  0.50252524  0.04648458  1
  O  O19  1  0.54298977  0.82487130  0.04720059  1
  O  O20  1  0.65710893  0.11627294  0.69112508  1
  O  O21  1  0.99670659  0.99563423  0.99415016  1
  O  O22  1  0.85640088  0.17688801  0.31974253  1
  O  O23  1  0.14009558  0.85393242  0.31759294  1
  O  O24  1  0.68510011  0.68686326  0.37214625  1
  O  O25  1  0.02071905  0.57204472  0.68400592  1
  O  O26  1  0.56758778  0.66494996  0.68672821  1
