# generated using pymatgen
data_PrH6(CO3)3
_symmetry_space_group_name_H-M   'P 1'
_cell_length_a   6.13988639
_cell_length_b   7.79603389
_cell_length_c   9.02285465
_cell_angle_alpha   98.88192436
_cell_angle_beta   98.43455204
_cell_angle_gamma   97.64521578
_symmetry_Int_Tables_number   1
_chemical_formula_structural   PrH6(CO3)3
_chemical_formula_sum   'Pr2 H12 C6 O18'
_cell_volume   416.71048422
_cell_formula_units_Z   2
loop_
 _symmetry_equiv_pos_site_id
 _symmetry_equiv_pos_as_xyz
  1  'x, y, z'
loop_
 _atom_site_type_symbol
 _atom_site_label
 _atom_site_symmetry_multiplicity
 _atom_site_fract_x
 _atom_site_fract_y
 _atom_site_fract_z
 _atom_site_occupancy
  Pr  Pr0  1  0.48726132  0.19527791  0.20544773  1
  Pr  Pr1  1  0.51273868  0.80472209  0.79455227  1
  H  H2  1  0.14465298  0.76030905  0.49589073  1
  H  H3  1  0.85534702  0.23969095  0.50410927  1
  H  H4  1  0.30057295  0.81819739  0.28210276  1
  H  H5  1  0.69942705  0.18180261  0.71789724  1
  H  H6  1  0.45684390  0.11524713  0.62224528  1
  H  H7  1  0.54315610  0.88475287  0.37775472  1
  H  H8  1  0.08108881  0.38935029  0.70408165  1
  H  H9  1  0.91891119  0.61064971  0.29591835  1
  H  H10  1  0.94767374  0.15040641  0.35699837  1
  H  H11  1  0.05232626  0.84959359  0.64300163  1
  H  H12  1  0.11088562  0.55074986  0.20971426  1
  H  H13  1  0.88911438  0.44925014  0.79028574  1
  C  C14  1  0.42012549  0.43408158  0.53144918  1
  C  C15  1  0.57987451  0.56591842  0.46855082  1
  C  C16  1  0.38163102  0.51659030  0.01375614  1
  C  C17  1  0.61836898  0.48340970  0.98624386  1
  C  C18  1  0.94488140  0.02998749  0.06938659  1
  C  C19  1  0.05511860  0.97001251  0.93061341  1
  O  O20  1  0.28324593  0.41798109  0.09174064  1
  O  O21  1  0.71675407  0.58201891  0.90825936  1
  O  O22  1  0.07789610  0.64168870  0.28914440  1
  O  O23  1  0.92210390  0.35831130  0.71085560  1
  O  O24  1  0.69515160  0.36099342  0.04261111  1
  O  O25  1  0.30484840  0.63900658  0.95738889  1
  O  O26  1  0.37406110  0.27757370  0.45886279  1
  O  O27  1  0.62593890  0.72242630  0.54113721  1
  O  O28  1  0.07486898  0.10314787  0.19088889  1
  O  O29  1  0.92513102  0.89685213  0.80911111  1
  O  O30  1  0.26665445  0.99918173  0.94950800  1
  O  O31  1  0.73334555  0.00081827  0.05049200  1
  O  O32  1  0.34937473  0.49264158  0.65094725  1
  O  O33  1  0.65062527  0.50735842  0.34905275  1
  O  O34  1  0.81304809  0.16445530  0.40301008  1
  O  O35  1  0.18695191  0.83554470  0.59698992  1
  O  O36  1  0.56109832  0.09778745  0.70973405  1
  O  O37  1  0.43890168  0.90221255  0.29026595  1
