# generated using pymatgen
data_NdCu5Sn
_symmetry_space_group_name_H-M   'P 1'
_cell_length_a   5.09521070
_cell_length_b   8.35090250
_cell_length_c   10.67874309
_cell_angle_alpha   90.00000000
_cell_angle_beta   90.00000000
_cell_angle_gamma   90.00000000
_symmetry_Int_Tables_number   1
_chemical_formula_structural   NdCu5Sn
_chemical_formula_sum   'Nd4 Cu20 Sn4'
_cell_volume   454.37632998
_cell_formula_units_Z   4
loop_
 _symmetry_equiv_pos_site_id
 _symmetry_equiv_pos_as_xyz
  1  'x, y, z'
loop_
 _atom_site_type_symbol
 _atom_site_label
 _atom_site_symmetry_multiplicity
 _atom_site_fract_x
 _atom_site_fract_y
 _atom_site_fract_z
 _atom_site_occupancy
  Nd  Nd0  1  0.75000000  0.74439064  0.43795478  1
  Nd  Nd1  1  0.25000000  0.25560936  0.56204522  1
  Nd  Nd2  1  0.25000000  0.75560936  0.93795478  1
  Nd  Nd3  1  0.75000000  0.24439064  0.06204522  1
  Cu  Cu4  1  0.75000000  0.68505401  0.75320991  1
  Cu  Cu5  1  0.25000000  0.31494599  0.24679009  1
  Cu  Cu6  1  0.25000000  0.81494599  0.25320991  1
  Cu  Cu7  1  0.75000000  0.18505401  0.74679009  1
  Cu  Cu8  1  0.49988578  0.93495780  0.68734339  1
  Cu  Cu9  1  0.50011422  0.06504220  0.31265661  1
  Cu  Cu10  1  0.50011422  0.56504220  0.18734339  1
  Cu  Cu11  1  -0.00011422  0.06504220  0.31265661  1
  Cu  Cu12  1  0.49988578  0.43495780  0.81265661  1
  Cu  Cu13  1  0.00011422  0.93495780  0.68734339  1
  Cu  Cu14  1  0.00011422  0.43495780  0.81265661  1
  Cu  Cu15  1  -0.00011422  0.56504220  0.18734339  1
  Cu  Cu16  1  0.75000000  0.58692602  0.98270272  1
  Cu  Cu17  1  0.25000000  0.41307398  0.01729728  1
  Cu  Cu18  1  0.25000000  0.91307398  0.48270272  1
  Cu  Cu19  1  0.75000000  0.08692602  0.51729728  1
  Cu  Cu20  1  0.75000000  0.94104816  0.89548473  1
  Cu  Cu21  1  0.25000000  0.05895184  0.10451527  1
  Cu  Cu22  1  0.25000000  0.55895184  0.39548473  1
  Cu  Cu23  1  0.75000000  0.44104816  0.60451527  1
  Sn  Sn24  1  0.75000000  0.85811931  0.13932748  1
  Sn  Sn25  1  0.25000000  0.14188069  0.86067252  1
  Sn  Sn26  1  0.25000000  0.64188069  0.63932748  1
  Sn  Sn27  1  0.75000000  0.35811931  0.36067252  1
