# generated using pymatgen
data_Pr4Re6O19
_symmetry_space_group_name_H-M   'P 1'
_cell_length_a   7.85671952
_cell_length_b   7.85671952
_cell_length_c   7.85671952
_cell_angle_alpha   109.47122063
_cell_angle_beta   109.47122063
_cell_angle_gamma   109.47122063
_symmetry_Int_Tables_number   1
_chemical_formula_structural   Pr4Re6O19
_chemical_formula_sum   'Pr4 Re6 O19'
_cell_volume   373.33770844
_cell_formula_units_Z   1
loop_
 _symmetry_equiv_pos_site_id
 _symmetry_equiv_pos_as_xyz
  1  'x, y, z'
loop_
 _atom_site_type_symbol
 _atom_site_label
 _atom_site_symmetry_multiplicity
 _atom_site_fract_x
 _atom_site_fract_y
 _atom_site_fract_z
 _atom_site_occupancy
  Pr  Pr0  1  0.68482007  0.68482007  0.68482007  1
  Pr  Pr1  1  0.31517993  0.00000000  0.00000000  1
  Pr  Pr2  1  -0.00000000  0.31517993  -0.00000000  1
  Pr  Pr3  1  -0.00000000  0.00000000  0.31517993  1
  Re  Re4  1  0.36703940  0.86703940  0.50000000  1
  Re  Re5  1  0.63296060  0.13296060  0.50000000  1
  Re  Re6  1  0.86703940  0.50000000  0.36703940  1
  Re  Re7  1  0.13296060  0.50000000  0.63296060  1
  Re  Re8  1  0.50000000  0.36703940  0.86703940  1
  Re  Re9  1  0.50000000  0.63296060  0.13296060  1
  O  O10  1  0.67958017  0.67958017  -0.00000000  1
  O  O11  1  0.32041983  0.32041983  -0.00000000  1
  O  O12  1  0.67958017  0.00000000  0.67958017  1
  O  O13  1  0.32041983  -0.00000000  0.32041983  1
  O  O14  1  0.00000000  0.67958017  0.67958017  1
  O  O15  1  -0.00000000  0.32041983  0.32041983  1
  O  O16  1  -0.00000000  -0.00000000  -0.00000000  1
  O  O17  1  0.36021415  0.62212865  0.30348721  1
  O  O18  1  0.63978585  0.94327305  0.26191449  1
  O  O19  1  0.68135856  0.37787135  0.73808551  1
  O  O20  1  0.62212865  0.30348721  0.36021415  1
  O  O21  1  0.31864144  0.05672695  0.69651279  1
  O  O22  1  0.94327305  0.26191449  0.63978585  1
  O  O23  1  0.37787135  0.73808551  0.68135856  1
  O  O24  1  0.05672695  0.69651279  0.31864144  1
  O  O25  1  0.30348721  0.36021415  0.62212865  1
  O  O26  1  0.73808551  0.68135856  0.37787135  1
  O  O27  1  0.69651279  0.31864144  0.05672695  1
  O  O28  1  0.26191449  0.63978585  0.94327305  1
