# generated using pymatgen
data_Sr11Hg54
_symmetry_space_group_name_H-M   'P 1'
_cell_length_a   11.21432012
_cell_length_b   13.64454869
_cell_length_c   13.64454868
_cell_angle_alpha   120.00000137
_cell_angle_beta   90.00000000
_cell_angle_gamma   90.00000000
_symmetry_Int_Tables_number   1
_chemical_formula_structural   Sr11Hg54
_chemical_formula_sum   'Sr11 Hg54'
_cell_volume   1808.09783130
_cell_formula_units_Z   1
loop_
 _symmetry_equiv_pos_site_id
 _symmetry_equiv_pos_as_xyz
  1  'x, y, z'
loop_
 _atom_site_type_symbol
 _atom_site_label
 _atom_site_symmetry_multiplicity
 _atom_site_fract_x
 _atom_site_fract_y
 _atom_site_fract_z
 _atom_site_occupancy
  Sr  Sr0  1  0.00000000  0.69570096  0.12519655  1
  Sr  Sr1  1  0.00000000  0.42949559  0.30429904  1
  Sr  Sr2  1  0.00000000  0.87480345  0.57050441  1
  Sr  Sr3  1  0.81630155  0.33333300  0.66666700  1
  Sr  Sr4  1  0.18369845  0.33333300  0.66666700  1
  Sr  Sr5  1  0.50000000  0.95018765  0.41217799  1
  Sr  Sr6  1  0.50000000  0.46199034  0.04981235  1
  Sr  Sr7  1  0.50000000  0.58782201  0.53800966  1
  Sr  Sr8  1  0.50000000  0.75054159  0.95487038  1
  Sr  Sr9  1  0.50000000  0.20432879  0.24945841  1
  Sr  Sr10  1  0.50000000  0.04512962  0.79567121  1
  Hg  Hg11  1  0.64617872  0.95258411  0.19399991  1
  Hg  Hg12  1  0.64617872  0.24141580  0.04741589  1
  Hg  Hg13  1  0.35382128  0.95258411  0.19399991  1
  Hg  Hg14  1  0.64617872  0.80600009  0.75858420  1
  Hg  Hg15  1  0.35382128  0.24141580  0.04741589  1
  Hg  Hg16  1  0.35382128  0.80600009  0.75858420  1
  Hg  Hg17  1  0.00000000  0.49211809  0.59959973  1
  Hg  Hg18  1  0.00000000  0.10748163  0.50788191  1
  Hg  Hg19  1  0.00000000  0.40040027  0.89251837  1
  Hg  Hg20  1  0.50000000  0.45410765  0.80127032  1
  Hg  Hg21  1  0.50000000  0.34716267  0.54589235  1
  Hg  Hg22  1  0.50000000  0.19872968  0.65283733  1
  Hg  Hg23  1  0.73781267  0.54958563  0.93969787  1
  Hg  Hg24  1  0.73781267  0.39011224  0.45041437  1
  Hg  Hg25  1  0.26218733  0.54958563  0.93969787  1
  Hg  Hg26  1  0.73781267  0.06030213  0.60988776  1
  Hg  Hg27  1  0.26218733  0.39011224  0.45041437  1
  Hg  Hg28  1  0.26218733  0.06030213  0.60988776  1
  Hg  Hg29  1  0.82525039  0.90069303  0.35991839  1
  Hg  Hg30  1  0.82525039  0.45922536  0.09930697  1
  Hg  Hg31  1  0.17474961  0.90069303  0.35991839  1
  Hg  Hg32  1  0.82525039  0.64008161  0.54077464  1
  Hg  Hg33  1  0.17474961  0.45922536  0.09930697  1
  Hg  Hg34  1  0.17474961  0.64008161  0.54077464  1
  Hg  Hg35  1  0.50000000  0.66666700  0.33333300  1
  Hg  Hg36  1  0.71813604  0.58379746  0.73176633  1
  Hg  Hg37  1  0.71813604  0.14796887  0.41620254  1
  Hg  Hg38  1  0.28186396  0.58379746  0.73176633  1
  Hg  Hg39  1  0.71813604  0.26823367  0.85203113  1
  Hg  Hg40  1  0.28186396  0.14796887  0.41620254  1
  Hg  Hg41  1  0.28186396  0.26823367  0.85203113  1
  Hg  Hg42  1  0.81565100  0.80503736  0.98102365  1
  Hg  Hg43  1  0.81565100  0.17598629  0.19496264  1
  Hg  Hg44  1  0.18434900  0.80503736  0.98102365  1
  Hg  Hg45  1  0.81565100  0.01897635  0.82401371  1
  Hg  Hg46  1  0.18434900  0.17598629  0.19496264  1
  Hg  Hg47  1  0.18434900  0.01897635  0.82401371  1
  Hg  Hg48  1  0.64513284  0.00000000  0.00000000  1
  Hg  Hg49  1  0.35486716  0.00000000  0.00000000  1
  Hg  Hg50  1  0.00000000  0.98879096  0.22046502  1
  Hg  Hg51  1  0.00000000  0.23167406  0.01120904  1
  Hg  Hg52  1  0.00000000  0.77953498  0.76832594  1
  Hg  Hg53  1  0.84625032  0.66666700  0.33333300  1
  Hg  Hg54  1  0.15374968  0.66666700  0.33333300  1
  Hg  Hg55  1  0.00000000  0.59883586  0.84834895  1
  Hg  Hg56  1  0.00000000  0.24951310  0.40116414  1
  Hg  Hg57  1  0.00000000  0.15165105  0.75048690  1
  Hg  Hg58  1  0.00000000  0.00000000  0.00000000  1
  Hg  Hg59  1  0.64801544  0.72211898  0.17410530  1
  Hg  Hg60  1  0.64801544  0.45198632  0.27788102  1
  Hg  Hg61  1  0.35198456  0.72211898  0.17410530  1
  Hg  Hg62  1  0.64801544  0.82589470  0.54801368  1
  Hg  Hg63  1  0.35198456  0.45198632  0.27788102  1
  Hg  Hg64  1  0.35198456  0.82589470  0.54801368  1
