# generated using pymatgen
data_NaMgAl5P4(H5O12)2
_symmetry_space_group_name_H-M   'P 1'
_cell_length_a   5.09528306
_cell_length_b   12.88021096
_cell_length_c   13.62623445
_cell_angle_alpha   110.46765227
_cell_angle_beta   90.00000000
_cell_angle_gamma   101.40804770
_symmetry_Int_Tables_number   1
_chemical_formula_structural   NaMgAl5P4(H5O12)2
_chemical_formula_sum   'Na2 Mg2 Al10 P8 H20 O48'
_cell_volume   818.92685683
_cell_formula_units_Z   2
loop_
 _symmetry_equiv_pos_site_id
 _symmetry_equiv_pos_as_xyz
  1  'x, y, z'
loop_
 _atom_site_type_symbol
 _atom_site_label
 _atom_site_symmetry_multiplicity
 _atom_site_fract_x
 _atom_site_fract_y
 _atom_site_fract_z
 _atom_site_occupancy
  Na  Na0  1  0.86665384  1.00000000  0.75000000  1
  Na  Na1  1  0.13334616  0.00000000  0.25000000  1
  Mg  Mg2  1  0.50000000  0.50000000  0.50000000  1
  Mg  Mg3  1  0.00000000  0.50000000  -0.00000000  1
  Al  Al4  1  0.63811257  0.71699088  0.64558939  1
  Al  Al5  1  0.36188743  0.28300912  0.35441061  1
  Al  Al6  1  0.92112169  0.28300912  0.85441061  1
  Al  Al7  1  0.07887831  0.71699088  0.14558939  1
  Al  Al8  1  0.82807365  0.69530526  0.88852739  1
  Al  Al9  1  0.17192635  0.30469474  0.11147261  1
  Al  Al10  1  0.13276838  0.30469474  0.61147261  1
  Al  Al11  1  0.86723162  0.69530526  0.38852739  1
  Al  Al12  1  0.00000000  -0.00000000  -0.00000000  1
  Al  Al13  1  0.00000000  -0.00000000  0.50000000  1
  P  P14  1  0.36234554  0.16223075  0.89941364  1
  P  P15  1  0.63765446  0.83776925  0.10058636  1
  P  P16  1  0.20011479  0.83776925  0.60058636  1
  P  P17  1  0.79988521  0.16223075  0.39941364  1
  P  P18  1  0.48434026  0.43153978  0.82782145  1
  P  P19  1  0.51565974  0.56846022  0.17217855  1
  P  P20  1  0.05280048  0.56846022  0.67217855  1
  P  P21  1  0.94719952  0.43153978  0.32782145  1
  H  H22  1  0.43547036  0.70912267  0.80090742  1
  H  H23  1  0.56452964  0.29087733  0.19909258  1
  H  H24  1  0.72634769  0.29087733  0.69909258  1
  H  H25  1  0.27365231  0.70912267  0.30090742  1
  H  H26  1  0.54469026  0.98912264  0.90143928  1
  H  H27  1  0.45530974  0.01087736  0.09856072  1
  H  H28  1  0.55556762  0.01087736  0.59856072  1
  H  H29  1  0.44443238  0.98912264  0.40143928  1
  H  H30  1  0.66258021  0.86941383  0.85361392  1
  H  H31  1  0.33741979  0.13058617  0.14638608  1
  H  H32  1  0.79316638  0.13058617  0.64638608  1
  H  H33  1  0.20683362  0.86941383  0.35361392  1
  H  H34  1  0.18107807  0.84893663  0.88495147  1
  H  H35  1  0.81892193  0.15106337  0.11504853  1
  H  H36  1  0.33214144  0.15106337  0.61504853  1
  H  H37  1  0.66785856  0.84893663  0.38495147  1
  H  H38  1  0.55197936  0.32092825  0.53180250  1
  H  H39  1  0.44802064  0.67907175  0.46819750  1
  H  H40  1  0.23105111  0.67907175  0.96819750  1
  H  H41  1  0.76894889  0.32092825  0.03180250  1
  O  O42  1  0.26112700  0.04165705  0.90587548  1
  O  O43  1  0.73887300  0.95834295  0.09412452  1
  O  O44  1  0.21946995  0.95834295  0.59412452  1
  O  O45  1  0.78053005  0.04165705  0.40587548  1
  O  O46  1  0.70316198  0.39591994  0.88241208  1
  O  O47  1  0.29683802  0.60408006  0.11758792  1
  O  O48  1  0.30724204  0.60408006  0.61758792  1
  O  O49  1  0.69275796  0.39591994  0.38241208  1
  O  O50  1  0.58707443  0.74696726  0.98907815  1
  O  O51  1  0.41292557  0.25303274  0.01092185  1
  O  O52  1  0.84010717  0.25303274  0.51092185  1
  O  O53  1  0.15989283  0.74696726  0.48907815  1
  O  O54  1  0.79717918  0.84995882  0.43795590  1
  O  O55  1  0.20282082  0.15004118  0.56204410  1
  O  O56  1  0.94722036  0.15004118  0.06204410  1
  O  O57  1  0.05277964  0.84995882  0.93795590  1
  O  O58  1  0.43237514  0.34915064  0.71156504  1
  O  O59  1  0.56762486  0.65084936  0.28843496  1
  O  O60  1  0.08322450  0.65084936  0.78843496  1
  O  O61  1  0.91677550  0.34915064  0.21156504  1
  O  O62  1  0.62484425  0.74177663  0.79249587  1
  O  O63  1  0.37515575  0.25822337  0.20750413  1
  O  O64  1  0.88306762  0.25822337  0.70750413  1
  O  O65  1  0.11693238  0.74177663  0.29249587  1
  O  O66  1  0.46266216  0.83675683  0.65621857  1
  O  O67  1  0.53733784  0.16324317  0.34378143  1
  O  O68  1  0.62590534  0.16324317  0.84378143  1
  O  O69  1  0.37409466  0.83675683  0.15621857  1
  O  O70  1  0.70997336  0.95656229  0.89301157  1
  O  O71  1  0.29002664  0.04343771  0.10698843  1
  O  O72  1  0.75341107  0.04343771  0.60698843  1
  O  O73  1  0.24658893  0.95656229  0.39301157  1
  O  O74  1  0.21769704  0.41609418  0.88229923  1
  O  O75  1  0.78230296  0.58390582  0.11770077  1
  O  O76  1  0.80160287  0.58390582  0.61770077  1
  O  O77  1  0.19839713  0.41609418  0.38229923  1
  O  O78  1  0.61615711  0.65992017  0.48722620  1
  O  O79  1  0.38384289  0.34007983  0.51277380  1
  O  O80  1  0.95623694  0.34007983  0.01277380  1
  O  O81  1  0.04376306  0.65992017  0.98722620  1
  O  O82  1  0.58356341  0.55470471  0.83876840  1
  O  O83  1  0.41643659  0.44529529  0.16123160  1
  O  O84  1  0.02885869  0.44529529  0.66123160  1
  O  O85  1  0.97114131  0.55470471  0.33876840  1
  O  O86  1  0.14411435  0.18250000  0.83342148  1
  O  O87  1  0.85588565  0.81750000  0.16657852  1
  O  O88  1  0.96161436  0.81750000  0.66657852  1
  O  O89  1  0.03838564  0.18250000  0.33342148  1
