# generated using pymatgen
data_Li6AsS5I
_symmetry_space_group_name_H-M   'P 1'
_cell_length_a   7.30158561
_cell_length_b   7.30158561
_cell_length_c   12.75974465
_cell_angle_alpha   89.83573138
_cell_angle_beta   106.83854646
_cell_angle_gamma   119.92017154
_symmetry_Int_Tables_number   1
_chemical_formula_structural   Li6AsS5I
_chemical_formula_sum   'Li12 As2 S10 I2'
_cell_volume   556.03430564
_cell_formula_units_Z   2
loop_
 _symmetry_equiv_pos_site_id
 _symmetry_equiv_pos_as_xyz
  1  'x, y, z'
loop_
 _atom_site_type_symbol
 _atom_site_label
 _atom_site_symmetry_multiplicity
 _atom_site_fract_x
 _atom_site_fract_y
 _atom_site_fract_z
 _atom_site_occupancy
  Li  Li0  1  0.96649244  0.48005908  0.49251943  1
  Li  Li1  1  0.51246034  0.52602699  0.99251943  1
  Li  Li2  1  0.97334193  0.04316113  0.50975577  1
  Li  Li3  1  0.96659463  0.53641384  0.00975577  1
  Li  Li4  1  0.61129998  0.34636152  0.27027940  1
  Li  Li5  1  0.42391788  0.65897942  0.77027940  1
  Li  Li6  1  0.96452129  0.13999415  0.27264638  1
  Li  Li7  1  0.63265223  0.30812508  0.77264638  1
  Li  Li8  1  0.97168973  0.97573613  0.00035929  1
  Li  Li9  1  0.52462316  0.02866956  0.50035929  1
  Li  Li10  1  0.41367562  0.79942886  0.27046026  1
  Li  Li11  1  0.97103140  0.85678464  0.77046026  1
  As  As12  1  0.49528377  0.01575976  0.00989824  1
  As  As13  1  0.49413848  0.51461447  0.50989824  1
  S  S14  1  0.37729204  0.20262083  0.07277995  1
  S  S15  1  0.37015912  0.69548791  0.57277995  1
  S  S16  1  0.86295468  0.19511300  0.07551725  1
  S  S17  1  0.38040425  0.21256257  0.57551725  1
  S  S18  1  0.36865372  0.45086036  0.32866802  1
  S  S19  1  0.37780766  0.96001430  0.82866802  1
  S  S20  1  0.73869160  0.13540273  0.38073275  1
  S  S21  1  0.74533002  0.64204114  0.88073275  1
  S  S22  1  0.37144022  0.71126106  0.07306270  1
  S  S23  1  0.86180164  0.70162248  0.57306270  1
  I  I24  1  0.99048616  0.75606456  0.25732057  1
  I  I25  1  0.00125601  0.26683441  0.75732057  1
