# generated using pymatgen
data_Er12In3Fe2
_symmetry_space_group_name_H-M   'P 1'
_cell_length_a   8.28133598
_cell_length_b   8.28133598
_cell_length_c   8.28133598
_cell_angle_alpha   110.20361200
_cell_angle_beta   108.01616319
_cell_angle_gamma   110.20361200
_symmetry_Int_Tables_number   1
_chemical_formula_structural   Er12In3Fe2
_chemical_formula_sum   'Er12 In3 Fe2'
_cell_volume   436.98834842
_cell_formula_units_Z   1
loop_
 _symmetry_equiv_pos_site_id
 _symmetry_equiv_pos_as_xyz
  1  'x, y, z'
loop_
 _atom_site_type_symbol
 _atom_site_label
 _atom_site_symmetry_multiplicity
 _atom_site_fract_x
 _atom_site_fract_y
 _atom_site_fract_z
 _atom_site_occupancy
  Er  Er0  1  0.30555460  0.61110920  0.30555460  1
  Er  Er1  1  0.69444540  0.38889080  0.69444540  1
  Er  Er2  1  0.69444540  0.00000000  0.30555460  1
  Er  Er3  1  0.30555460  -0.00000000  0.69444540  1
  Er  Er4  1  0.20711836  0.24752598  0.45464434  1
  Er  Er5  1  0.79288164  0.75247402  0.54535566  1
  Er  Er6  1  0.20711836  0.75247402  0.95959237  1
  Er  Er7  1  0.95959237  0.75247402  0.20711836  1
  Er  Er8  1  0.79288164  0.24752598  0.04040763  1
  Er  Er9  1  0.04040763  0.24752598  0.79288164  1
  Er  Er10  1  0.45464434  0.24752598  0.20711836  1
  Er  Er11  1  0.54535566  0.75247402  0.79288164  1
  In  In12  1  0.00000000  0.00000000  0.00000000  1
  In  In13  1  0.00000000  0.50000000  0.50000000  1
  In  In14  1  0.50000000  0.50000000  0.00000000  1
  Fe  Fe15  1  0.38794590  -0.00000000  0.38794590  1
  Fe  Fe16  1  0.61205410  0.00000000  0.61205410  1
