# generated using pymatgen
data_DyCrGeO5
_symmetry_space_group_name_H-M   'P 1'
_cell_length_a   5.81111530
_cell_length_b   7.45330433
_cell_length_c   8.48639026
_cell_angle_alpha   90.00000000
_cell_angle_beta   90.00000000
_cell_angle_gamma   90.00000000
_symmetry_Int_Tables_number   1
_chemical_formula_structural   DyCrGeO5
_chemical_formula_sum   'Dy4 Cr4 Ge4 O20'
_cell_volume   367.56262683
_cell_formula_units_Z   4
loop_
 _symmetry_equiv_pos_site_id
 _symmetry_equiv_pos_as_xyz
  1  'x, y, z'
loop_
 _atom_site_type_symbol
 _atom_site_label
 _atom_site_symmetry_multiplicity
 _atom_site_fract_x
 _atom_site_fract_y
 _atom_site_fract_z
 _atom_site_occupancy
  Dy  Dy0  1  0.50000000  0.35664886  0.32656958  1
  Dy  Dy1  1  0.50000000  0.64335114  0.67343042  1
  Dy  Dy2  1  0.50000000  0.14335114  0.82656958  1
  Dy  Dy3  1  0.50000000  0.85664886  0.17343042  1
  Cr  Cr4  1  0.24957250  -0.00000000  0.50000000  1
  Cr  Cr5  1  0.75042750  -0.00000000  0.50000000  1
  Cr  Cr6  1  0.75042750  0.50000000  0.00000000  1
  Cr  Cr7  1  0.24957250  0.50000000  -0.00000000  1
  Ge  Ge8  1  -0.00000000  0.11712741  0.14449705  1
  Ge  Ge9  1  -0.00000000  0.88287259  0.85550295  1
  Ge  Ge10  1  -0.00000000  0.38287259  0.64449705  1
  Ge  Ge11  1  -0.00000000  0.61712741  0.35550295  1
  O  O12  1  0.25012757  0.11167346  0.28259813  1
  O  O13  1  0.74987243  0.88832654  0.71740187  1
  O  O14  1  0.25012757  0.88832654  0.71740187  1
  O  O15  1  0.74987243  0.38832654  0.78259813  1
  O  O16  1  0.74987243  0.11167346  0.28259813  1
  O  O17  1  0.25012757  0.61167346  0.21740187  1
  O  O18  1  0.74987243  0.61167346  0.21740187  1
  O  O19  1  0.25012757  0.38832654  0.78259813  1
  O  O20  1  -0.00000000  0.34354046  0.08177395  1
  O  O21  1  -0.00000000  0.65645954  0.91822605  1
  O  O22  1  -0.00000000  0.15645954  0.58177395  1
  O  O23  1  -0.00000000  0.84354046  0.41822605  1
  O  O24  1  0.50000000  0.33154260  0.05759415  1
  O  O25  1  0.50000000  0.66845740  0.94240585  1
  O  O26  1  0.50000000  0.16845740  0.55759415  1
  O  O27  1  0.50000000  0.83154260  0.44240585  1
  O  O28  1  0.21200834  0.00000000  -0.00000000  1
  O  O29  1  0.78799166  -0.00000000  -0.00000000  1
  O  O30  1  0.78799166  0.50000000  0.50000000  1
  O  O31  1  0.21200834  0.50000000  0.50000000  1
