# generated using pymatgen
data_KCaAs(H4O3)4
_symmetry_space_group_name_H-M   'P 1'
_cell_length_a   6.93108447
_cell_length_b   6.93108447
_cell_length_c   7.14055386
_cell_angle_alpha   90.00000000
_cell_angle_beta   90.00000000
_cell_angle_gamma   117.83213362
_symmetry_Int_Tables_number   1
_chemical_formula_structural   KCaAs(H4O3)4
_chemical_formula_sum   'K1 Ca1 As1 H16 O12'
_cell_volume   303.34956151
_cell_formula_units_Z   1
loop_
 _symmetry_equiv_pos_site_id
 _symmetry_equiv_pos_as_xyz
  1  'x, y, z'
loop_
 _atom_site_type_symbol
 _atom_site_label
 _atom_site_symmetry_multiplicity
 _atom_site_fract_x
 _atom_site_fract_y
 _atom_site_fract_z
 _atom_site_occupancy
  K  K0  1  0.68549239  0.31450761  0.00000000  1
  Ca  Ca1  1  0.99585954  0.00414046  0.00000000  1
  As  As2  1  0.36946121  0.63053879  0.50000000  1
  H  H3  1  0.31655044  0.98438282  0.72531496  1
  H  H4  1  0.01561718  0.68344956  0.27468504  1
  H  H5  1  0.01561718  0.68344956  0.72531496  1
  H  H6  1  0.31655044  0.98438282  0.27468504  1
  H  H7  1  0.49861708  0.78835206  0.88913279  1
  H  H8  1  0.21164794  0.50138292  0.11086721  1
  H  H9  1  0.21164794  0.50138292  0.88913279  1
  H  H10  1  0.49861708  0.78835206  0.11086721  1
  H  H11  1  0.77567172  0.00339559  0.64447673  1
  H  H12  1  0.99660441  0.22432828  0.35552327  1
  H  H13  1  0.99660441  0.22432828  0.64447673  1
  H  H14  1  0.77567172  0.00339559  0.35552327  1
  H  H15  1  0.30274353  0.20368896  0.67432785  1
  H  H16  1  0.79631104  0.69725647  0.32567215  1
  H  H17  1  0.79631104  0.69725647  0.67432785  1
  H  H18  1  0.30274353  0.20368896  0.32567215  1
  O  O19  1  0.65213786  0.75278241  0.50000000  1
  O  O20  1  0.24721759  0.34786214  0.50000000  1
  O  O21  1  0.28936686  0.71063314  0.70226641  1
  O  O22  1  0.28936686  0.71063314  0.29773359  1
  O  O23  1  0.59573654  0.83810918  0.00000000  1
  O  O24  1  0.16189082  0.40426346  0.00000000  1
  O  O25  1  0.31007765  0.11265689  0.78015903  1
  O  O26  1  0.88734311  0.68992235  0.21984097  1
  O  O27  1  0.88734311  0.68992235  0.78015903  1
  O  O28  1  0.31007765  0.11265689  0.21984097  1
  O  O29  1  0.86800106  0.13199894  0.72311322  1
  O  O30  1  0.86800106  0.13199894  0.27688678  1
