# generated using pymatgen
data_Ho3Co2Si7
_symmetry_space_group_name_H-M   'P 1'
_cell_length_a   4.03362345
_cell_length_b   4.01912870
_cell_length_c   12.37218755
_cell_angle_alpha   99.34773534
_cell_angle_beta   90.00000000
_cell_angle_gamma   90.00000000
_symmetry_Int_Tables_number   1
_chemical_formula_structural   Ho3Co2Si7
_chemical_formula_sum   'Ho3 Co2 Si7'
_cell_volume   197.91012641
_cell_formula_units_Z   1
loop_
 _symmetry_equiv_pos_site_id
 _symmetry_equiv_pos_as_xyz
  1  'x, y, z'
loop_
 _atom_site_type_symbol
 _atom_site_label
 _atom_site_symmetry_multiplicity
 _atom_site_fract_x
 _atom_site_fract_y
 _atom_site_fract_z
 _atom_site_occupancy
  Ho  Ho0  1  0.50000000  0.90303149  0.80606298  1
  Ho  Ho1  1  0.50000000  0.53485996  0.06971991  1
  Ho  Ho2  1  0.00000000  0.21824407  0.43648813  1
  Co  Co3  1  -0.00000000  0.34816469  0.69632939  1
  Co  Co4  1  0.00000000  0.08863496  0.17726992  1
  Si  Si5  1  0.00000000  0.63027698  0.26055395  1
  Si  Si6  1  -0.00000000  0.44037875  0.88075750  1
  Si  Si7  1  0.50000000  0.13037686  0.26075372  1
  Si  Si8  1  0.00000000  0.99555481  0.99110961  1
  Si  Si9  1  0.00000000  0.80722932  0.61445864  1
  Si  Si10  1  0.50000000  0.69880645  0.39761289  1
  Si  Si11  1  0.50000000  0.30774167  0.61548335  1
