# generated using pymatgen
data_Ho3CrS6
_symmetry_space_group_name_H-M   'P 1'
_cell_length_a   3.76377906
_cell_length_b   13.22101562
_cell_length_c   15.96071754
_cell_angle_alpha   90.00000000
_cell_angle_beta   90.00000000
_cell_angle_gamma   90.00000000
_symmetry_Int_Tables_number   1
_chemical_formula_structural   Ho3CrS6
_chemical_formula_sum   'Ho12 Cr4 S24'
_cell_volume   794.22097410
_cell_formula_units_Z   4
loop_
 _symmetry_equiv_pos_site_id
 _symmetry_equiv_pos_as_xyz
  1  'x, y, z'
loop_
 _atom_site_type_symbol
 _atom_site_label
 _atom_site_symmetry_multiplicity
 _atom_site_fract_x
 _atom_site_fract_y
 _atom_site_fract_z
 _atom_site_occupancy
  Ho  Ho0  1  0.00000000  0.54989923  0.28057572  1
  Ho  Ho1  1  0.00000000  0.45010077  0.71942428  1
  Ho  Ho2  1  0.50000000  0.95010077  0.78057572  1
  Ho  Ho3  1  0.50000000  0.04989923  0.21942428  1
  Ho  Ho4  1  -0.00000000  0.75379100  0.09762455  1
  Ho  Ho5  1  -0.00000000  0.24620900  0.90237545  1
  Ho  Ho6  1  0.50000000  0.74620900  0.59762455  1
  Ho  Ho7  1  0.50000000  0.25379100  0.40237545  1
  Ho  Ho8  1  0.00000000  0.31971824  0.14857275  1
  Ho  Ho9  1  -0.00000000  0.68028176  0.85142725  1
  Ho  Ho10  1  0.50000000  0.18028176  0.64857275  1
  Ho  Ho11  1  0.50000000  0.81971824  0.35142725  1
  Cr  Cr12  1  -0.00000000  -0.00000000  0.50000000  1
  Cr  Cr13  1  0.50000000  0.50000000  0.00000000  1
  Cr  Cr14  1  0.00000000  -0.00000000  -0.00000000  1
  Cr  Cr15  1  0.50000000  0.50000000  0.50000000  1
  S  S16  1  0.00000000  0.12078143  0.10801418  1
  S  S17  1  -0.00000000  0.87921857  0.89198582  1
  S  S18  1  0.50000000  0.37921857  0.60801418  1
  S  S19  1  0.50000000  0.62078143  0.39198582  1
  S  S20  1  -0.00000000  0.18765158  0.28936913  1
  S  S21  1  -0.00000000  0.81234842  0.71063087  1
  S  S22  1  0.50000000  0.31234842  0.78936913  1
  S  S23  1  0.50000000  0.68765158  0.21063087  1
  S  S24  1  0.00000000  0.18032580  0.52168305  1
  S  S25  1  -0.00000000  0.81967420  0.47831695  1
  S  S26  1  0.50000000  0.31967420  0.02168305  1
  S  S27  1  0.50000000  0.68032580  0.97831695  1
  S  S28  1  -0.00000000  0.52376429  0.09745625  1
  S  S29  1  0.00000000  0.47623571  0.90254375  1
  S  S30  1  0.50000000  0.97623571  0.59745625  1
  S  S31  1  0.50000000  0.02376429  0.40254375  1
  S  S32  1  -0.00000000  0.10359700  0.75429754  1
  S  S33  1  0.00000000  0.89640300  0.24570246  1
  S  S34  1  0.50000000  0.39640300  0.25429754  1
  S  S35  1  0.50000000  0.60359700  0.74570246  1
  S  S36  1  -0.00000000  0.41682670  0.42490382  1
  S  S37  1  0.00000000  0.58317330  0.57509618  1
  S  S38  1  0.50000000  0.08317330  0.92490382  1
  S  S39  1  0.50000000  0.91682670  0.07509618  1
