# generated using pymatgen
data_Zn2CoIrO6
_symmetry_space_group_name_H-M   'P 1'
_cell_length_a   5.13321102
_cell_length_b   5.14932795
_cell_length_c   7.52702142
_cell_angle_alpha   90.00000000
_cell_angle_beta   89.73015162
_cell_angle_gamma   90.00000000
_symmetry_Int_Tables_number   1
_chemical_formula_structural   Zn2CoIrO6
_chemical_formula_sum   'Zn4 Co2 Ir2 O12'
_cell_volume   198.95644192
_cell_formula_units_Z   2
loop_
 _symmetry_equiv_pos_site_id
 _symmetry_equiv_pos_as_xyz
  1  'x, y, z'
loop_
 _atom_site_type_symbol
 _atom_site_label
 _atom_site_symmetry_multiplicity
 _atom_site_fract_x
 _atom_site_fract_y
 _atom_site_fract_z
 _atom_site_occupancy
  Zn  Zn0  1  0.99238018  0.96763501  0.24886058  1
  Zn  Zn1  1  0.50761982  0.46763501  0.25113942  1
  Zn  Zn2  1  0.49238018  0.53236499  0.74886058  1
  Zn  Zn3  1  0.00761982  0.03236499  0.75113942  1
  Co  Co4  1  0.00000000  0.50000000  0.00000000  1
  Co  Co5  1  0.50000000  0.00000000  0.50000000  1
  Ir  Ir6  1  0.00000000  0.50000000  0.50000000  1
  Ir  Ir7  1  0.50000000  0.00000000  0.00000000  1
  O  O8  1  0.11417116  0.41556717  0.75238470  1
  O  O9  1  0.17315917  0.18099514  0.06145861  1
  O  O10  1  0.17896505  0.17476093  0.43499730  1
  O  O11  1  0.32103495  0.67476093  0.06500270  1
  O  O12  1  0.32684083  0.68099514  0.43854139  1
  O  O13  1  0.38582884  0.91556717  0.74761530  1
  O  O14  1  0.61417116  0.08443283  0.25238470  1
  O  O15  1  0.67315917  0.31900486  0.56145861  1
  O  O16  1  0.67896505  0.32523907  0.93499730  1
  O  O17  1  0.82684083  0.81900486  0.93854139  1
  O  O18  1  0.82103495  0.82523907  0.56500270  1
  O  O19  1  0.88582884  0.58443283  0.24761530  1
