# generated using pymatgen
data_BaMnAlF7
_symmetry_space_group_name_H-M   'P 1'
_cell_length_a   5.28638902
_cell_length_b   7.42770468
_cell_length_c   14.70767219
_cell_angle_alpha   91.20732317
_cell_angle_beta   90.00000000
_cell_angle_gamma   110.84592127
_symmetry_Int_Tables_number   1
_chemical_formula_structural   BaMnAlF7
_chemical_formula_sum   'Ba4 Mn4 Al4 F28'
_cell_volume   539.56718618
_cell_formula_units_Z   4
loop_
 _symmetry_equiv_pos_site_id
 _symmetry_equiv_pos_as_xyz
  1  'x, y, z'
loop_
 _atom_site_type_symbol
 _atom_site_label
 _atom_site_symmetry_multiplicity
 _atom_site_fract_x
 _atom_site_fract_y
 _atom_site_fract_z
 _atom_site_occupancy
  Ba  Ba0  1  0.64983346  0.37991998  0.62174548  1
  Ba  Ba1  1  0.35016654  0.62008002  0.37825452  1
  Ba  Ba2  1  0.26991349  0.62008002  0.87825452  1
  Ba  Ba3  1  0.73008651  0.37991998  0.12174548  1
  Mn  Mn4  1  0.00000000  -0.00000000  -0.00000000  1
  Mn  Mn5  1  0.00000000  -0.00000000  0.50000000  1
  Mn  Mn6  1  0.95249076  1.00000000  0.75000000  1
  Mn  Mn7  1  0.04750924  0.00000000  0.25000000  1
  Al  Al8  1  0.38627594  0.75949727  0.62507505  1
  Al  Al9  1  0.61372406  0.24050273  0.37492495  1
  Al  Al10  1  0.62677867  0.24050273  0.87492495  1
  Al  Al11  1  0.37322133  0.75949727  0.12507505  1
  F  F12  1  0.41521255  0.16571737  0.97573717  1
  F  F13  1  0.58478745  0.83428263  0.02426283  1
  F  F14  1  0.24949518  0.83428263  0.52426283  1
  F  F15  1  0.75050482  0.16571737  0.47573717  1
  F  F16  1  0.69082272  0.48938473  0.90945724  1
  F  F17  1  0.30917728  0.51061527  0.09054276  1
  F  F18  1  0.20143799  0.51061527  0.59054276  1
  F  F19  1  0.79856201  0.48938473  0.40945724  1
  F  F20  1  0.54694537  0.67504224  0.71899070  1
  F  F21  1  0.45305463  0.32495776  0.28100930  1
  F  F22  1  0.87190313  0.32495776  0.78100930  1
  F  F23  1  0.12809687  0.67504224  0.21899070  1
  F  F24  1  0.60323394  0.99733077  0.84350232  1
  F  F25  1  0.39676606  0.00266923  0.15649768  1
  F  F26  1  0.60590317  0.00266923  0.65649768  1
  F  F27  1  0.39409683  0.99733077  0.34350232  1
  F  F28  1  0.35177052  0.23974720  0.80100712  1
  F  F29  1  0.64822948  0.76025280  0.19899288  1
  F  F30  1  0.11202332  0.76025280  0.69899288  1
  F  F31  1  0.88797668  0.23974720  0.30100712  1
  F  F32  1  0.66453170  0.74271670  0.54915419  1
  F  F33  1  0.33546830  0.25728330  0.45084581  1
  F  F34  1  0.92181500  0.25728330  0.95084581  1
  F  F35  1  0.07818500  0.74271670  0.04915419  1
  F  F36  1  0.86046212  0.88050388  0.37110151  1
  F  F37  1  0.13953788  0.11949612  0.62889849  1
  F  F38  1  0.97995824  0.11949612  0.12889849  1
  F  F39  1  0.02004176  0.88050388  0.87110151  1
