# generated using pymatgen
data_AlNi3F15
_symmetry_space_group_name_H-M   'P 1'
_cell_length_a   8.88768316
_cell_length_b   5.87234739
_cell_length_c   10.65369467
_cell_angle_alpha   90.00000000
_cell_angle_beta   90.00000000
_cell_angle_gamma   105.67563938
_symmetry_Int_Tables_number   1
_chemical_formula_structural   AlNi3F15
_chemical_formula_sum   'Al2 Ni6 F30'
_cell_volume   535.35228171
_cell_formula_units_Z   2
loop_
 _symmetry_equiv_pos_site_id
 _symmetry_equiv_pos_as_xyz
  1  'x, y, z'
loop_
 _atom_site_type_symbol
 _atom_site_label
 _atom_site_symmetry_multiplicity
 _atom_site_fract_x
 _atom_site_fract_y
 _atom_site_fract_z
 _atom_site_occupancy
  Al  Al0  1  0.91011712  0.43365016  0.25000000  1
  Al  Al1  1  0.42321588  0.56634984  0.75000000  1
  Ni  Ni2  1  0.16666700  0.00000000  0.50000000  1
  Ni  Ni3  1  0.50106035  0.01767988  0.50028560  1
  Ni  Ni4  1  0.83227265  0.98232012  0.49971440  1
  Ni  Ni5  1  0.16666700  0.00000000  0.00000000  1
  Ni  Ni6  1  0.50106035  0.01767988  -0.00028560  1
  Ni  Ni7  1  0.83227265  0.98232012  0.00028560  1
  F  F8  1  0.10210165  0.57325323  0.25000000  1
  F  F9  1  0.46363893  0.64689700  0.25000000  1
  F  F10  1  0.78823982  0.60686342  0.25000000  1
  F  F11  1  0.23123135  0.42674677  0.75000000  1
  F  F12  1  0.54509418  0.39313658  0.75000000  1
  F  F13  1  0.86969407  0.35310300  0.75000000  1
  F  F14  1  0.03369458  0.12438241  0.58893917  1
  F  F15  1  0.33783943  0.11516546  0.59930301  1
  F  F16  1  0.70616639  0.13833012  0.59058590  1
  F  F17  1  0.29963942  0.87561759  0.41106083  1
  F  F18  1  0.62716661  0.86166988  0.40941410  1
  F  F19  1  0.99549357  0.88483454  0.40069699  1
  F  F20  1  0.11222169  0.73877173  0.90691215  1
  F  F21  1  0.45972138  0.75250594  0.87953858  1
  F  F22  1  0.79295103  0.72090564  0.90980092  1
  F  F23  1  0.22111231  0.26122827  0.09308785  1
  F  F24  1  0.54038197  0.27909436  0.09019908  1
  F  F25  1  0.87361162  0.24749406  0.12046142  1
  F  F26  1  0.22111231  0.26122827  0.40691215  1
  F  F27  1  0.54038197  0.27909436  0.40980092  1
  F  F28  1  0.87361162  0.24749406  0.37953858  1
  F  F29  1  0.11222169  0.73877173  0.59308785  1
  F  F30  1  0.45972138  0.75250594  0.62046142  1
  F  F31  1  0.79295103  0.72090564  0.59019908  1
  F  F32  1  0.03369458  0.12438241  0.91106083  1
  F  F33  1  0.33783943  0.11516546  0.90069699  1
  F  F34  1  0.70616639  0.13833012  0.90941410  1
  F  F35  1  0.29963942  0.87561759  0.08893917  1
  F  F36  1  0.62716661  0.86166988  0.09058590  1
  F  F37  1  0.99549357  0.88483454  0.09930301  1
