# generated using pymatgen
data_Ca3NbGa3(SiO7)2
_symmetry_space_group_name_H-M   'P 1'
_cell_length_a   5.03760530
_cell_length_b   8.20439468
_cell_length_c   8.20439468
_cell_angle_alpha   119.99999665
_cell_angle_beta   90.00000000
_cell_angle_gamma   90.00000000
_symmetry_Int_Tables_number   1
_chemical_formula_structural   Ca3NbGa3(SiO7)2
_chemical_formula_sum   'Ca3 Nb1 Ga3 Si2 O14'
_cell_volume   293.66208148
_cell_formula_units_Z   1
loop_
 _symmetry_equiv_pos_site_id
 _symmetry_equiv_pos_as_xyz
  1  'x, y, z'
loop_
 _atom_site_type_symbol
 _atom_site_label
 _atom_site_symmetry_multiplicity
 _atom_site_fract_x
 _atom_site_fract_y
 _atom_site_fract_z
 _atom_site_occupancy
  Ca  Ca0  1  0.00000000  0.42606449  0.42606449  1
  Ca  Ca1  1  0.00000000  0.00000000  0.57393551  1
  Ca  Ca2  1  0.00000000  0.57393551  0.00000000  1
  Nb  Nb3  1  0.00000000  -0.00000000  -0.00000000  1
  Ga  Ga4  1  0.50000000  0.74628251  0.74628251  1
  Ga  Ga5  1  0.50000000  1.00000000  0.25371749  1
  Ga  Ga6  1  0.50000000  0.25371749  1.00000000  1
  Si  Si7  1  0.45657158  0.66666700  0.33333300  1
  Si  Si8  1  0.54342842  0.33333300  0.66666700  1
  O  O9  1  0.77651100  0.66666700  0.33333300  1
  O  O10  1  0.22348900  0.33333300  0.66666700  1
  O  O11  1  0.76309110  0.85711168  0.08302233  1
  O  O12  1  0.76309110  0.22591065  0.14288832  1
  O  O13  1  0.23690890  0.77408935  0.91697767  1
  O  O14  1  0.76309110  0.91697767  0.77408935  1
  O  O15  1  0.23690890  0.08302233  0.85711168  1
  O  O16  1  0.23690890  0.14288832  0.22591065  1
  O  O17  1  0.68472957  0.52241602  0.67794260  1
  O  O18  1  0.68472957  0.15552658  0.47758398  1
  O  O19  1  0.31527043  0.84447342  0.32205740  1
  O  O20  1  0.68472957  0.32205740  0.84447342  1
  O  O21  1  0.31527043  0.67794260  0.52241602  1
  O  O22  1  0.31527043  0.47758398  0.15552658  1
