# generated using pymatgen
data_CsYb(WO4)2
_symmetry_space_group_name_H-M   'P 1'
_cell_length_a   7.77709753
_cell_length_b   7.77709753
_cell_length_c   7.52335791
_cell_angle_alpha   63.12818952
_cell_angle_beta   63.12818952
_cell_angle_gamma   89.51812949
_symmetry_Int_Tables_number   1
_chemical_formula_structural   CsYb(WO4)2
_chemical_formula_sum   'Cs2 Yb2 W4 O16'
_cell_volume   350.92923244
_cell_formula_units_Z   2
loop_
 _symmetry_equiv_pos_site_id
 _symmetry_equiv_pos_as_xyz
  1  'x, y, z'
loop_
 _atom_site_type_symbol
 _atom_site_label
 _atom_site_symmetry_multiplicity
 _atom_site_fract_x
 _atom_site_fract_y
 _atom_site_fract_z
 _atom_site_occupancy
  Cs  Cs0  1  0.80221073  0.19778927  0.75000000  1
  Cs  Cs1  1  0.19778927  0.80221073  0.25000000  1
  Yb  Yb2  1  0.22448500  0.77551500  0.75000000  1
  Yb  Yb3  1  0.77551500  0.22448500  0.25000000  1
  W  W4  1  0.30248672  0.31568672  0.71290476  1
  W  W5  1  0.69751328  0.68431328  0.28709524  1
  W  W6  1  0.68431328  0.69751328  0.78709524  1
  W  W7  1  0.31568672  0.30248672  0.21290476  1
  O  O8  1  0.38015213  0.25366701  0.93603510  1
  O  O9  1  0.61984787  0.74633299  0.06396490  1
  O  O10  1  0.74633299  0.61984787  0.56396490  1
  O  O11  1  0.25366701  0.38015213  0.43603510  1
  O  O12  1  0.62656535  0.93153298  0.63221435  1
  O  O13  1  0.37343465  0.06846702  0.36778565  1
  O  O14  1  0.06846702  0.37343465  0.86778565  1
  O  O15  1  0.93153298  0.62656535  0.13221435  1
  O  O16  1  0.41217405  0.62708862  0.53295971  1
  O  O17  1  0.58782595  0.37291138  0.46704029  1
  O  O18  1  0.37291138  0.58782595  0.96704029  1
  O  O19  1  0.62708862  0.41217405  0.03295971  1
  O  O20  1  0.22156829  0.05673362  0.79875452  1
  O  O21  1  0.77843171  0.94326638  0.20124548  1
  O  O22  1  0.94326638  0.77843171  0.70124548  1
  O  O23  1  0.05673362  0.22156829  0.29875452  1
