# generated using pymatgen
data_K4Np3H8Cl7O10
_symmetry_space_group_name_H-M   'P 1'
_cell_length_a   8.88388163
_cell_length_b   12.39733453
_cell_length_c   12.57246672
_cell_angle_alpha   65.85486288
_cell_angle_beta   70.95540670
_cell_angle_gamma   76.45485416
_symmetry_Int_Tables_number   1
_chemical_formula_structural   K4Np3H8Cl7O10
_chemical_formula_sum   'K8 Np6 H16 Cl14 O20'
_cell_volume   1186.21023140
_cell_formula_units_Z   2
loop_
 _symmetry_equiv_pos_site_id
 _symmetry_equiv_pos_as_xyz
  1  'x, y, z'
loop_
 _atom_site_type_symbol
 _atom_site_label
 _atom_site_symmetry_multiplicity
 _atom_site_fract_x
 _atom_site_fract_y
 _atom_site_fract_z
 _atom_site_occupancy
  K  K0  1  0.64737086  0.60963775  0.16533492  1
  K  K1  1  0.35262914  0.39036225  0.83466508  1
  K  K2  1  0.54640061  0.28189581  0.13859416  1
  K  K3  1  0.45359939  0.71810419  0.86140584  1
  K  K4  1  0.10856545  0.06681620  0.26051059  1
  K  K5  1  0.89143455  0.93318380  0.73948941  1
  K  K6  1  0.05259007  0.77998094  0.13195104  1
  K  K7  1  0.94740993  0.22001906  0.86804896  1
  Np  Np8  1  0.40335353  0.06987613  0.82690513  1
  Np  Np9  1  0.59664647  0.93012387  0.17309487  1
  Np  Np10  1  0.27677103  0.23851420  0.48810726  1
  Np  Np11  1  0.72322897  0.76148580  0.51189274  1
  Np  Np12  1  0.10059266  0.42974888  0.16849886  1
  Np  Np13  1  0.89940734  0.57025112  0.83150114  1
  H  H14  1  0.48830254  0.07674054  0.35605305  1
  H  H15  1  0.51169746  0.92325946  0.64394695  1
  H  H16  1  0.05431731  0.75044518  0.58438259  1
  H  H17  1  0.94568269  0.24955482  0.41561741  1
  H  H18  1  0.61428135  0.09265992  0.41208647  1
  H  H19  1  0.38571865  0.90734008  0.58791353  1
  H  H20  1  0.81053049  0.29056722  0.34891495  1
  H  H21  1  0.18946951  0.70943278  0.65108505  1
  H  H22  1  0.32988458  0.74860690  0.32281795  1
  H  H23  1  0.67011542  0.25139310  0.67718205  1
  H  H24  1  0.55049179  0.28561302  0.59757998  1
  H  H25  1  0.44950821  0.71438698  0.40242002  1
  H  H26  1  0.07386275  0.43298253  0.58359833  1
  H  H27  1  0.92613725  0.56701747  0.41640167  1
  H  H28  1  0.24386577  0.46940758  0.55198014  1
  H  H29  1  0.75613423  0.53059242  0.44801986  1
  Cl  Cl30  1  0.05649925  0.74957780  0.39592409  1
  Cl  Cl31  1  0.94350075  0.25042220  0.60407591  1
  Cl  Cl32  1  0.84346730  0.05509946  0.13868377  1
  Cl  Cl33  1  0.15653270  0.94490054  0.86131623  1
  Cl  Cl34  1  0.55179123  0.36576734  0.40975302  1
  Cl  Cl35  1  0.44820877  0.63423266  0.59024698  1
  Cl  Cl36  1  0.36543488  0.90011768  0.07400445  1
  Cl  Cl37  1  0.63456512  0.09988232  0.92599555  1
  Cl  Cl38  1  0.19689607  0.02236052  0.51440326  1
  Cl  Cl39  1  0.80310393  0.97763948  0.48559674  1
  Cl  Cl40  1  0.34603818  0.55645578  0.13157545  1
  Cl  Cl41  1  0.65396182  0.44354422  0.86842455  1
  Cl  Cl42  1  0.86552186  0.39811540  0.07587029  1
  Cl  Cl43  1  0.13447814  0.60188460  0.92412971  1
  O  O44  1  0.25601199  0.17801925  0.88364073  1
  O  O45  1  0.74398801  0.82198075  0.11635927  1
  O  O46  1  0.07238809  0.73213315  0.66366137  1
  O  O47  1  0.92761191  0.26786685  0.33633863  1
  O  O48  1  0.22043108  0.31280304  0.34106891  1
  O  O49  1  0.77956892  0.68719696  0.65893109  1
  O  O50  1  0.04269110  0.46187699  0.77066125  1
  O  O51  1  0.95730890  0.53812301  0.22933875  1
  O  O52  1  0.51776822  0.13301474  0.38126350  1
  O  O53  1  0.48223178  0.86698526  0.61873650  1
  O  O54  1  0.18110118  0.43197877  0.52875234  1
  O  O55  1  0.81889882  0.56802123  0.47124766  1
  O  O56  1  0.32980390  0.16583767  0.63627430  1
  O  O57  1  0.67019610  0.83416233  0.36372570  1
  O  O58  1  0.55613916  0.25456323  0.68279427  1
  O  O59  1  0.44386084  0.74543677  0.31720573  1
  O  O60  1  0.23894071  0.32317710  0.10363663  1
  O  O61  1  0.76105929  0.67682290  0.89636337  1
  O  O62  1  0.44889620  0.03831349  0.23155338  1
  O  O63  1  0.55110380  0.96168651  0.76844662  1
