# generated using pymatgen
data_Fe2Te4BrClO10
_symmetry_space_group_name_H-M   'P 1'
_cell_length_a   6.69254816
_cell_length_b   13.51190576
_cell_length_c   14.49746955
_cell_angle_alpha   107.69564116
_cell_angle_beta   90.00000000
_cell_angle_gamma   90.00000000
_symmetry_Int_Tables_number   1
_chemical_formula_structural   Fe2Te4BrClO10
_chemical_formula_sum   'Fe8 Te16 Br4 Cl4 O40'
_cell_volume   1248.96269537
_cell_formula_units_Z   4
loop_
 _symmetry_equiv_pos_site_id
 _symmetry_equiv_pos_as_xyz
  1  'x, y, z'
loop_
 _atom_site_type_symbol
 _atom_site_label
 _atom_site_symmetry_multiplicity
 _atom_site_fract_x
 _atom_site_fract_y
 _atom_site_fract_z
 _atom_site_occupancy
  Fe  Fe0  1  0.49748076  0.88264111  0.52092800  1
  Fe  Fe1  1  0.50251924  0.11735889  0.47907200  1
  Fe  Fe2  1  0.99748076  0.11735889  0.97907200  1
  Fe  Fe3  1  0.00251924  0.88264111  0.02092800  1
  Fe  Fe4  1  0.70782187  0.93547577  0.85588225  1
  Fe  Fe5  1  0.29217813  0.06452423  0.14411775  1
  Fe  Fe6  1  0.20782187  0.06452423  0.64411775  1
  Fe  Fe7  1  0.79217813  0.93547577  0.35588225  1
  Te  Te8  1  0.19241011  0.89125666  0.78577141  1
  Te  Te9  1  0.80758989  0.10874334  0.21422859  1
  Te  Te10  1  0.69241011  0.10874334  0.71422859  1
  Te  Te11  1  0.30758989  0.89125666  0.28577141  1
  Te  Te12  1  0.48156866  0.80203560  0.98132835  1
  Te  Te13  1  0.51843134  0.19796440  0.01867165  1
  Te  Te14  1  0.98156866  0.19796440  0.51867165  1
  Te  Te15  1  0.01843134  0.80203560  0.48132835  1
  Te  Te16  1  0.70625843  0.71956288  0.64085682  1
  Te  Te17  1  0.29374157  0.28043712  0.35914318  1
  Te  Te18  1  0.20625843  0.28043712  0.85914318  1
  Te  Te19  1  0.79374157  0.71956288  0.14085682  1
  Te  Te20  1  0.96509390  0.63482228  0.86244182  1
  Te  Te21  1  0.03490610  0.36517772  0.13755818  1
  Te  Te22  1  0.46509390  0.36517772  0.63755818  1
  Te  Te23  1  0.53490610  0.63482228  0.36244182  1
  Br  Br24  1  0.84860795  0.38527528  0.77988895  1
  Br  Br25  1  0.15139205  0.61472472  0.22011105  1
  Br  Br26  1  0.34860795  0.61472472  0.72011105  1
  Br  Br27  1  0.65139205  0.38527528  0.27988895  1
  Cl  Cl28  1  0.69949783  0.43502592  0.54903798  1
  Cl  Cl29  1  0.30050217  0.56497408  0.45096202  1
  Cl  Cl30  1  0.19949783  0.56497408  0.95096202  1
  Cl  Cl31  1  0.80050217  0.43502592  0.04903798  1
  O  O32  1  0.40802203  0.76807555  0.40894773  1
  O  O33  1  0.59197797  0.23192445  0.59105227  1
  O  O34  1  0.90802203  0.23192445  0.09105227  1
  O  O35  1  0.09197797  0.76807555  0.90894773  1
  O  O36  1  0.76951064  0.78819758  0.77410283  1
  O  O37  1  0.23048936  0.21180242  0.22589717  1
  O  O38  1  0.26951064  0.21180242  0.72589717  1
  O  O39  1  0.73048936  0.78819758  0.27410283  1
  O  O40  1  0.76007974  0.66313777  0.95555829  1
  O  O41  1  0.23992026  0.33686223  0.04444171  1
  O  O42  1  0.26007974  0.33686223  0.54444171  1
  O  O43  1  0.73992026  0.66313777  0.45555829  1
  O  O44  1  0.95051864  0.78634102  0.60857301  1
  O  O45  1  0.04948136  0.21365898  0.39142699  1
  O  O46  1  0.45051864  0.21365898  0.89142699  1
  O  O47  1  0.54948136  0.78634102  0.10857301  1
  O  O48  1  0.74907971  0.98687747  0.74592186  1
  O  O49  1  0.25092029  0.01312253  0.25407814  1
  O  O50  1  0.24907971  0.01312253  0.75407814  1
  O  O51  1  0.75092029  0.98687747  0.24592186  1
  O  O52  1  0.48559210  0.96105329  0.39776464  1
  O  O53  1  0.51440790  0.03894671  0.60223536  1
  O  O54  1  0.98559210  0.03894671  0.10223536  1
  O  O55  1  0.01440790  0.96105329  0.89776464  1
  O  O56  1  0.42510285  0.89997526  0.86311786  1
  O  O57  1  0.57489715  0.10002474  0.13688214  1
  O  O58  1  0.92510285  0.10002474  0.63688214  1
  O  O59  1  0.07489715  0.89997526  0.36311786  1
  O  O60  1  0.51730236  0.81525124  0.62161731  1
  O  O61  1  0.48269764  0.18474876  0.37838269  1
  O  O62  1  0.01730236  0.18474876  0.87838269  1
  O  O63  1  0.98269764  0.81525124  0.12161731  1
  O  O64  1  0.71347381  0.88619917  0.97985896  1
  O  O65  1  0.28652619  0.11380083  0.02014104  1
  O  O66  1  0.21347381  0.11380083  0.52014104  1
  O  O67  1  0.78652619  0.88619917  0.47985896  1
  O  O68  1  0.19966439  0.91171569  0.55201188  1
  O  O69  1  0.80033561  0.08828431  0.44798812  1
  O  O70  1  0.69966439  0.08828431  0.94798812  1
  O  O71  1  0.30033561  0.91171569  0.05201188  1
