# generated using pymatgen
data_Ce2Ta3(SeO4)2
_symmetry_space_group_name_H-M   'P 1'
_cell_length_a   7.66415822
_cell_length_b   10.01836555
_cell_length_c   12.00061788
_cell_angle_alpha   90.00000000
_cell_angle_beta   90.00000000
_cell_angle_gamma   90.00000000
_symmetry_Int_Tables_number   1
_chemical_formula_structural   Ce2Ta3(SeO4)2
_chemical_formula_sum   'Ce8 Ta12 Se8 O32'
_cell_volume   921.43550644
_cell_formula_units_Z   4
loop_
 _symmetry_equiv_pos_site_id
 _symmetry_equiv_pos_as_xyz
  1  'x, y, z'
loop_
 _atom_site_type_symbol
 _atom_site_label
 _atom_site_symmetry_multiplicity
 _atom_site_fract_x
 _atom_site_fract_y
 _atom_site_fract_z
 _atom_site_occupancy
  Ce  Ce0  1  -0.00000000  0.22753118  0.35111928  1
  Ce  Ce1  1  0.00000000  0.77246882  0.64888072  1
  Ce  Ce2  1  0.50000000  0.27246882  0.85111928  1
  Ce  Ce3  1  0.50000000  0.72753118  0.14888072  1
  Ce  Ce4  1  -0.00000000  0.71161933  0.15592415  1
  Ce  Ce5  1  0.00000000  0.28838067  0.84407585  1
  Ce  Ce6  1  0.50000000  0.78838067  0.65592415  1
  Ce  Ce7  1  0.50000000  0.21161933  0.34407585  1
  Ta  Ta8  1  0.24975965  0.36453519  0.08382194  1
  Ta  Ta9  1  0.75024035  0.63546481  0.91617806  1
  Ta  Ta10  1  0.24975965  0.63546481  0.91617806  1
  Ta  Ta11  1  0.25024035  0.13546481  0.58382194  1
  Ta  Ta12  1  0.75024035  0.36453519  0.08382194  1
  Ta  Ta13  1  0.74975965  0.86453519  0.41617806  1
  Ta  Ta14  1  0.25024035  0.86453519  0.41617806  1
  Ta  Ta15  1  0.74975965  0.13546481  0.58382194  1
  Ta  Ta16  1  0.21372340  -0.00000000  0.00000000  1
  Ta  Ta17  1  0.78627660  0.00000000  0.00000000  1
  Ta  Ta18  1  0.28627660  0.50000000  0.50000000  1
  Ta  Ta19  1  0.71372340  0.50000000  0.50000000  1
  Se  Se20  1  0.00000000  0.01878918  0.16433132  1
  Se  Se21  1  -0.00000000  0.98121082  0.83566868  1
  Se  Se22  1  0.50000000  0.48121082  0.66433132  1
  Se  Se23  1  0.50000000  0.51878918  0.33566868  1
  Se  Se24  1  -0.00000000  0.52262554  0.36091292  1
  Se  Se25  1  -0.00000000  0.47737446  0.63908708  1
  Se  Se26  1  0.50000000  0.97737446  0.86091292  1
  Se  Se27  1  0.50000000  0.02262554  0.13908708  1
  O  O28  1  -0.00000000  0.36592917  0.05162737  1
  O  O29  1  0.00000000  0.63407083  0.94837263  1
  O  O30  1  0.50000000  0.13407083  0.55162737  1
  O  O31  1  0.50000000  0.86592917  0.44837263  1
  O  O32  1  0.24675986  0.28658953  0.22475792  1
  O  O33  1  0.75324014  0.71341047  0.77524208  1
  O  O34  1  0.24675986  0.71341047  0.77524208  1
  O  O35  1  0.25324014  0.21341047  0.72475792  1
  O  O36  1  0.75324014  0.28658953  0.22475792  1
  O  O37  1  0.74675986  0.78658953  0.27524208  1
  O  O38  1  0.25324014  0.78658953  0.27524208  1
  O  O39  1  0.74675986  0.21341047  0.72475792  1
  O  O40  1  0.00000000  0.14873768  0.54952375  1
  O  O41  1  -0.00000000  0.85126232  0.45047625  1
  O  O42  1  0.50000000  0.35126232  0.04952375  1
  O  O43  1  0.50000000  0.64873768  0.95047625  1
  O  O44  1  0.26287952  0.30237922  0.47591500  1
  O  O45  1  0.73712048  0.69762078  0.52408500  1
  O  O46  1  0.26287952  0.69762078  0.52408500  1
  O  O47  1  0.23712048  0.19762078  0.97591500  1
  O  O48  1  0.73712048  0.30237922  0.47591500  1
  O  O49  1  0.76287952  0.80237922  0.02408500  1
  O  O50  1  0.23712048  0.80237922  0.02408500  1
  O  O51  1  0.76287952  0.19762078  0.97591500  1
  O  O52  1  0.24546136  0.05691475  0.39711358  1
  O  O53  1  0.75453864  0.94308525  0.60288642  1
  O  O54  1  0.24546136  0.94308525  0.60288642  1
  O  O55  1  0.25453864  0.44308525  0.89711358  1
  O  O56  1  0.75453864  0.05691475  0.39711358  1
  O  O57  1  0.74546136  0.55691475  0.10288642  1
  O  O58  1  0.25453864  0.55691475  0.10288642  1
  O  O59  1  0.74546136  0.44308525  0.89711358  1
