# generated using pymatgen
data_Ba2MnAl2CuF14
_symmetry_space_group_name_H-M   'P 1'
_cell_length_a   5.26256466
_cell_length_b   7.44198864
_cell_length_c   14.55157282
_cell_angle_alpha   91.98853213
_cell_angle_beta   90.00000000
_cell_angle_gamma   110.70597991
_symmetry_Int_Tables_number   1
_chemical_formula_structural   Ba2MnAl2CuF14
_chemical_formula_sum   'Ba4 Mn2 Al4 Cu2 F28'
_cell_volume   532.71882557
_cell_formula_units_Z   2
loop_
 _symmetry_equiv_pos_site_id
 _symmetry_equiv_pos_as_xyz
  1  'x, y, z'
loop_
 _atom_site_type_symbol
 _atom_site_label
 _atom_site_symmetry_multiplicity
 _atom_site_fract_x
 _atom_site_fract_y
 _atom_site_fract_z
 _atom_site_occupancy
  Ba  Ba0  1  0.62895715  0.37770431  0.62119599  1
  Ba  Ba1  1  0.37104285  0.62229569  0.37880401  1
  Ba  Ba2  1  0.25125284  0.62229569  0.87880401  1
  Ba  Ba3  1  0.74874716  0.37770431  0.12119599  1
  Mn  Mn4  1  0.92500062  0.00000000  0.75000000  1
  Mn  Mn5  1  0.07499938  0.00000000  0.25000000  1
  Al  Al6  1  0.60159759  0.23713374  0.87405704  1
  Al  Al7  1  0.39840241  0.76286626  0.12594296  1
  Al  Al8  1  0.36446384  0.76286626  0.62594296  1
  Al  Al9  1  0.63553616  0.23713374  0.37405704  1
  Cu  Cu10  1  -0.00000000  0.00000000  0.00000000  1
  Cu  Cu11  1  -0.00000000  0.00000000  0.50000000  1
  F  F12  1  0.57461421  0.99463963  0.84407496  1
  F  F13  1  0.42538579  0.00536037  0.15592504  1
  F  F14  1  0.57997458  0.00536037  0.65592504  1
  F  F15  1  0.42002542  0.99463963  0.34407496  1
  F  F16  1  0.65966854  0.48688376  0.90412518  1
  F  F17  1  0.34033146  0.51311624  0.09587482  1
  F  F18  1  0.17278478  0.51311624  0.59587482  1
  F  F19  1  0.82721522  0.48688376  0.40412518  1
  F  F20  1  0.32669525  0.22879685  0.79603278  1
  F  F21  1  0.67330475  0.77120315  0.20396722  1
  F  F22  1  0.09789839  0.77120315  0.70396722  1
  F  F23  1  0.90210161  0.22879685  0.29603278  1
  F  F24  1  0.62530824  0.73508623  0.54730767  1
  F  F25  1  0.37469176  0.26491377  0.45269233  1
  F  F26  1  0.89022202  0.26491377  0.95269233  1
  F  F27  1  0.10977798  0.73508623  0.04730767  1
  F  F28  1  0.37921084  0.16717218  0.97525435  1
  F  F29  1  0.62078916  0.83282782  0.02474565  1
  F  F30  1  0.21203866  0.83282782  0.52474565  1
  F  F31  1  0.78796134  0.16717218  0.47525435  1
  F  F32  1  0.53747542  0.68500130  0.71981098  1
  F  F33  1  0.46252458  0.31499870  0.28018902  1
  F  F34  1  0.85247412  0.31499870  0.78018902  1
  F  F35  1  0.14752588  0.68500130  0.21981098  1
  F  F36  1  0.89410450  0.88534919  0.37921549  1
  F  F37  1  0.10589550  0.11465081  0.62078451  1
  F  F38  1  0.00875532  0.11465081  0.12078451  1
  F  F39  1  0.99124468  0.88534919  0.87921549  1
