# generated using pymatgen
data_BaTi(GeO3)3
_symmetry_space_group_name_H-M   'P 1'
_cell_length_a   6.92360471
_cell_length_b   6.92360471
_cell_length_c   10.25525750
_cell_angle_alpha   90.00000000
_cell_angle_beta   90.00000000
_cell_angle_gamma   119.99999552
_symmetry_Int_Tables_number   1
_chemical_formula_structural   BaTi(GeO3)3
_chemical_formula_sum   'Ba2 Ti2 Ge6 O18'
_cell_volume   425.73734787
_cell_formula_units_Z   2
loop_
 _symmetry_equiv_pos_site_id
 _symmetry_equiv_pos_as_xyz
  1  'x, y, z'
loop_
 _atom_site_type_symbol
 _atom_site_label
 _atom_site_symmetry_multiplicity
 _atom_site_fract_x
 _atom_site_fract_y
 _atom_site_fract_z
 _atom_site_occupancy
  Ba  Ba0  1  0.33333300  0.66666700  0.00000000  1
  Ba  Ba1  1  0.33333300  0.66666700  0.50000000  1
  Ti  Ti2  1  0.00000000  -0.00000000  0.00000000  1
  Ti  Ti3  1  0.00000000  -0.00000000  0.50000000  1
  Ge  Ge4  1  0.88528745  0.25303834  0.75000000  1
  Ge  Ge5  1  0.36775089  0.11471255  0.75000000  1
  Ge  Ge6  1  0.36775089  0.25303834  0.25000000  1
  Ge  Ge7  1  0.74696166  0.63224911  0.75000000  1
  Ge  Ge8  1  0.74696166  0.11471255  0.25000000  1
  Ge  Ge9  1  0.88528745  0.63224911  0.25000000  1
  O  O10  1  0.75463560  0.77320747  0.89313833  1
  O  O11  1  0.01857187  0.24536440  0.89313833  1
  O  O12  1  0.75463560  0.77320747  0.60686167  1
  O  O13  1  0.01857187  0.77320747  0.39313833  1
  O  O14  1  0.22679253  0.98142813  0.89313833  1
  O  O15  1  0.01857187  0.24536440  0.60686167  1
  O  O16  1  0.22679253  0.24536440  0.39313833  1
  O  O17  1  0.01857187  0.77320747  0.10686167  1
  O  O18  1  0.22679253  0.98142813  0.60686167  1
  O  O19  1  0.22679253  0.24536440  0.10686167  1
  O  O20  1  0.75463560  0.98142813  0.39313833  1
  O  O21  1  0.75463560  0.98142813  0.10686167  1
  O  O22  1  0.94147885  0.53612086  0.75000000  1
  O  O23  1  0.59464201  0.05852115  0.75000000  1
  O  O24  1  0.59464201  0.53612086  0.25000000  1
  O  O25  1  0.46387914  0.40535799  0.75000000  1
  O  O26  1  0.46387914  0.05852115  0.25000000  1
  O  O27  1  0.94147885  0.40535799  0.25000000  1
