# generated using pymatgen
data_MgCuBiO5
_symmetry_space_group_name_H-M   'P 1'
_cell_length_a   5.14693905
_cell_length_b   10.06929385
_cell_length_c   15.66094375
_cell_angle_alpha   90.00000000
_cell_angle_beta   90.00000000
_cell_angle_gamma   90.00000000
_symmetry_Int_Tables_number   1
_chemical_formula_structural   MgCuBiO5
_chemical_formula_sum   'Mg8 Cu8 Bi8 O40'
_cell_volume   811.64472420
_cell_formula_units_Z   8
loop_
 _symmetry_equiv_pos_site_id
 _symmetry_equiv_pos_as_xyz
  1  'x, y, z'
loop_
 _atom_site_type_symbol
 _atom_site_label
 _atom_site_symmetry_multiplicity
 _atom_site_fract_x
 _atom_site_fract_y
 _atom_site_fract_z
 _atom_site_occupancy
  Mg  Mg0  1  0.50701685  0.38136691  0.41661147  1
  Mg  Mg1  1  0.00701685  0.11863309  0.41661147  1
  Mg  Mg2  1  0.00701685  0.61863309  0.08338853  1
  Mg  Mg3  1  0.99298315  0.38136691  0.91661147  1
  Mg  Mg4  1  0.49298315  0.11863309  0.91661147  1
  Mg  Mg5  1  0.99298315  0.88136691  0.58338853  1
  Mg  Mg6  1  0.49298315  0.61863309  0.58338853  1
  Mg  Mg7  1  0.50701685  0.88136691  0.08338853  1
  Cu  Cu8  1  0.00441041  0.36725281  0.51995104  1
  Cu  Cu9  1  0.49558959  0.86725281  0.48004896  1
  Cu  Cu10  1  -0.00441041  0.63274719  0.48004896  1
  Cu  Cu11  1  0.50441041  0.13274719  0.51995104  1
  Cu  Cu12  1  -0.00441041  0.13274719  0.01995104  1
  Cu  Cu13  1  0.00441041  0.86725281  0.98004896  1
  Cu  Cu14  1  0.49558959  0.36725281  0.01995104  1
  Cu  Cu15  1  0.50441041  0.63274719  0.98004896  1
  Bi  Bi16  1  -0.05959462  0.85469056  0.26273627  1
  Bi  Bi17  1  0.05959462  0.14530944  0.73726373  1
  Bi  Bi18  1  0.55959462  0.35469056  0.73726373  1
  Bi  Bi19  1  0.05959462  0.64530944  0.76273627  1
  Bi  Bi20  1  0.44040538  0.14530944  0.23726373  1
  Bi  Bi21  1  0.44040538  0.64530944  0.26273627  1
  Bi  Bi22  1  0.55959462  0.85469056  0.76273627  1
  Bi  Bi23  1  -0.05959462  0.35469056  0.23726373  1
  O  O24  1  0.87948819  0.30704110  0.65921561  1
  O  O25  1  0.24821994  0.00125717  0.00524076  1
  O  O26  1  0.25178006  0.50125717  0.99475924  1
  O  O27  1  0.24230907  0.79968711  0.17797105  1
  O  O28  1  0.25769093  0.29968711  0.82202895  1
  O  O29  1  0.87948819  0.80704110  0.84078439  1
  O  O30  1  0.25769093  0.79968711  0.67797105  1
  O  O31  1  0.62051181  0.80704110  0.34078439  1
  O  O32  1  0.24821994  0.50125717  0.49475924  1
  O  O33  1  0.12051181  0.69295890  0.34078439  1
  O  O34  1  0.62051181  0.30704110  0.15921561  1
  O  O35  1  0.75700430  0.24928572  0.48248395  1
  O  O36  1  0.74821994  -0.00125717  0.49475924  1
  O  O37  1  0.75769093  0.70031289  0.67797105  1
  O  O38  1  0.32424583  0.01354494  0.81553300  1
  O  O39  1  0.74821994  0.49874283  0.00524076  1
  O  O40  1  0.12051181  0.19295890  0.15921561  1
  O  O41  1  0.74230907  0.20031289  0.32202995  1
  O  O42  1  0.25700430  0.75071428  0.01751605  1
  O  O43  1  0.25178006  0.00125717  0.50524076  1
  O  O44  1  0.24299570  0.75071428  0.51751605  1
  O  O45  1  0.67575417  -0.01354494  0.18446700  1
  O  O46  1  0.75769093  0.20031289  0.82202895  1
  O  O47  1  0.82424583  -0.01354494  0.68446700  1
  O  O48  1  0.24299570  0.25071428  -0.01751605  1
  O  O49  1  0.25700430  0.25071428  0.48248395  1
  O  O50  1  0.75178006  0.49874283  0.50524076  1
  O  O51  1  0.75178006  -0.00125717  0.99475924  1
  O  O52  1  0.82424583  0.48645506  0.81553300  1
  O  O53  1  0.74299570  0.74928572  0.51751605  1
  O  O54  1  0.74299570  0.24928572  -0.01751605  1
  O  O55  1  0.75700430  0.74928572  0.01751605  1
  O  O56  1  0.67575417  0.48645506  0.31553300  1
  O  O57  1  0.74230907  0.70031289  0.17797105  1
  O  O58  1  0.24230907  0.29968711  0.32202995  1
  O  O59  1  0.32424583  0.51354494  0.68446700  1
  O  O60  1  0.17575417  0.51354494  0.18446700  1
  O  O61  1  0.37948819  0.19295890  0.65921561  1
  O  O62  1  0.17575417  0.01354494  0.31553300  1
  O  O63  1  0.37948819  0.69295890  0.84078439  1
