# generated using pymatgen
data_Ba2Eu(CuO2)4
_symmetry_space_group_name_H-M   'P 1'
_cell_length_a   3.91390366
_cell_length_b   3.88129316
_cell_length_c   13.99946810
_cell_angle_alpha   97.96816606
_cell_angle_beta   90.00000000
_cell_angle_gamma   90.00000000
_symmetry_Int_Tables_number   1
_chemical_formula_structural   Ba2Eu(CuO2)4
_chemical_formula_sum   'Ba2 Eu1 Cu4 O8'
_cell_volume   210.61278591
_cell_formula_units_Z   1
loop_
 _symmetry_equiv_pos_site_id
 _symmetry_equiv_pos_as_xyz
  1  'x, y, z'
loop_
 _atom_site_type_symbol
 _atom_site_label
 _atom_site_symmetry_multiplicity
 _atom_site_fract_x
 _atom_site_fract_y
 _atom_site_fract_z
 _atom_site_occupancy
  Ba  Ba0  1  0.50000000  0.36463639  0.72927278  1
  Ba  Ba1  1  0.50000000  0.63536361  0.27072722  1
  Eu  Eu2  1  0.50000000  0.50000000  0.00000000  1
  Cu  Cu3  1  -0.00000000  0.06277610  0.12555220  1
  Cu  Cu4  1  -0.00000000  0.93722390  0.87444780  1
  Cu  Cu5  1  0.00000000  0.21270302  0.42540605  1
  Cu  Cu6  1  -0.00000000  0.78729698  0.57459395  1
  O  O7  1  0.00000000  0.14592557  0.29185113  1
  O  O8  1  0.00000000  0.85407443  0.70814887  1
  O  O9  1  -0.00000000  0.44559263  0.89118527  1
  O  O10  1  0.00000000  0.55440737  0.10881473  1
  O  O11  1  0.00000000  0.28081517  0.56163035  1
  O  O12  1  0.00000000  0.71918483  0.43836965  1
  O  O13  1  0.50000000  0.05491962  0.10983924  1
  O  O14  1  0.50000000  0.94508038  0.89016076  1
