# generated using pymatgen
data_Zn4CoO5
_symmetry_space_group_name_H-M   'P 1'
_cell_length_a   3.29568043
_cell_length_b   3.29568043
_cell_length_c   26.41461861
_cell_angle_alpha   89.99990813
_cell_angle_beta   90.00009187
_cell_angle_gamma   119.99650444
_symmetry_Int_Tables_number   1
_chemical_formula_structural   Zn4CoO5
_chemical_formula_sum   'Zn8 Co2 O10'
_cell_volume   248.47371859
_cell_formula_units_Z   2
loop_
 _symmetry_equiv_pos_site_id
 _symmetry_equiv_pos_as_xyz
  1  'x, y, z'
loop_
 _atom_site_type_symbol
 _atom_site_label
 _atom_site_symmetry_multiplicity
 _atom_site_fract_x
 _atom_site_fract_y
 _atom_site_fract_z
 _atom_site_occupancy
  Zn  Zn0  1  0.33332307  0.66667693  0.09868596  1
  Zn  Zn1  1  0.33332328  0.66667672  0.29879077  1
  Zn  Zn2  1  0.33332405  0.66667595  0.49872100  1
  Zn  Zn3  1  0.33332419  0.66667581  0.69876343  1
  Zn  Zn4  1  0.33332539  0.66667461  0.89868221  1
  Zn  Zn5  1  0.66667568  0.33332432  0.19882793  1
  Zn  Zn6  1  0.66667664  0.33332336  0.39875995  1
  Zn  Zn7  1  0.66667660  0.33332340  0.59870733  1
  Co  Co8  1  0.66667664  0.33332336  0.79873174  1
  Co  Co9  1  0.66667538  0.33332462  0.99880478  1
  O  O10  1  0.33332361  0.66667639  0.02241141  1
  O  O11  1  0.33332349  0.66667651  0.22243328  1
  O  O12  1  0.33332443  0.66667557  0.42253638  1
  O  O13  1  0.33332393  0.66667607  0.62263840  1
  O  O14  1  0.33332381  0.66667619  0.82258163  1
  O  O15  1  0.66667590  0.33332410  0.12241428  1
  O  O16  1  0.66667622  0.33332378  0.32246232  1
  O  O17  1  0.66667529  0.33332471  0.52258374  1
  O  O18  1  0.66667686  0.33332314  0.72267693  1
  O  O19  1  0.66667553  0.33332447  0.92258651  1
