# generated using pymatgen
data_Ag5Te2Br
_symmetry_space_group_name_H-M   'P 1'
_cell_length_a   7.78133624
_cell_length_b   14.18392140
_cell_length_c   14.23949862
_cell_angle_alpha   90.00589395
_cell_angle_beta   90.00000000
_cell_angle_gamma   90.00000000
_symmetry_Int_Tables_number   1
_chemical_formula_structural   Ag5Te2Br
_chemical_formula_sum   'Ag40 Te16 Br8'
_cell_volume   1571.61148408
_cell_formula_units_Z   8
loop_
 _symmetry_equiv_pos_site_id
 _symmetry_equiv_pos_as_xyz
  1  'x, y, z'
loop_
 _atom_site_type_symbol
 _atom_site_label
 _atom_site_symmetry_multiplicity
 _atom_site_fract_x
 _atom_site_fract_y
 _atom_site_fract_z
 _atom_site_occupancy
  Ag  Ag0  1  0.20654838  0.85209595  0.70025155  1
  Ag  Ag1  1  0.79345162  0.14790405  0.29974845  1
  Ag  Ag2  1  0.70654838  0.64790405  0.79974845  1
  Ag  Ag3  1  0.29345162  0.35209595  0.20025155  1
  Ag  Ag4  1  0.43500370  0.75031397  0.57166253  1
  Ag  Ag5  1  0.56499630  0.24968603  0.42833747  1
  Ag  Ag6  1  0.93500370  0.74968603  0.92833747  1
  Ag  Ag7  1  0.06499630  0.25031397  0.07166253  1
  Ag  Ag8  1  0.13152132  0.57308806  0.92130192  1
  Ag  Ag9  1  0.86847868  0.42691194  0.07869808  1
  Ag  Ag10  1  0.63152132  0.92691194  0.57869808  1
  Ag  Ag11  1  0.36847868  0.07308806  0.42130192  1
  Ag  Ag12  1  0.00709837  0.35742322  0.89401006  1
  Ag  Ag13  1  0.99290163  0.64257678  0.10598994  1
  Ag  Ag14  1  0.50709837  0.14257678  0.60598994  1
  Ag  Ag15  1  0.49290163  0.85742322  0.39401006  1
  Ag  Ag16  1  0.35406804  0.25000621  0.87965128  1
  Ag  Ag17  1  0.64593196  0.74999379  0.12034872  1
  Ag  Ag18  1  0.85406804  0.24999379  0.62034872  1
  Ag  Ag19  1  0.14593196  0.75000621  0.37965128  1
  Ag  Ag20  1  0.00761928  0.14320455  0.89390984  1
  Ag  Ag21  1  0.99238072  0.85679545  0.10609016  1
  Ag  Ag22  1  0.50761928  0.35679545  0.60609016  1
  Ag  Ag23  1  0.49238072  0.64320455  0.39390984  1
  Ag  Ag24  1  0.62444556  0.10096714  0.92100716  1
  Ag  Ag25  1  0.37555444  0.89903286  0.07899284  1
  Ag  Ag26  1  0.12444556  0.39903286  0.57899284  1
  Ag  Ag27  1  0.87555444  0.60096714  0.42100716  1
  Ag  Ag28  1  0.12365533  0.10110353  0.57902837  1
  Ag  Ag29  1  0.87634467  0.89889647  0.42097163  1
  Ag  Ag30  1  0.62365533  0.39889647  0.92097163  1
  Ag  Ag31  1  0.37634467  0.60110353  0.07902837  1
  Ag  Ag32  1  0.70746233  0.85213826  0.79987311  1
  Ag  Ag33  1  0.29253767  0.14786174  0.20012689  1
  Ag  Ag34  1  0.20746233  0.64786174  0.70012689  1
  Ag  Ag35  1  0.79253767  0.35213826  0.29987311  1
  Ag  Ag36  1  0.12923850  0.92697409  0.92163379  1
  Ag  Ag37  1  0.87076150  0.07302591  0.07836621  1
  Ag  Ag38  1  0.62923850  0.57302591  0.57836621  1
  Ag  Ag39  1  0.37076150  0.42697409  0.42163379  1
  Te  Te40  1  0.21239379  0.91142420  0.50869536  1
  Te  Te41  1  0.78760621  0.08857580  0.49130464  1
  Te  Te42  1  0.71239379  0.58857580  0.99130464  1
  Te  Te43  1  0.28760621  0.41142420  0.00869536  1
  Te  Te44  1  0.21230347  0.58855468  0.50855643  1
  Te  Te45  1  0.78769653  0.41144532  0.49144357  1
  Te  Te46  1  0.71230347  0.91144532  0.99144357  1
  Te  Te47  1  0.28769653  0.08855468  0.00855643  1
  Te  Te48  1  0.24175646  0.25000013  0.68822257  1
  Te  Te49  1  0.75824354  0.74999987  0.31177743  1
  Te  Te50  1  0.74175646  0.24999987  0.81177743  1
  Te  Te51  1  0.25824354  0.75000013  0.18822257  1
  Te  Te52  1  0.78157357  0.74985404  0.63602370  1
  Te  Te53  1  0.21842643  0.25014596  0.36397630  1
  Te  Te54  1  0.28157357  0.75014596  0.86397630  1
  Te  Te55  1  0.71842643  0.24985404  0.13602370  1
  Br  Br56  1  0.47964468  0.99912464  0.74879141  1
  Br  Br57  1  0.52035532  0.00087536  0.25120859  1
  Br  Br58  1  0.97964468  0.50087536  0.75120859  1
  Br  Br59  1  0.02035532  0.49912464  0.24879141  1
  Br  Br60  1  0.47960320  0.50066761  0.74886434  1
  Br  Br61  1  0.52039680  0.49933239  0.25113566  1
  Br  Br62  1  0.97960320  0.99933239  0.75113566  1
  Br  Br63  1  0.02039680  0.00066761  0.24886434  1
