# generated using pymatgen
data_ZnIn3AsSe4
_symmetry_space_group_name_H-M   'P 1'
_cell_length_a   5.97614829
_cell_length_b   7.27452355
_cell_length_c   7.32923494
_cell_angle_alpha   99.32653752
_cell_angle_beta   114.17146852
_cell_angle_gamma   65.82041314
_symmetry_Int_Tables_number   1
_chemical_formula_structural   ZnIn3AsSe4
_chemical_formula_sum   'Zn1 In3 As1 Se4'
_cell_volume   265.18272707
_cell_formula_units_Z   1
loop_
 _symmetry_equiv_pos_site_id
 _symmetry_equiv_pos_as_xyz
  1  'x, y, z'
loop_
 _atom_site_type_symbol
 _atom_site_label
 _atom_site_symmetry_multiplicity
 _atom_site_fract_x
 _atom_site_fract_y
 _atom_site_fract_z
 _atom_site_occupancy
  Zn  Zn0  1  0.98559456  0.00352617  0.99840752  1
  In  In1  1  0.20472787  0.39546430  0.80803307  1
  In  In2  1  0.80539522  0.60287460  0.19340968  1
  In  In3  1  0.40423583  0.80046972  0.60137303  1
  As  As4  1  0.33015784  0.71629018  0.90400185  1
  Se  Se5  1  0.94219294  0.91813584  0.29598012  1
  Se  Se6  1  0.56499509  0.10423486  0.69514172  1
  Se  Se7  1  0.16488320  0.27891129  0.11286807  1
  Se  Se8  1  0.74781744  0.48009304  0.49078494  1
