# generated using pymatgen
data_ZnAg
_symmetry_space_group_name_H-M   'P 1'
_cell_length_a   2.89978650
_cell_length_b   7.65996915
_cell_length_c   13.26955886
_cell_angle_alpha   90.62636121
_cell_angle_beta   90.31220341
_cell_angle_gamma   90.66826651
_symmetry_Int_Tables_number   1
_chemical_formula_structural   ZnAg
_chemical_formula_sum   'Zn9 Ag9'
_cell_volume   294.70485017
_cell_formula_units_Z   9
loop_
 _symmetry_equiv_pos_site_id
 _symmetry_equiv_pos_as_xyz
  1  'x, y, z'
loop_
 _atom_site_type_symbol
 _atom_site_label
 _atom_site_symmetry_multiplicity
 _atom_site_fract_x
 _atom_site_fract_y
 _atom_site_fract_z
 _atom_site_occupancy
  Zn  Zn0  1  0.76379831  0.00409104  0.33150112  1
  Zn  Zn1  1  0.75777222  0.49536133  0.83004561  1
  Zn  Zn2  1  0.24732299  0.49791557  0.16999149  1
  Zn  Zn3  1  0.24689859  0.99985983  0.66630982  1
  Zn  Zn4  1  0.75162453  0.66223605  0.01690196  1
  Zn  Zn5  1  0.75161092  0.15947926  0.51418359  1
  Zn  Zn6  1  0.75179773  0.64806764  0.32312458  1
  Zn  Zn7  1  0.98210407  0.00322251  0.00176300  1
  Zn  Zn8  1  0.92440442  0.50324275  0.49845656  1
  Ag  Ag9  1  0.74826958  0.14203399  0.82446798  1
  Ag  Ag10  1  0.73547125  0.19027718  0.16172120  1
  Ag  Ag11  1  0.74001326  0.69411443  0.66059721  1
  Ag  Ag12  1  0.27042763  0.83619491  0.47984082  1
  Ag  Ag13  1  0.26431496  0.34422082  0.98546190  1
  Ag  Ag14  1  0.25710820  0.84707493  0.17410309  1
  Ag  Ag15  1  0.25941933  0.35253685  0.66681200  1
  Ag  Ag16  1  0.28000939  0.31606852  0.34742645  1
  Ag  Ag17  1  0.26763261  0.80400237  0.84729161  1
