# generated using pymatgen
data_Cr(GeO3)2
_symmetry_space_group_name_H-M   'P 1'
_cell_length_a   5.41001747
_cell_length_b   8.96791367
_cell_length_c   10.19086028
_cell_angle_alpha   90.00000000
_cell_angle_beta   105.83014519
_cell_angle_gamma   90.00000000
_symmetry_Int_Tables_number   1
_chemical_formula_structural   Cr(GeO3)2
_chemical_formula_sum   'Cr4 Ge8 O24'
_cell_volume   475.67429633
_cell_formula_units_Z   4
loop_
 _symmetry_equiv_pos_site_id
 _symmetry_equiv_pos_as_xyz
  1  'x, y, z'
loop_
 _atom_site_type_symbol
 _atom_site_label
 _atom_site_symmetry_multiplicity
 _atom_site_fract_x
 _atom_site_fract_y
 _atom_site_fract_z
 _atom_site_occupancy
  Cr  Cr0  1  0.95905025  0.65899971  0.23698212  1
  Cr  Cr1  1  0.54094975  0.15899971  0.76301788  1
  Cr  Cr2  1  0.04094975  0.34100029  0.76301788  1
  Cr  Cr3  1  0.45905025  0.84100029  0.23698212  1
  Ge  Ge4  1  0.85826212  0.33544344  0.05364191  1
  Ge  Ge5  1  0.64173788  0.83544344  0.94635809  1
  Ge  Ge6  1  0.14173788  0.66455656  0.94635809  1
  Ge  Ge7  1  0.35826212  0.16455656  0.05364191  1
  Ge  Ge8  1  0.09541792  0.34798615  0.47595587  1
  Ge  Ge9  1  0.40458208  0.84798615  0.52404413  1
  Ge  Ge10  1  0.90458208  0.65201385  0.52404413  1
  Ge  Ge11  1  0.59541792  0.15201385  0.47595587  1
  O  O12  1  0.34553053  0.27909660  0.40753446  1
  O  O13  1  0.15446947  0.77909660  0.59246554  1
  O  O14  1  0.65446947  0.72090340  0.59246554  1
  O  O15  1  0.84553053  0.22090340  0.40753446  1
  O  O16  1  0.18779650  0.30031153  0.11635932  1
  O  O17  1  0.31220350  0.80031153  0.88364068  1
  O  O18  1  0.81220350  0.69968847  0.88364168  1
  O  O19  1  0.68779650  0.19968847  0.11635832  1
  O  O20  1  0.58919850  0.96450239  0.40622345  1
  O  O21  1  0.91080150  0.46450239  0.59377655  1
  O  O22  1  0.41080150  0.03549761  0.59377655  1
  O  O23  1  0.08919850  0.53549761  0.40622345  1
  O  O24  1  0.31223276  0.98858528  0.11906457  1
  O  O25  1  0.18776724  0.48858528  0.88093543  1
  O  O26  1  0.68776724  0.01141472  0.88093543  1
  O  O27  1  0.81223276  0.51141472  0.11906457  1
  O  O28  1  0.76324396  0.32381371  0.87119950  1
  O  O29  1  0.73675604  0.82381371  0.12880050  1
  O  O30  1  0.23675604  0.67618629  0.12880050  1
  O  O31  1  0.26324396  0.17618629  0.87119950  1
  O  O32  1  0.26962715  0.29735350  0.66222478  1
  O  O33  1  0.23037285  0.79735350  0.33777522  1
  O  O34  1  0.73037285  0.70264650  0.33777522  1
  O  O35  1  0.76962715  0.20264650  0.66222478  1
