# generated using pymatgen
data_Y3Ga(FeO3)4
_symmetry_space_group_name_H-M   'P 1'
_cell_length_a   10.84081413
_cell_length_b   10.84081413
_cell_length_c   10.84081413
_cell_angle_alpha   70.55622770
_cell_angle_beta   70.51505346
_cell_angle_gamma   109.48494654
_symmetry_Int_Tables_number   1
_chemical_formula_structural   Y3Ga(FeO3)4
_chemical_formula_sum   'Y12 Ga4 Fe16 O48'
_cell_volume   980.76222339
_cell_formula_units_Z   4
loop_
 _symmetry_equiv_pos_site_id
 _symmetry_equiv_pos_as_xyz
  1  'x, y, z'
loop_
 _atom_site_type_symbol
 _atom_site_label
 _atom_site_symmetry_multiplicity
 _atom_site_fract_x
 _atom_site_fract_y
 _atom_site_fract_z
 _atom_site_occupancy
  Y  Y0  1  0.37519863  0.62519863  0.25000000  1
  Y  Y1  1  0.12480137  0.87480137  0.75000000  1
  Y  Y2  1  0.37458466  0.75000000  0.87541534  1
  Y  Y3  1  0.12541534  0.25000000  0.62458466  1
  Y  Y4  1  0.25000000  0.62457958  0.62542042  1
  Y  Y5  1  0.75000000  0.87542042  0.87457958  1
  Y  Y6  1  0.62541534  0.37541534  0.75000000  1
  Y  Y7  1  0.87458466  0.12458466  0.25000000  1
  Y  Y8  1  0.62480137  0.25000000  0.12519863  1
  Y  Y9  1  0.87519863  0.75000000  0.37480137  1
  Y  Y10  1  0.75000000  0.37457958  0.37542042  1
  Y  Y11  1  0.25000000  0.12542042  0.12457958  1
  Ga  Ga12  1  0.12481451  0.37481451  0.25000000  1
  Ga  Ga13  1  0.37518549  0.12518549  0.75000000  1
  Ga  Ga14  1  0.62481451  0.75000000  0.62518549  1
  Ga  Ga15  1  0.87518549  0.25000000  0.87481451  1
  Fe  Fe16  1  0.50073217  0.00082107  0.99887561  1
  Fe  Fe17  1  0.49969668  0.49960778  0.50112439  1
  Fe  Fe18  1  0.00030332  0.49917893  0.00008890  1
  Fe  Fe19  1  0.99926783  0.00039222  0.49991110  1
  Fe  Fe20  1  0.49926783  0.50008890  0.99960778  1
  Fe  Fe21  1  0.50030332  0.99991110  0.50082107  1
  Fe  Fe22  1  -0.00030332  0.49887561  0.50039222  1
  Fe  Fe23  1  0.00073217  0.00112439  0.99917893  1
  Fe  Fe24  1  0.25000000  0.87500000  0.37500000  1
  Fe  Fe25  1  0.75000000  0.62500000  0.12500000  1
  Fe  Fe26  1  0.87510694  0.62510694  0.75000000  1
  Fe  Fe27  1  0.62489306  0.87489306  0.25000000  1
  Fe  Fe28  1  0.37510694  0.25000000  0.37489306  1
  Fe  Fe29  1  0.12489306  0.75000000  0.12510694  1
  Fe  Fe30  1  0.75000000  0.12500000  0.62500000  1
  Fe  Fe31  1  0.25000000  0.37500000  0.87500000  1
  O  O32  1  0.58414704  0.87520396  0.09264011  1
  O  O33  1  0.46784407  0.67678714  0.40735989  1
  O  O34  1  0.03215593  0.62479604  0.79105693  1
  O  O35  1  0.91585296  0.82321286  0.70894307  1
  O  O36  1  0.12478032  0.70899915  0.96773882  1
  O  O37  1  0.32326203  0.79100085  0.08421882  1
  O  O38  1  0.37521968  0.40748086  0.41578118  1
  O  O39  1  0.17673797  0.09251914  0.53226118  1
  O  O40  1  0.29088969  0.41581388  0.67688958  1
  O  O41  1  0.20911031  0.53222073  0.87507581  1
  O  O42  1  0.59270346  0.96777927  0.82311042  1
  O  O43  1  0.90729654  0.08418612  0.62492419  1
  O  O44  1  0.41574837  0.12363843  0.90509577  1
  O  O45  1  0.52873420  0.32084414  0.59490423  1
  O  O46  1  0.97126580  0.37636157  0.20789006  1
  O  O47  1  0.08425163  0.17915586  0.29210994  1
  O  O48  1  0.87676625  0.29176030  0.02868540  1
  O  O49  1  0.67955430  0.20823970  0.91499405  1
  O  O50  1  0.62323375  0.59454835  0.58500595  1
  O  O51  1  0.82044570  0.90545165  0.47131460  1
  O  O52  1  0.70793845  0.58334559  0.32404765  1
  O  O53  1  0.79206155  0.46801391  0.12459286  1
  O  O54  1  0.40739324  0.03198609  0.17595235  1
  O  O55  1  0.09260676  0.91665441  0.37540714  1
  O  O56  1  0.41585296  0.29105693  0.17678714  1
  O  O57  1  0.53215593  0.20894307  0.37520396  1
  O  O58  1  0.96784407  0.59264011  0.32321286  1
  O  O59  1  0.08414704  0.90735989  0.12479604  1
  O  O60  1  0.87521968  0.58421882  0.59251914  1
  O  O61  1  0.67673797  0.46773882  0.90748086  1
  O  O62  1  0.62478032  0.03226118  0.29100085  1
  O  O63  1  0.82326203  0.91578118  0.20899915  1
  O  O64  1  0.70911031  0.12492419  0.46777927  1
  O  O65  1  0.79088969  0.32311042  0.58418612  1
  O  O66  1  0.40729654  0.37507581  0.91581388  1
  O  O67  1  0.09270346  0.17688958  0.03222073  1
  O  O68  1  0.58425163  0.70789006  0.82084414  1
  O  O69  1  0.47126580  0.79210994  0.62363843  1
  O  O70  1  0.02873420  0.40509577  0.67915586  1
  O  O71  1  0.91574837  0.09490423  0.87636157  1
  O  O72  1  0.12323375  0.41499405  0.40545165  1
  O  O73  1  0.32044570  0.52868540  0.09454835  1
  O  O74  1  0.37676625  0.97131460  0.70823970  1
  O  O75  1  0.17955430  0.08500595  0.79176030  1
  O  O76  1  0.29206155  0.87540714  0.53198609  1
  O  O77  1  0.20793845  0.67595235  0.41665441  1
  O  O78  1  0.59260676  0.62459286  0.08334559  1
  O  O79  1  0.90739324  0.82404765  0.96801391  1
