# generated using pymatgen
data_Tb3SOF5
_symmetry_space_group_name_H-M   'P 1'
_cell_length_a   3.70226417
_cell_length_b   9.50322441
_cell_length_c   9.44405477
_cell_angle_alpha   60.43516922
_cell_angle_beta   90.00000000
_cell_angle_gamma   90.00000000
_symmetry_Int_Tables_number   1
_chemical_formula_structural   Tb3SOF5
_chemical_formula_sum   'Tb6 S2 O2 F10'
_cell_volume   289.01159631
_cell_formula_units_Z   2
loop_
 _symmetry_equiv_pos_site_id
 _symmetry_equiv_pos_as_xyz
  1  'x, y, z'
loop_
 _atom_site_type_symbol
 _atom_site_label
 _atom_site_symmetry_multiplicity
 _atom_site_fract_x
 _atom_site_fract_y
 _atom_site_fract_z
 _atom_site_occupancy
  Tb  Tb0  1  0.75000000  0.13419540  0.58220877  1
  Tb  Tb1  1  0.75000000  0.27102283  0.13233643  1
  Tb  Tb2  1  0.75000000  0.58511346  0.29927238  1
  Tb  Tb3  1  0.25000000  0.89678255  0.40479612  1
  Tb  Tb4  1  0.25000000  0.71408379  0.87718330  1
  Tb  Tb5  1  0.25000000  0.40304569  0.70384513  1
  S  S6  1  0.75000000  0.66716249  0.67128377  1
  S  S7  1  0.25000000  0.33816864  0.32707445  1
  O  O8  1  0.75000000  0.38757600  0.56339323  1
  O  O9  1  0.75000000  0.05238479  0.38329392  1
  F  F10  1  0.75000000  0.87975787  0.84081634  1
  F  F11  1  0.75000000  0.27365884  0.88789511  1
  F  F12  1  0.75000000  0.83744701  0.27556304  1
  F  F13  1  0.25000000  0.11780477  0.14546487  1
  F  F14  1  0.25000000  0.71447484  0.12138698  1
  F  F15  1  0.25000000  0.14956046  0.72758913  1
  F  F16  1  0.75000000  0.56654424  0.04723309  1
  F  F17  1  0.25000000  0.62555817  0.43127199  1
  F  F18  1  0.25000000  0.95297148  0.62208500  1
  F  F19  1  0.25000000  0.43268666  0.95600696  1
