# generated using pymatgen
data_Y2Al3Ga3(BO3)8
_symmetry_space_group_name_H-M   'P 1'
_cell_length_a   6.00002133
_cell_length_b   5.98409741
_cell_length_c   11.30397040
_cell_angle_alpha   81.94675904
_cell_angle_beta   81.76665914
_cell_angle_gamma   104.12767818
_symmetry_Int_Tables_number   1
_chemical_formula_structural   Y2Al3Ga3(BO3)8
_chemical_formula_sum   'Y2 Al3 Ga3 B8 O24'
_cell_volume   382.99968486
_cell_formula_units_Z   1
loop_
 _symmetry_equiv_pos_site_id
 _symmetry_equiv_pos_as_xyz
  1  'x, y, z'
loop_
 _atom_site_type_symbol
 _atom_site_label
 _atom_site_symmetry_multiplicity
 _atom_site_fract_x
 _atom_site_fract_y
 _atom_site_fract_z
 _atom_site_occupancy
  Y  Y0  1  -0.00032606  0.99993099  0.00010719  1
  Y  Y1  1  0.49996739  0.49983410  0.50004770  1
  Al  Al2  1  0.55404854  0.44628343  0.00094594  1
  Al  Al3  1  0.77583957  0.33083400  0.22195851  1
  Al  Al4  1  0.27645378  0.82969515  0.72380035  1
  Ga  Ga5  1  0.17234492  0.72283631  0.27478241  1
  Ga  Ga6  1  0.67100783  0.22355177  0.77672533  1
  Ga  Ga7  1  0.05176517  0.94820250  0.50108196  1
  B  B8  1  0.58173356  0.02850292  0.47185507  1
  B  B9  1  0.08372378  0.52756896  0.97234743  1
  B  B10  1  0.69600925  0.80590674  0.24972531  1
  B  B11  1  0.19618496  0.30609200  0.74999930  1
  B  B12  1  0.47355483  0.91697111  0.02683594  1
  B  B13  1  0.97246775  0.41852365  0.52742868  1
  B  B14  1  0.25171113  0.25182731  0.24752699  1
  B  B15  1  0.74890018  0.74891321  0.75212592  1
  O  O16  1  0.86216103  0.45390031  0.04592214  1
  O  O17  1  0.36556240  0.95550745  0.54929637  1
  O  O18  1  0.83713432  0.65368326  0.24710441  1
  O  O19  1  0.33750614  0.15401028  0.74809345  1
  O  O20  1  0.04562650  0.63729308  0.45416754  1
  O  O21  1  0.54739875  0.14088044  0.95769911  1
  O  O22  1  0.63648066  0.23557483  0.38971388  1
  O  O23  1  0.13746987  0.73575429  0.89033921  1
  O  O24  1  0.47284190  0.71297175  0.31685078  1
  O  O25  1  0.97314824  0.21368226  0.81726023  1
  O  O26  1  0.61316699  0.76766260  0.01387736  1
  O  O27  1  0.11889005  0.27560064  0.51585623  1
  O  O28  1  0.72560592  0.88175956  0.48483794  1
  O  O29  1  0.23368442  0.38748118  0.98686332  1
  O  O30  1  0.26061912  0.86415251  0.10409804  1
  O  O31  1  0.76085075  0.36472460  0.60489801  1
  O  O32  1  0.78507593  0.03197135  0.18660470  1
  O  O33  1  0.28583175  0.53225701  0.68702704  1
  O  O34  1  0.47338396  0.32678686  0.17504803  1
  O  O35  1  0.97204322  0.82123918  0.68156306  1
  O  O36  1  0.09765375  0.39138172  0.24752537  1
  O  O37  1  0.59794199  0.89132866  0.74769970  1
  O  O38  1  0.17998661  0.03308506  0.32191533  1
  O  O39  1  0.67454915  0.53183697  0.82844473  1
