# generated using pymatgen
data_ThScFe6
_symmetry_space_group_name_H-M   'P 1'
_cell_length_a   5.03914533
_cell_length_b   5.03914533
_cell_length_c   16.54023895
_cell_angle_alpha   98.76197072
_cell_angle_beta   98.76197072
_cell_angle_gamma   59.99999123
_symmetry_Int_Tables_number   1
_chemical_formula_structural   ThScFe6
_chemical_formula_sum   'Th3 Sc3 Fe18'
_cell_volume   358.06482175
_cell_formula_units_Z   3
loop_
 _symmetry_equiv_pos_site_id
 _symmetry_equiv_pos_as_xyz
  1  'x, y, z'
loop_
 _atom_site_type_symbol
 _atom_site_label
 _atom_site_symmetry_multiplicity
 _atom_site_fract_x
 _atom_site_fract_y
 _atom_site_fract_z
 _atom_site_occupancy
  Th  Th0  1  0.57158130  0.57158130  0.71474391  1
  Th  Th1  1  0.00061778  0.00061778  0.00185334  1
  Th  Th2  1  0.49778610  0.49778610  0.49335829  1
  Sc  Sc3  1  0.42747140  0.42747140  0.28241420  1
  Sc  Sc4  1  0.93018012  0.93018012  0.79054035  1
  Sc  Sc5  1  0.07223370  0.07223370  0.21670109  1
  Fe  Fe6  1  0.45524182  0.95751019  0.37026221  1
  Fe  Fe7  1  0.95766041  0.45880490  0.87527020  1
  Fe  Fe8  1  0.95751019  0.95751019  0.37026221  1
  Fe  Fe9  1  0.45880490  0.45880490  0.87527020  1
  Fe  Fe10  1  0.95751019  0.45524182  0.37026221  1
  Fe  Fe11  1  0.45880490  0.95766041  0.87527020  1
  Fe  Fe12  1  0.04446790  0.54226651  0.12900092  1
  Fe  Fe13  1  0.54287058  0.04118345  0.62523748  1
  Fe  Fe14  1  0.54226651  0.54226651  0.12900092  1
  Fe  Fe15  1  0.04118345  0.04118345  0.62523748  1
  Fe  Fe16  1  0.54226651  0.04446790  0.12900092  1
  Fe  Fe17  1  0.04118345  0.54287058  0.62523748  1
  Fe  Fe18  1  0.33397210  0.33397210  0.00191631  1
  Fe  Fe19  1  0.83311184  0.83311184  0.49933552  1
  Fe  Fe20  1  0.16579374  0.16579374  0.49738122  1
  Fe  Fe21  1  0.66677902  0.66677902  0.00033706  1
  Fe  Fe22  1  0.74992691  0.74992691  0.24978074  1
  Fe  Fe23  1  0.25077517  0.25077517  0.75232550  1
