# generated using pymatgen
data_Zn5Cr20(GaSe10)4
_symmetry_space_group_name_H-M   'P 1'
_cell_length_a   10.63544190
_cell_length_b   13.02293307
_cell_length_c   13.02293306
_cell_angle_alpha   99.59819016
_cell_angle_beta   114.10029488
_cell_angle_gamma   65.89970515
_symmetry_Int_Tables_number   1
_chemical_formula_structural   Zn5Cr20(GaSe10)4
_chemical_formula_sum   'Zn5 Cr20 Ga4 Se40'
_cell_volume   1502.98601852
_cell_formula_units_Z   1
loop_
 _symmetry_equiv_pos_site_id
 _symmetry_equiv_pos_as_xyz
  1  'x, y, z'
loop_
 _atom_site_type_symbol
 _atom_site_label
 _atom_site_symmetry_multiplicity
 _atom_site_fract_x
 _atom_site_fract_y
 _atom_site_fract_z
 _atom_site_occupancy
  Zn  Zn0  1  0.94971270  0.90012736  0.29997215  1
  Zn  Zn1  1  0.55015993  0.09997215  0.69987264  1
  Zn  Zn2  1  0.15025945  0.30002785  0.10012736  1
  Zn  Zn3  1  0.74986791  0.49987264  0.50002785  1
  Zn  Zn4  1  0.60000000  0.20000000  0.40000000  1
  Cr  Cr5  1  0.67435622  0.35264371  0.94591898  1
  Cr  Cr6  1  0.27560019  0.54981299  0.34890031  1
  Cr  Cr7  1  0.87778117  0.75108867  0.74697651  1
  Cr  Cr8  1  0.47519175  0.95033545  0.14613298  1
  Cr  Cr9  1  0.07440172  0.15059950  0.54848058  1
  Cr  Cr10  1  0.87330012  0.25109969  0.74981299  1
  Cr  Cr11  1  0.47094123  0.45386702  0.15033545  1
  Cr  Cr12  1  0.07156275  0.65408102  0.55264371  1
  Cr  Cr13  1  0.66919533  0.85302349  0.95108867  1
  Cr  Cr14  1  0.27407887  0.05151942  0.35059950  1
  Cr  Cr15  1  0.77113015  0.54697651  0.84891133  1
  Cr  Cr16  1  0.37300006  0.74591898  0.24735629  1
  Cr  Cr17  1  0.97447280  0.94613298  0.64966455  1
  Cr  Cr18  1  0.57458682  0.14890031  0.05018701  1
  Cr  Cr19  1  0.17499879  0.34848058  0.44940050  1
  Cr  Cr20  1  0.47939422  0.44966455  0.65386702  1
  Cr  Cr21  1  0.08189334  0.64891133  0.05302349  1
  Cr  Cr22  1  0.67651288  0.85018701  0.45109969  1
  Cr  Cr23  1  0.28108096  0.04735629  0.85408102  1
  Cr  Cr24  1  0.87652063  0.24940050  0.25151942  1
  Ga  Ga25  1  0.00052309  0.99906122  0.99986310  1
  Ga  Ga26  1  0.19972121  0.40093878  0.80013690  1
  Ga  Ga27  1  0.79934000  0.60013690  0.19906122  1
  Ga  Ga28  1  0.40041569  0.79986310  0.60093878  1
  Se  Se29  1  0.22710645  0.45458823  0.63727345  1
  Se  Se30  1  0.82655798  0.65442695  0.03684014  1
  Se  Se31  1  0.42705556  0.85424389  0.43747889  1
  Se  Se32  1  0.02761082  0.05406267  0.83738580  1
  Se  Se33  1  0.62739454  0.25405757  0.23706615  1
  Se  Se34  1  0.40967161  0.36293385  0.45405757  1
  Se  Se35  1  0.01028216  0.56315986  0.85442695  1
  Se  Se36  1  0.60977498  0.76261420  0.25406267  1
  Se  Se37  1  0.21016700  0.96272655  0.65458823  1
  Se  Se38  1  0.81042333  0.16252111  0.05424389  1
  Se  Se39  1  0.31832651  0.63738580  0.54593733  1
  Se  Se40  1  0.91901507  0.83684014  0.94557305  1
  Se  Se41  1  0.51854789  0.03706615  0.34594243  1
  Se  Se42  1  0.11870055  0.23747889  0.74575611  1
  Se  Se43  1  0.71830532  0.43727345  0.14541177  1
  Se  Se44  1  0.04382056  0.54575611  0.36252111  1
  Se  Se45  1  0.64414479  0.74557305  0.76315986  1
  Se  Se46  1  0.24442123  0.94541177  0.16272655  1
  Se  Se47  1  0.84438596  0.14594243  0.56293385  1
  Se  Se48  1  0.44428769  0.34593733  0.96261420  1
  Se  Se49  1  0.72302209  0.44569430  0.66217688  1
  Se  Se50  1  0.32293208  0.64584904  0.06264297  1
  Se  Se51  1  0.92248421  0.84614348  0.46203911  1
  Se  Se52  1  0.52302075  0.04612459  0.86222340  1
  Se  Se53  1  0.12303792  0.24576084  0.26239615  1
  Se  Se54  1  0.53971088  0.53735703  0.84584904  1
  Se  Se55  1  0.13920265  0.73777660  0.24612459  1
  Se  Se56  1  0.73915479  0.93782312  0.64569430  1
  Se  Se57  1  0.33955490  0.13796089  0.04614348  1
  Se  Se58  1  0.93935823  0.33760385  0.44576084  1
  Se  Se59  1  0.63137231  0.26203911  0.75385652  1
  Se  Se60  1  0.23128361  0.46217688  0.15430570  1
  Se  Se61  1  0.83085466  0.66222340  0.55387541  1
  Se  Se62  1  0.43121887  0.86264297  0.95415096  1
  Se  Se63  1  0.03120124  0.06239615  0.35423916  1
  Se  Se64  1  0.90692194  0.35387541  0.93777660  1
  Se  Se65  1  0.50658858  0.55385652  0.33796089  1
  Se  Se66  1  0.10613816  0.75415096  0.73735703  1
  Se  Se67  1  0.70653951  0.95430570  0.13782312  1
  Se  Se68  1  0.30640261  0.15423916  0.53760385  1
