# generated using pymatgen
data_Zr2GaCo3
_symmetry_space_group_name_H-M   'P 1'
_cell_length_a   5.09234940
_cell_length_b   5.09234940
_cell_length_c   7.79540275
_cell_angle_alpha   90.00000000
_cell_angle_beta   90.00000000
_cell_angle_gamma   120.00641921
_symmetry_Int_Tables_number   1
_chemical_formula_structural   Zr2GaCo3
_chemical_formula_sum   'Zr4 Ga2 Co6'
_cell_volume   175.05619410
_cell_formula_units_Z   2
loop_
 _symmetry_equiv_pos_site_id
 _symmetry_equiv_pos_as_xyz
  1  'x, y, z'
loop_
 _atom_site_type_symbol
 _atom_site_label
 _atom_site_symmetry_multiplicity
 _atom_site_fract_x
 _atom_site_fract_y
 _atom_site_fract_z
 _atom_site_occupancy
  Zr  Zr0  1  0.66665160  0.33334840  0.56139595  1
  Zr  Zr1  1  0.33334840  0.66665160  0.43860405  1
  Zr  Zr2  1  0.33334840  0.66665160  0.06139595  1
  Zr  Zr3  1  0.66665160  0.33334840  0.93860405  1
  Ga  Ga4  1  -0.00000000  -0.00000000  0.50000000  1
  Ga  Ga5  1  -0.00000000  -0.00000000  0.00000000  1
  Co  Co6  1  0.17190787  0.34375797  0.75000000  1
  Co  Co7  1  0.17190450  0.82809550  0.75000000  1
  Co  Co8  1  0.65624203  0.82809213  0.75000000  1
  Co  Co9  1  0.82809213  0.65624203  0.25000000  1
  Co  Co10  1  0.82809550  0.17190450  0.25000000  1
  Co  Co11  1  0.34375797  0.17190787  0.25000000  1
