# generated using pymatgen
data_Zn8B4H3O15F
_symmetry_space_group_name_H-M   'P 1'
_cell_length_a   4.99443396
_cell_length_b   8.33910417
_cell_length_c   9.74685582
_cell_angle_alpha   78.83177185
_cell_angle_beta   89.78723608
_cell_angle_gamma   90.01395320
_symmetry_Int_Tables_number   1
_chemical_formula_structural   Zn8B4H3O15F
_chemical_formula_sum   'Zn8 B4 H3 O15 F1'
_cell_volume   398.25733357
_cell_formula_units_Z   1
loop_
 _symmetry_equiv_pos_site_id
 _symmetry_equiv_pos_as_xyz
  1  'x, y, z'
loop_
 _atom_site_type_symbol
 _atom_site_label
 _atom_site_symmetry_multiplicity
 _atom_site_fract_x
 _atom_site_fract_y
 _atom_site_fract_z
 _atom_site_occupancy
  Zn  Zn0  1  0.48252688  0.77630428  0.84791267  1
  Zn  Zn1  1  0.48177737  0.28148647  0.34312939  1
  Zn  Zn2  1  0.98201554  0.22152828  0.15165336  1
  Zn  Zn3  1  0.98260188  0.72312666  0.65024703  1
  Zn  Zn4  1  0.49891829  0.65088758  0.20369895  1
  Zn  Zn5  1  0.49899748  0.15098346  0.71058287  1
  Zn  Zn6  1  0.99842840  0.35088997  0.79576079  1
  Zn  Zn7  1  0.99885535  0.84984649  0.29722110  1
  B  B8  1  0.99515235  0.48321604  0.30632698  1
  B  B9  1  0.99655649  0.98281710  0.80516355  1
  B  B10  1  0.49565726  0.51636520  0.69351401  1
  B  B11  1  0.49608912  0.01571674  0.19428515  1
  H  H12  1  0.82682329  0.47108469  0.99294745  1
  H  H13  1  0.82067554  0.97162867  0.49250526  1
  H  H14  1  0.32562082  0.52870784  0.00749506  1
  O  O15  1  0.35946517  0.36881466  0.71233483  1
  O  O16  1  0.35997081  0.86895220  0.21282342  1
  O  O17  1  0.86099658  0.63059502  0.28387082  1
  O  O18  1  0.86385167  0.13112614  0.78455366  1
  O  O19  1  0.77151147  0.51844678  0.67855779  1
  O  O20  1  0.77165520  0.01886728  0.17716350  1
  O  O21  1  0.27113700  0.48168134  0.32375355  1
  O  O22  1  0.27301433  0.98015070  0.82077480  1
  O  O23  1  0.35930349  0.65981318  0.69581357  1
  O  O24  1  0.36052044  0.16034568  0.19669523  1
  O  O25  1  0.86243717  0.33768448  0.30597120  1
  O  O26  1  0.86119852  0.83841098  0.80616149  1
  O  O27  1  0.98473208  0.40154549  0.98677824  1
  O  O28  1  0.96649214  0.89462806  0.48527129  1
  O  O29  1  0.48428530  0.59716826  0.01370030  1
  F  F30  1  0.50573255  0.11218026  0.51533268  1
