# generated using pymatgen
data_Zn4Cu11(SnSe4)5
_symmetry_space_group_name_H-M   'P 1'
_cell_length_a   10.77570025
_cell_length_b   10.77570025
_cell_length_c   10.77570025
_cell_angle_alpha   73.22719466
_cell_angle_beta   106.77280534
_cell_angle_gamma   64.98565057
_symmetry_Int_Tables_number   1
_chemical_formula_structural   Zn4Cu11(SnSe4)5
_chemical_formula_sum   'Zn4 Cu11 Sn5 Se20'
_cell_volume   956.36861406
_cell_formula_units_Z   1
loop_
 _symmetry_equiv_pos_site_id
 _symmetry_equiv_pos_as_xyz
  1  'x, y, z'
loop_
 _atom_site_type_symbol
 _atom_site_label
 _atom_site_symmetry_multiplicity
 _atom_site_fract_x
 _atom_site_fract_y
 _atom_site_fract_z
 _atom_site_occupancy
  Zn  Zn0  1  0.80006606  0.40009821  0.40027003  1
  Zn  Zn1  1  0.60020397  0.80006606  0.79983573  1
  Zn  Zn2  1  0.40009821  0.19963176  0.20016427  1
  Zn  Zn3  1  0.19963176  0.60020397  0.59972997  1
  Cu  Cu4  1  0.65192108  0.44925789  0.70109484  1
  Cu  Cu5  1  0.25000000  0.25000000  0.50000000  1
  Cu  Cu6  1  0.84964727  0.04917376  0.29890516  1
  Cu  Cu7  1  0.44925789  0.84964727  0.10117897  1
  Cu  Cu8  1  0.04917376  0.65192108  0.89882103  1
  Cu  Cu9  1  0.75000000  0.75000000  0.50000000  1
  Cu  Cu10  1  0.34991774  0.55166410  0.29966632  1
  Cu  Cu11  1  0.94974858  0.34991774  0.09841816  1
  Cu  Cu12  1  0.55166410  0.14866958  0.90158184  1
  Cu  Cu13  1  0.14866958  0.94974858  0.70033368  1
  Cu  Cu14  1  0.00000000  -0.00000000  -0.00000000  1
  Sn  Sn15  1  0.30024002  0.89881803  0.39785121  1
  Sn  Sn16  1  0.89881803  0.70333076  0.19905805  1
  Sn  Sn17  1  0.50000000  0.50000000  -0.00000000  1
  Sn  Sn18  1  0.09761119  0.30024002  0.80094195  1
  Sn  Sn19  1  0.70333076  0.09761119  0.60214879  1
  Se  Se20  1  0.67907166  0.01689325  0.39173682  1
  Se  Se21  1  0.48010346  0.41624996  0.79266197  1
  Se  Se22  1  0.27423320  0.82026798  0.18880344  1
  Se  Se23  1  0.07976567  0.21636290  0.59249196  1
  Se  Se24  1  0.88013920  0.61634659  0.99293815  1
  Se  Se25  1  0.99092858  0.91457025  0.81119656  1
  Se  Se26  1  0.79108807  0.31255851  0.20733803  1
  Se  Se27  1  0.59136993  0.71266516  0.60826318  1
  Se  Se28  1  0.39071526  0.11279895  0.00706185  1
  Se  Se29  1  0.19114513  0.51272629  0.40750804  1
  Se  Se30  1  0.41624996  0.79108807  0.89635341  1
  Se  Se31  1  0.21636290  0.19114513  0.29612858  1
  Se  Se32  1  0.01689325  0.59136993  0.69596491  1
  Se  Se33  1  0.82026798  0.99092858  0.09450117  1
  Se  Se34  1  0.61634659  0.39071526  0.49648580  1
  Se  Se35  1  0.31255851  0.48010346  0.10364659  1
  Se  Se36  1  0.11279895  0.88013920  0.50351420  1
  Se  Se37  1  0.91457025  0.27423320  0.90549883  1
  Se  Se38  1  0.71266516  0.67907166  0.30403509  1
  Se  Se39  1  0.51272629  0.07976567  0.70387142  1
