# generated using pymatgen
data_Zn2Cu10Sn5Hg3S20
_symmetry_space_group_name_H-M   'P 1'
_cell_length_a   5.55514078
_cell_length_b   6.77486088
_cell_length_c   24.87875152
_cell_angle_alpha   90.42705276
_cell_angle_beta   90.00000000
_cell_angle_gamma   65.79629767
_symmetry_Int_Tables_number   1
_chemical_formula_structural   Zn2Cu10Sn5Hg3S20
_chemical_formula_sum   'Zn2 Cu10 Sn5 Hg3 S20'
_cell_volume   853.98246487
_cell_formula_units_Z   1
loop_
 _symmetry_equiv_pos_site_id
 _symmetry_equiv_pos_as_xyz
  1  'x, y, z'
loop_
 _atom_site_type_symbol
 _atom_site_label
 _atom_site_symmetry_multiplicity
 _atom_site_fract_x
 _atom_site_fract_y
 _atom_site_fract_z
 _atom_site_occupancy
  Zn  Zn0  1  0.60042616  0.79926367  0.60056407  1
  Zn  Zn1  1  0.79968983  0.40073633  0.79943593  1
  Cu  Cu2  1  0.30018434  0.39969435  0.04989153  1
  Cu  Cu3  1  0.69747301  0.60143717  0.45125754  1
  Cu  Cu4  1  0.49984438  0.99988414  0.24996120  1
  Cu  Cu5  1  0.10229461  0.79872282  0.84875938  1
  Cu  Cu6  1  0.89984198  0.20014888  0.65009450  1
  Cu  Cu7  1  0.69891018  0.59856283  0.94874246  1
  Cu  Cu8  1  0.09987869  0.80030565  0.35010847  1
  Cu  Cu9  1  0.89972852  0.20011586  0.15003880  1
  Cu  Cu10  1  0.49999085  0.99985112  0.74990550  1
  Cu  Cu11  1  0.30101743  0.40127718  0.55124062  1
  Sn  Sn12  1  0.39820519  0.20339435  0.89731846  1
  Sn  Sn13  1  0.79978276  0.40017752  0.30039635  1
  Sn  Sn14  1  0.59996028  0.79982248  0.09960365  1
  Sn  Sn15  1  0.19995451  0.60000000  0.70000000  1
  Sn  Sn16  1  0.00159954  0.99660565  0.50268154  1
  Hg  Hg17  1  0.99928941  0.00081365  0.99942034  1
  Hg  Hg18  1  0.19993689  0.60000000  0.20000000  1
  Hg  Hg19  1  0.40010307  0.19918635  0.40057966  1
  S  S20  1  0.49979580  0.51694232  0.87416770  1
  S  S21  1  0.67952526  0.12365745  0.08023674  1
  S  S22  1  0.87899094  0.72367036  0.28044089  1
  S  S23  1  0.07816685  0.32202471  0.48146634  1
  S  S24  1  0.29840014  0.91559095  0.67532143  1
  S  S25  1  0.09729111  0.33237097  0.97541836  1
  S  S26  1  0.29424364  0.93096336  0.17637742  1
  S  S27  1  0.49404971  0.53157756  0.37734128  1
  S  S28  1  0.68470882  0.10926573  0.57899030  1
  S  S29  1  0.88769810  0.71008421  0.77738832  1
  S  S30  1  0.42562727  0.66842244  0.02265872  1
  S  S31  1  0.62520700  0.26903664  0.22362258  1
  S  S32  1  0.82966208  0.86762903  0.42458164  1
  S  S33  1  0.99778230  0.48991579  0.62261168  1
  S  S34  1  0.19397455  0.09073427  0.82100970  1
  S  S35  1  0.00266130  0.47632964  0.11955911  1
  S  S36  1  0.20318272  0.07634255  0.31976326  1
  S  S37  1  0.41673813  0.68305768  0.52583230  1
  S  S38  1  0.61399108  0.28440905  0.72467857  1
  S  S39  1  0.80019156  0.87797529  0.91853366  1
