# generated using pymatgen
data_MgBi2P2O9
_symmetry_space_group_name_H-M   'P 1'
_cell_length_a   7.17957809
_cell_length_b   6.59723189
_cell_length_c   16.09591155
_cell_angle_alpha   90.00000000
_cell_angle_beta   90.00000000
_cell_angle_gamma   90.00000000
_symmetry_Int_Tables_number   1
_chemical_formula_structural   MgBi2P2O9
_chemical_formula_sum   'Mg4 Bi8 P8 O36'
_cell_volume   762.38834784
_cell_formula_units_Z   4
loop_
 _symmetry_equiv_pos_site_id
 _symmetry_equiv_pos_as_xyz
  1  'x, y, z'
loop_
 _atom_site_type_symbol
 _atom_site_label
 _atom_site_symmetry_multiplicity
 _atom_site_fract_x
 _atom_site_fract_y
 _atom_site_fract_z
 _atom_site_occupancy
  Mg  Mg0  1  0.75000000  0.93828959  0.76325253  1
  Mg  Mg1  1  0.75000000  0.56171041  0.26325253  1
  Mg  Mg2  1  0.25000100  0.43828859  0.73674747  1
  Mg  Mg3  1  0.25000100  0.06171041  0.23674747  1
  Bi  Bi4  1  0.75000000  0.41145648  0.88362616  1
  Bi  Bi5  1  0.25000100  0.58854352  0.11637384  1
  Bi  Bi6  1  0.25000100  0.91145648  0.61637384  1
  Bi  Bi7  1  0.75000000  0.08854452  0.38362616  1
  Bi  Bi8  1  0.50000000  -0.00000000  0.00000000  1
  Bi  Bi9  1  0.50000000  0.50000000  0.50000000  1
  Bi  Bi10  1  -0.00000000  0.50000000  0.50000000  1
  Bi  Bi11  1  -0.00000000  -0.00000000  -0.00000000  1
  P  P12  1  0.25000100  0.43639663  0.91487671  1
  P  P13  1  0.75000000  0.56360337  0.08512429  1
  P  P14  1  0.75000000  0.93639663  0.58512329  1
  P  P15  1  0.25000100  0.06360437  0.41487671  1
  P  P16  1  0.75000000  0.43991742  0.69640923  1
  P  P17  1  0.75000000  0.06008258  0.19640923  1
  P  P18  1  0.25000100  0.93991742  0.80359077  1
  P  P19  1  0.25000100  0.56008158  0.30359077  1
  O  O20  1  0.06817130  0.56745592  0.35443836  1
  O  O21  1  0.56817030  0.43254308  0.64556164  1
  O  O22  1  0.93182870  0.06745592  0.14556164  1
  O  O23  1  0.43182870  0.93254408  0.85443836  1
  O  O24  1  0.93182870  0.43254308  0.64556164  1
  O  O25  1  0.43182870  0.56745592  0.35443836  1
  O  O26  1  0.06817130  0.93254408  0.85443836  1
  O  O27  1  0.56817030  0.06745592  0.14556164  1
  O  O28  1  0.25000100  0.24540988  0.47974300  1
  O  O29  1  0.75000000  0.75459112  0.52025700  1
  O  O30  1  0.75000000  0.74540888  0.02025600  1
  O  O31  1  0.25000100  0.25459112  0.97974300  1
  O  O32  1  0.75000000  0.08913844  0.91309988  1
  O  O33  1  0.25000100  0.91086156  0.08689912  1
  O  O34  1  0.25000100  0.58913844  0.58689912  1
  O  O35  1  0.75000000  0.41086256  0.41310088  1
  O  O36  1  0.75000000  0.25117187  0.75806563  1
  O  O37  1  0.25000100  0.74882813  0.24193537  1
  O  O38  1  0.25000100  0.75117187  0.74193437  1
  O  O39  1  0.75000000  0.24882913  0.25806463  1
  O  O40  1  0.42012804  0.07774090  0.35596009  1
  O  O41  1  0.92012804  0.92225910  0.64403991  1
  O  O42  1  0.57987196  0.57773990  0.14403991  1
  O  O43  1  0.07987196  0.42225910  0.85596009  1
  O  O44  1  0.57987196  0.92225910  0.64403991  1
  O  O45  1  0.07987196  0.07774090  0.35596009  1
  O  O46  1  0.42012804  0.42225910  0.85596009  1
  O  O47  1  0.92012804  0.57773990  0.14403991  1
  O  O48  1  0.75000000  0.36815475  0.03261609  1
  O  O49  1  0.25000100  0.12686349  0.74309542  1
  O  O50  1  0.25000100  0.37313551  0.24309542  1
  O  O51  1  0.75000000  0.62686349  0.75690458  1
  O  O52  1  0.75000000  0.13184525  0.53261609  1
  O  O53  1  0.25000100  0.86815475  0.46738391  1
  O  O54  1  0.25000100  0.63184425  0.96738291  1
  O  O55  1  0.75000000  0.87313651  0.25690458  1
