# generated using pymatgen
data_TaFe
_symmetry_space_group_name_H-M   'P 1'
_cell_length_a   4.86917780
_cell_length_b   4.86917761
_cell_length_c   18.15187812
_cell_angle_alpha   82.29207398
_cell_angle_beta   90.00000071
_cell_angle_gamma   120.00000493
_symmetry_Int_Tables_number   1
_chemical_formula_structural   TaFe
_chemical_formula_sum   'Ta13 Fe13'
_cell_volume   368.20661204
_cell_formula_units_Z   13
loop_
 _symmetry_equiv_pos_site_id
 _symmetry_equiv_pos_as_xyz
  1  'x, y, z'
loop_
 _atom_site_type_symbol
 _atom_site_label
 _atom_site_symmetry_multiplicity
 _atom_site_fract_x
 _atom_site_fract_y
 _atom_site_fract_z
 _atom_site_occupancy
  Ta  Ta0  1  0.22557810  0.45115621  0.32326569  1
  Ta  Ta1  1  0.72505203  0.45010407  0.82484390  1
  Ta  Ta2  1  0.27494797  0.54989593  0.17515610  1
  Ta  Ta3  1  0.77442190  0.54884379  0.67673431  1
  Ta  Ta4  1  0.17352368  0.34704736  0.47942897  1
  Ta  Ta5  1  0.67369124  0.34738248  0.97892629  1
  Ta  Ta6  1  0.32630876  0.65261752  0.02107371  1
  Ta  Ta7  1  0.82647632  0.65295264  0.52057103  1
  Ta  Ta8  1  0.58353755  0.16707509  0.24938736  1
  Ta  Ta9  1  0.08262478  0.16524955  0.75212567  1
  Ta  Ta10  1  0.91737522  0.83475045  0.24787433  1
  Ta  Ta11  1  0.41646245  0.83292491  0.75061264  1
  Ta  Ta12  1  0.50000000  -0.00000000  0.50000000  1
  Fe  Fe13  1  0.79499057  0.09288528  0.11212415  1
  Fe  Fe14  1  0.29029850  0.09241800  0.61728349  1
  Fe  Fe15  1  0.29789471  0.09288528  0.11212415  1
  Fe  Fe16  1  0.80211950  0.09241800  0.61728349  1
  Fe  Fe17  1  0.79499057  0.58998114  0.11212415  1
  Fe  Fe18  1  0.29029850  0.58059701  0.61728349  1
  Fe  Fe19  1  0.70970150  0.90758200  0.38271651  1
  Fe  Fe20  1  0.20500943  0.90711472  0.88787585  1
  Fe  Fe21  1  0.19788050  0.90758200  0.38271651  1
  Fe  Fe22  1  0.70210529  0.90711472  0.88787585  1
  Fe  Fe23  1  0.70970150  0.41940299  0.38271651  1
  Fe  Fe24  1  0.20500943  0.41001886  0.88787585  1
  Fe  Fe25  1  -0.00000000  -0.00000000  0.00000000  1
