# generated using pymatgen
data_Sr3Nd(FeO4)2
_symmetry_space_group_name_H-M   'P 1'
_cell_length_a   5.47875806
_cell_length_b   5.49320178
_cell_length_c   6.91649505
_cell_angle_alpha   90.00000000
_cell_angle_beta   66.66761820
_cell_angle_gamma   90.00000000
_symmetry_Int_Tables_number   1
_chemical_formula_structural   Sr3Nd(FeO4)2
_chemical_formula_sum   'Sr3 Nd1 Fe2 O8'
_cell_volume   191.13567892
_cell_formula_units_Z   1
loop_
 _symmetry_equiv_pos_site_id
 _symmetry_equiv_pos_as_xyz
  1  'x, y, z'
loop_
 _atom_site_type_symbol
 _atom_site_label
 _atom_site_symmetry_multiplicity
 _atom_site_fract_x
 _atom_site_fract_y
 _atom_site_fract_z
 _atom_site_occupancy
  Sr  Sr0  1  0.35449862  0.00000000  0.29100275  1
  Sr  Sr1  1  0.64430294  -0.00000000  0.71139412  1
  Sr  Sr2  1  0.14541150  0.50000000  0.70917701  1
  Nd  Nd3  1  0.85932406  0.50000000  0.28135189  1
  Fe  Fe4  1  0.49869278  0.50000000  0.00261444  1
  Fe  Fe5  1  0.00275159  -0.00000000  0.99449682  1
  O  O6  1  0.15844887  0.00000000  0.68310226  1
  O  O7  1  0.67652037  0.50000000  0.64695925  1
  O  O8  1  0.33546720  0.50000000  0.32906560  1
  O  O9  1  0.83911371  -0.00000000  0.32177258  1
  O  O10  1  0.24542871  0.25786189  0.00726582  1
  O  O11  1  0.74730547  0.74213811  0.00726582  1
  O  O12  1  0.74730547  0.25786189  0.00726582  1
  O  O13  1  0.24542871  0.74213811  0.00726582  1
