# generated using pymatgen
data_SrCa3(PbO4)2
_symmetry_space_group_name_H-M   'P 1'
_cell_length_a   3.45544392
_cell_length_b   5.97181196
_cell_length_c   10.03064812
_cell_angle_alpha   90.25472660
_cell_angle_beta   90.00000000
_cell_angle_gamma   90.00000000
_symmetry_Int_Tables_number   1
_chemical_formula_structural   SrCa3(PbO4)2
_chemical_formula_sum   'Sr1 Ca3 Pb2 O8'
_cell_volume   206.98299968
_cell_formula_units_Z   1
loop_
 _symmetry_equiv_pos_site_id
 _symmetry_equiv_pos_as_xyz
  1  'x, y, z'
loop_
 _atom_site_type_symbol
 _atom_site_label
 _atom_site_symmetry_multiplicity
 _atom_site_fract_x
 _atom_site_fract_y
 _atom_site_fract_z
 _atom_site_occupancy
  Sr  Sr0  1  0.50000000  0.57276665  0.18099391  1
  Ca  Ca1  1  0.50000000  0.42485657  0.81394724  1
  Ca  Ca2  1  0.50000000  0.07027665  0.32580266  1
  Ca  Ca3  1  0.50000000  0.92636843  0.68341927  1
  Pb  Pb4  1  -0.00000000  0.49742305  0.50447702  1
  Pb  Pb5  1  -0.00000000  0.00144508  0.99556835  1
  O  O6  1  0.50000000  0.73821003  0.45511878  1
  O  O7  1  0.50000000  0.26067758  0.55277738  1
  O  O8  1  0.50000000  0.23747746  0.03739446  1
  O  O9  1  0.50000000  0.76298888  0.94480038  1
  O  O10  1  -0.00000000  0.87891315  0.19953704  1
  O  O11  1  -0.00000000  0.13948721  0.79604265  1
  O  O12  1  -0.00000000  0.34909502  0.30869396  1
  O  O13  1  -0.00000000  0.64001423  0.70142691  1
