# generated using pymatgen
data_Ta6Mn2FeO18
_symmetry_space_group_name_H-M   'P 1'
_cell_length_a   6.84879222
_cell_length_b   10.79452900
_cell_length_c   10.53330144
_cell_angle_alpha   114.22891560
_cell_angle_beta   71.02825247
_cell_angle_gamma   108.49575157
_symmetry_Int_Tables_number   1
_chemical_formula_structural   Ta6Mn2FeO18
_chemical_formula_sum   'Ta12 Mn4 Fe2 O36'
_cell_volume   656.11864753
_cell_formula_units_Z   2
loop_
 _symmetry_equiv_pos_site_id
 _symmetry_equiv_pos_as_xyz
  1  'x, y, z'
loop_
 _atom_site_type_symbol
 _atom_site_label
 _atom_site_symmetry_multiplicity
 _atom_site_fract_x
 _atom_site_fract_y
 _atom_site_fract_z
 _atom_site_occupancy
  Ta  Ta0  1  0.11219933  0.39025340  0.16585473  1
  Ta  Ta1  1  0.44379075  0.05535488  0.16777239  1
  Ta  Ta2  1  0.77654878  0.72229077  0.16919420  1
  Ta  Ta3  1  0.11028466  0.88864805  0.66807873  1
  Ta  Ta4  1  0.44371040  0.55706967  0.66964786  1
  Ta  Ta5  1  0.77674427  0.22321174  0.66972420  1
  Ta  Ta6  1  0.88780067  0.60974660  0.83414527  1
  Ta  Ta7  1  0.22345122  0.27770923  0.83080580  1
  Ta  Ta8  1  0.55620925  0.94464512  0.83222761  1
  Ta  Ta9  1  0.22325573  0.77678826  0.33027580  1
  Ta  Ta10  1  0.55628960  0.44293033  0.33035214  1
  Ta  Ta11  1  0.88971534  0.11135195  0.33192127  1
  Mn  Mn12  1  0.66645273  0.83374284  0.50083838  1
  Mn  Mn13  1  0.33354727  0.16625716  0.49916162  1
  Mn  Mn14  1  0.00000000  0.50000000  0.50000000  1
  Mn  Mn15  1  0.00000000  -0.00000000  -0.00000000  1
  Fe  Fe16  1  0.66637827  0.33254721  0.99979166  1
  Fe  Fe17  1  0.33362173  0.66745279  0.00020834  1
  O  O18  1  0.39879249  0.39384443  0.18112962  1
  O  O19  1  0.73123616  0.05953253  0.18174186  1
  O  O20  1  0.06559918  0.72827348  0.18228352  1
  O  O21  1  0.81392132  0.39384443  0.18112962  1
  O  O22  1  0.14655551  0.05953253  0.18174186  1
  O  O23  1  0.48039078  0.72827348  0.18228352  1
  O  O24  1  0.00718242  0.69924824  0.68488240  1
  O  O25  1  0.34208261  0.36550142  0.68133720  1
  O  O26  1  0.67480328  0.03202177  0.68241521  1
  O  O27  1  0.86976888  0.42258604  0.68304828  1
  O  O28  1  0.20380321  0.08959833  0.68199091  1
  O  O29  1  0.53669724  0.75685836  0.68346488  1
  O  O30  1  0.60120751  0.60615557  0.81887038  1
  O  O31  1  0.93440082  0.27172652  0.81771648  1
  O  O32  1  0.26876384  0.94046747  0.81825814  1
  O  O33  1  0.18607868  0.60615557  0.81887038  1
  O  O34  1  0.51960922  0.27172652  0.81771648  1
  O  O35  1  0.85344449  0.94046747  0.81825814  1
  O  O36  1  0.99281758  0.30075176  0.31511760  1
  O  O37  1  0.32519672  0.96797823  0.31758479  1
  O  O38  1  0.65791739  0.63449858  0.31866280  1
  O  O39  1  0.13023112  0.57741396  0.31695172  1
  O  O40  1  0.46330276  0.24314164  0.31653512  1
  O  O41  1  0.79619679  0.91040167  0.31800909  1
  O  O42  1  0.98246311  0.83293899  0.50057726  1
  O  O43  1  0.65010038  0.16706101  0.49942274  1
  O  O44  1  0.31652357  0.50000000  0.50000000  1
  O  O45  1  0.34989962  0.83293899  0.50057726  1
  O  O46  1  0.01753689  0.16706101  0.49942274  1
  O  O47  1  0.68347643  0.50000000  0.50000000  1
  O  O48  1  0.89337259  0.78805518  0.00131100  1
  O  O49  1  0.56233157  0.12498460  0.00032047  1
  O  O50  1  0.23083815  0.46014862  0.99847231  1
  O  O51  1  0.76916185  0.53985138  0.00152769  1
  O  O52  1  0.43766843  0.87501540  0.99967953  1
  O  O53  1  0.10662741  0.21194482  0.99868900  1
