# generated using pymatgen
data_SrTi4Bi4O15
_symmetry_space_group_name_H-M   'P 1'
_cell_length_a   5.49878882
_cell_length_b   5.55620867
_cell_length_c   20.78753343
_cell_angle_alpha   90.00000000
_cell_angle_beta   82.39969335
_cell_angle_gamma   90.00000000
_symmetry_Int_Tables_number   1
_chemical_formula_structural   SrTi4Bi4O15
_chemical_formula_sum   'Sr2 Ti8 Bi8 O30'
_cell_volume   629.52987017
_cell_formula_units_Z   2
loop_
 _symmetry_equiv_pos_site_id
 _symmetry_equiv_pos_as_xyz
  1  'x, y, z'
loop_
 _atom_site_type_symbol
 _atom_site_label
 _atom_site_symmetry_multiplicity
 _atom_site_fract_x
 _atom_site_fract_y
 _atom_site_fract_z
 _atom_site_occupancy
  Sr  Sr0  1  0.75784546  0.76053110  0.00000000  1
  Sr  Sr1  1  0.24215454  0.26053110  0.00000000  1
  Ti  Ti2  1  0.20445228  0.76894417  0.09592689  1
  Ti  Ti3  1  0.30037916  0.76894417  0.90407311  1
  Ti  Ti4  1  0.79554772  0.26894417  0.90407311  1
  Ti  Ti5  1  0.69962084  0.26894417  0.09592689  1
  Ti  Ti6  1  0.09914745  0.77034566  0.30430339  1
  Ti  Ti7  1  0.40345084  0.77034566  0.69569661  1
  Ti  Ti8  1  0.90085255  0.27034566  0.69569661  1
  Ti  Ti9  1  0.59654916  0.27034566  0.30430339  1
  Bi  Bi10  1  0.85931008  0.71759409  0.79431040  1
  Bi  Bi11  1  0.65362047  0.71759409  0.20568960  1
  Bi  Bi12  1  0.14068992  0.21759409  0.20568960  1
  Bi  Bi13  1  0.34637953  0.21759409  0.79431040  1
  Bi  Bi14  1  0.93984101  0.73311922  0.56162949  1
  Bi  Bi15  1  0.50147050  0.73311922  0.43837051  1
  Bi  Bi16  1  0.06015899  0.23311922  0.43837051  1
  Bi  Bi17  1  0.49852950  0.23311922  0.56162949  1
  O  O18  1  0.11724846  0.78475142  0.38917521  1
  O  O19  1  0.50642367  0.78475142  0.61082479  1
  O  O20  1  0.88275154  0.28475142  0.61082479  1
  O  O21  1  0.49357633  0.28475142  0.38917521  1
  O  O22  1  0.51537676  0.09083241  0.89268978  1
  O  O23  1  0.40806654  0.09083241  0.10731022  1
  O  O24  1  0.48462324  0.59083241  0.10731022  1
  O  O25  1  0.59193346  0.59083241  0.89268978  1
  O  O26  1  0.75662148  -0.00019655  0.49783587  1
  O  O27  1  0.25445736  -0.00019655  0.50216413  1
  O  O28  1  0.24337852  0.49980345  0.50216413  1
  O  O29  1  0.74554264  0.49980345  0.49783587  1
  O  O30  1  0.07424893  0.52486472  0.91446398  1
  O  O31  1  0.98871291  0.52486472  0.08553602  1
  O  O32  1  0.92575107  0.02486472  0.08553602  1
  O  O33  1  0.01128709  0.02486472  0.91446398  1
  O  O34  1  0.09291209  0.81744893  0.19108539  1
  O  O35  1  0.28399748  0.81744893  0.80891461  1
  O  O36  1  0.90708791  0.31744893  0.80891461  1
  O  O37  1  0.71600252  0.31744893  0.19108539  1
  O  O38  1  0.30024576  0.80409270  0.00000000  1
  O  O39  1  0.69975424  0.30409270  0.00000000  1
  O  O40  1  0.11853133  0.56949040  0.70321228  1
  O  O41  1  0.82174361  0.56949040  0.29678772  1
  O  O42  1  0.88146867  0.06949040  0.29678772  1
  O  O43  1  0.17825639  0.06949040  0.70321228  1
  O  O44  1  0.65147382  0.02749363  0.72331114  1
  O  O45  1  0.37478496  0.02749363  0.27668886  1
  O  O46  1  0.34852618  0.52749363  0.27668886  1
  O  O47  1  0.62521504  0.52749363  0.72331114  1
