# generated using pymatgen
data_MgAg2P2O9
_symmetry_space_group_name_H-M   'P 1'
_cell_length_a   6.53379618
_cell_length_b   6.92441527
_cell_length_c   15.89403845
_cell_angle_alpha   89.89515044
_cell_angle_beta   89.99752436
_cell_angle_gamma   90.00257740
_symmetry_Int_Tables_number   1
_chemical_formula_structural   MgAg2P2O9
_chemical_formula_sum   'Mg4 Ag8 P8 O36'
_cell_volume   719.08829474
_cell_formula_units_Z   4
loop_
 _symmetry_equiv_pos_site_id
 _symmetry_equiv_pos_as_xyz
  1  'x, y, z'
loop_
 _atom_site_type_symbol
 _atom_site_label
 _atom_site_symmetry_multiplicity
 _atom_site_fract_x
 _atom_site_fract_y
 _atom_site_fract_z
 _atom_site_occupancy
  Mg  Mg0  1  0.75001961  0.88874305  0.77467027  1
  Mg  Mg1  1  0.74998225  0.61277623  0.27522283  1
  Mg  Mg2  1  0.25001536  0.38856533  0.72497755  1
  Mg  Mg3  1  0.24998194  0.11287297  0.22513193  1
  Ag  Ag4  1  0.75003082  0.37114495  0.88119156  1
  Ag  Ag5  1  0.24996181  0.62960385  0.11878993  1
  Ag  Ag6  1  0.25001730  0.87068500  0.61855899  1
  Ag  Ag7  1  0.74997997  0.12972913  0.38155420  1
  Ag  Ag8  1  0.49992421  0.99940348  0.99974350  1
  Ag  Ag9  1  0.49999168  0.49968622  0.50020689  1
  Ag  Ag10  1  0.00000945  0.49968134  0.50020798  1
  Ag  Ag11  1  0.00008023  0.99940908  0.99974740  1
  P  P12  1  0.25003286  0.38463598  0.92114085  1
  P  P13  1  0.74996692  0.61571546  0.07961510  1
  P  P14  1  0.75000453  0.88443672  0.57867921  1
  P  P15  1  0.24999619  0.11549431  0.42091257  1
  P  P16  1  0.75005261  0.38678015  0.70711864  1
  P  P17  1  0.75001664  0.11217126  0.20773236  1
  P  P18  1  0.24998544  0.88699568  0.79248724  1
  P  P19  1  0.24996034  0.61265858  0.29266843  1
  O  O20  1  0.04621534  0.60750619  0.34124720  1
  O  O21  1  0.54587338  0.39278636  0.65859158  1
  O  O22  1  0.95381563  0.10768618  0.15914943  1
  O  O23  1  0.45411389  0.89243617  0.84106858  1
  O  O24  1  0.95412053  0.39277980  0.65858975  1
  O  O25  1  0.45378408  0.60750327  0.34124136  1
  O  O26  1  0.04592744  0.89244023  0.84105574  1
  O  O27  1  0.54614146  0.10768995  0.15913565  1
  O  O28  1  0.25000346  0.30242764  0.47751075  1
  O  O29  1  0.74999937  0.69687665  0.52259273  1
  O  O30  1  0.74998014  0.80256631  0.02283001  1
  O  O31  1  0.25002360  0.19659532  0.97715156  1
  O  O32  1  0.75000896  0.10976803  0.93964207  1
  O  O33  1  0.24999310  0.89111798  0.06067858  1
  O  O34  1  0.25001096  0.60882138  0.56047806  1
  O  O35  1  0.74998930  0.39213051  0.43932260  1
  O  O36  1  0.75003707  0.19621365  0.76189464  1
  O  O37  1  0.24996839  0.80260855  0.23734841  1
  O  O38  1  0.24999902  0.69708587  0.73758463  1
  O  O39  1  0.75000315  0.30184873  0.26301764  1
  O  O40  1  0.42603440  0.12366399  0.35536026  1
  O  O41  1  0.92645901  0.87719726  0.64408764  1
  O  O42  1  0.57402593  0.62349843  0.14483197  1
  O  O43  1  0.07352891  0.37703017  0.85555421  1
  O  O44  1  0.57359712  0.87716047  0.64409822  1
  O  O45  1  0.07390376  0.12362648  0.35537212  1
  O  O46  1  0.42654462  0.37706493  0.85557041  1
  O  O47  1  0.92589364  0.62353603  0.14484897  1
  O  O48  1  0.75000391  0.44327157  0.02057559  1
  O  O49  1  0.25002260  0.06379796  0.72704622  1
  O  O50  1  0.24995624  0.43597933  0.22729355  1
  O  O51  1  0.75005040  0.56336577  0.77254463  1
  O  O52  1  0.74995452  0.05627784  0.51967319  1
  O  O53  1  0.25004382  0.94319091  0.47959757  1
  O  O54  1  0.25000034  0.55583136  0.97993372  1
  O  O55  1  0.74997834  0.93542600  0.27312135  1
