# generated using pymatgen
data_Sr10Li24NiN15
_symmetry_space_group_name_H-M   'P 1'
_cell_length_a   3.77333469
_cell_length_b   3.91681107
_cell_length_c   52.04448218
_cell_angle_alpha   90.00000000
_cell_angle_beta   87.92251195
_cell_angle_gamma   90.00000000
_symmetry_Int_Tables_number   1
_chemical_formula_structural   Sr10Li24NiN15
_chemical_formula_sum   'Sr10 Li24 Ni1 N15'
_cell_volume   768.68267754
_cell_formula_units_Z   1
loop_
 _symmetry_equiv_pos_site_id
 _symmetry_equiv_pos_as_xyz
  1  'x, y, z'
loop_
 _atom_site_type_symbol
 _atom_site_label
 _atom_site_symmetry_multiplicity
 _atom_site_fract_x
 _atom_site_fract_y
 _atom_site_fract_z
 _atom_site_occupancy
  Sr  Sr0  1  0.98240935  -0.00000000  0.03518131  1
  Sr  Sr1  1  0.38279812  0.00000000  0.23440375  1
  Sr  Sr2  1  0.78278652  0.00000000  0.43442696  1
  Sr  Sr3  1  0.18275142  0.00000000  0.63449717  1
  Sr  Sr4  1  0.58277014  -0.00000000  0.83445972  1
  Sr  Sr5  1  0.41722986  0.00000000  0.16554028  1
  Sr  Sr6  1  0.81724858  0.00000000  0.36550283  1
  Sr  Sr7  1  0.21721348  0.00000000  0.56557304  1
  Sr  Sr8  1  0.61720188  0.00000000  0.76559625  1
  Sr  Sr9  1  0.01759065  0.00000000  0.96481869  1
  Li  Li10  1  0.95559876  0.00000000  0.08880248  1
  Li  Li11  1  0.35569040  0.00000000  0.28861920  1
  Li  Li12  1  0.75569658  0.00000000  0.48860684  1
  Li  Li13  1  0.15567773  0.00000000  0.68864455  1
  Li  Li14  1  0.55569259  0.00000000  0.88861483  1
  Li  Li15  1  0.44430741  0.00000000  0.11138517  1
  Li  Li16  1  0.84432227  0.00000000  0.31135545  1
  Li  Li17  1  0.24430342  -0.00000000  0.51139316  1
  Li  Li18  1  0.64430960  0.00000000  0.71138080  1
  Li  Li19  1  0.04440124  0.00000000  0.91119752  1
  Li  Li20  1  0.46397917  0.50000000  0.07204165  1
  Li  Li21  1  0.86391166  0.50000000  0.27217668  1
  Li  Li22  1  0.26391607  0.50000000  0.47216786  1
  Li  Li23  1  0.66390200  0.50000000  0.67219601  1
  Li  Li24  1  0.06389443  0.50000000  0.87221114  1
  Li  Li25  1  0.93610557  0.50000000  0.12778886  1
  Li  Li26  1  0.33609800  0.50000000  0.32780399  1
  Li  Li27  1  0.73608393  0.50000000  0.52783214  1
  Li  Li28  1  0.13608834  0.50000000  0.72782332  1
  Li  Li29  1  0.53602083  0.50000000  0.92795835  1
  Li  Li30  1  0.89999776  0.50000000  0.20000448  1
  Li  Li31  1  0.30000735  0.50000000  0.39998530  1
  Li  Li32  1  0.69999265  0.50000000  0.60001470  1
  Li  Li33  1  0.10000224  0.50000000  0.79999552  1
  Ni  Ni34  1  0.50000000  0.50000000  -0.00000000  1
  N  N35  1  0.93508478  0.00000000  0.12983044  1
  N  N36  1  0.33509797  0.00000000  0.32980406  1
  N  N37  1  0.73512012  0.00000000  0.52975976  1
  N  N38  1  0.13513217  0.00000000  0.72973565  1
  N  N39  1  0.53526528  0.00000000  0.92946945  1
  N  N40  1  0.46473472  -0.00000000  0.07053055  1
  N  N41  1  0.86486783  0.00000000  0.27026435  1
  N  N42  1  0.26487988  0.00000000  0.47024024  1
  N  N43  1  0.66490203  -0.00000000  0.67019594  1
  N  N44  1  0.06491522  -0.00000000  0.87016956  1
  N  N45  1  0.00000000  0.50000000  -0.00000000  1
  N  N46  1  0.39998865  0.50000000  0.20002271  1
  N  N47  1  0.80000101  0.50000000  0.39999799  1
  N  N48  1  0.19999899  0.50000000  0.60000201  1
  N  N49  1  0.60001135  0.50000000  0.79997729  1
