# generated using pymatgen
data_SmYNi2
_symmetry_space_group_name_H-M   'P 1'
_cell_length_a   3.81262532
_cell_length_b   4.15380886
_cell_length_c   5.53839728
_cell_angle_alpha   90.00000000
_cell_angle_beta   69.86706638
_cell_angle_gamma   90.00000000
_symmetry_Int_Tables_number   1
_chemical_formula_structural   SmYNi2
_chemical_formula_sum   'Sm1 Y1 Ni2'
_cell_volume   82.35168509
_cell_formula_units_Z   1
loop_
 _symmetry_equiv_pos_site_id
 _symmetry_equiv_pos_as_xyz
  1  'x, y, z'
loop_
 _atom_site_type_symbol
 _atom_site_label
 _atom_site_symmetry_multiplicity
 _atom_site_fract_x
 _atom_site_fract_y
 _atom_site_fract_z
 _atom_site_occupancy
  Sm  Sm0  1  0.14141505  0.75000000  0.71716991  1
  Y  Y1  1  0.86039023  0.25000000  0.27921953  1
  Ni  Ni2  1  0.42876523  0.75000000  0.14246954  1
  Ni  Ni3  1  0.56942949  0.25000000  0.86114102  1
