# generated using pymatgen
data_Sr2La2Cr3MoO12
_symmetry_space_group_name_H-M   'P 1'
_cell_length_a   5.61653071
_cell_length_b   5.58043222
_cell_length_c   9.66937096
_cell_angle_alpha   74.33341422
_cell_angle_beta   90.00000007
_cell_angle_gamma   120.21420957
_symmetry_Int_Tables_number   1
_chemical_formula_structural   Sr2La2Cr3MoO12
_chemical_formula_sum   'Sr2 La2 Cr3 Mo1 O12'
_cell_volume   248.77728783
_cell_formula_units_Z   1
loop_
 _symmetry_equiv_pos_site_id
 _symmetry_equiv_pos_as_xyz
  1  'x, y, z'
loop_
 _atom_site_type_symbol
 _atom_site_label
 _atom_site_symmetry_multiplicity
 _atom_site_fract_x
 _atom_site_fract_y
 _atom_site_fract_z
 _atom_site_occupancy
  Sr  Sr0  1  0.62916655  0.25833309  0.61185068  1
  Sr  Sr1  1  0.87083345  0.74166691  0.88814932  1
  La  La2  1  0.12904576  0.25809152  0.13134857  1
  La  La3  1  0.37095424  0.74190848  0.36865143  1
  Cr  Cr4  1  0.75000000  0.50000000  0.25000000  1
  Cr  Cr5  1  0.00062410  0.00124820  0.49742924  1
  Cr  Cr6  1  0.49937590  -0.00124820  0.00257076  1
  Mo  Mo7  1  0.25000000  0.50000000  0.75000000  1
  O  O8  1  0.59300879  0.70436209  0.11147423  1
  O  O9  1  0.11726441  0.72111697  0.60095891  1
  O  O10  1  0.38864670  0.29563791  0.38852577  1
  O  O11  1  0.89614745  0.27888303  0.89904109  1
  O  O12  1  0.90699121  0.29563791  0.38852577  1
  O  O13  1  0.38273559  0.27888303  0.89904109  1
  O  O14  1  0.11135330  0.70436209  0.11147423  1
  O  O15  1  0.60385255  0.72111697  0.60095891  1
  O  O16  1  0.58656310  0.17312621  0.16273648  1
  O  O17  1  0.09803958  0.19607916  0.65856808  1
  O  O18  1  0.91343690  0.82687379  0.33726352  1
  O  O19  1  0.40196042  0.80392084  0.84143192  1
