# generated using pymatgen
data_SnGe4Te4Se
_symmetry_space_group_name_H-M   'P 1'
_cell_length_a   4.22350151
_cell_length_b   4.22278317
_cell_length_c   18.33139962
_cell_angle_alpha   96.61685049
_cell_angle_beta   89.99999997
_cell_angle_gamma   120.00563557
_symmetry_Int_Tables_number   1
_chemical_formula_structural   SnGe4Te4Se
_chemical_formula_sum   'Sn1 Ge4 Te4 Se1'
_cell_volume   280.60398377
_cell_formula_units_Z   1
loop_
 _symmetry_equiv_pos_site_id
 _symmetry_equiv_pos_as_xyz
  1  'x, y, z'
loop_
 _atom_site_type_symbol
 _atom_site_label
 _atom_site_symmetry_multiplicity
 _atom_site_fract_x
 _atom_site_fract_y
 _atom_site_fract_z
 _atom_site_occupancy
  Sn  Sn0  1  0.40755668  0.81511335  0.22162634  1
  Ge  Ge1  1  0.80240542  0.60481084  0.40841460  1
  Ge  Ge2  1  0.20144721  0.40289441  0.60701511  1
  Ge  Ge3  1  0.60121896  0.20243793  0.80618635  1
  Ge  Ge4  1  0.00146350  0.00292699  0.00491809  1
  Te  Te5  1  0.49689924  0.99379848  0.48902773  1
  Te  Te6  1  0.89611866  0.79223733  0.68800010  1
  Te  Te7  1  0.29564610  0.59129220  0.88696021  1
  Te  Te8  1  0.69586819  0.39173638  0.08577126  1
  Se  Se9  1  0.10137604  0.20275208  0.30208020  1
