# generated using pymatgen
data_Si3P3Ir
_symmetry_space_group_name_H-M   'P 1'
_cell_length_a   4.92949342
_cell_length_b   4.94762939
_cell_length_c   5.50811509
_cell_angle_alpha   108.70595603
_cell_angle_beta   107.91075229
_cell_angle_gamma   95.35855520
_symmetry_Int_Tables_number   1
_chemical_formula_structural   Si3P3Ir
_chemical_formula_sum   'Si3 P3 Ir1'
_cell_volume   118.29648572
_cell_formula_units_Z   1
loop_
 _symmetry_equiv_pos_site_id
 _symmetry_equiv_pos_as_xyz
  1  'x, y, z'
loop_
 _atom_site_type_symbol
 _atom_site_label
 _atom_site_symmetry_multiplicity
 _atom_site_fract_x
 _atom_site_fract_y
 _atom_site_fract_z
 _atom_site_occupancy
  Si  Si0  1  0.41332437  0.40198490  0.63892833  1
  Si  Si1  1  0.59420176  0.59046676  0.36403777  1
  Si  Si2  1  0.28930320  0.84325072  0.84245267  1
  P  P3  1  0.15867121  0.70628073  0.15496261  1
  P  P4  1  0.84561121  0.29302946  0.84964172  1
  P  P5  1  0.70701679  0.16044813  0.15001453  1
  Ir  Ir6  1  0.99767145  0.99873930  0.49996238  1
