# generated using pymatgen
data_PrBrCl2
_symmetry_space_group_name_H-M   'P 1'
_cell_length_a   4.34011658
_cell_length_b   7.75884138
_cell_length_c   7.83281304
_cell_angle_alpha   121.02732458
_cell_angle_beta   90.00000000
_cell_angle_gamma   90.00000000
_symmetry_Int_Tables_number   1
_chemical_formula_structural   PrBrCl2
_chemical_formula_sum   'Pr2 Br2 Cl4'
_cell_volume   226.02532859
_cell_formula_units_Z   2
loop_
 _symmetry_equiv_pos_site_id
 _symmetry_equiv_pos_as_xyz
  1  'x, y, z'
loop_
 _atom_site_type_symbol
 _atom_site_label
 _atom_site_symmetry_multiplicity
 _atom_site_fract_x
 _atom_site_fract_y
 _atom_site_fract_z
 _atom_site_occupancy
  Pr  Pr0  1  0.75000000  0.66904712  0.33938067  1
  Pr  Pr1  1  0.25000000  0.32599721  0.66897702  1
  Br  Br2  1  0.75000000  0.28617732  0.37261388  1
  Br  Br3  1  0.75000000  0.62897231  0.91808390  1
  Cl  Cl4  1  0.75000000  0.08868197  0.69776382  1
  Cl  Cl5  1  0.25000000  0.69144317  0.59999881  1
  Cl  Cl6  1  0.25000000  0.39837690  0.08533351  1
  Cl  Cl7  1  0.25000000  0.91130401  0.31784840  1
