# generated using pymatgen
data_RbTi3NbO9
_symmetry_space_group_name_H-M   'P 1'
_cell_length_a   3.85186350
_cell_length_b   6.43783004
_cell_length_c   15.17372075
_cell_angle_alpha   90.00000000
_cell_angle_beta   90.00000000
_cell_angle_gamma   90.00000000
_symmetry_Int_Tables_number   1
_chemical_formula_structural   RbTi3NbO9
_chemical_formula_sum   'Rb2 Ti6 Nb2 O18'
_cell_volume   376.27250332
_cell_formula_units_Z   2
loop_
 _symmetry_equiv_pos_site_id
 _symmetry_equiv_pos_as_xyz
  1  'x, y, z'
loop_
 _atom_site_type_symbol
 _atom_site_label
 _atom_site_symmetry_multiplicity
 _atom_site_fract_x
 _atom_site_fract_y
 _atom_site_fract_z
 _atom_site_occupancy
  Rb  Rb0  1  0.75000000  0.21154704  0.24864545  1
  Rb  Rb1  1  0.25000000  0.78845296  0.74864545  1
  Ti  Ti2  1  0.25000000  0.30301040  0.46503715  1
  Ti  Ti3  1  0.25000000  0.30602958  0.04370200  1
  Ti  Ti4  1  0.75000000  0.69397042  0.54370200  1
  Ti  Ti5  1  0.75000000  0.69698960  0.96503715  1
  Ti  Ti6  1  0.25000000  0.75294537  0.12232488  1
  Ti  Ti7  1  0.75000000  0.24705463  0.62232488  1
  Nb  Nb8  1  0.25000000  0.75368120  0.36867398  1
  Nb  Nb9  1  0.75000000  0.24631880  0.86867398  1
  O  O10  1  0.25000000  0.65341195  0.99140574  1
  O  O11  1  0.25000000  0.65216083  0.51039127  1
  O  O12  1  0.75000000  0.34783917  0.01039127  1
  O  O13  1  0.75000000  0.34658805  0.49140574  1
  O  O14  1  0.25000000  0.05434639  0.41363254  1
  O  O15  1  0.25000000  0.05372504  0.08910344  1
  O  O16  1  0.75000000  0.94627496  0.58910344  1
  O  O17  1  0.75000000  0.94565361  0.91363254  1
  O  O18  1  0.25000000  0.82393654  0.24774787  1
  O  O19  1  0.75000000  0.17606346  0.74774787  1
  O  O20  1  0.25000000  0.45378089  0.35592195  1
  O  O21  1  0.25000000  0.46116167  0.14532524  1
  O  O22  1  0.75000000  0.53883833  0.64532524  1
  O  O23  1  0.75000000  0.54621911  0.85592195  1
  O  O24  1  0.25000000  0.24362182  0.90090467  1
  O  O25  1  0.25000000  0.24714311  0.59718383  1
  O  O26  1  0.75000000  0.75285689  0.09718383  1
  O  O27  1  0.75000000  0.75637818  0.40090467  1
