# generated using pymatgen
data_Rb2CuBrCl3
_symmetry_space_group_name_H-M   'P 1'
_cell_length_a   7.30039576
_cell_length_b   7.30625561
_cell_length_c   8.89256474
_cell_angle_alpha   90.00000000
_cell_angle_beta   65.76516180
_cell_angle_gamma   90.00000000
_symmetry_Int_Tables_number   1
_chemical_formula_structural   Rb2CuBrCl3
_chemical_formula_sum   'Rb4 Cu2 Br2 Cl6'
_cell_volume   432.51538643
_cell_formula_units_Z   2
loop_
 _symmetry_equiv_pos_site_id
 _symmetry_equiv_pos_as_xyz
  1  'x, y, z'
loop_
 _atom_site_type_symbol
 _atom_site_label
 _atom_site_symmetry_multiplicity
 _atom_site_fract_x
 _atom_site_fract_y
 _atom_site_fract_z
 _atom_site_occupancy
  Rb  Rb0  1  0.86348460  0.50000000  0.27303080  1
  Rb  Rb1  1  0.36348460  0.00000000  0.27303080  1
  Rb  Rb2  1  0.13407706  0.50000000  0.73184588  1
  Rb  Rb3  1  0.63407706  0.00000000  0.73184588  1
  Cu  Cu4  1  0.50404369  0.50000000  0.99191262  1
  Cu  Cu5  1  0.00404369  0.00000000  0.99191262  1
  Br  Br6  1  0.34668118  0.50000000  0.30663765  1
  Br  Br7  1  0.84668118  0.00000000  0.30663765  1
  Cl  Cl8  1  0.64928019  0.50000000  0.70143962  1
  Cl  Cl9  1  0.14928019  0.00000000  0.70143962  1
  Cl  Cl10  1  0.28152056  0.71898715  0.99756671  1
  Cl  Cl11  1  0.72091273  0.28101285  0.99756671  1
  Cl  Cl12  1  0.22091273  0.21898715  0.99756671  1
  Cl  Cl13  1  0.78152056  0.78101285  0.99756671  1
