# generated using pymatgen
data_Sc7As3
_symmetry_space_group_name_H-M   'P 1'
_cell_length_a   8.05453220
_cell_length_b   10.98630605
_cell_length_c   10.98630605
_cell_angle_alpha   97.72245907
_cell_angle_beta   111.50432426
_cell_angle_gamma   68.49567574
_symmetry_Int_Tables_number   1
_chemical_formula_structural   Sc7As3
_chemical_formula_sum   'Sc28 As12'
_cell_volume   841.53791318
_cell_formula_units_Z   4
loop_
 _symmetry_equiv_pos_site_id
 _symmetry_equiv_pos_as_xyz
  1  'x, y, z'
loop_
 _atom_site_type_symbol
 _atom_site_label
 _atom_site_symmetry_multiplicity
 _atom_site_fract_x
 _atom_site_fract_y
 _atom_site_fract_z
 _atom_site_occupancy
  Sc  Sc0  1  0.97333447  0.50000000  0.83654656  1
  Sc  Sc1  1  0.63678791  0.50000000  0.16345344  1
  Sc  Sc2  1  0.47333447  0.16345344  0.50000000  1
  Sc  Sc3  1  0.13678791  0.83654656  0.50000000  1
  Sc  Sc4  1  0.02959614  0.50000000  0.16412550  1
  Sc  Sc5  1  0.36547064  0.50000000  0.83587450  1
  Sc  Sc6  1  0.52959614  0.83587450  0.50000000  1
  Sc  Sc7  1  0.86547064  0.16412550  0.50000000  1
  Sc  Sc8  1  0.38109583  0.99452760  0.75544673  1
  Sc  Sc9  1  0.62017669  0.00547240  0.24455327  1
  Sc  Sc10  1  0.88109583  0.24455327  0.00547240  1
  Sc  Sc11  1  0.12017669  0.75544673  0.99452760  1
  Sc  Sc12  1  0.62564910  0.75544673  0.00547240  1
  Sc  Sc13  1  0.37562343  0.24455327  0.99452760  1
  Sc  Sc14  1  0.87562343  0.00547240  0.75544673  1
  Sc  Sc15  1  0.12564910  0.99452760  0.24455327  1
  Sc  Sc16  1  0.17396330  0.30832863  0.65207036  1
  Sc  Sc17  1  0.83022157  0.69167137  0.34792964  1
  Sc  Sc18  1  0.67396330  0.34792964  0.69167137  1
  Sc  Sc19  1  0.33022157  0.65207036  0.30832863  1
  Sc  Sc20  1  0.52189294  0.65207036  0.69167137  1
  Sc  Sc21  1  0.48229193  0.34792964  0.30832863  1
  Sc  Sc22  1  0.98229193  0.69167137  0.65207036  1
  Sc  Sc23  1  0.02189294  0.30832863  0.34792964  1
  Sc  Sc24  1  0.25038664  -0.00000000  0.00000000  1
  Sc  Sc25  1  0.75038664  -0.00000000  0.00000000  1
  Sc  Sc26  1  0.25469724  0.50000000  0.50000000  1
  Sc  Sc27  1  0.75469724  0.50000000  0.50000000  1
  As  As28  1  0.05689610  0.19412409  0.80579863  1
  As  As29  1  0.44522156  0.80587591  0.19420137  1
  As  As30  1  0.55689610  0.19420137  0.80587591  1
  As  As31  1  0.94522156  0.80579863  0.19412409  1
  As  As32  1  0.25109747  0.80579863  0.80587591  1
  As  As33  1  0.25102019  0.19420137  0.19412409  1
  As  As34  1  0.75102019  0.80587591  0.80579863  1
  As  As35  1  0.75109747  0.19412409  0.19420137  1
  As  As36  1  0.28062834  0.50000000  0.05897983  1
  As  As37  1  0.72164852  0.50000000  0.94102017  1
  As  As38  1  0.78062834  0.94102017  0.50000000  1
  As  As39  1  0.22164852  0.05897983  0.50000000  1
