# generated using pymatgen
data_Sm4Ni3Ge8
_symmetry_space_group_name_H-M   'P 1'
_cell_length_a   4.14132722
_cell_length_b   4.17853831
_cell_length_c   16.65369245
_cell_angle_alpha   90.00000000
_cell_angle_beta   90.00000000
_cell_angle_gamma   90.00000000
_symmetry_Int_Tables_number   1
_chemical_formula_structural   Sm4Ni3Ge8
_chemical_formula_sum   'Sm4 Ni3 Ge8'
_cell_volume   288.18705920
_cell_formula_units_Z   1
loop_
 _symmetry_equiv_pos_site_id
 _symmetry_equiv_pos_as_xyz
  1  'x, y, z'
loop_
 _atom_site_type_symbol
 _atom_site_label
 _atom_site_symmetry_multiplicity
 _atom_site_fract_x
 _atom_site_fract_y
 _atom_site_fract_z
 _atom_site_occupancy
  Sm  Sm0  1  0.25000000  0.00000000  0.10325977  1
  Sm  Sm1  1  0.25000000  0.50000000  0.60506992  1
  Sm  Sm2  1  0.75000000  0.50000000  0.39200214  1
  Sm  Sm3  1  0.75000000  0.00000000  0.89381518  1
  Ni  Ni4  1  0.25000000  0.50000000  0.81874247  1
  Ni  Ni5  1  0.75000000  0.50000000  0.18524594  1
  Ni  Ni6  1  0.75000000  0.00000000  0.68164882  1
  Ge  Ge7  1  0.25000000  -0.00000000  0.44904851  1
  Ge  Ge8  1  0.25000000  0.50000000  0.95742677  1
  Ge  Ge9  1  0.75000000  0.50000000  0.04524151  1
  Ge  Ge10  1  0.75000000  -0.00000000  0.54224409  1
  Ge  Ge11  1  0.25000000  0.50000000  0.25566786  1
  Ge  Ge12  1  0.25000000  0.00000000  0.74882123  1
  Ge  Ge13  1  0.75000000  0.00000000  0.25428281  1
  Ge  Ge14  1  0.75000000  0.50000000  0.75048299  1
