# generated using pymatgen
data_Sm6Ge3Se14
_symmetry_space_group_name_H-M   'P 1'
_cell_length_a   6.06500069
_cell_length_b   10.60103730
_cell_length_c   10.60101094
_cell_angle_alpha   119.99949836
_cell_angle_beta   90.00025025
_cell_angle_gamma   89.99980375
_symmetry_Int_Tables_number   1
_chemical_formula_structural   Sm6Ge3Se14
_chemical_formula_sum   'Sm6 Ge3 Se14'
_cell_volume   590.28171017
_cell_formula_units_Z   1
loop_
 _symmetry_equiv_pos_site_id
 _symmetry_equiv_pos_as_xyz
  1  'x, y, z'
loop_
 _atom_site_type_symbol
 _atom_site_label
 _atom_site_symmetry_multiplicity
 _atom_site_fract_x
 _atom_site_fract_y
 _atom_site_fract_z
 _atom_site_occupancy
  Sm  Sm0  1  0.24686801  0.22660846  0.35704526  1
  Sm  Sm1  1  0.24686400  0.64296930  0.86957143  1
  Sm  Sm2  1  0.24686588  0.13043639  0.77338772  1
  Sm  Sm3  1  0.74831569  0.77282565  0.64241261  1
  Sm  Sm4  1  0.74831650  0.35757609  0.13040649  1
  Sm  Sm5  1  0.74832028  0.86958424  0.22717474  1
  Ge  Ge6  1  0.82834565  0.33334396  0.66667018  1
  Ge  Ge7  1  0.33009577  0.66665315  0.33332931  1
  Ge  Ge8  1  0.48321104  0.00000004  0.99999967  1
  Se  Se9  1  0.44059869  0.33333554  0.66666948  1
  Se  Se10  1  0.94211808  0.66667091  0.33333506  1
  Se  Se11  1  0.99309170  0.09761969  0.51609232  1
  Se  Se12  1  0.99309904  0.48390951  0.58152312  1
  Se  Se13  1  0.99309955  0.41847363  0.90238209  1
  Se  Se14  1  0.49518604  0.90188263  0.48386983  1
  Se  Se15  1  0.49519192  0.51612824  0.41801790  1
  Se  Se16  1  0.49519095  0.58198051  0.09811388  1
  Se  Se17  1  0.72362700  0.16165849  0.25820853  1
  Se  Se18  1  0.72363029  0.74179775  0.90345929  1
  Se  Se19  1  0.72362754  0.09654258  0.83833156  1
  Se  Se20  1  0.23010931  0.83559270  0.74153297  1
  Se  Se21  1  0.23011363  0.25845931  0.09405323  1
  Se  Se22  1  0.23011345  0.90595124  0.16441335  1
