# generated using pymatgen
data_Rb(Cr5Te8)3
_symmetry_space_group_name_H-M   'P 1'
_cell_length_a   10.41933691
_cell_length_b   11.87557217
_cell_length_c   11.84424706
_cell_angle_alpha   60.04051689
_cell_angle_beta   89.89056591
_cell_angle_gamma   112.42517067
_symmetry_Int_Tables_number   1
_chemical_formula_structural   Rb(Cr5Te8)3
_chemical_formula_sum   'Rb1 Cr15 Te24'
_cell_volume   1139.32773796
_cell_formula_units_Z   1
loop_
 _symmetry_equiv_pos_site_id
 _symmetry_equiv_pos_as_xyz
  1  'x, y, z'
loop_
 _atom_site_type_symbol
 _atom_site_label
 _atom_site_symmetry_multiplicity
 _atom_site_fract_x
 _atom_site_fract_y
 _atom_site_fract_z
 _atom_site_occupancy
  Rb  Rb0  1  0.00000000  0.00000000  -0.00000000  1
  Cr  Cr1  1  0.51288811  0.67940523  0.31579868  1
  Cr  Cr2  1  0.51325027  0.01389067  0.31674219  1
  Cr  Cr3  1  0.51357804  0.34564181  0.31587730  1
  Cr  Cr4  1  0.48642196  0.65435819  0.68412270  1
  Cr  Cr5  1  0.48674973  0.98610933  0.68325781  1
  Cr  Cr6  1  0.48711189  0.32059477  0.68420132  1
  Cr  Cr7  1  0.83267878  0.81381359  0.59260507  1
  Cr  Cr8  1  0.83369016  0.15003073  0.58976780  1
  Cr  Cr9  1  0.83305955  0.48275881  0.59193705  1
  Cr  Cr10  1  0.16694045  0.51724119  0.40806295  1
  Cr  Cr11  1  0.16630984  0.84996927  0.41023220  1
  Cr  Cr12  1  0.16732122  0.18618641  0.40739493  1
  Cr  Cr13  1  0.50000000  0.00000000  -0.00000000  1
  Cr  Cr14  1  0.50084998  0.33375278  0.00044561  1
  Cr  Cr15  1  0.49915002  0.66624722  0.99955439  1
  Te  Te16  1  0.66349948  0.62768124  0.85316772  1
  Te  Te17  1  0.66315849  0.96052249  0.85363696  1
  Te  Te18  1  0.66388384  0.29502018  0.85341320  1
  Te  Te19  1  0.33611616  0.70497982  0.14658680  1
  Te  Te20  1  0.33684151  0.03947751  0.14636304  1
  Te  Te21  1  0.33650052  0.37231876  0.14683228  1
  Te  Te22  1  0.65833261  0.62617315  0.51984890  1
  Te  Te23  1  0.65758083  0.95968947  0.51991223  1
  Te  Te24  1  0.65834654  0.29303048  0.51962392  1
  Te  Te25  1  0.34165346  0.70696952  0.48037608  1
  Te  Te26  1  0.34241917  0.04031053  0.48008777  1
  Te  Te27  1  0.34166739  0.37382685  0.48015110  1
  Te  Te28  1  0.00543272  0.66286638  0.34271382  1
  Te  Te29  1  0.00521315  0.99685036  0.34317578  1
  Te  Te30  1  0.00523339  0.33053255  0.34149573  1
  Te  Te31  1  0.99476661  0.66946745  0.65850427  1
  Te  Te32  1  0.99478685  0.00314964  0.65682422  1
  Te  Te33  1  0.99456728  0.33713362  0.65728618  1
  Te  Te34  1  0.66938076  0.96812417  0.17803159  1
  Te  Te35  1  0.67136158  0.30178525  0.17737834  1
  Te  Te36  1  0.66950034  0.63323952  0.17766052  1
  Te  Te37  1  0.33049966  0.36676048  0.82233948  1
  Te  Te38  1  0.32863842  0.69821475  0.82262166  1
  Te  Te39  1  0.33061924  0.03187583  0.82196841  1
