# generated using pymatgen
data_Rb3Br2Cl
_symmetry_space_group_name_H-M   'P 1'
_cell_length_a   4.89173535
_cell_length_b   10.93482144
_cell_length_c   4.89173535
_cell_angle_alpha   77.07490884
_cell_angle_beta   90.00000000
_cell_angle_gamma   77.07490884
_symmetry_Int_Tables_number   1
_chemical_formula_structural   Rb3Br2Cl
_chemical_formula_sum   'Rb3 Br2 Cl1'
_cell_volume   248.22396684
_cell_formula_units_Z   1
loop_
 _symmetry_equiv_pos_site_id
 _symmetry_equiv_pos_as_xyz
  1  'x, y, z'
loop_
 _atom_site_type_symbol
 _atom_site_label
 _atom_site_symmetry_multiplicity
 _atom_site_fract_x
 _atom_site_fract_y
 _atom_site_fract_z
 _atom_site_occupancy
  Rb  Rb0  1  0.99808713  0.00382575  0.99808713  1
  Rb  Rb1  1  0.33333300  0.33333300  0.33333300  1
  Rb  Rb2  1  0.66857987  0.66284125  0.66857987  1
  Br  Br3  1  0.16664991  0.66670118  0.16664991  1
  Br  Br4  1  0.50001709  0.99996582  0.50001709  1
  Cl  Cl5  1  0.83333300  0.33333300  0.83333300  1
