# generated using pymatgen
data_Nd2Sn4Pd
_symmetry_space_group_name_H-M   'P 1'
_cell_length_a   4.53939399
_cell_length_b   4.49713905
_cell_length_c   9.40678338
_cell_angle_alpha   76.17028600
_cell_angle_beta   90.00000000
_cell_angle_gamma   90.00000000
_symmetry_Int_Tables_number   1
_chemical_formula_structural   Nd2Sn4Pd
_chemical_formula_sum   'Nd2 Sn4 Pd1'
_cell_volume   186.46582148
_cell_formula_units_Z   1
loop_
 _symmetry_equiv_pos_site_id
 _symmetry_equiv_pos_as_xyz
  1  'x, y, z'
loop_
 _atom_site_type_symbol
 _atom_site_label
 _atom_site_symmetry_multiplicity
 _atom_site_fract_x
 _atom_site_fract_y
 _atom_site_fract_z
 _atom_site_occupancy
  Nd  Nd0  1  0.25000000  0.89521237  0.20957526  1
  Nd  Nd1  1  0.75000000  0.10373468  0.79253064  1
  Sn  Sn2  1  0.25000000  0.54023267  0.91953466  1
  Sn  Sn3  1  0.75000000  0.43900564  0.12198871  1
  Sn  Sn4  1  0.25000000  0.26296239  0.47407523  1
  Sn  Sn5  1  0.75000000  0.76123206  0.47753587  1
  Pd  Pd6  1  0.25000000  0.68262019  0.63475962  1
