# generated using pymatgen
data_NaCeTi2O6
_symmetry_space_group_name_H-M   'P 1'
_cell_length_a   5.48755924
_cell_length_b   5.48755924
_cell_length_c   5.45861476
_cell_angle_alpha   59.82444226
_cell_angle_beta   59.82444226
_cell_angle_gamma   60.00001250
_symmetry_Int_Tables_number   1
_chemical_formula_structural   NaCeTi2O6
_chemical_formula_sum   'Na1 Ce1 Ti2 O6'
_cell_volume   115.92267577
_cell_formula_units_Z   1
loop_
 _symmetry_equiv_pos_site_id
 _symmetry_equiv_pos_as_xyz
  1  'x, y, z'
loop_
 _atom_site_type_symbol
 _atom_site_label
 _atom_site_symmetry_multiplicity
 _atom_site_fract_x
 _atom_site_fract_y
 _atom_site_fract_z
 _atom_site_occupancy
  Na  Na0  1  0.75000000  0.75000000  0.75000000  1
  Ce  Ce1  1  0.25000000  0.25000000  0.25000000  1
  Ti  Ti2  1  0.49835135  0.49835135  0.50494594  1
  Ti  Ti3  1  0.00164865  0.00164865  0.99505406  1
  O  O4  1  0.18610317  0.31389683  0.75000000  1
  O  O5  1  0.31389683  0.75000000  0.75000000  1
  O  O6  1  0.75000000  0.18610317  0.75000000  1
  O  O7  1  0.67387209  0.25000000  0.25000000  1
  O  O8  1  0.25000000  0.82612791  0.25000000  1
  O  O9  1  0.82612791  0.67387209  0.25000000  1
