# generated using pymatgen
data_NbSb3O8
_symmetry_space_group_name_H-M   'P 1'
_cell_length_a   4.96829483
_cell_length_b   5.58615333
_cell_length_c   11.93911606
_cell_angle_alpha   90.00000000
_cell_angle_beta   89.69400356
_cell_angle_gamma   90.00000000
_symmetry_Int_Tables_number   1
_chemical_formula_structural   NbSb3O8
_chemical_formula_sum   'Nb2 Sb6 O16'
_cell_volume   331.34940330
_cell_formula_units_Z   2
loop_
 _symmetry_equiv_pos_site_id
 _symmetry_equiv_pos_as_xyz
  1  'x, y, z'
loop_
 _atom_site_type_symbol
 _atom_site_label
 _atom_site_symmetry_multiplicity
 _atom_site_fract_x
 _atom_site_fract_y
 _atom_site_fract_z
 _atom_site_occupancy
  Nb  Nb0  1  0.49832726  0.62840548  0.57453558  1
  Nb  Nb1  1  0.99832726  0.87159452  0.07453558  1
  Sb  Sb2  1  0.49279828  0.37058460  0.06922353  1
  Sb  Sb3  1  0.99279828  0.12941540  0.56922353  1
  Sb  Sb4  1  0.54771913  0.02431594  0.82073546  1
  Sb  Sb5  1  0.45775319  0.96726252  0.32338147  1
  Sb  Sb6  1  0.04771913  0.47568406  0.32073546  1
  Sb  Sb7  1  0.95775319  0.53273748  0.82338147  1
  O  O8  1  0.66719420  0.34769677  0.91125370  1
  O  O9  1  0.33292165  0.65310597  0.41254104  1
  O  O10  1  0.16719420  0.15230323  0.41125370  1
  O  O11  1  0.83292165  0.84689403  0.91254104  1
  O  O12  1  0.34146356  0.31802308  0.22496776  1
  O  O13  1  0.66050468  0.68191289  0.72392256  1
  O  O14  1  0.84146356  0.18197692  0.72496776  1
  O  O15  1  0.16050468  0.81808711  0.22392256  1
  O  O16  1  0.78451090  0.14304796  0.11847781  1
  O  O17  1  0.21327478  0.85992455  0.62293644  1
  O  O18  1  0.28451090  0.35695204  0.61847781  1
  O  O19  1  0.71327478  0.64007545  0.12293644  1
  O  O20  1  0.29624604  0.07972429  0.01413698  1
  O  O21  1  0.70728634  0.91934653  0.50988767  1
  O  O22  1  0.79624604  0.42027571  0.51413698  1
  O  O23  1  0.20728634  0.58065347  0.00988767  1
