# generated using pymatgen
data_Sc11Ga9
_symmetry_space_group_name_H-M   'P 1'
_cell_length_a   10.32815647
_cell_length_b   10.32815647
_cell_length_c   10.34930564
_cell_angle_alpha   62.49825241
_cell_angle_beta   62.49825241
_cell_angle_gamma   94.27579709
_symmetry_Int_Tables_number   1
_chemical_formula_structural   Sc11Ga9
_chemical_formula_sum   'Sc22 Ga18'
_cell_volume   808.36672800
_cell_formula_units_Z   2
loop_
 _symmetry_equiv_pos_site_id
 _symmetry_equiv_pos_as_xyz
  1  'x, y, z'
loop_
 _atom_site_type_symbol
 _atom_site_label
 _atom_site_symmetry_multiplicity
 _atom_site_fract_x
 _atom_site_fract_y
 _atom_site_fract_z
 _atom_site_occupancy
  Sc  Sc0  1  0.66677347  0.66677347  0.66645305  1
  Sc  Sc1  1  0.33921153  0.33921153  0.32157694  1
  Sc  Sc2  1  0.82631079  0.17214889  0.00154032  1
  Sc  Sc3  1  0.17214889  0.82631079  0.00154032  1
  Sc  Sc4  1  0.18112003  0.18112003  0.99384823  1
  Sc  Sc5  1  0.82503173  0.82503173  0.99384823  1
  Sc  Sc6  1  0.57726326  0.80193487  0.35590480  1
  Sc  Sc7  1  0.06683194  0.84216034  0.35590480  1
  Sc  Sc8  1  0.84216034  0.06683194  0.35590480  1
  Sc  Sc9  1  0.80193487  0.57726326  0.35590480  1
  Sc  Sc10  1  0.42852718  0.20412785  0.62954935  1
  Sc  Sc11  1  0.94192348  0.16632280  0.62954935  1
  Sc  Sc12  1  0.16632280  0.94192348  0.62954935  1
  Sc  Sc13  1  0.20412785  0.42852718  0.62954935  1
  Sc  Sc14  1  0.30438190  0.65637510  0.76127257  1
  Sc  Sc15  1  0.93434553  0.58235233  0.76127257  1
  Sc  Sc16  1  0.58235233  0.93434553  0.76127257  1
  Sc  Sc17  1  0.65637510  0.30438190  0.76127257  1
  Sc  Sc18  1  0.70685016  0.35786162  0.21966157  1
  Sc  Sc19  1  0.07348827  0.42247682  0.21966157  1
  Sc  Sc20  1  0.42247682  0.07348827  0.21966157  1
  Sc  Sc21  1  0.35786162  0.70685016  0.21966157  1
  Ga  Ga22  1  0.62807192  0.37989851  0.99202957  1
  Ga  Ga23  1  0.37989851  0.62807192  0.99202957  1
  Ga  Ga24  1  0.38116220  0.38116220  0.99379350  1
  Ga  Ga25  1  0.62504430  0.62504430  0.99379350  1
  Ga  Ga26  1  0.01433880  0.38189876  0.99030106  1
  Ga  Ga27  1  0.99536014  0.62780018  0.99030106  1
  Ga  Ga28  1  0.38189876  0.01433880  0.99030106  1
  Ga  Ga29  1  0.62780018  0.99536014  0.99030106  1
  Ga  Ga30  1  0.90311597  0.90311597  0.19376806  1
  Ga  Ga31  1  0.10157640  0.10157640  0.79684719  1
  Ga  Ga32  1  0.25368318  0.75368318  0.49263363  1
  Ga  Ga33  1  0.75368318  0.25368318  0.49263363  1
  Ga  Ga34  1  0.87126303  0.87126303  0.66005312  1
  Ga  Ga35  1  0.46868385  0.46868385  0.66005312  1
  Ga  Ga36  1  0.50820312  0.01104271  0.48075417  1
  Ga  Ga37  1  0.01104271  0.50820312  0.48075417  1
  Ga  Ga38  1  0.13419375  0.13419375  0.33064614  1
  Ga  Ga39  1  0.53516011  0.53516011  0.33064614  1
