# generated using pymatgen
data_Nb3(CuSe3)2
_symmetry_space_group_name_H-M   'P 1'
_cell_length_a   3.53775067
_cell_length_b   9.34168876
_cell_length_c   13.87880517
_cell_angle_alpha   90.00000000
_cell_angle_beta   90.00000000
_cell_angle_gamma   79.21833433
_symmetry_Int_Tables_number   1
_chemical_formula_structural   Nb3(CuSe3)2
_chemical_formula_sum   'Nb6 Cu4 Se12'
_cell_volume   450.57769570
_cell_formula_units_Z   2
loop_
 _symmetry_equiv_pos_site_id
 _symmetry_equiv_pos_as_xyz
  1  'x, y, z'
loop_
 _atom_site_type_symbol
 _atom_site_label
 _atom_site_symmetry_multiplicity
 _atom_site_fract_x
 _atom_site_fract_y
 _atom_site_fract_z
 _atom_site_occupancy
  Nb  Nb0  1  0.44457713  0.10992377  0.24924228  1
  Nb  Nb1  1  0.77494872  0.44816358  0.25016050  1
  Nb  Nb2  1  0.11029704  0.77764891  0.25048283  1
  Nb  Nb3  1  0.88875587  0.22340923  0.74924228  1
  Nb  Nb4  1  0.22303696  0.55568509  0.75048283  1
  Nb  Nb5  1  0.55838428  0.88516942  0.75016050  1
  Cu  Cu6  1  0.44529483  0.10881930  0.03960608  1
  Cu  Cu7  1  0.22111392  0.55824173  0.96038265  1
  Cu  Cu8  1  0.88803817  0.22451370  0.53960608  1
  Cu  Cu9  1  0.11222008  0.77509227  0.46038265  1
  Se  Se10  1  0.44788637  0.10318079  0.62953602  1
  Se  Se11  1  0.77330952  0.45232982  0.62873648  1
  Se  Se12  1  0.11122535  0.77702495  0.63037800  1
  Se  Se13  1  0.88908468  0.22309048  0.36875227  1
  Se  Se14  1  0.22619545  0.54866412  0.37131601  1
  Se  Se15  1  0.55213785  0.89676267  0.37140687  1
  Se  Se16  1  0.88544663  0.23015221  0.12953602  1
  Se  Se17  1  0.22210865  0.55630905  0.13037800  1
  Se  Se18  1  0.56002348  0.88100318  0.12873648  1
  Se  Se19  1  0.44424832  0.11024252  0.86875227  1
  Se  Se20  1  0.78119515  0.43657033  0.87140687  1
  Se  Se21  1  0.10713855  0.78466988  0.87131601  1
