# generated using pymatgen
data_Nd6Al3Fe11
_symmetry_space_group_name_H-M   'P 1'
_cell_length_a   8.11205283
_cell_length_b   8.11205283
_cell_length_c   12.93025329
_cell_angle_alpha   71.71855370
_cell_angle_beta   71.71855370
_cell_angle_gamma   90.00000000
_symmetry_Int_Tables_number   1
_chemical_formula_structural   Nd6Al3Fe11
_chemical_formula_sum   'Nd12 Al6 Fe22'
_cell_volume   762.57287914
_cell_formula_units_Z   2
loop_
 _symmetry_equiv_pos_site_id
 _symmetry_equiv_pos_as_xyz
  1  'x, y, z'
loop_
 _atom_site_type_symbol
 _atom_site_label
 _atom_site_symmetry_multiplicity
 _atom_site_fract_x
 _atom_site_fract_y
 _atom_site_fract_z
 _atom_site_occupancy
  Nd  Nd0  1  0.97822175  0.14881513  0.37296312  1
  Nd  Nd1  1  0.64881513  0.47822175  0.37296312  1
  Nd  Nd2  1  0.14881513  0.64881513  0.37296312  1
  Nd  Nd3  1  0.47822175  0.97822175  0.37296312  1
  Nd  Nd4  1  0.02413594  0.85869638  0.61716768  1
  Nd  Nd5  1  0.35869638  0.52413594  0.61716768  1
  Nd  Nd6  1  0.85869638  0.35869638  0.61716768  1
  Nd  Nd7  1  0.52413594  0.02413594  0.61716768  1
  Nd  Nd8  1  0.89341415  0.89341415  0.21317171  1
  Nd  Nd9  1  0.39341415  0.39341415  0.21317171  1
  Nd  Nd10  1  0.10708705  0.10708705  0.78582590  1
  Nd  Nd11  1  0.60708705  0.60708705  0.78582590  1
  Al  Al12  1  0.74992979  0.74992979  0.50014042  1
  Al  Al13  1  0.24992979  0.24992979  0.50014042  1
  Al  Al14  1  0.71324050  0.97520390  0.81155561  1
  Al  Al15  1  0.47520390  0.21324050  0.81155561  1
  Al  Al16  1  0.97520390  0.47520390  0.81155561  1
  Al  Al17  1  0.21324050  0.71324050  0.81155561  1
  Fe  Fe18  1  0.11968065  0.26129899  0.11902036  1
  Fe  Fe19  1  0.76129899  0.61968065  0.11902036  1
  Fe  Fe20  1  0.26129899  0.76129899  0.11902036  1
  Fe  Fe21  1  0.61968065  0.11968065  0.11902036  1
  Fe  Fe22  1  0.88115239  0.73282386  0.88602375  1
  Fe  Fe23  1  0.23282386  0.38115239  0.88602375  1
  Fe  Fe24  1  0.73282386  0.23282386  0.88602375  1
  Fe  Fe25  1  0.38115239  0.88115239  0.88602375  1
  Fe  Fe26  1  0.06740006  0.78962672  0.00132685  1
  Fe  Fe27  1  0.93127308  0.20904643  0.00132685  1
  Fe  Fe28  1  0.43127308  0.28962672  0.00132685  1
  Fe  Fe29  1  0.56740006  0.70904643  0.00132685  1
  Fe  Fe30  1  0.78962672  0.93127308  0.00132685  1
  Fe  Fe31  1  0.20904643  0.06740006  0.00132685  1
  Fe  Fe32  1  0.28962672  0.56740006  0.00132685  1
  Fe  Fe33  1  0.70904643  0.43127308  0.00132685  1
  Fe  Fe34  1  0.99869172  0.49869172  0.00261655  1
  Fe  Fe35  1  0.49869172  0.99869172  0.00261655  1
  Fe  Fe36  1  0.29099381  0.01926770  0.18973849  1
  Fe  Fe37  1  0.51926770  0.79099381  0.18973849  1
  Fe  Fe38  1  0.01926770  0.51926770  0.18973849  1
  Fe  Fe39  1  0.79099381  0.29099381  0.18973849  1
