# generated using pymatgen
data_NbVNi
_symmetry_space_group_name_H-M   'P 1'
_cell_length_a   4.89962574
_cell_length_b   4.90040544
_cell_length_c   8.09226327
_cell_angle_alpha   90.00000000
_cell_angle_beta   90.00000000
_cell_angle_gamma   59.98494640
_symmetry_Int_Tables_number   1
_chemical_formula_structural   NbVNi
_chemical_formula_sum   'Nb4 V4 Ni4'
_cell_volume   168.24015423
_cell_formula_units_Z   4
loop_
 _symmetry_equiv_pos_site_id
 _symmetry_equiv_pos_as_xyz
  1  'x, y, z'
loop_
 _atom_site_type_symbol
 _atom_site_label
 _atom_site_symmetry_multiplicity
 _atom_site_fract_x
 _atom_site_fract_y
 _atom_site_fract_z
 _atom_site_occupancy
  Nb  Nb0  1  0.32414111  0.32416492  0.56648254  1
  Nb  Nb1  1  0.65963061  0.65956492  0.44541220  1
  Nb  Nb2  1  0.65963061  0.65956492  0.05458780  1
  Nb  Nb3  1  0.32414111  0.32416492  0.93351746  1
  V  V4  1  0.84210477  0.84209576  0.75000000  1
  V  V5  1  0.16870482  0.66161101  0.25000000  1
  V  V6  1  0.66154687  0.16869900  0.25000000  1
  V  V7  1  0.17311982  0.17305716  0.25000000  1
  Ni  Ni8  1  0.00055735  0.00057961  0.50493372  1
  Ni  Ni9  1  0.00055735  0.00057961  0.99506628  1
  Ni  Ni10  1  0.83753785  0.34825699  0.75000000  1
  Ni  Ni11  1  0.34832774  0.83766120  0.75000000  1
