# generated using pymatgen
data_Na3Nb7P4O29
_symmetry_space_group_name_H-M   'P 1'
_cell_length_a   5.45891183
_cell_length_b   13.48888448
_cell_length_c   16.90944240
_cell_angle_alpha   97.59196243
_cell_angle_beta   80.71089983
_cell_angle_gamma   90.00000000
_symmetry_Int_Tables_number   1
_chemical_formula_structural   Na3Nb7P4O29
_chemical_formula_sum   'Na6 Nb14 P8 O58'
_cell_volume   1217.73162957
_cell_formula_units_Z   2
loop_
 _symmetry_equiv_pos_site_id
 _symmetry_equiv_pos_as_xyz
  1  'x, y, z'
loop_
 _atom_site_type_symbol
 _atom_site_label
 _atom_site_symmetry_multiplicity
 _atom_site_fract_x
 _atom_site_fract_y
 _atom_site_fract_z
 _atom_site_occupancy
  Na  Na0  1  0.35826587  0.86192372  0.26465282  1
  Na  Na1  1  0.62291869  0.63807628  0.73534718  1
  Na  Na2  1  0.64104631  0.13444151  0.73530311  1
  Na  Na3  1  0.37634942  0.36555849  0.26469689  1
  Na  Na4  1  0.08635027  0.40109801  0.80565297  1
  Na  Na5  1  0.89200324  0.09890199  0.19434703  1
  Nb  Nb6  1  0.18160003  0.52461003  0.63566666  1
  Nb  Nb7  1  0.81726669  0.97538997  0.36433334  1
  Nb  Nb8  1  0.81661015  0.47960968  0.36141060  1
  Nb  Nb9  1  0.17802075  0.02039032  0.63858940  1
  Nb  Nb10  1  0.29040487  0.82121540  0.45500645  1
  Nb  Nb11  1  0.74541132  0.67878460  0.54499355  1
  Nb  Nb12  1  0.70201240  0.17787365  0.54606406  1
  Nb  Nb13  1  0.24807646  0.32212635  0.45393594  1
  Nb  Nb14  1  0.45125116  0.68023382  0.09455100  1
  Nb  Nb15  1  0.54580216  0.81976618  0.90544900  1
  Nb  Nb16  1  0.54065880  0.32324917  0.90922175  1
  Nb  Nb17  1  0.44988055  0.17675083  0.09077825  1
  Nb  Nb18  1  0.99668598  0.50364146  0.00479480  1
  Nb  Nb19  1  0.00148078  0.99635854  0.99520520  1
  P  P20  1  0.36586900  0.62013718  0.29651971  1
  P  P21  1  0.66238872  0.87986282  0.70348029  1
  P  P22  1  0.63373312  0.37917194  0.70302495  1
  P  P23  1  0.33675807  0.12082806  0.29697505  1
  P  P24  1  0.07658561  0.65275305  0.84360089  1
  P  P25  1  0.92018650  0.84724695  0.15639911  1
  P  P26  1  0.92352219  0.34645535  0.15735089  1
  P  P27  1  0.08087307  0.15354465  0.84264911  1
  O  O28  1  0.41832416  0.63831434  0.20567225  1
  O  O29  1  0.62399641  0.86168566  0.79432775  1
  O  O30  1  0.58085878  0.36237520  0.79402576  1
  O  O31  1  0.37488455  0.13762480  0.20597424  1
  O  O32  1  0.47383990  0.58623026  0.60490889  1
  O  O33  1  0.07874878  0.91376974  0.39509111  1
  O  O34  1  0.53312289  0.41395064  0.39502667  1
  O  O35  1  0.92814956  0.08604936  0.60497333  1
  O  O36  1  0.16283220  0.59340700  0.75885678  1
  O  O37  1  0.92168898  0.90659300  0.24114322  1
  O  O38  1  0.83634908  0.40470548  0.24195672  1
  O  O39  1  0.07830580  0.09529452  0.75804328  1
  O  O40  1  0.27098314  0.72118958  0.34682710  1
  O  O41  1  0.61781024  0.77881042  0.65317290  1
  O  O42  1  0.73268706  0.27904075  0.65303116  1
  O  O43  1  0.38571822  0.22095925  0.34696884  1
  O  O44  1  0.16738402  0.42946236  0.54224309  1
  O  O45  1  0.70962711  0.07053764  0.45775691  1
  O  O46  1  0.83257714  0.57193239  0.45873722  1
  O  O47  1  0.29131437  0.92806761  0.54126278  1
  O  O48  1  0.13058424  0.76752071  0.14227875  1
  O  O49  1  0.27286300  0.73247929  0.85772125  1
  O  O50  1  0.87539082  0.23521418  0.85572125  1
  O  O51  1  0.73111208  0.26478582  0.14427875  1
  O  O52  1  0.96213715  0.62312784  0.61435658  1
  O  O53  1  0.57649373  0.87687216  0.38564342  1
  O  O54  1  0.03837940  0.37779668  0.38623794  1
  O  O55  1  0.42461735  0.12220332  0.61376206  1
  O  O56  1  0.66304768  0.80242861  0.15082865  1
  O  O57  1  0.81387633  0.69757139  0.84917135  1
  O  O58  1  0.33883617  0.19723636  0.84822089  1
  O  O59  1  0.18705706  0.30276364  0.15177911  1
  O  O60  1  0.75930320  0.60589839  0.05723525  1
  O  O61  1  0.81653845  0.89410161  0.94276475  1
  O  O62  1  0.23682671  0.39400733  0.93898253  1
  O  O63  1  0.17580924  0.10599267  0.06101747  1
  O  O64  1  0.26473595  0.57284370  0.05193379  1
  O  O65  1  0.31666974  0.92715630  0.94806621  1
  O  O66  1  0.74502543  0.42586396  0.94513040  1
  O  O67  1  0.69015582  0.07413604  0.05486960  1
  O  O68  1  0.83119637  0.46064005  0.69779242  1
  O  O69  1  0.52898879  0.03935995  0.30220758  1
  O  O70  1  0.17268159  0.53806294  0.30433935  1
  O  O71  1  0.47702094  0.96193706  0.69566065  1
  O  O72  1  0.38125496  0.41141565  0.68302488  1
  O  O73  1  0.06427984  0.08858435  0.31697512  1
  O  O74  1  0.61418495  0.58761179  0.31927841  1
  O  O75  1  0.93346336  0.91238821  0.68072159  1
  O  O76  1  0.46517162  0.72598161  0.49660436  1
  O  O77  1  0.96177598  0.77401839  0.50339564  1
  O  O78  1  0.53444130  0.27302256  0.50368743  1
  O  O79  1  0.03812874  0.22697744  0.49631257  1
  O  O80  1  0.07445402  0.57641786  0.90526357  1
  O  O81  1  0.97971759  0.92358214  0.09473643  1
  O  O82  1  0.92475900  0.42006098  0.09318067  1
  O  O83  1  0.01793966  0.07993902  0.90681933  1
  O  O84  1  0.48607610  0.75000000  -0.00000000  1
  O  O85  1  0.51579109  0.25000000  -0.00000000  1
