# generated using pymatgen
data_Na3H5(CO4)2
_symmetry_space_group_name_H-M   'P 1'
_cell_length_a   3.66847608
_cell_length_b   10.49069019
_cell_length_c   10.27161171
_cell_angle_alpha   106.42910063
_cell_angle_beta   79.71331658
_cell_angle_gamma   90.00000000
_symmetry_Int_Tables_number   1
_chemical_formula_structural   Na3H5(CO4)2
_chemical_formula_sum   'Na6 H10 C4 O16'
_cell_volume   372.53238747
_cell_formula_units_Z   2
loop_
 _symmetry_equiv_pos_site_id
 _symmetry_equiv_pos_as_xyz
  1  'x, y, z'
loop_
 _atom_site_type_symbol
 _atom_site_label
 _atom_site_symmetry_multiplicity
 _atom_site_fract_x
 _atom_site_fract_y
 _atom_site_fract_z
 _atom_site_occupancy
  Na  Na0  1  0.24961817  0.75000000  -0.00000000  1
  Na  Na1  1  0.74352934  0.25000000  -0.00000000  1
  Na  Na2  1  0.67806454  0.93023567  0.29661553  1
  Na  Na3  1  0.97468008  0.56976433  0.70338447  1
  Na  Na4  1  0.32557963  0.08013154  0.69877699  1
  Na  Na5  1  0.02435662  0.41986846  0.30122301  1
  H  H6  1  0.21852017  0.75909271  0.37750670  1
  H  H7  1  0.59602687  0.74090729  0.62249330  1
  H  H8  1  0.77512118  0.24459655  0.62345486  1
  H  H9  1  0.39857604  0.25540345  0.37654514  1
  H  H10  1  0.00756065  0.86711420  0.51269431  1
  H  H11  1  0.52025497  0.63288580  0.48730569  1
  H  H12  1  0.98592582  0.13654590  0.48571897  1
  H  H13  1  0.47164479  0.36345410  0.51428103  1
  H  H14  1  0.98571763  0.50115458  0.01629227  1
  H  H15  1  0.00200991  0.99884542  0.98370773  1
  C  C16  1  0.63579317  0.60688374  0.18925085  1
  C  C17  1  0.82504402  0.89311626  0.81074915  1
  C  C18  1  0.35425155  0.39599589  0.81857570  1
  C  C19  1  0.17282725  0.10400411  0.18142430  1
  O  O20  1  0.67537934  0.70806268  0.14444958  1
  O  O21  1  0.81982892  0.79193732  0.85555042  1
  O  O22  1  0.32426144  0.29304989  0.86274587  1
  O  O23  1  0.18700731  0.20695011  0.13725413  1
  O  O24  1  0.43046434  0.60513641  0.30436156  1
  O  O25  1  0.73482590  0.89486359  0.69563844  1
  O  O26  1  0.54761199  0.39239005  0.69789611  1
  O  O27  1  0.24550810  0.10760995  0.30210389  1
  O  O28  1  0.11971042  0.85416288  0.41510053  1
  O  O29  1  0.53481094  0.64583712  0.58489947  1
  O  O30  1  0.88204237  0.14985187  0.58415922  1
  O  O31  1  0.46620158  0.35014813  0.41584078  1
  O  O32  1  0.81950684  0.49087854  0.11433313  1
  O  O33  1  0.93383997  0.00912146  0.88566687  1
  O  O34  1  0.18461012  0.51075109  0.89467793  1
  O  O35  1  0.07928805  0.98924891  0.10532207  1
