# generated using pymatgen
data_ZnHCO4
_symmetry_space_group_name_H-M   'P 1'
_cell_length_a   10.83597285
_cell_length_b   10.83597178
_cell_length_c   6.39790730
_cell_angle_alpha   90.00000000
_cell_angle_beta   90.00000000
_cell_angle_gamma   120.00000104
_symmetry_Int_Tables_number   1
_chemical_formula_structural   ZnHCO4
_chemical_formula_sum   'Zn6 H6 C6 O24'
_cell_volume   650.58544630
_cell_formula_units_Z   6
loop_
 _symmetry_equiv_pos_site_id
 _symmetry_equiv_pos_as_xyz
  1  'x, y, z'
loop_
 _atom_site_type_symbol
 _atom_site_label
 _atom_site_symmetry_multiplicity
 _atom_site_fract_x
 _atom_site_fract_y
 _atom_site_fract_z
 _atom_site_occupancy
  Zn  Zn0  1  0.00000000  0.50000000  0.50000000  1
  Zn  Zn1  1  -0.00000000  0.50000000  0.00000000  1
  Zn  Zn2  1  0.50000000  0.50000000  0.50000000  1
  Zn  Zn3  1  0.50000000  0.50000000  -0.00000000  1
  Zn  Zn4  1  0.50000000  -0.00000000  0.50000000  1
  Zn  Zn5  1  0.50000000  0.00000000  0.00000000  1
  H  H6  1  0.18585117  0.63193369  0.75000000  1
  H  H7  1  0.44608352  0.81414883  0.75000000  1
  H  H8  1  0.36806631  0.55391648  0.75000000  1
  H  H9  1  0.63193369  0.44608352  0.25000000  1
  H  H10  1  0.55391648  0.18585117  0.25000000  1
  H  H11  1  0.81414883  0.36806631  0.25000000  1
  C  C12  1  0.20361414  0.76946820  0.25000000  1
  C  C13  1  0.23053180  0.43414595  0.25000000  1
  C  C14  1  0.56585405  0.79638586  0.25000000  1
  C  C15  1  0.43414595  0.20361414  0.75000000  1
  C  C16  1  0.76946820  0.56585405  0.75000000  1
  C  C17  1  0.79638586  0.23053180  0.75000000  1
  O  O18  1  0.14590676  0.71288507  0.42549314  1
  O  O19  1  0.14590676  0.71288507  0.07450686  1
  O  O20  1  0.32307953  0.88725561  0.25000000  1
  O  O21  1  0.11828553  0.52896167  0.75000000  1
  O  O22  1  0.11274439  0.43582292  0.25000000  1
  O  O23  1  0.41067514  0.88171447  0.75000000  1
  O  O24  1  0.28711493  0.43302069  0.42549314  1
  O  O25  1  0.28711493  0.43302069  0.07450686  1
  O  O26  1  0.56697931  0.85409324  0.07450686  1
  O  O27  1  0.56697931  0.85409324  0.42549314  1
  O  O28  1  0.47103833  0.58932486  0.75000000  1
  O  O29  1  0.56417708  0.67692047  0.25000000  1
  O  O30  1  0.43582292  0.32307953  0.75000000  1
  O  O31  1  0.52896167  0.41067514  0.25000000  1
  O  O32  1  0.43302069  0.14590676  0.57450686  1
  O  O33  1  0.43302069  0.14590676  0.92549314  1
  O  O34  1  0.71288507  0.56697931  0.92549314  1
  O  O35  1  0.71288507  0.56697931  0.57450686  1
  O  O36  1  0.58932486  0.11828553  0.25000000  1
  O  O37  1  0.88725561  0.56417708  0.75000000  1
  O  O38  1  0.88171447  0.47103833  0.25000000  1
  O  O39  1  0.67692047  0.11274439  0.75000000  1
  O  O40  1  0.85409324  0.28711493  0.92549314  1
  O  O41  1  0.85409324  0.28711493  0.57450686  1
