# generated using pymatgen
data_Na2BrClO6
_symmetry_space_group_name_H-M   'P 1'
_cell_length_a   6.74904337
_cell_length_b   6.74877681
_cell_length_c   6.74405725
_cell_angle_alpha   90.00000000
_cell_angle_beta   90.00000000
_cell_angle_gamma   88.94269858
_symmetry_Int_Tables_number   1
_chemical_formula_structural   Na2BrClO6
_chemical_formula_sum   'Na4 Br2 Cl2 O12'
_cell_volume   307.12458627
_cell_formula_units_Z   2
loop_
 _symmetry_equiv_pos_site_id
 _symmetry_equiv_pos_as_xyz
  1  'x, y, z'
loop_
 _atom_site_type_symbol
 _atom_site_label
 _atom_site_symmetry_multiplicity
 _atom_site_fract_x
 _atom_site_fract_y
 _atom_site_fract_z
 _atom_site_occupancy
  Na  Na0  1  0.07010508  0.42707847  0.57368801  1
  Na  Na1  1  0.42989492  0.57292153  0.07368801  1
  Na  Na2  1  0.57715882  0.07492738  0.42606256  1
  Na  Na3  1  0.92284118  0.92507262  0.92606256  1
  Br  Br4  1  0.40765495  0.09202761  0.90899075  1
  Br  Br5  1  0.09234505  0.90797239  0.40899075  1
  Cl  Cl6  1  0.91788945  0.41763233  0.08355577  1
  Cl  Cl7  1  0.58211055  0.58236767  0.58355577  1
  O  O8  1  0.28970106  0.89703378  0.00982649  1
  O  O9  1  0.50465931  0.21240731  0.10416787  1
  O  O10  1  0.60354482  0.99178746  0.78772948  1
  O  O11  1  0.21029894  0.10296622  0.50982649  1
  O  O12  1  0.99534069  0.78759269  0.60416787  1
  O  O13  1  0.89645518  0.00821254  0.28772948  1
  O  O14  1  0.80157340  0.59043187  0.99874154  1
  O  O15  1  0.00557561  0.30367764  0.91046734  1
  O  O16  1  0.09015748  0.50235701  0.19677019  1
  O  O17  1  0.69842660  0.40956813  0.49874154  1
  O  O18  1  0.49442439  0.69632236  0.41046734  1
  O  O19  1  0.40984252  0.49764299  0.69677019  1
