# generated using pymatgen
data_Na2MnCdFe(PO4)3
_symmetry_space_group_name_H-M   'P 1'
_cell_length_a   6.64197657
_cell_length_b   8.85624733
_cell_length_c   8.90900883
_cell_angle_alpha   92.35593995
_cell_angle_beta   106.80620772
_cell_angle_gamma   106.20303613
_symmetry_Int_Tables_number   1
_chemical_formula_structural   Na2MnCdFe(PO4)3
_chemical_formula_sum   'Na4 Mn2 Cd2 Fe2 P6 O24'
_cell_volume   477.49771372
_cell_formula_units_Z   2
loop_
 _symmetry_equiv_pos_site_id
 _symmetry_equiv_pos_as_xyz
  1  'x, y, z'
loop_
 _atom_site_type_symbol
 _atom_site_label
 _atom_site_symmetry_multiplicity
 _atom_site_fract_x
 _atom_site_fract_y
 _atom_site_fract_z
 _atom_site_occupancy
  Na  Na0  1  0.75093861  0.02200900  0.97754767  1
  Na  Na1  1  0.24905243  0.97848090  0.02262906  1
  Na  Na2  1  0.74531437  0.73232065  0.26681698  1
  Na  Na3  1  0.50353191  0.50386105  0.49480742  1
  Mn  Mn4  1  0.35742176  0.93147991  0.61987500  1
  Mn  Mn5  1  0.14486170  0.37819839  0.07119047  1
  Cd  Cd6  1  0.25198541  0.26762928  0.73222914  1
  Cd  Cd7  1  0.99371451  0.50707376  0.49509688  1
  Fe  Fe8  1  0.63985352  0.06107106  0.38309249  1
  Fe  Fe9  1  0.86027824  0.61847600  0.93650367  1
  P  P10  1  0.36524081  0.65616698  0.86550667  1
  P  P11  1  0.12771637  0.13431150  0.34554828  1
  P  P12  1  0.63520666  0.34007184  0.13576424  1
  P  P13  1  0.87314483  0.86363801  0.65906211  1
  P  P14  1  0.75278694  0.28539819  0.71787707  1
  P  P15  1  0.24767092  0.72059590  0.27578582  1
  O  O16  1  0.39789436  0.83141751  0.83844415  1
  O  O17  1  0.09897325  0.15961885  0.17049964  1
  O  O18  1  0.62590286  0.16838808  0.18016738  1
  O  O19  1  0.87617783  0.82099990  0.83003803  1
  O  O20  1  0.58801593  0.64406574  0.97693356  1
  O  O21  1  0.90640836  0.01592502  0.35206844  1
  O  O22  1  0.40797766  0.32308424  0.01190121  1
  O  O23  1  0.09776278  0.99222052  0.68136974  1
  O  O24  1  0.54553903  0.17140317  0.74392995  1
  O  O25  1  0.95999570  0.25487776  0.82973953  1
  O  O26  1  0.45373339  0.85066884  0.26137704  1
  O  O27  1  0.03981057  0.73915493  0.14878771  1
  O  O28  1  0.30058799  0.54211562  0.70737335  1
  O  O29  1  0.18063700  0.29066581  0.45709888  1
  O  O30  1  0.68254815  0.45426503  0.28630269  1
  O  O31  1  0.83574966  0.71462215  0.54805158  1
  O  O32  1  0.75969304  0.26192743  0.54319024  1
  O  O33  1  0.74571289  0.45895044  0.74159134  1
  O  O34  1  0.20868010  0.73774555  0.43860778  1
  O  O35  1  0.28735213  0.55917072  0.26045599  1
  O  O36  1  0.17757050  0.60081652  0.94080176  1
  O  O37  1  0.32240121  0.06279997  0.40474295  1
  O  O38  1  0.81880259  0.40481973  0.05708425  1
  O  O39  1  0.68335403  0.93949404  0.59010981  1
