# generated using pymatgen
data_LiIn2CuTe4
_symmetry_space_group_name_H-M   'P 1'
_cell_length_a   6.37857995
_cell_length_b   6.37857995
_cell_length_c   7.80392269
_cell_angle_alpha   65.87819286
_cell_angle_beta   65.87819286
_cell_angle_gamma   90.00000000
_symmetry_Int_Tables_number   1
_chemical_formula_structural   LiIn2CuTe4
_chemical_formula_sum   'Li1 In2 Cu1 Te4'
_cell_volume   259.11145101
_cell_formula_units_Z   1
loop_
 _symmetry_equiv_pos_site_id
 _symmetry_equiv_pos_as_xyz
  1  'x, y, z'
loop_
 _atom_site_type_symbol
 _atom_site_label
 _atom_site_symmetry_multiplicity
 _atom_site_fract_x
 _atom_site_fract_y
 _atom_site_fract_z
 _atom_site_occupancy
  Li  Li0  1  -0.00000000  0.00000000  -0.00000000  1
  In  In1  1  0.25000000  0.75000000  0.50000000  1
  In  In2  1  0.50000000  0.50000000  -0.00000000  1
  Cu  Cu3  1  0.75000000  0.25000000  0.50000000  1
  Te  Te4  1  0.38835623  0.90224640  0.74177236  1
  Te  Te5  1  0.86987140  0.35598123  0.74177236  1
  Te  Te6  1  0.09775360  0.13012860  0.25822764  1
  Te  Te7  1  0.64401877  0.61164377  0.25822764  1
