# generated using pymatgen
data_LiBi3(ClO2)2
_symmetry_space_group_name_H-M   'P 1'
_cell_length_a   5.51405230
_cell_length_b   5.51428611
_cell_length_c   6.76058224
_cell_angle_alpha   90.00000000
_cell_angle_beta   65.93272042
_cell_angle_gamma   90.00000000
_symmetry_Int_Tables_number   1
_chemical_formula_structural   LiBi3(ClO2)2
_chemical_formula_sum   'Li1 Bi3 Cl2 O4'
_cell_volume   187.69254643
_cell_formula_units_Z   1
loop_
 _symmetry_equiv_pos_site_id
 _symmetry_equiv_pos_as_xyz
  1  'x, y, z'
loop_
 _atom_site_type_symbol
 _atom_site_label
 _atom_site_symmetry_multiplicity
 _atom_site_fract_x
 _atom_site_fract_y
 _atom_site_fract_z
 _atom_site_occupancy
  Li  Li0  1  0.69880723  0.50000000  0.60238553  1
  Bi  Bi1  1  0.15295845  0.00000000  0.69408310  1
  Bi  Bi2  1  0.83973440  0.00000000  0.32053120  1
  Bi  Bi3  1  0.34312463  0.50000000  0.31375075  1
  Cl  Cl4  1  0.49325108  0.00000000  0.01349784  1
  Cl  Cl5  1  0.98346868  0.50000000  0.03306263  1
  O  O6  1  0.49377630  0.24763438  0.50567224  1
  O  O7  1  0.00055146  0.75236562  0.50567224  1
  O  O8  1  0.00055146  0.24763438  0.50567224  1
  O  O9  1  0.49377630  0.75236562  0.50567224  1
