# generated using pymatgen
data_Li4B7ClO12
_symmetry_space_group_name_H-M   'P 1'
_cell_length_a   8.66872329
_cell_length_b   8.66872329
_cell_length_c   8.66872329
_cell_angle_alpha   60.61269845
_cell_angle_beta   119.38730155
_cell_angle_gamma   119.38730155
_symmetry_Int_Tables_number   1
_chemical_formula_structural   Li4B7ClO12
_chemical_formula_sum   'Li8 B14 Cl2 O24'
_cell_volume   467.00166187
_cell_formula_units_Z   2
loop_
 _symmetry_equiv_pos_site_id
 _symmetry_equiv_pos_as_xyz
  1  'x, y, z'
loop_
 _atom_site_type_symbol
 _atom_site_label
 _atom_site_symmetry_multiplicity
 _atom_site_fract_x
 _atom_site_fract_y
 _atom_site_fract_z
 _atom_site_occupancy
  Li  Li0  1  0.50719724  0.01819668  0.49269556  1
  Li  Li1  1  0.98180332  0.49269556  0.49280276  1
  Li  Li2  1  0.50730444  0.49280276  0.01819668  1
  Li  Li3  1  0.48180332  0.99280276  0.99269556  1
  Li  Li4  1  0.00719724  0.99269556  0.51819668  1
  Li  Li5  1  0.00730444  0.51819668  0.99280276  1
  Li  Li6  1  0.36808090  0.63191910  0.63191910  1
  Li  Li7  1  0.86808090  0.13191910  0.13191910  1
  B  B8  1  0.59992414  0.40007586  0.40007586  1
  B  B9  1  0.60332711  0.80393444  0.39989756  1
  B  B10  1  0.60010244  0.39667289  0.80393444  1
  B  B11  1  0.19606556  0.39989756  0.39667289  1
  B  B12  1  0.10332711  0.89989756  0.30393444  1
  B  B13  1  0.10010244  0.30393444  0.89667289  1
  B  B14  1  0.09992414  0.90007586  0.90007586  1
  B  B15  1  0.69606556  0.89667289  0.89989756  1
  B  B16  1  0.74770785  0.74876623  0.24770870  1
  B  B17  1  0.25123377  0.24770870  0.25229215  1
  B  B18  1  0.75229130  0.25229215  0.74876623  1
  B  B19  1  0.75123377  0.75229215  0.74770870  1
  B  B20  1  0.24770785  0.74770870  0.24876623  1
  B  B21  1  0.25229130  0.24876623  0.75229215  1
  Cl  Cl22  1  0.75678974  0.24321026  0.24321026  1
  Cl  Cl23  1  0.25678974  0.74321026  0.74321026  1
  O  O24  1  0.61280952  0.24792252  0.56278573  1
  O  O25  1  0.75207748  0.56278573  0.38719048  1
  O  O26  1  0.43721427  0.38719048  0.24792252  1
  O  O27  1  0.43680171  0.79557964  0.39591799  1
  O  O28  1  0.61232928  0.80989136  0.24240187  1
  O  O29  1  0.75621143  0.80396215  0.56071846  1
  O  O30  1  0.75759813  0.38767072  0.80989136  1
  O  O31  1  0.43928154  0.24378857  0.80396215  1
  O  O32  1  0.60408201  0.56319829  0.79557964  1
  O  O33  1  0.19603785  0.56071846  0.24378857  1
  O  O34  1  0.20442036  0.39591799  0.56319829  1
  O  O35  1  0.19010864  0.24240187  0.38767072  1
  O  O36  1  0.11232928  0.74240187  0.30989136  1
  O  O37  1  0.25621143  0.06071846  0.30396215  1
  O  O38  1  0.93680171  0.89591799  0.29557964  1
  O  O39  1  0.93928154  0.30396215  0.74378857  1
  O  O40  1  0.10408201  0.29557964  0.06319829  1
  O  O41  1  0.25759813  0.30989136  0.88767072  1
  O  O42  1  0.25207748  0.88719048  0.06278573  1
  O  O43  1  0.93721427  0.74792252  0.88719048  1
  O  O44  1  0.11280952  0.06278573  0.74792252  1
  O  O45  1  0.70442036  0.06319829  0.89591799  1
  O  O46  1  0.69010864  0.88767072  0.74240187  1
  O  O47  1  0.69603785  0.74378857  0.06071846  1
