# generated using pymatgen
data_Li4Sc3In(SiO3)8
_symmetry_space_group_name_H-M   'P 1'
_cell_length_a   5.42422244
_cell_length_b   6.74052847
_cell_length_c   13.16983339
_cell_angle_alpha   90.85749083
_cell_angle_beta   98.49498237
_cell_angle_gamma   75.04973179
_symmetry_Int_Tables_number   1
_chemical_formula_structural   Li4Sc3In(SiO3)8
_chemical_formula_sum   'Li4 Sc3 In1 Si8 O24'
_cell_volume   459.97882820
_cell_formula_units_Z   1
loop_
 _symmetry_equiv_pos_site_id
 _symmetry_equiv_pos_as_xyz
  1  'x, y, z'
loop_
 _atom_site_type_symbol
 _atom_site_label
 _atom_site_symmetry_multiplicity
 _atom_site_fract_x
 _atom_site_fract_y
 _atom_site_fract_z
 _atom_site_occupancy
  Li  Li0  1  0.87612873  0.74807388  0.12606383  1
  Li  Li1  1  0.37632478  0.74700147  0.62640017  1
  Li  Li2  1  0.62360118  0.25286897  0.37339471  1
  Li  Li3  1  0.12399571  0.25201445  0.87413975  1
  Sc  Sc4  1  0.69641724  0.10768569  0.94645892  1
  Sc  Sc5  1  0.30361470  0.89224948  0.05387288  1
  Sc  Sc6  1  0.80478138  0.89097581  0.55453747  1
  In  In7  1  0.19750826  0.10464643  0.44743117  1
  Si  Si8  1  0.17039608  0.61513412  0.39298770  1
  Si  Si9  1  0.67075632  0.61501032  0.89381834  1
  Si  Si10  1  0.91486510  0.21289687  0.19180126  1
  Si  Si11  1  0.41567954  0.21343754  0.69313144  1
  Si  Si12  1  0.32928510  0.38530189  0.10594579  1
  Si  Si13  1  0.82827512  0.38609012  0.60655021  1
  Si  Si14  1  0.58484927  0.78734408  0.30682059  1
  Si  Si15  1  0.08443836  0.78768684  0.80749370  1
  O  O16  1  0.88121147  0.63764924  0.32658645  1
  O  O17  1  0.38153818  0.63835056  0.82697463  1
  O  O18  1  0.12670216  0.34620900  0.18071812  1
  O  O19  1  0.62605183  0.34671464  0.68126144  1
  O  O20  1  0.61805311  0.36288275  0.17206512  1
  O  O21  1  0.11865142  0.36162301  0.67268855  1
  O  O22  1  0.37236215  0.65646995  0.31861334  1
  O  O23  1  0.87349001  0.65394745  0.81916323  1
  O  O24  1  0.29509428  0.38505273  0.43845332  1
  O  O25  1  0.78471620  0.38040659  0.93716116  1
  O  O26  1  0.95055197  0.12328960  0.30708875  1
  O  O27  1  0.46223275  0.12557685  0.81014071  1
  O  O28  1  0.21487157  0.61987275  0.06257514  1
  O  O29  1  0.71541395  0.62013677  0.56306212  1
  O  O30  1  0.53738649  0.87440209  0.18956713  1
  O  O31  1  0.03797264  0.87428982  0.69042718  1
  O  O32  1  0.13801757  0.79252888  0.48221474  1
  O  O33  1  0.63832420  0.79520211  0.98124757  1
  O  O34  1  0.94519139  0.03778369  0.10150446  1
  O  O35  1  0.44807707  0.03529832  0.60457354  1
  O  O36  1  0.36149693  0.20487843  0.01855086  1
  O  O37  1  0.85351092  0.20537842  0.51962888  1
  O  O38  1  0.56368642  0.96082429  0.39741012  1
  O  O39  1  0.05447843  0.96281406  0.89747551  1
