# generated using pymatgen
data_LaPrAl6
_symmetry_space_group_name_H-M   'P 1'
_cell_length_a   4.63230726
_cell_length_b   6.60613990
_cell_length_c   6.60740912
_cell_angle_alpha   60.00634822
_cell_angle_beta   90.00000000
_cell_angle_gamma   90.00000000
_symmetry_Int_Tables_number   1
_chemical_formula_structural   LaPrAl6
_chemical_formula_sum   'La1 Pr1 Al6'
_cell_volume   175.11959037
_cell_formula_units_Z   1
loop_
 _symmetry_equiv_pos_site_id
 _symmetry_equiv_pos_as_xyz
  1  'x, y, z'
loop_
 _atom_site_type_symbol
 _atom_site_label
 _atom_site_symmetry_multiplicity
 _atom_site_fract_x
 _atom_site_fract_y
 _atom_site_fract_z
 _atom_site_occupancy
  La  La0  1  0.75000000  0.66669344  0.66661312  1
  Pr  Pr1  1  0.25000000  0.33330223  0.33339555  1
  Al  Al2  1  0.75000000  0.13979704  0.13971034  1
  Al  Al3  1  0.75000000  0.13974951  0.72050098  1
  Al  Al4  1  0.75000000  0.72049262  0.13971034  1
  Al  Al5  1  0.25000000  0.86079386  0.86087914  1
  Al  Al6  1  0.25000000  0.86084430  0.27831139  1
  Al  Al7  1  0.25000000  0.27832699  0.86087914  1
