# generated using pymatgen
data_LaV2BiO8
_symmetry_space_group_name_H-M   'P 1'
_cell_length_a   6.21416317
_cell_length_b   6.21416317
_cell_length_c   6.21416317
_cell_angle_alpha   63.79132797
_cell_angle_beta   73.78877865
_cell_angle_gamma   106.21122135
_symmetry_Int_Tables_number   1
_chemical_formula_structural   LaV2BiO8
_chemical_formula_sum   'La1 V2 Bi1 O8'
_cell_volume   182.78762454
_cell_formula_units_Z   1
loop_
 _symmetry_equiv_pos_site_id
 _symmetry_equiv_pos_as_xyz
  1  'x, y, z'
loop_
 _atom_site_type_symbol
 _atom_site_label
 _atom_site_symmetry_multiplicity
 _atom_site_fract_x
 _atom_site_fract_y
 _atom_site_fract_z
 _atom_site_occupancy
  La  La0  1  0.75000000  0.62500000  0.12500000  1
  V  V1  1  0.75000000  0.12500000  0.62500000  1
  V  V2  1  0.25000000  0.87500000  0.37500000  1
  Bi  Bi3  1  0.25000000  0.37500000  0.87500000  1
  O  O4  1  0.93086252  0.29323818  0.27589930  1
  O  O5  1  0.07115124  0.86614498  0.20500626  1
  O  O6  1  0.42884876  0.22384250  0.20500626  1
  O  O7  1  0.56913748  0.29323818  0.63762435  1
  O  O8  1  0.07115124  0.70500626  0.72384250  1
  O  O9  1  0.93086252  0.13762435  0.79323818  1
  O  O10  1  0.56913748  0.77589930  0.79323818  1
  O  O11  1  0.42884876  0.70500626  0.36614498  1
