# generated using pymatgen
data_Mg4FeO5
_symmetry_space_group_name_H-M   'P 1'
_cell_length_a   3.04408465
_cell_length_b   4.24628890
_cell_length_c   8.05767452
_cell_angle_alpha   74.72254285
_cell_angle_beta   79.11178294
_cell_angle_gamma   90.00000000
_symmetry_Int_Tables_number   1
_chemical_formula_structural   Mg4FeO5
_chemical_formula_sum   'Mg4 Fe1 O5'
_cell_volume   98.52828210
_cell_formula_units_Z   1
loop_
 _symmetry_equiv_pos_site_id
 _symmetry_equiv_pos_as_xyz
  1  'x, y, z'
loop_
 _atom_site_type_symbol
 _atom_site_label
 _atom_site_symmetry_multiplicity
 _atom_site_fract_x
 _atom_site_fract_y
 _atom_site_fract_z
 _atom_site_occupancy
  Mg  Mg0  1  0.39813089  0.39813089  0.20373822  1
  Mg  Mg1  1  0.79944801  0.79944801  0.40110397  1
  Mg  Mg2  1  0.20055199  0.20055199  0.59889603  1
  Mg  Mg3  1  0.60186911  0.60186911  0.79626178  1
  Fe  Fe4  1  0.00000000  -0.00000000  0.00000000  1
  O  O5  1  0.19951898  0.69951898  0.60096203  1
  O  O6  1  0.60479300  0.10479300  0.79041399  1
  O  O7  1  0.00000000  0.50000000  0.00000000  1
  O  O8  1  0.39520700  0.89520700  0.20958601  1
  O  O9  1  0.80048102  0.30048102  0.39903797  1
