# generated using pymatgen
data_Li4ZnCd3
_symmetry_space_group_name_H-M   'P 1'
_cell_length_a   4.68114341
_cell_length_b   4.68114341
_cell_length_c   8.09883766
_cell_angle_alpha   73.20184677
_cell_angle_beta   90.00000000
_cell_angle_gamma   120.00000000
_symmetry_Int_Tables_number   1
_chemical_formula_structural   Li4ZnCd3
_chemical_formula_sum   'Li4 Zn1 Cd3'
_cell_volume   144.88373871
_cell_formula_units_Z   1
loop_
 _symmetry_equiv_pos_site_id
 _symmetry_equiv_pos_as_xyz
  1  'x, y, z'
loop_
 _atom_site_type_symbol
 _atom_site_label
 _atom_site_symmetry_multiplicity
 _atom_site_fract_x
 _atom_site_fract_y
 _atom_site_fract_z
 _atom_site_occupancy
  Li  Li0  1  0.87496138  0.74992277  0.37511585  1
  Li  Li1  1  0.37532001  0.75064003  0.87403996  1
  Li  Li2  1  0.99786149  0.99572298  0.00641553  1
  Li  Li3  1  0.50238225  0.00476450  0.49285326  1
  Zn  Zn4  1  0.62438860  0.24877721  0.12683419  1
  Cd  Cd5  1  0.12569463  0.25138925  0.62291612  1
  Cd  Cd6  1  0.25370907  0.50741814  0.23887279  1
  Cd  Cd7  1  0.74568256  0.49136513  0.76295231  1
