# generated using pymatgen
data_Li4Sc3In(SiO3)8
_symmetry_space_group_name_H-M   'P 1'
_cell_length_a   6.73684432
_cell_length_b   7.48450934
_cell_length_c   9.67414778
_cell_angle_alpha   77.25128117
_cell_angle_beta   78.25273286
_cell_angle_gamma   96.27656058
_symmetry_Int_Tables_number   1
_chemical_formula_structural   Li4Sc3In(SiO3)8
_chemical_formula_sum   'Li4 Sc3 In1 Si8 O24'
_cell_volume   459.68186332
_cell_formula_units_Z   1
loop_
 _symmetry_equiv_pos_site_id
 _symmetry_equiv_pos_as_xyz
  1  'x, y, z'
loop_
 _atom_site_type_symbol
 _atom_site_label
 _atom_site_symmetry_multiplicity
 _atom_site_fract_x
 _atom_site_fract_y
 _atom_site_fract_z
 _atom_site_occupancy
  Li  Li0  1  0.25228814  0.74922482  0.49898522  1
  Li  Li1  1  0.25106409  0.24910813  0.99934633  1
  Li  Li2  1  0.74792539  0.25062673  0.50037045  1
  Li  Li3  1  0.74866439  0.75102557  0.00133629  1
  Sc  Sc4  1  0.60864669  0.57093581  0.32090401  1
  Sc  Sc5  1  0.39043824  0.92793274  0.18092122  1
  Sc  Sc6  1  0.39161157  0.43107568  0.67806514  1
  In  In7  1  0.60509138  0.07226210  0.82224591  1
  Si  Si8  1  0.11476973  0.00381281  0.78122551  1
  Si  Si9  1  0.11415251  0.50462598  0.28179972  1
  Si  Si10  1  0.71419558  0.83081930  0.55325600  1
  Si  Si11  1  0.71436588  0.33198962  0.05494735  1
  Si  Si12  1  0.88600918  0.99490005  0.21781903  1
  Si  Si13  1  0.88669126  0.49631592  0.71814825  1
  Si  Si14  1  0.28688500  0.16884195  0.44548435  1
  Si  Si15  1  0.28590012  0.66719541  0.94584926  1
  O  O16  1  0.15700049  0.29214465  0.34264196  1
  O  O17  1  0.15933809  0.79181648  0.84169602  1
  O  O18  1  0.86649265  0.94567058  0.39547354  1
  O  O19  1  0.86527485  0.44633351  0.89613755  1
  O  O20  1  0.84365709  0.70873412  0.65733934  1
  O  O21  1  0.84357495  0.20781946  0.15747032  1
  O  O22  1  0.13452144  0.05305755  0.60339000  1
  O  O23  1  0.13405977  0.55241831  0.10391554  1
  O  O24  1  0.88452649  0.00721419  0.86837515  1
  O  O25  1  0.88021593  0.51129580  0.36194605  1
  O  O26  1  0.62427781  0.98788664  0.62694345  1
  O  O27  1  0.62697714  0.48564867  0.13464082  1
  O  O28  1  0.12038851  0.98889209  0.13789553  1
  O  O29  1  0.12024873  0.48914938  0.63772600  1
  O  O30  1  0.37313611  0.01465642  0.36558819  1
  O  O31  1  0.37313242  0.51384595  0.86534741  1
  O  O32  1  0.29298909  0.15440509  0.80937634  1
  O  O33  1  0.29493357  0.65229910  0.30970524  1
  O  O34  1  0.53847488  0.67987714  0.52331928  1
  O  O35  1  0.53579612  0.18228112  0.02645606  1
  O  O36  1  0.70425850  0.84737297  0.19084237  1
  O  O37  1  0.70561164  0.35286779  0.68645822  1
  O  O38  1  0.46170769  0.31960395  0.47599884  1
  O  O39  1  0.46070691  0.81401643  0.98061276  1
