# generated using pymatgen
data_LaFeSi2Rh
_symmetry_space_group_name_H-M   'P 1'
_cell_length_a   4.11498105
_cell_length_b   4.11498105
_cell_length_c   5.84076562
_cell_angle_alpha   69.37415072
_cell_angle_beta   69.37415072
_cell_angle_gamma   90.00000000
_symmetry_Int_Tables_number   1
_chemical_formula_structural   LaFeSi2Rh
_chemical_formula_sum   'La1 Fe1 Si2 Rh1'
_cell_volume   85.75559627
_cell_formula_units_Z   1
loop_
 _symmetry_equiv_pos_site_id
 _symmetry_equiv_pos_as_xyz
  1  'x, y, z'
loop_
 _atom_site_type_symbol
 _atom_site_label
 _atom_site_symmetry_multiplicity
 _atom_site_fract_x
 _atom_site_fract_y
 _atom_site_fract_z
 _atom_site_occupancy
  La  La0  1  0.00000000  0.00000000  -0.00000000  1
  Fe  Fe1  1  0.75000000  0.25000000  0.50000000  1
  Si  Si2  1  0.36531124  0.36531124  0.26937751  1
  Si  Si3  1  0.63468876  0.63468876  0.73062249  1
  Rh  Rh4  1  0.25000000  0.75000000  0.50000000  1
