# generated using pymatgen
data_LaYNi10
_symmetry_space_group_name_H-M   'P 1'
_cell_length_a   3.95560637
_cell_length_b   4.92274363
_cell_length_c   8.49453860
_cell_angle_alpha   89.99999679
_cell_angle_beta   90.00000000
_cell_angle_gamma   90.00000000
_symmetry_Int_Tables_number   1
_chemical_formula_structural   LaYNi10
_chemical_formula_sum   'La1 Y1 Ni10'
_cell_volume   165.40935961
_cell_formula_units_Z   1
loop_
 _symmetry_equiv_pos_site_id
 _symmetry_equiv_pos_as_xyz
  1  'x, y, z'
loop_
 _atom_site_type_symbol
 _atom_site_label
 _atom_site_symmetry_multiplicity
 _atom_site_fract_x
 _atom_site_fract_y
 _atom_site_fract_z
 _atom_site_occupancy
  La  La0  1  0.00000000  0.99992601  1.00000000  1
  Y  Y1  1  -0.00000000  0.50001488  0.50000000  1
  Ni  Ni2  1  -0.00000000  -0.00000335  0.33674211  1
  Ni  Ni3  1  0.00000000  0.49996410  0.82977560  1
  Ni  Ni4  1  -0.00000000  0.49996410  0.17022440  1
  Ni  Ni5  1  0.00000000  -0.00000335  0.66325789  1
  Ni  Ni6  1  0.50000000  0.99998879  0.50000000  1
  Ni  Ni7  1  0.50000000  0.49995267  0.00000000  1
  Ni  Ni8  1  0.50000000  0.25292670  0.25550078  1
  Ni  Ni9  1  0.50000000  0.74707138  0.74448899  1
  Ni  Ni10  1  0.50000000  0.74707138  0.25551101  1
  Ni  Ni11  1  0.50000000  0.25292670  0.74449922  1
