# generated using pymatgen
data_LaNdZr2O7
_symmetry_space_group_name_H-M   'P 1'
_cell_length_a   7.66667669
_cell_length_b   7.66474738
_cell_length_c   7.66833909
_cell_angle_alpha   90.00000000
_cell_angle_beta   59.99282694
_cell_angle_gamma   119.99167586
_symmetry_Int_Tables_number   1
_chemical_formula_structural   LaNdZr2O7
_chemical_formula_sum   'La2 Nd2 Zr4 O14'
_cell_volume   318.63894401
_cell_formula_units_Z   2
loop_
 _symmetry_equiv_pos_site_id
 _symmetry_equiv_pos_as_xyz
  1  'x, y, z'
loop_
 _atom_site_type_symbol
 _atom_site_label
 _atom_site_symmetry_multiplicity
 _atom_site_fract_x
 _atom_site_fract_y
 _atom_site_fract_z
 _atom_site_occupancy
  La  La0  1  0.00000000  0.50000000  0.00000000  1
  La  La1  1  -0.00000000  0.50000000  0.50000000  1
  Nd  Nd2  1  0.50000000  0.00000000  0.50000000  1
  Nd  Nd3  1  0.50000000  0.50000000  0.50000000  1
  Zr  Zr4  1  0.50000000  0.50000000  0.00000000  1
  Zr  Zr5  1  0.50000000  0.00000000  0.00000000  1
  Zr  Zr6  1  -0.00000000  0.00000000  0.50000000  1
  Zr  Zr7  1  -0.00000000  0.00000000  0.00000000  1
  O  O8  1  0.74472178  0.37236089  0.37763911  1
  O  O9  1  0.25527822  0.62763911  0.62236089  1
  O  O10  1  0.82937604  0.91468802  0.33531198  1
  O  O11  1  0.66686745  0.33343372  0.91656628  1
  O  O12  1  0.25152079  0.91716524  0.91404285  1
  O  O13  1  0.25152079  0.33435555  0.33443635  1
  O  O14  1  0.25152079  0.33435555  0.91404285  1
  O  O15  1  0.25152079  0.91716524  0.33443635  1
  O  O16  1  0.17062396  0.08531198  0.66468802  1
  O  O17  1  0.33313255  0.66656628  0.08343372  1
  O  O18  1  0.74847921  0.08283476  0.08595715  1
  O  O19  1  0.74847921  0.66564445  0.66556365  1
  O  O20  1  0.74847921  0.66564445  0.08595715  1
  O  O21  1  0.74847921  0.08283476  0.66556365  1
