# generated using pymatgen
data_Li2La3Nd(SbO6)2
_symmetry_space_group_name_H-M   'P 1'
_cell_length_a   5.65100766
_cell_length_b   5.78503205
_cell_length_c   8.07210123
_cell_angle_alpha   89.99388281
_cell_angle_beta   89.61812601
_cell_angle_gamma   90.16317741
_symmetry_Int_Tables_number   1
_chemical_formula_structural   Li2La3Nd(SbO6)2
_chemical_formula_sum   'Li2 La3 Nd1 Sb2 O12'
_cell_volume   263.88023005
_cell_formula_units_Z   1
loop_
 _symmetry_equiv_pos_site_id
 _symmetry_equiv_pos_as_xyz
  1  'x, y, z'
loop_
 _atom_site_type_symbol
 _atom_site_label
 _atom_site_symmetry_multiplicity
 _atom_site_fract_x
 _atom_site_fract_y
 _atom_site_fract_z
 _atom_site_occupancy
  Li  Li0  1  0.49899020  0.00004322  0.49855874  1
  Li  Li1  1  0.00079381  0.50100321  0.00127408  1
  La  La2  1  0.48606202  0.45414711  0.74861606  1
  La  La3  1  0.01269794  0.95616018  0.75069529  1
  La  La4  1  0.51275261  0.54592994  0.25121867  1
  Nd  Nd5  1  0.98341523  0.05321370  0.24792421  1
  Sb  Sb6  1  0.00115415  0.50044761  0.49826187  1
  Sb  Sb7  1  0.49866688  0.99968546  0.00161508  1
  O  O8  1  0.09713274  0.46283680  0.26007435  1
  O  O9  1  0.59613960  0.03147026  0.76235218  1
  O  O10  1  0.90300859  0.53215820  0.73783615  1
  O  O11  1  0.39404746  0.96749278  0.23924732  1
  O  O12  1  0.28587185  0.69611238  0.54832113  1
  O  O13  1  0.78371296  0.80505899  0.05287267  1
  O  O14  1  0.71962350  0.30006708  0.44894107  1
  O  O15  1  0.21666014  0.19676553  0.95244737  1
  O  O16  1  0.19406345  0.21802076  0.55284606  1
  O  O17  1  0.69728359  0.27938447  0.05679744  1
  O  O18  1  0.81034170  0.78447609  0.44358342  1
  O  O19  1  0.30758159  0.71552623  0.94651684  1
