# generated using pymatgen
data_LaNdMn2O6
_symmetry_space_group_name_H-M   'P 1'
_cell_length_a   5.56472771
_cell_length_b   5.71683735
_cell_length_c   7.85012468
_cell_angle_alpha   90.00000000
_cell_angle_beta   90.00000000
_cell_angle_gamma   90.00000000
_symmetry_Int_Tables_number   1
_chemical_formula_structural   LaNdMn2O6
_chemical_formula_sum   'La2 Nd2 Mn4 O12'
_cell_volume   249.73321564
_cell_formula_units_Z   2
loop_
 _symmetry_equiv_pos_site_id
 _symmetry_equiv_pos_as_xyz
  1  'x, y, z'
loop_
 _atom_site_type_symbol
 _atom_site_label
 _atom_site_symmetry_multiplicity
 _atom_site_fract_x
 _atom_site_fract_y
 _atom_site_fract_z
 _atom_site_occupancy
  La  La0  1  0.49010190  0.45758380  0.75000000  1
  La  La1  1  0.00989810  0.95758380  0.75000000  1
  Nd  Nd2  1  0.51226902  0.55306718  0.25000000  1
  Nd  Nd3  1  0.98773098  0.05306718  0.25000000  1
  Mn  Mn4  1  0.00062262  0.50050242  0.00210442  1
  Mn  Mn5  1  0.49937738  0.00050242  0.49789558  1
  Mn  Mn6  1  0.00062262  0.50050242  0.49789558  1
  Mn  Mn7  1  0.49937738  0.00050242  0.00210442  1
  O  O8  1  0.77877235  0.79913255  0.04949904  1
  O  O9  1  0.72122765  0.29913255  0.45050096  1
  O  O10  1  0.21859720  0.19877981  0.54231009  1
  O  O11  1  0.28140280  0.69877981  0.95768991  1
  O  O12  1  0.21859720  0.19877981  0.95768991  1
  O  O13  1  0.28140280  0.69877981  0.54231009  1
  O  O14  1  0.77877235  0.79913255  0.45050096  1
  O  O15  1  0.72122765  0.29913255  0.04949904  1
  O  O16  1  0.40830603  0.97694167  0.25000000  1
  O  O17  1  0.09169397  0.47694167  0.25000000  1
  O  O18  1  0.58258875  0.01557777  0.75000000  1
  O  O19  1  0.91741125  0.51557777  0.75000000  1
