# generated using pymatgen
data_Lu10Al4Ge11
_symmetry_space_group_name_H-M   'P 1'
_cell_length_a   4.04404749
_cell_length_b   5.57323892
_cell_length_c   24.75307612
_cell_angle_alpha   96.35251501
_cell_angle_beta   85.31441421
_cell_angle_gamma   111.27283457
_symmetry_Int_Tables_number   1
_chemical_formula_structural   Lu10Al4Ge11
_chemical_formula_sum   'Lu10 Al4 Ge11'
_cell_volume   516.17043283
_cell_formula_units_Z   1
loop_
 _symmetry_equiv_pos_site_id
 _symmetry_equiv_pos_as_xyz
  1  'x, y, z'
loop_
 _atom_site_type_symbol
 _atom_site_label
 _atom_site_symmetry_multiplicity
 _atom_site_fract_x
 _atom_site_fract_y
 _atom_site_fract_z
 _atom_site_occupancy
  Lu  Lu0  1  0.33339951  0.61015114  0.94335211  1
  Lu  Lu1  1  0.12784638  0.79827508  0.54258232  1
  Lu  Lu2  1  0.72770205  0.19812920  0.74272511  1
  Lu  Lu3  1  0.92638496  0.99576047  0.14299056  1
  Lu  Lu4  1  0.52816053  0.39879966  0.34247861  1
  Lu  Lu5  1  0.07361504  0.00423953  0.85700944  1
  Lu  Lu6  1  0.87215362  0.20172492  0.45741768  1
  Lu  Lu7  1  0.47183947  0.60120034  0.65752139  1
  Lu  Lu8  1  0.66660049  0.38984886  0.05664789  1
  Lu  Lu9  1  0.27229795  0.80187080  0.25727489  1
  Al  Al10  1  0.59931447  0.39911239  0.20048344  1
  Al  Al11  1  0.19982333  0.79962282  0.39997617  1
  Al  Al12  1  0.80017667  0.20037718  0.60002383  1
  Al  Al13  1  0.40068553  0.60088761  0.79951656  1
  Ge  Ge14  1  0.62131509  0.18295122  0.94032104  1
  Ge  Ge15  1  0.41345791  0.36985887  0.54294305  1
  Ge  Ge16  1  0.01457943  0.77179935  0.74264050  1
  Ge  Ge17  1  0.21041027  0.56479861  0.14397808  1
  Ge  Ge18  1  0.81377459  0.97051559  0.34296642  1
  Ge  Ge19  1  0.78958973  0.43520139  0.85602192  1
  Ge  Ge20  1  0.58654209  0.63014113  0.45705695  1
  Ge  Ge21  1  0.18622541  0.02948441  0.65703358  1
  Ge  Ge22  1  0.37868491  0.81704878  0.05967896  1
  Ge  Ge23  1  0.98542057  0.22820065  0.25735950  1
  Ge  Ge24  1  0.00000000  0.00000000  0.00000000  1
