# generated using pymatgen
data_LaNdAl6
_symmetry_space_group_name_H-M   'P 1'
_cell_length_a   4.52716609
_cell_length_b   6.66008040
_cell_length_c   6.66008040
_cell_angle_alpha   120.01601595
_cell_angle_beta   90.00000000
_cell_angle_gamma   90.00000000
_symmetry_Int_Tables_number   1
_chemical_formula_structural   LaNdAl6
_chemical_formula_sum   'La1 Nd1 Al6'
_cell_volume   173.87850275
_cell_formula_units_Z   1
loop_
 _symmetry_equiv_pos_site_id
 _symmetry_equiv_pos_as_xyz
  1  'x, y, z'
loop_
 _atom_site_type_symbol
 _atom_site_label
 _atom_site_symmetry_multiplicity
 _atom_site_fract_x
 _atom_site_fract_y
 _atom_site_fract_z
 _atom_site_occupancy
  La  La0  1  0.75000000  0.66672844  0.33327156  1
  Nd  Nd1  1  0.25000000  0.33329731  0.66670269  1
  Al  Al2  1  0.75000000  0.14121054  0.28243967  1
  Al  Al3  1  0.75000000  0.14120233  0.85879767  1
  Al  Al4  1  0.75000000  0.71756033  0.85878946  1
  Al  Al5  1  0.25000000  0.86007817  0.72017691  1
  Al  Al6  1  0.25000000  0.86009978  0.13990022  1
  Al  Al7  1  0.25000000  0.27982309  0.13992183  1
