# generated using pymatgen
data_KHgBr3O
_symmetry_space_group_name_H-M   'P 1'
_cell_length_a   8.25398383
_cell_length_b   8.25398383
_cell_length_c   11.34049881
_cell_angle_alpha   90.00000000
_cell_angle_beta   90.00000000
_cell_angle_gamma   32.07145388
_symmetry_Int_Tables_number   1
_chemical_formula_structural   KHgBr3O
_chemical_formula_sum   'K2 Hg2 Br6 O2'
_cell_volume   410.23683216
_cell_formula_units_Z   2
loop_
 _symmetry_equiv_pos_site_id
 _symmetry_equiv_pos_as_xyz
  1  'x, y, z'
loop_
 _atom_site_type_symbol
 _atom_site_label
 _atom_site_symmetry_multiplicity
 _atom_site_fract_x
 _atom_site_fract_y
 _atom_site_fract_z
 _atom_site_occupancy
  K  K0  1  0.74053232  0.74053232  0.67590357  1
  K  K1  1  0.25946768  0.25946768  0.17590357  1
  Hg  Hg2  1  0.01706490  0.01706490  0.37916727  1
  Hg  Hg3  1  0.98293510  0.98293510  0.87916727  1
  Br  Br4  1  0.85937553  0.85937553  0.36415660  1
  Br  Br5  1  0.14062447  0.14062447  0.86415660  1
  Br  Br6  1  0.83780490  0.83780490  0.96811277  1
  Br  Br7  1  0.16219510  0.16219510  0.46811277  1
  Br  Br8  1  0.56496015  0.56496015  0.19861971  1
  Br  Br9  1  0.43503985  0.43503985  0.69861971  1
  O  O10  1  0.32269615  0.32269615  0.68634108  1
  O  O11  1  0.67730385  0.67730385  0.18634108  1
