# generated using pymatgen
data_NaMg6Bi
_symmetry_space_group_name_H-M   'P 1'
_cell_length_a   6.61807101
_cell_length_b   6.44207407
_cell_length_c   5.33249434
_cell_angle_alpha   90.00000000
_cell_angle_beta   90.00000000
_cell_angle_gamma   119.12413440
_symmetry_Int_Tables_number   1
_chemical_formula_structural   NaMg6Bi
_chemical_formula_sum   'Na1 Mg6 Bi1'
_cell_volume   198.60213047
_cell_formula_units_Z   1
loop_
 _symmetry_equiv_pos_site_id
 _symmetry_equiv_pos_as_xyz
  1  'x, y, z'
loop_
 _atom_site_type_symbol
 _atom_site_label
 _atom_site_symmetry_multiplicity
 _atom_site_fract_x
 _atom_site_fract_y
 _atom_site_fract_z
 _atom_site_occupancy
  Na  Na0  1  0.16537067  0.33268484  0.25000000  1
  Mg  Mg1  1  0.66730579  0.33192571  0.25000000  1
  Mg  Mg2  1  0.66730579  0.83537909  0.25000000  1
  Mg  Mg3  1  0.33996412  0.17363709  0.75000000  1
  Mg  Mg4  1  0.33996412  0.66632803  0.75000000  1
  Mg  Mg5  1  0.82902543  0.16451322  0.75000000  1
  Mg  Mg6  1  0.82312770  0.66156435  0.75000000  1
  Bi  Bi7  1  0.16793637  0.83396769  0.25000000  1
