# generated using pymatgen
data_K6Na3Ti2Al2Si8Cl3O26
_symmetry_space_group_name_H-M   'P 1'
_cell_length_a   9.24823049
_cell_length_b   9.77897579
_cell_length_c   9.77907751
_cell_angle_alpha   115.10388895
_cell_angle_beta   98.20274999
_cell_angle_gamma   98.16754224
_symmetry_Int_Tables_number   1
_chemical_formula_structural   K6Na3Ti2Al2Si8Cl3O26
_chemical_formula_sum   'K6 Na3 Ti2 Al2 Si8 Cl3 O26'
_cell_volume   772.15135724
_cell_formula_units_Z   1
loop_
 _symmetry_equiv_pos_site_id
 _symmetry_equiv_pos_as_xyz
  1  'x, y, z'
loop_
 _atom_site_type_symbol
 _atom_site_label
 _atom_site_symmetry_multiplicity
 _atom_site_fract_x
 _atom_site_fract_y
 _atom_site_fract_z
 _atom_site_occupancy
  K  K0  1  0.10717671  0.06606649  0.34900975  1
  K  K1  1  0.10746041  0.34883291  0.06604265  1
  K  K2  1  0.89282329  0.93393351  0.65099025  1
  K  K3  1  0.89253959  0.65116709  0.93395735  1
  K  K4  1  0.36300383  0.09136173  0.10741614  1
  K  K5  1  0.63699617  0.90863827  0.89258386  1
  Na  Na6  1  0.49999571  0.61651552  0.38335419  1
  Na  Na7  1  0.50000429  0.38348448  0.61664581  1
  Na  Na8  1  -0.00000000  0.50000000  0.50000000  1
  Ti  Ti9  1  0.50000000  0.00000000  0.50000000  1
  Ti  Ti10  1  0.50000000  0.50000000  0.00000000  1
  Al  Al11  1  0.99996817  0.68398471  0.31595595  1
  Al  Al12  1  0.00003183  0.31601529  0.68404405  1
  Si  Si13  1  0.26422850  0.62741662  0.82330453  1
  Si  Si14  1  0.26407820  0.82339913  0.62745845  1
  Si  Si15  1  0.73577150  0.37258338  0.17669547  1
  Si  Si16  1  0.73592180  0.17660087  0.37254155  1
  Si  Si17  1  0.27688170  0.73538988  0.16157310  1
  Si  Si18  1  0.27698939  0.16158794  0.73570969  1
  Si  Si19  1  0.72311830  0.26461012  0.83842690  1
  Si  Si20  1  0.72301061  0.83841206  0.26429031  1
  Cl  Cl21  1  0.72407332  0.61811528  0.61804658  1
  Cl  Cl22  1  0.27592668  0.38188472  0.38195342  1
  Cl  Cl23  1  -0.00000000  0.00000000  0.00000000  1
  O  O24  1  0.35379271  0.90961076  0.29817586  1
  O  O25  1  0.35398243  0.29854868  0.90957041  1
  O  O26  1  0.64620729  0.09038924  0.70182414  1
  O  O27  1  0.64601757  0.70145132  0.09042959  1
  O  O28  1  0.25281567  0.75352764  0.99774950  1
  O  O29  1  0.25285117  0.99766902  0.75342145  1
  O  O30  1  0.74718433  0.24647236  0.00225050  1
  O  O31  1  0.74714883  0.00233098  0.24657855  1
  O  O32  1  0.10962104  0.67564997  0.18165326  1
  O  O33  1  0.10959730  0.18156978  0.67554800  1
  O  O34  1  0.89037896  0.32435003  0.81834674  1
  O  O35  1  0.89040270  0.81843022  0.32445200  1
  O  O36  1  0.10212986  0.50503881  0.73861681  1
  O  O37  1  0.10210934  0.73855932  0.50494564  1
  O  O38  1  0.89787014  0.49496119  0.26138319  1
  O  O39  1  0.89789066  0.26144068  0.49505436  1
  O  O40  1  0.36891309  0.59918823  0.13791909  1
  O  O41  1  0.36891189  0.13780781  0.59917098  1
  O  O42  1  0.63108691  0.40081177  0.86208091  1
  O  O43  1  0.63108811  0.86219219  0.40082902  1
  O  O44  1  0.29709786  0.73103886  0.73103196  1
  O  O45  1  0.70290214  0.26896114  0.26896804  1
  O  O46  1  0.40307503  0.54599990  0.83524811  1
  O  O47  1  0.40313183  0.83526905  0.54617578  1
  O  O48  1  0.59692497  0.45400010  0.16475189  1
  O  O49  1  0.59686817  0.16473095  0.45382422  1
