# generated using pymatgen
data_KP(HO2)2
_symmetry_space_group_name_H-M   'P 1'
_cell_length_a   4.55249376
_cell_length_b   6.20628266
_cell_length_c   14.54505890
_cell_angle_alpha   91.76495369
_cell_angle_beta   90.00000000
_cell_angle_gamma   90.00000000
_symmetry_Int_Tables_number   1
_chemical_formula_structural   KP(HO2)2
_chemical_formula_sum   'K4 P4 H8 O16'
_cell_volume   410.76204807
_cell_formula_units_Z   4
loop_
 _symmetry_equiv_pos_site_id
 _symmetry_equiv_pos_as_xyz
  1  'x, y, z'
loop_
 _atom_site_type_symbol
 _atom_site_label
 _atom_site_symmetry_multiplicity
 _atom_site_fract_x
 _atom_site_fract_y
 _atom_site_fract_z
 _atom_site_occupancy
  K  K0  1  0.99909429  0.23515917  0.86649246  1
  K  K1  1  0.47167622  0.75903246  0.63234632  1
  K  K2  1  0.02832378  0.75903246  0.13234632  1
  K  K3  1  0.50090571  0.23515917  0.36649246  1
  P  P4  1  0.95252585  0.26580186  0.62788582  1
  P  P5  1  0.45691537  0.75062312  0.87289732  1
  P  P6  1  0.04308463  0.75062312  0.37289732  1
  P  P7  1  0.54747415  0.26580186  0.12788582  1
  H  H8  1  0.48359212  0.25852839  0.68777788  1
  H  H9  1  0.98669872  0.74793233  0.81312145  1
  H  H10  1  0.51330128  0.74793233  0.31312145  1
  H  H11  1  0.01640788  0.25852839  0.18777788  1
  H  H12  1  0.96015089  0.01656202  0.50972333  1
  H  H13  1  0.53984911  0.01656202  0.00972333  1
  H  H14  1  0.51890511  0.51087454  0.98677798  1
  H  H15  1  0.98109489  0.51087454  0.48677798  1
  O  O16  1  0.69102979  0.33410273  0.69415513  1
  O  O17  1  0.19415431  0.66899897  0.80946849  1
  O  O18  1  0.30584569  0.66899897  0.30946849  1
  O  O19  1  0.80897021  0.33410273  0.19415513  1
  O  O20  1  0.81221435  0.09560100  0.55648156  1
  O  O21  1  0.34004296  0.91015945  0.94656677  1
  O  O22  1  0.15995704  0.91015945  0.44656677  1
  O  O23  1  0.68778565  0.09560100  0.05648156  1
  O  O24  1  0.05827224  0.46643144  0.57851269  1
  O  O25  1  0.58274124  0.53950867  0.91795840  1
  O  O26  1  0.91725876  0.53950867  0.41795840  1
  O  O27  1  0.44172776  0.46643144  0.07851269  1
  O  O28  1  0.19469840  0.16159360  0.68446239  1
  O  O29  1  0.69938853  0.84099026  0.81217201  1
  O  O30  1  0.80061147  0.84099026  0.31217201  1
  O  O31  1  0.30530160  0.16159360  0.18446239  1
