# generated using pymatgen
data_KBaGd(MoO4)3
_symmetry_space_group_name_H-M   'P 1'
_cell_length_a   5.41786018
_cell_length_b   10.80121809
_cell_length_c   10.80121809
_cell_angle_alpha   70.11565221
_cell_angle_beta   76.80982448
_cell_angle_gamma   76.80982448
_symmetry_Int_Tables_number   1
_chemical_formula_structural   KBaGd(MoO4)3
_chemical_formula_sum   'K2 Ba2 Gd2 Mo6 O24'
_cell_volume   570.83657939
_cell_formula_units_Z   2
loop_
 _symmetry_equiv_pos_site_id
 _symmetry_equiv_pos_as_xyz
  1  'x, y, z'
loop_
 _atom_site_type_symbol
 _atom_site_label
 _atom_site_symmetry_multiplicity
 _atom_site_fract_x
 _atom_site_fract_y
 _atom_site_fract_z
 _atom_site_occupancy
  K  K0  1  0.92278485  0.96223038  0.70932764  1
  K  K1  1  0.57721515  0.29067236  0.03776962  1
  Ba  Ba2  1  0.07569483  0.04202847  0.29013349  1
  Ba  Ba3  1  0.42430517  0.70986651  0.95797153  1
  Gd  Gd4  1  0.75000000  0.37783600  0.62216400  1
  Gd  Gd5  1  0.25000000  0.61572732  0.38427268  1
  Mo  Mo6  1  0.25000000  0.14954940  0.85045060  1
  Mo  Mo7  1  0.75000000  0.84929540  0.15070460  1
  Mo  Mo8  1  0.60008029  0.76660776  0.54640470  1
  Mo  Mo9  1  0.89991971  0.45359530  0.23339224  1
  Mo  Mo10  1  0.39915550  0.23325684  0.45425630  1
  Mo  Mo11  1  0.10084450  0.54574370  0.76674316  1
  O  O12  1  0.34580551  0.53773995  0.61308563  1
  O  O13  1  0.15419449  0.38691437  0.46226005  1
  O  O14  1  0.65458475  0.46382750  0.38487717  1
  O  O15  1  0.84541525  0.61512283  0.53617250  1
  O  O16  1  0.07515089  0.14318640  0.01317134  1
  O  O17  1  0.42484911  0.98682866  0.85681360  1
  O  O18  1  0.92663835  0.85340036  0.98933670  1
  O  O19  1  0.57336165  0.01066330  0.14659964  1
  O  O20  1  0.88518817  0.69823826  0.76189396  1
  O  O21  1  0.61481183  0.23810604  0.30176174  1
  O  O22  1  0.11203755  0.30020727  0.24017800  1
  O  O23  1  0.38796245  0.75982200  0.69979273  1
  O  O24  1  0.03332236  0.19259005  0.73011015  1
  O  O25  1  0.46667764  0.26988985  0.80740995  1
  O  O26  1  0.97016047  0.80979046  0.26905223  1
  O  O27  1  0.52983953  0.73094777  0.19020954  1
  O  O28  1  0.89485793  0.42527516  0.79717045  1
  O  O29  1  0.60514207  0.20282955  0.57472484  1
  O  O30  1  0.10625652  0.57640090  0.20124601  1
  O  O31  1  0.39374348  0.79875399  0.42359910  1
  O  O32  1  0.24351735  0.09450836  0.49147966  1
  O  O33  1  0.25648265  0.50852034  0.90549164  1
  O  O34  1  0.75693836  0.90517517  0.50514798  1
  O  O35  1  0.74306164  0.49485202  0.09482483  1
