# generated using pymatgen
data_Ir4Os
_symmetry_space_group_name_H-M   'P 1'
_cell_length_a   2.73581732
_cell_length_b   2.73581732
_cell_length_c   11.30385860
_cell_angle_alpha   96.95054283
_cell_angle_beta   83.04945717
_cell_angle_gamma   120.00000000
_symmetry_Int_Tables_number   1
_chemical_formula_structural   Ir4Os
_chemical_formula_sum   'Ir4 Os1'
_cell_volume   72.55205463
_cell_formula_units_Z   1
loop_
 _symmetry_equiv_pos_site_id
 _symmetry_equiv_pos_as_xyz
  1  'x, y, z'
loop_
 _atom_site_type_symbol
 _atom_site_label
 _atom_site_symmetry_multiplicity
 _atom_site_fract_x
 _atom_site_fract_y
 _atom_site_fract_z
 _atom_site_occupancy
  Ir  Ir0  1  0.60079107  0.39920893  0.19762679  1
  Ir  Ir1  1  0.19971061  0.80028939  0.40086818  1
  Ir  Ir2  1  0.80028939  0.19971061  0.59913182  1
  Ir  Ir3  1  0.39920893  0.60079107  0.80237321  1
  Os  Os4  1  -0.00000000  0.00000000  0.00000000  1
