# generated using pymatgen
data_K2AlFeB2P4(HO9)2
_symmetry_space_group_name_H-M   'P 1'
_cell_length_a   5.16897682
_cell_length_b   8.20631781
_cell_length_c   8.34446268
_cell_angle_alpha   86.30822946
_cell_angle_beta   80.68350136
_cell_angle_gamma   86.51924977
_symmetry_Int_Tables_number   1
_chemical_formula_structural   K2AlFeB2P4(HO9)2
_chemical_formula_sum   'K2 Al1 Fe1 B2 P4 H2 O18'
_cell_volume   348.10901308
_cell_formula_units_Z   1
loop_
 _symmetry_equiv_pos_site_id
 _symmetry_equiv_pos_as_xyz
  1  'x, y, z'
loop_
 _atom_site_type_symbol
 _atom_site_label
 _atom_site_symmetry_multiplicity
 _atom_site_fract_x
 _atom_site_fract_y
 _atom_site_fract_z
 _atom_site_occupancy
  K  K0  1  0.27739186  0.17255376  0.38245257  1
  K  K1  1  0.72453698  0.82648253  0.61683021  1
  Al  Al2  1  0.73278508  0.30348717  0.69194575  1
  Fe  Fe3  1  0.26810883  0.69423562  0.31028994  1
  B  B4  1  0.87823844  0.23332414  0.05283041  1
  B  B5  1  0.12401990  0.76899342  0.94370831  1
  P  P6  1  0.77969009  0.43550201  0.31666364  1
  P  P7  1  0.21519364  0.55473284  0.68965340  1
  P  P8  1  0.20232747  0.08863713  0.80094702  1
  P  P9  1  0.80075880  0.91861895  0.19643205  1
  H  H10  1  0.55130190  0.35805955  0.98466489  1
  H  H11  1  0.45235869  0.63970837  0.00714399  1
  O  O12  1  0.13186916  0.17366284  0.96648814  1
  O  O13  1  0.87260488  0.82834263  0.03427079  1
  O  O14  1  0.75289559  0.30601306  0.46115119  1
  O  O15  1  0.25162877  0.68948045  0.54971828  1
  O  O16  1  0.50479629  0.49112361  0.27665195  1
  O  O17  1  0.48845162  0.48843908  0.72314833  1
  O  O18  1  0.97091507  0.10950627  0.70480485  1
  O  O19  1  0.03101227  0.90596101  0.29306340  1
  O  O20  1  0.45758236  0.15260991  0.70662172  1
  O  O21  1  0.55133890  0.85474776  0.29774767  1
  O  O22  1  0.94027527  0.35191829  0.16370972  1
  O  O23  1  0.06146401  0.64360917  0.84141192  1
  O  O24  1  0.26452513  0.90196790  0.83904424  1
  O  O25  1  0.72800726  0.10204153  0.15136909  1
  O  O26  1  0.71520643  0.30643546  0.93270494  1
  O  O27  1  0.29501268  0.69858583  0.05882805  1
  O  O28  1  0.03925124  0.42261700  0.65853968  1
  O  O29  1  0.93645141  0.57860270  0.34716385  1
