# generated using pymatgen
data_KSO2F
_symmetry_space_group_name_H-M   'P 1'
_cell_length_a   4.71828225
_cell_length_b   5.87897913
_cell_length_c   7.19136121
_cell_angle_alpha   90.00000000
_cell_angle_beta   107.06548751
_cell_angle_gamma   90.00000000
_symmetry_Int_Tables_number   1
_chemical_formula_structural   KSO2F
_chemical_formula_sum   'K2 S2 O4 F2'
_cell_volume   190.69582431
_cell_formula_units_Z   2
loop_
 _symmetry_equiv_pos_site_id
 _symmetry_equiv_pos_as_xyz
  1  'x, y, z'
loop_
 _atom_site_type_symbol
 _atom_site_label
 _atom_site_symmetry_multiplicity
 _atom_site_fract_x
 _atom_site_fract_y
 _atom_site_fract_z
 _atom_site_occupancy
  K  K0  1  0.65515612  0.74921236  0.28906059  1
  K  K1  1  0.34484388  0.24921236  0.71093941  1
  S  S2  1  0.05589737  0.27379010  0.16228095  1
  S  S3  1  0.94410263  0.77379010  0.83771905  1
  O  O4  1  0.82772211  0.95588593  0.69206136  1
  O  O5  1  0.17227789  0.45588593  0.30793864  1
  O  O6  1  0.73147266  0.24651373  0.12027247  1
  O  O7  1  0.26852734  0.74651373  0.87972753  1
  F  F8  1  0.17549947  0.02459789  0.31867424  1
  F  F9  1  0.82450053  0.52459789  0.68132576  1
