# generated using pymatgen
data_K2AlMo3(P2O7)4
_symmetry_space_group_name_H-M   'P 1'
_cell_length_a   7.68221736
_cell_length_b   9.33544522
_cell_length_c   9.74605747
_cell_angle_alpha   62.04760673
_cell_angle_beta   76.74869895
_cell_angle_gamma   99.99141901
_symmetry_Int_Tables_number   1
_chemical_formula_structural   K2AlMo3(P2O7)4
_chemical_formula_sum   'K2 Al1 Mo3 P8 O28'
_cell_volume   567.98857459
_cell_formula_units_Z   1
loop_
 _symmetry_equiv_pos_site_id
 _symmetry_equiv_pos_as_xyz
  1  'x, y, z'
loop_
 _atom_site_type_symbol
 _atom_site_label
 _atom_site_symmetry_multiplicity
 _atom_site_fract_x
 _atom_site_fract_y
 _atom_site_fract_z
 _atom_site_occupancy
  K  K0  1  -0.00000000  0.25000000  0.25000000  1
  K  K1  1  -0.00000000  0.75000000  0.75000000  1
  Al  Al2  1  0.50000000  0.75000000  0.75000000  1
  Mo  Mo3  1  0.99933450  0.99934717  0.00244460  1
  Mo  Mo4  1  0.00066550  0.50065283  0.49755540  1
  Mo  Mo5  1  0.50000000  0.25000000  0.25000000  1
  P  P6  1  0.24243101  0.21085343  0.59359394  1
  P  P7  1  0.24644319  0.71320127  0.08451635  1
  P  P8  1  0.75756899  0.28914657  0.90640606  1
  P  P9  1  0.75355681  0.78679873  0.41548365  1
  P  P10  1  0.61662732  0.67995133  0.06307775  1
  P  P11  1  0.61490683  0.16604113  0.57823538  1
  P  P12  1  0.38337268  0.82004867  0.43692225  1
  P  P13  1  0.38509317  0.33395887  0.92176462  1
  O  O14  1  0.10337902  0.05174711  0.75838529  1
  O  O15  1  0.10672318  0.55390551  0.25141291  1
  O  O16  1  0.89662098  0.44825289  0.74161471  1
  O  O17  1  0.89327682  0.94609449  0.24858709  1
  O  O18  1  0.79508460  0.77288315  0.06743874  1
  O  O19  1  0.79217462  0.26811576  0.57610229  1
  O  O20  1  0.20491540  0.72711685  0.43256126  1
  O  O21  1  0.20782538  0.23188424  0.92389771  1
  O  O22  1  0.34862233  0.30183481  0.09980728  1
  O  O23  1  0.35970058  0.79825260  0.60660746  1
  O  O24  1  0.65137767  0.19816519  0.40019272  1
  O  O25  1  0.64029942  0.70174740  0.89339254  1
  O  O26  1  0.44992270  0.24657732  0.60831339  1
  O  O27  1  0.45015199  0.75250502  0.10577067  1
  O  O28  1  0.55007730  0.25342268  0.89168661  1
  O  O29  1  0.54984801  0.74749498  0.39422933  1
  O  O30  1  0.19615940  0.37426599  0.55459203  1
  O  O31  1  0.19420172  0.87331269  0.05222830  1
  O  O32  1  0.80384060  0.12573401  0.94540797  1
  O  O33  1  0.80579828  0.62668731  0.44777170  1
  O  O34  1  0.25592175  0.16977158  0.45606797  1
  O  O35  1  0.27201982  0.67749128  0.94391331  1
  O  O36  1  0.74407825  0.33022842  0.04393203  1
  O  O37  1  0.72798018  0.82250872  0.55608669  1
  O  O38  1  0.54918488  0.48985357  0.20510773  1
  O  O39  1  0.54922220  0.97654217  0.70740060  1
  O  O40  1  0.45081512  0.01014643  0.29489227  1
  O  O41  1  0.45077780  0.52345783  0.79259940  1
