# generated using pymatgen
data_K4Zn2Sn21
_symmetry_space_group_name_H-M   'P 1'
_cell_length_a   12.35531815
_cell_length_b   12.35531815
_cell_length_c   12.31591134
_cell_angle_alpha   90.00000000
_cell_angle_beta   90.00000000
_cell_angle_gamma   89.99414332
_symmetry_Int_Tables_number   1
_chemical_formula_structural   K4Zn2Sn21
_chemical_formula_sum   'K8 Zn4 Sn42'
_cell_volume   1880.07172192
_cell_formula_units_Z   2
loop_
 _symmetry_equiv_pos_site_id
 _symmetry_equiv_pos_as_xyz
  1  'x, y, z'
loop_
 _atom_site_type_symbol
 _atom_site_label
 _atom_site_symmetry_multiplicity
 _atom_site_fract_x
 _atom_site_fract_y
 _atom_site_fract_z
 _atom_site_occupancy
  K  K0  1  0.99772887  0.74762009  0.50000000  1
  K  K1  1  0.24762009  0.49772887  0.00000000  1
  K  K2  1  0.50230159  0.00230159  0.75000000  1
  K  K3  1  0.99770172  0.25229727  0.50000000  1
  K  K4  1  0.75229727  0.49770172  0.00000000  1
  K  K5  1  0.50230159  0.00230159  0.25000000  1
  K  K6  1  0.50175953  0.49842504  0.50000000  1
  K  K7  1  0.99842504  0.00175953  0.00000000  1
  Zn  Zn8  1  0.00017242  0.50017242  0.75000000  1
  Zn  Zn9  1  0.49996430  0.24964865  0.00000000  1
  Zn  Zn10  1  0.74964865  0.99996430  0.50000000  1
  Zn  Zn11  1  0.00017242  0.50017242  0.25000000  1
  Sn  Sn12  1  0.31514896  0.68085896  0.68248154  1
  Sn  Sn13  1  0.68194702  0.31907575  0.31824240  1
  Sn  Sn14  1  0.68194702  0.31907575  0.68175760  1
  Sn  Sn15  1  0.31514896  0.68085896  0.31751846  1
  Sn  Sn16  1  0.68398892  0.68211135  0.31959015  1
  Sn  Sn17  1  0.31686580  0.32020709  0.68394265  1
  Sn  Sn18  1  0.31686580  0.32020709  0.31605735  1
  Sn  Sn19  1  0.68398892  0.68211135  0.68040985  1
  Sn  Sn20  1  0.18085896  0.81514896  0.18248154  1
  Sn  Sn21  1  0.81907575  0.18194702  0.81824240  1
  Sn  Sn22  1  0.81907575  0.18194702  0.18175760  1
  Sn  Sn23  1  0.18085896  0.81514896  0.81751846  1
  Sn  Sn24  1  0.18211135  0.18398892  0.81959015  1
  Sn  Sn25  1  0.82020709  0.81686580  0.18394265  1
  Sn  Sn26  1  0.82020709  0.81686580  0.81605735  1
  Sn  Sn27  1  0.18211135  0.18398892  0.18040985  1
  Sn  Sn28  1  0.18368903  0.49961046  0.62124639  1
  Sn  Sn29  1  0.50059816  0.61379530  0.80514937  1
  Sn  Sn30  1  0.38649290  0.80542827  0.50000000  1
  Sn  Sn31  1  0.81585443  0.49957569  0.37876944  1
  Sn  Sn32  1  0.50032819  0.37457565  0.18251954  1
  Sn  Sn33  1  0.62503661  0.18242931  0.50000000  1
  Sn  Sn34  1  0.81585443  0.49957569  0.62123056  1
  Sn  Sn35  1  0.50032819  0.37457565  0.81748046  1
  Sn  Sn36  1  0.18368903  0.49961046  0.37875361  1
  Sn  Sn37  1  0.50059816  0.61379530  0.19485063  1
  Sn  Sn38  1  0.62498337  0.81813581  0.50000000  1
  Sn  Sn39  1  0.38596824  0.19477674  0.50000000  1
  Sn  Sn40  1  0.99961046  0.68368903  0.12124639  1
  Sn  Sn41  1  0.11379530  0.00059816  0.30514937  1
  Sn  Sn42  1  0.30542827  0.88649290  0.00000000  1
  Sn  Sn43  1  0.99957569  0.31585443  0.87876944  1
  Sn  Sn44  1  0.87457565  0.00032819  0.68251954  1
  Sn  Sn45  1  0.68242931  0.12503661  0.00000000  1
  Sn  Sn46  1  0.99957569  0.31585443  0.12123056  1
  Sn  Sn47  1  0.87457565  0.00032819  0.31748046  1
  Sn  Sn48  1  0.99961046  0.68368903  0.87875361  1
  Sn  Sn49  1  0.11379530  0.00059816  0.69485063  1
  Sn  Sn50  1  0.31813581  0.12498337  0.00000000  1
  Sn  Sn51  1  0.69477674  0.88596824  0.00000000  1
  Sn  Sn52  1  0.49946968  0.75072406  0.00000000  1
  Sn  Sn53  1  0.25072406  0.99946968  0.50000000  1
