# generated using pymatgen
data_CeMg6Cd
_symmetry_space_group_name_H-M   'P 1'
_cell_length_a   6.65892275
_cell_length_b   6.65892216
_cell_length_c   5.12074007
_cell_angle_alpha   90.00000000
_cell_angle_beta   90.00000000
_cell_angle_gamma   120.79652040
_symmetry_Int_Tables_number   1
_chemical_formula_structural   CeMg6Cd
_chemical_formula_sum   'Ce1 Mg6 Cd1'
_cell_volume   195.04250061
_cell_formula_units_Z   1
loop_
 _symmetry_equiv_pos_site_id
 _symmetry_equiv_pos_as_xyz
  1  'x, y, z'
loop_
 _atom_site_type_symbol
 _atom_site_label
 _atom_site_symmetry_multiplicity
 _atom_site_fract_x
 _atom_site_fract_y
 _atom_site_fract_z
 _atom_site_occupancy
  Ce  Ce0  1  0.17177945  0.32822055  0.25000000  1
  Mg  Mg1  1  0.17605882  0.83377661  0.25000000  1
  Mg  Mg2  1  0.66622339  0.32394118  0.25000000  1
  Mg  Mg3  1  0.66144132  0.83855868  0.25000000  1
  Mg  Mg4  1  0.33593714  0.68063152  0.75000000  1
  Mg  Mg5  1  0.81936848  0.16406286  0.75000000  1
  Mg  Mg6  1  0.83030043  0.66969957  0.75000000  1
  Cd  Cd7  1  0.33889097  0.16110903  0.75000000  1
