# generated using pymatgen
data_Ho9Er3(MnBi2)2
_symmetry_space_group_name_H-M   'P 1'
_cell_length_a   4.28130526
_cell_length_b   8.24111293
_cell_length_c   14.26926319
_cell_angle_alpha   90.00325441
_cell_angle_beta   90.00000000
_cell_angle_gamma   90.00000000
_symmetry_Int_Tables_number   1
_chemical_formula_structural   Ho9Er3(MnBi2)2
_chemical_formula_sum   'Ho9 Er3 Mn2 Bi4'
_cell_volume   503.45841874
_cell_formula_units_Z   1
loop_
 _symmetry_equiv_pos_site_id
 _symmetry_equiv_pos_as_xyz
  1  'x, y, z'
loop_
 _atom_site_type_symbol
 _atom_site_label
 _atom_site_symmetry_multiplicity
 _atom_site_fract_x
 _atom_site_fract_y
 _atom_site_fract_z
 _atom_site_occupancy
  Ho  Ho0  1  0.50000000  0.69614213  0.69622831  1
  Ho  Ho1  1  0.50000000  0.69609312  0.30375245  1
  Ho  Ho2  1  0.50000000  0.19612497  0.80377399  1
  Ho  Ho3  1  -0.00000000  0.23373705  0.00008192  1
  Ho  Ho4  1  -0.00000000  0.73374753  0.49999597  1
  Ho  Ho5  1  0.00000000  0.38298351  0.38350561  1
  Ho  Ho6  1  0.00000000  0.88303519  0.88357452  1
  Ho  Ho7  1  -0.00000000  0.88313863  0.11650512  1
  Ho  Ho8  1  -0.00000000  0.38299536  0.61646497  1
  Er  Er9  1  0.50000000  0.10804172  0.49998078  1
  Er  Er10  1  0.50000000  0.60807442  -0.00000567  1
  Er  Er11  1  0.50000000  0.19593654  0.19608611  1
  Mn  Mn12  1  0.50000000  0.99981436  0.00010984  1
  Mn  Mn13  1  0.50000000  0.49968350  0.50001465  1
  Bi  Bi14  1  -0.00000000  0.00018249  0.33320151  1
  Bi  Bi15  1  -0.00000000  0.50009201  0.83330016  1
  Bi  Bi16  1  -0.00000000  0.49992248  0.16671246  1
  Bi  Bi17  1  0.00000000  0.00005498  0.66671732  1
