# generated using pymatgen
data_K2MnH8(SO6)2
_symmetry_space_group_name_H-M   'P 1'
_cell_length_a   7.78954810
_cell_length_b   7.79287936
_cell_length_c   10.05709247
_cell_angle_alpha   86.09688278
_cell_angle_beta   86.02571383
_cell_angle_gamma   77.72038660
_symmetry_Int_Tables_number   1
_chemical_formula_structural   K2MnH8(SO6)2
_chemical_formula_sum   'K4 Mn2 H16 S4 O24'
_cell_volume   594.20268249
_cell_formula_units_Z   2
loop_
 _symmetry_equiv_pos_site_id
 _symmetry_equiv_pos_as_xyz
  1  'x, y, z'
loop_
 _atom_site_type_symbol
 _atom_site_label
 _atom_site_symmetry_multiplicity
 _atom_site_fract_x
 _atom_site_fract_y
 _atom_site_fract_z
 _atom_site_occupancy
  K  K0  1  0.09346550  0.56816905  0.25167853  1
  K  K1  1  0.56584854  0.09703664  0.24451814  1
  K  K2  1  0.90691741  0.43149229  0.75059804  1
  K  K3  1  0.43618802  0.90320360  0.75159686  1
  Mn  Mn4  1  0.00033587  0.99933086  0.99914820  1
  Mn  Mn5  1  0.49808767  0.49929248  0.49923533  1
  H  H6  1  0.91399682  0.94473748  0.72489008  1
  H  H7  1  0.07315757  0.06736184  0.27372789  1
  H  H8  1  0.93584910  0.94376863  0.28222145  1
  H  H9  1  0.06269619  0.05551924  0.71727763  1
  H  H10  1  0.17837226  0.66279567  0.61165455  1
  H  H11  1  0.66881541  0.17542030  0.61508282  1
  H  H12  1  0.82123614  0.33356097  0.38619511  1
  H  H13  1  0.33402009  0.82029967  0.38526306  1
  H  H14  1  0.27697270  0.55350248  0.73231945  1
  H  H15  1  0.55228137  0.27574132  0.73208420  1
  H  H16  1  0.72221501  0.44735409  0.26778040  1
  H  H17  1  0.44830286  0.72171789  0.26766652  1
  H  H18  1  0.23089334  0.65692103  0.96157684  1
  H  H19  1  0.65655184  0.23153060  0.96155468  1
  H  H20  1  0.76925369  0.34331274  0.03846490  1
  H  H21  1  0.34359006  0.76851242  0.03873116  1
  S  S22  1  0.79611160  0.78423177  0.52305469  1
  S  S23  1  0.21083296  0.20430916  0.47108183  1
  S  S24  1  0.29453432  0.29548055  0.95427128  1
  S  S25  1  0.70547319  0.70454437  0.04507910  1
  O  O26  1  0.21788369  0.46933429  0.88485361  1
  O  O27  1  0.46943707  0.21870085  0.88533921  1
  O  O28  1  0.78196114  0.53056333  0.11468717  1
  O  O29  1  0.53082421  0.78141150  0.11358561  1
  O  O30  1  0.31761060  0.31929615  0.09531707  1
  O  O31  1  0.68298051  0.68042153  0.90385950  1
  O  O32  1  0.99545105  0.98653187  0.77987182  1
  O  O33  1  0.00814757  0.00679070  0.21909480  1
  O  O34  1  0.82641426  0.82597426  0.05966170  1
  O  O35  1  0.17382430  0.17389472  0.93955781  1
  O  O36  1  0.22827329  0.77193228  0.00018344  1
  O  O37  1  0.77228436  0.22842200  0.99925931  1
  O  O38  1  0.33204853  0.32795383  0.43324881  1
  O  O39  1  0.66427946  0.67282734  0.56501519  1
  O  O40  1  0.29687012  0.62404015  0.64819939  1
  O  O41  1  0.62299051  0.29475356  0.64766054  1
  O  O42  1  0.70215432  0.37687845  0.35183703  1
  O  O43  1  0.37614125  0.70093386  0.35075332  1
  O  O44  1  0.97418018  0.68317848  0.55437633  1
  O  O45  1  0.75024866  0.94574445  0.60170560  1
  O  O46  1  0.03642998  0.28172377  0.41746789  1
  O  O47  1  0.28531553  0.03573551  0.40677372  1
  O  O48  1  0.79101411  0.83167018  0.37699060  1
  O  O49  1  0.19493577  0.17543979  0.61904779  1
