# generated using pymatgen
data_InCuSnS4
_symmetry_space_group_name_H-M   'P 1'
_cell_length_a   7.48182716
_cell_length_b   7.48182716
_cell_length_c   7.48182716
_cell_angle_alpha   89.78433589
_cell_angle_beta   60.13060914
_cell_angle_gamma   119.88173848
_symmetry_Int_Tables_number   1
_chemical_formula_structural   InCuSnS4
_chemical_formula_sum   'In2 Cu2 Sn2 S8'
_cell_volume   296.70218750
_cell_formula_units_Z   2
loop_
 _symmetry_equiv_pos_site_id
 _symmetry_equiv_pos_as_xyz
  1  'x, y, z'
loop_
 _atom_site_type_symbol
 _atom_site_label
 _atom_site_symmetry_multiplicity
 _atom_site_fract_x
 _atom_site_fract_y
 _atom_site_fract_z
 _atom_site_occupancy
  In  In0  1  0.75000000  0.37500000  0.87500000  1
  In  In1  1  0.25000000  0.37500000  0.37500000  1
  Cu  Cu2  1  0.50000000  0.75339869  0.74660131  1
  Cu  Cu3  1  0.00000000  0.99660131  0.00339869  1
  Sn  Sn4  1  0.25000000  0.87500000  0.37500000  1
  Sn  Sn5  1  0.75000000  0.37500000  0.37500000  1
  S  S6  1  0.25460338  0.12340624  0.62199038  1
  S  S7  1  0.74539662  0.12340624  0.13119714  1
  S  S8  1  0.74606139  0.61503568  0.13102570  1
  S  S9  1  0.25393861  0.12291291  0.13102570  1
  S  S10  1  0.24539662  0.62659376  0.12800962  1
  S  S11  1  0.75460338  0.62659376  0.61880286  1
  S  S12  1  0.75393861  0.13496432  0.61897430  1
  S  S13  1  0.24606139  0.62708709  0.61897430  1
