# generated using pymatgen
data_K2Na4Li2Ti4Mn3Fe(SiO3)16
_symmetry_space_group_name_H-M   'P 1'
_cell_length_a   10.11725865
_cell_length_b   10.51588923
_cell_length_c   10.51512255
_cell_angle_alpha   75.03529322
_cell_angle_beta   70.31066612
_cell_angle_gamma   70.44304096
_symmetry_Int_Tables_number   1
_chemical_formula_structural   K2Na4Li2Ti4Mn3Fe(SiO3)16
_chemical_formula_sum   'K2 Na4 Li2 Ti4 Mn3 Fe1 Si16 O48'
_cell_volume   979.12236325
_cell_formula_units_Z   1
loop_
 _symmetry_equiv_pos_site_id
 _symmetry_equiv_pos_as_xyz
  1  'x, y, z'
loop_
 _atom_site_type_symbol
 _atom_site_label
 _atom_site_symmetry_multiplicity
 _atom_site_fract_x
 _atom_site_fract_y
 _atom_site_fract_z
 _atom_site_occupancy
  K  K0  1  0.75017949  0.43190319  0.56844519  1
  K  K1  1  0.24971467  0.56795266  0.43220390  1
  Na  Na2  1  0.30196794  0.52747633  0.94857786  1
  Na  Na3  1  0.19796818  0.05153037  0.47256522  1
  Na  Na4  1  0.69802632  0.47281854  0.05128818  1
  Na  Na5  1  0.80179214  0.94830663  0.52754105  1
  Li  Li6  1  0.75118203  0.92455385  0.07303028  1
  Li  Li7  1  0.24987492  0.07358834  0.92688384  1
  Ti  Ti8  1  0.62035423  0.96459163  0.85626387  1
  Ti  Ti9  1  0.88032172  0.14418472  0.03428151  1
  Ti  Ti10  1  0.38021966  0.03473342  0.14408878  1
  Ti  Ti11  1  0.11903284  0.85571388  0.96603854  1
  Mn  Mn12  1  0.59799678  0.97333888  0.34492479  1
  Mn  Mn13  1  0.09623579  0.34730902  0.97310887  1
  Mn  Mn14  1  0.40199669  0.02705021  0.65462985  1
  Fe  Fe15  1  0.90298939  0.65418625  0.02886527  1
  Si  Si16  1  0.89252215  0.24369327  0.29304467  1
  Si  Si17  1  0.60758483  0.70682290  0.75594440  1
  Si  Si18  1  0.10732324  0.75574557  0.70742231  1
  Si  Si19  1  0.39216511  0.29325006  0.24394106  1
  Si  Si20  1  0.06440604  0.45010887  0.25736866  1
  Si  Si21  1  0.43595291  0.74214083  0.54980574  1
  Si  Si22  1  0.93460939  0.55116619  0.74421366  1
  Si  Si23  1  0.56448672  0.25760791  0.44967654  1
  Si  Si24  1  0.91882676  0.04413020  0.74834005  1
  Si  Si25  1  0.58143416  0.25163508  0.95567240  1
  Si  Si26  1  0.08132801  0.95564084  0.25151906  1
  Si  Si27  1  0.41854755  0.74813718  0.04417457  1
  Si  Si28  1  0.58196568  0.70366654  0.24933908  1
  Si  Si29  1  0.91901244  0.74880986  0.29614588  1
  Si  Si30  1  0.41869863  0.29683433  0.74948642  1
  Si  Si31  1  0.08090930  0.25099183  0.70379612  1
  O  O32  1  0.98011566  0.32813380  0.33211582  1
  O  O33  1  0.52049923  0.66732818  0.67126728  1
  O  O34  1  0.01995411  0.67221478  0.66720095  1
  O  O35  1  0.47987827  0.33250554  0.32813002  1
  O  O36  1  0.09481542  0.72595087  0.87098737  1
  O  O37  1  0.40178468  0.13082488  0.27327019  1
  O  O38  1  0.90213489  0.27298557  0.13075441  1
  O  O39  1  0.59805206  0.86909764  0.72682351  1
  O  O40  1  0.73899609  0.60401939  0.18772271  1
  O  O41  1  0.76293537  0.80686852  0.39762108  1
  O  O42  1  0.26323536  0.39884579  0.80736403  1
  O  O43  1  0.23654263  0.19349807  0.60146108  1
  O  O44  1  0.93693873  0.78682576  0.13083165  1
  O  O45  1  0.56409998  0.86856451  0.21179843  1
  O  O46  1  0.06384958  0.21214344  0.86908250  1
  O  O47  1  0.43584050  0.13162443  0.78777181  1
  O  O48  1  0.74363481  0.83165735  0.92734826  1
  O  O49  1  0.75705150  0.07246551  0.16784125  1
  O  O50  1  0.25667622  0.16775140  0.07338366  1
  O  O51  1  0.24304727  0.92618663  0.83177392  1
  O  O52  1  0.75901166  0.06000457  0.73152366  1
  O  O53  1  0.74138556  0.26842234  0.93969840  1
  O  O54  1  0.24126686  0.93930713  0.26843663  1
  O  O55  1  0.25844241  0.73162455  0.06055980  1
  O  O56  1  0.93069648  0.00277077  0.90773055  1
  O  O57  1  0.56939497  0.09225691  0.99734289  1
  O  O58  1  0.06961016  0.99700665  0.09208491  1
  O  O59  1  0.43052341  0.90749924  0.00282642  1
  O  O60  1  0.22639434  0.39023792  0.28728748  1
  O  O61  1  0.27376600  0.71171999  0.61083505  1
  O  O62  1  0.77328045  0.60991473  0.71277617  1
  O  O63  1  0.72642513  0.28817140  0.38977651  1
  O  O64  1  0.07984275  0.48801191  0.09625744  1
  O  O65  1  0.41920799  0.90336554  0.51329680  1
  O  O66  1  0.91881796  0.51587698  0.90505971  1
  O  O67  1  0.58093090  0.09644185  0.48621578  1
  O  O68  1  0.96407465  0.07827421  0.34107018  1
  O  O69  1  0.53532669  0.65871781  0.92146648  1
  O  O70  1  0.03648636  0.92127356  0.65922908  1
  O  O71  1  0.46414643  0.34113443  0.07835911  1
  O  O72  1  0.03470027  0.81433054  0.32797002  1
  O  O73  1  0.46603077  0.67073460  0.18520806  1
  O  O74  1  0.96518029  0.18562300  0.67154064  1
  O  O75  1  0.53504454  0.32859298  0.81439462  1
  O  O76  1  0.98214473  0.57947155  0.34134027  1
  O  O77  1  0.51900618  0.65898269  0.41897693  1
  O  O78  1  0.01656093  0.42035597  0.66175738  1
  O  O79  1  0.48259309  0.34076477  0.57980152  1
