# generated using pymatgen
data_LiMo10(P2O11)5
_symmetry_space_group_name_H-M   'P 1'
_cell_length_a   9.95021045
_cell_length_b   18.54202281
_cell_length_c   12.00007625
_cell_angle_alpha   75.25953405
_cell_angle_beta   91.35486620
_cell_angle_gamma   92.55546507
_symmetry_Int_Tables_number   1
_chemical_formula_structural   LiMo10(P2O11)5
_chemical_formula_sum   'Li2 Mo20 P20 O110'
_cell_volume   2138.80997121
_cell_formula_units_Z   2
loop_
 _symmetry_equiv_pos_site_id
 _symmetry_equiv_pos_as_xyz
  1  'x, y, z'
loop_
 _atom_site_type_symbol
 _atom_site_label
 _atom_site_symmetry_multiplicity
 _atom_site_fract_x
 _atom_site_fract_y
 _atom_site_fract_z
 _atom_site_occupancy
  Li  Li0  1  0.89802177  0.30152045  0.29734975  1
  Li  Li1  1  0.10197823  0.69847955  0.70265025  1
  Mo  Mo2  1  0.56225817  0.05731742  0.19915967  1
  Mo  Mo3  1  0.96140078  0.85756556  0.99960153  1
  Mo  Mo4  1  0.37061869  0.65559697  0.80742706  1
  Mo  Mo5  1  0.76211016  0.45723650  0.59869545  1
  Mo  Mo6  1  0.16896962  0.25660051  0.39963236  1
  Mo  Mo7  1  0.23788984  0.54276350  0.40130455  1
  Mo  Mo8  1  0.62938131  0.34440303  0.19257294  1
  Mo  Mo9  1  0.03859922  0.14243444  0.00039847  1
  Mo  Mo10  1  0.43774183  0.94268258  0.80084033  1
  Mo  Mo11  1  0.83103038  0.74339949  0.60036764  1
  Mo  Mo12  1  0.92247654  0.99053355  0.69525092  1
  Mo  Mo13  1  0.12257178  0.39197488  0.09358477  1
  Mo  Mo14  1  0.32316591  0.79036235  0.49443135  1
  Mo  Mo15  1  0.52266961  0.19047694  0.89554935  1
  Mo  Mo16  1  0.72355800  0.58996756  0.29454704  1
  Mo  Mo17  1  0.07752346  0.00946645  0.30474908  1
  Mo  Mo18  1  0.27644200  0.41003244  0.70545296  1
  Mo  Mo19  1  0.47733039  0.80952306  0.10445065  1
  Mo  Mo20  1  0.67683409  0.20963765  0.50556865  1
  Mo  Mo21  1  0.87742822  0.60802512  0.90641523  1
  P  P22  1  0.96757122  0.61100961  0.49599414  1
  P  P23  1  0.36851868  0.41154626  0.29495699  1
  P  P24  1  0.76857815  0.21090233  0.09633342  1
  P  P25  1  0.16710912  0.01050485  0.89488360  1
  P  P26  1  0.56654869  0.81167681  0.69524534  1
  P  P27  1  0.83289088  0.98949515  0.10511640  1
  P  P28  1  0.23142185  0.78909767  0.90366658  1
  P  P29  1  0.63148132  0.58845374  0.70504301  1
  P  P30  1  0.03242878  0.38899039  0.50400586  1
  P  P31  1  0.43345131  0.18832319  0.30475466  1
  P  P32  1  0.32855567  0.91643941  0.24498588  1
  P  P33  1  0.72860587  0.71649911  0.04521687  1
  P  P34  1  0.12786442  0.51779900  0.84340430  1
  P  P35  1  0.52791159  0.31669401  0.64558245  1
  P  P36  1  0.92807672  0.11701489  0.44534637  1
  P  P37  1  0.47208841  0.68330599  0.35441755  1
  P  P38  1  0.87213558  0.48220100  0.15659570  1
  P  P39  1  0.27139413  0.28350089  0.95478313  1
  P  P40  1  0.67144433  0.08356059  0.75501412  1
  P  P41  1  0.07192328  0.88298511  0.55465363  1
  O  O42  1  0.68142152  0.00231370  0.12057964  1
  O  O43  1  0.08070869  0.80412463  0.92124904  1
  O  O44  1  0.48136771  0.59999448  0.71727267  1
  O  O45  1  0.88120595  0.40271916  0.52033355  1
  O  O46  1  0.27988605  0.20023117  0.32348246  1
  O  O47  1  0.11879405  0.59728084  0.47966645  1
  O  O48  1  0.51863229  0.40000552  0.28272733  1
  O  O49  1  0.91929131  0.19587537  0.07875096  1
  O  O50  1  0.31857848  0.99768630  0.87942036  1
  O  O51  1  0.72011395  0.79976883  0.67651754  1
  O  O52  1  0.62035492  0.66256613  0.35771641  1
  O  O53  1  0.02331913  0.46471569  0.15539862  1
  O  O54  1  0.41988222  0.26266836  0.95787134  1
  O  O55  1  0.82000576  0.06263678  0.75755184  1
  O  O56  1  0.22089337  0.86300983  0.55721415  1
  O  O57  1  0.17999424  0.93736322  0.24244816  1
  O  O58  1  0.58011778  0.73733164  0.04212866  1
  O  O59  1  0.97668087  0.53528431  0.84460138  1
  O  O60  1  0.37964508  0.33743387  0.64228359  1
  O  O61  1  0.77910663  0.13699017  0.44278585  1
  O  O62  1  0.49300067  0.83319093  0.58054697  1
  O  O63  1  0.89187149  0.63388369  0.38292737  1
  O  O64  1  0.29087808  0.43202896  0.18232946  1
  O  O65  1  0.69219128  0.23314762  0.98324763  1
  O  O66  1  0.09224398  0.03271236  0.78111759  1
  O  O67  1  0.30780872  0.76685238  0.01675237  1
  O  O68  1  0.70912192  0.56797104  0.81767054  1
  O  O69  1  0.10812851  0.36611631  0.61707263  1
  O  O70  1  0.50699933  0.16680907  0.41945303  1
  O  O71  1  0.90775602  0.96728764  0.21888241  1
  O  O72  1  0.38626726  0.88657079  0.36627574  1
  O  O73  1  0.78632199  0.68661128  0.16616995  1
  O  O74  1  0.18600370  0.48636897  0.96488951  1
  O  O75  1  0.58656774  0.28635027  0.76617613  1
  O  O76  1  0.98745284  0.08719944  0.56573069  1
  O  O77  1  0.41343226  0.71364973  0.23382387  1
  O  O78  1  0.81399630  0.51363103  0.03511049  1
  O  O79  1  0.21367801  0.31338872  0.83383005  1
  O  O80  1  0.61373274  0.11342921  0.63372426  1
  O  O81  1  0.01254716  0.91280056  0.43426931  1
  O  O82  1  0.46353097  0.73770979  0.43244062  1
  O  O83  1  0.86503615  0.53914447  0.23075621  1
  O  O84  1  0.26244297  0.33777998  0.03267519  1
  O  O85  1  0.66406248  0.13839896  0.83164273  1
  O  O86  1  0.06307298  0.93721043  0.63201485  1
  O  O87  1  0.33593752  0.86160104  0.16835727  1
  O  O88  1  0.73755703  0.66222002  0.96732481  1
  O  O89  1  0.13496385  0.46085553  0.76924379  1
  O  O90  1  0.53646903  0.26229021  0.56755938  1
  O  O91  1  0.93692702  0.06278957  0.36798515  1
  O  O92  1  0.41262925  0.98960660  0.18438100  1
  O  O93  1  0.81223793  0.78990579  0.98450522  1
  O  O94  1  0.20208846  0.59243593  0.78202773  1
  O  O95  1  0.61234200  0.38976282  0.58459201  1
  O  O96  1  0.00824953  0.19278904  0.38405635  1
  O  O97  1  0.38765800  0.61023718  0.41540799  1
  O  O98  1  0.79791154  0.40756407  0.21797227  1
  O  O99  1  0.18776207  0.21009421  0.01549478  1
  O  O100  1  0.58737075  0.01039340  0.81561900  1
  O  O101  1  0.99175047  0.80721096  0.61594365  1
  O  O102  1  0.10666349  0.93743149  0.97721560  1
  O  O103  1  0.51423272  0.73874389  0.77754560  1
  O  O104  1  0.90749279  0.53748140  0.57750931  1
  O  O105  1  0.30511486  0.33744974  0.37790819  1
  O  O106  1  0.70674491  0.13684853  0.17709981  1
  O  O107  1  0.69488514  0.66255026  0.62209181  1
  O  O108  1  0.09250721  0.46251860  0.42249069  1
  O  O109  1  0.48576728  0.26125611  0.22245440  1
  O  O110  1  0.89333651  0.06256851  0.02278440  1
  O  O111  1  0.29325509  0.86315147  0.82290019  1
  O  O112  1  0.29479794  0.71706548  0.62392265  1
  O  O113  1  0.70363271  0.51589593  0.42261069  1
  O  O114  1  0.09581395  0.31689990  0.22478294  1
  O  O115  1  0.50310927  0.11583471  0.02281045  1
  O  O116  1  0.90281425  0.91595304  0.82235203  1
  O  O117  1  0.49689073  0.88416529  0.97718955  1
  O  O118  1  0.90418605  0.68310010  0.77521706  1
  O  O119  1  0.29636729  0.48410407  0.57738931  1
  O  O120  1  0.70520206  0.28293452  0.37607735  1
  O  O121  1  0.09718575  0.08404696  0.17764797  1
  O  O122  1  0.60737886  0.01621429  0.33705281  1
  O  O123  1  0.00667912  0.81640623  0.13731366  1
  O  O124  1  0.40698184  0.61307845  0.94601027  1
  O  O125  1  0.80692707  0.41631473  0.73670483  1
  O  O126  1  0.20751389  0.21598422  0.53906754  1
  O  O127  1  0.19307293  0.58368527  0.26329517  1
  O  O128  1  0.59301816  0.38692155  0.05398973  1
  O  O129  1  0.99332088  0.18359377  0.86268634  1
  O  O130  1  0.39262114  0.98378571  0.66294719  1
  O  O131  1  0.79248611  0.78401578  0.46093246  1
  O  O132  1  0.19319758  0.77225870  0.40829067  1
  O  O133  1  0.59282168  0.57128184  0.20951262  1
  O  O134  1  0.99290291  0.37186216  0.00917783  1
  O  O135  1  0.39326320  0.17130062  0.80942717  1
  O  O136  1  0.79323736  0.97138101  0.60897090  1
  O  O137  1  0.60673680  0.82869938  0.19057283  1
  O  O138  1  0.00709709  0.62813784  0.99082217  1
  O  O139  1  0.40717832  0.42871816  0.79048738  1
  O  O140  1  0.80680242  0.22774130  0.59170933  1
  O  O141  1  0.20676264  0.02861899  0.39102910  1
  O  O142  1  0.83602666  0.92860237  0.03633306  1
  O  O143  1  0.22576670  0.72914370  0.83378095  1
  O  O144  1  0.63911443  0.52855720  0.63513785  1
  O  O145  1  0.03084562  0.32802962  0.43405920  1
  O  O146  1  0.43413942  0.12644088  0.23794522  1
  O  O147  1  0.96915438  0.67197038  0.56594080  1
  O  O148  1  0.36088557  0.47144280  0.36486215  1
  O  O149  1  0.77423330  0.27085630  0.16621905  1
  O  O150  1  0.16397334  0.07139763  0.96366694  1
  O  O151  1  0.56586058  0.87355912  0.76205478  1
