# generated using pymatgen
data_GdYCu4
_symmetry_space_group_name_H-M   'P 1'
_cell_length_a   4.35678453
_cell_length_b   5.53186028
_cell_length_c   5.54033815
_cell_angle_alpha   96.10396490
_cell_angle_beta   113.27567648
_cell_angle_gamma   66.83263390
_symmetry_Int_Tables_number   1
_chemical_formula_structural   GdYCu4
_chemical_formula_sum   'Gd1 Y1 Cu4'
_cell_volume   112.57865240
_cell_formula_units_Z   1
loop_
 _symmetry_equiv_pos_site_id
 _symmetry_equiv_pos_as_xyz
  1  'x, y, z'
loop_
 _atom_site_type_symbol
 _atom_site_label
 _atom_site_symmetry_multiplicity
 _atom_site_fract_x
 _atom_site_fract_y
 _atom_site_fract_z
 _atom_site_occupancy
  Gd  Gd0  1  0.75010045  0.71121940  0.21132538  1
  Y  Y1  1  0.24990778  0.28835467  0.78826915  1
  Cu  Cu2  1  0.55088274  0.28407595  0.38588151  1
  Cu  Cu3  1  0.44940493  0.71581923  0.61466673  1
  Cu  Cu4  1  0.05056102  0.11466290  0.21579786  1
  Cu  Cu5  1  0.94914308  0.88586784  0.78405935  1
