# generated using pymatgen
data_K8Cu9S8(ClO18)2
_symmetry_space_group_name_H-M   'P 1'
_cell_length_a   10.16966362
_cell_length_b   10.17404627
_cell_length_c   9.88354803
_cell_angle_alpha   104.06153747
_cell_angle_beta   75.94097978
_cell_angle_gamma   93.37260788
_symmetry_Int_Tables_number   1
_chemical_formula_structural   K8Cu9S8(ClO18)2
_chemical_formula_sum   'K8 Cu9 S8 Cl2 O36'
_cell_volume   962.26137128
_cell_formula_units_Z   1
loop_
 _symmetry_equiv_pos_site_id
 _symmetry_equiv_pos_as_xyz
  1  'x, y, z'
loop_
 _atom_site_type_symbol
 _atom_site_label
 _atom_site_symmetry_multiplicity
 _atom_site_fract_x
 _atom_site_fract_y
 _atom_site_fract_z
 _atom_site_occupancy
  K  K0  1  0.68505606  0.06188076  0.07227794  1
  K  K1  1  0.68503276  0.06203882  0.57808561  1
  K  K2  1  0.31531237  0.93801370  0.88371013  1
  K  K3  1  0.31462512  0.93803821  0.38980816  1
  K  K4  1  0.06212860  0.31493950  0.54717091  1
  K  K5  1  0.06201078  0.31487886  0.04118160  1
  K  K6  1  0.93790039  0.68549835  0.42077701  1
  K  K7  1  0.93776770  0.68475015  0.91471733  1
  Cu  Cu8  1  0.00004851  0.99998643  0.22445348  1
  Cu  Cu9  1  0.53620184  0.65015731  0.53141979  1
  Cu  Cu10  1  0.53664312  0.64986385  0.03056062  1
  Cu  Cu11  1  0.46375888  0.35029168  0.47455437  1
  Cu  Cu12  1  0.46351127  0.35039975  0.97426850  1
  Cu  Cu13  1  0.65011459  0.46426319  0.70633276  1
  Cu  Cu14  1  0.64969789  0.46329096  0.20611253  1
  Cu  Cu15  1  0.35008546  0.53646176  0.29942880  1
  Cu  Cu16  1  0.35013662  0.53656853  0.79891526  1
  S  S17  1  0.32240051  0.20943588  0.21331893  1
  S  S18  1  0.32394767  0.20948528  0.71285785  1
  S  S19  1  0.67624007  0.79064792  0.76995831  1
  S  S20  1  0.67737534  0.79062228  0.27005123  1
  S  S21  1  0.20929260  0.67607946  0.60811674  1
  S  S22  1  0.20926446  0.67767793  0.10865799  1
  S  S23  1  0.79086022  0.32233457  0.37445547  1
  S  S24  1  0.79066019  0.32389410  0.87477528  1
  Cl  Cl25  1  0.00001445  0.00002393  0.44612501  1
  Cl  Cl26  1  0.99996594  0.99997654  0.00267780  1
  O  O27  1  0.45112617  0.21364250  0.59505308  1
  O  O28  1  0.44861486  0.21180798  0.09422467  1
  O  O29  1  0.54900511  0.78640750  0.71358474  1
  O  O30  1  0.55109687  0.78837690  0.21348527  1
  O  O31  1  0.21351722  0.54887776  0.48826757  1
  O  O32  1  0.21163516  0.55169034  0.98842067  1
  O  O33  1  0.78865986  0.44857068  0.31860377  1
  O  O34  1  0.78643050  0.45104507  0.82059869  1
  O  O35  1  0.25004280  0.08045475  0.17882185  1
  O  O36  1  0.25292789  0.08095020  0.67889879  1
  O  O37  1  0.74724752  0.91907335  0.76429509  1
  O  O38  1  0.75000935  0.91947133  0.26411466  1
  O  O39  1  0.08072256  0.74712665  0.63841252  1
  O  O40  1  0.08025534  0.75013284  0.13869494  1
  O  O41  1  0.91979165  0.24979359  0.30368435  1
  O  O42  1  0.91923243  0.25285482  0.80517258  1
  O  O43  1  0.50197634  0.50077071  0.37542652  1
  O  O44  1  0.49746165  0.49818731  0.87607670  1
  O  O45  1  0.49920809  0.50098873  0.62674444  1
  O  O46  1  0.50086949  0.49807831  0.12474033  1
  O  O47  1  0.23747309  0.32888843  0.23259432  1
  O  O48  1  0.23904136  0.32936882  0.73257045  1
  O  O49  1  0.76094334  0.67056552  0.68705564  1
  O  O50  1  0.76231775  0.67109781  0.18726449  1
  O  O51  1  0.32927832  0.76075941  0.56748168  1
  O  O52  1  0.32888726  0.76253033  0.06848663  1
  O  O53  1  0.67120107  0.23770168  0.35124795  1
  O  O54  1  0.67064348  0.23919339  0.85214336  1
  O  O55  1  0.36754139  0.21319398  0.34955116  1
  O  O56  1  0.36874277  0.21419371  0.85024652  1
  O  O57  1  0.63256543  0.78692029  0.42712297  1
  O  O58  1  0.63139162  0.78592022  0.92706939  1
  O  O59  1  0.21409550  0.63146907  0.74308059  1
  O  O60  1  0.21291178  0.63249589  0.24304640  1
  O  O61  1  0.78713837  0.36722811  0.53321971  1
  O  O62  1  0.78594318  0.36867232  0.03452807  1
