# generated using pymatgen
data_Ge(TePd4)2
_symmetry_space_group_name_H-M   'P 1'
_cell_length_a   7.67656882
_cell_length_b   7.67656882
_cell_length_c   15.16714448
_cell_angle_alpha   75.34100053
_cell_angle_beta   75.34100053
_cell_angle_gamma   60.00000624
_symmetry_Int_Tables_number   1
_chemical_formula_structural   Ge(TePd4)2
_chemical_formula_sum   'Ge4 Te8 Pd32'
_cell_volume   740.26433758
_cell_formula_units_Z   4
loop_
 _symmetry_equiv_pos_site_id
 _symmetry_equiv_pos_as_xyz
  1  'x, y, z'
loop_
 _atom_site_type_symbol
 _atom_site_label
 _atom_site_symmetry_multiplicity
 _atom_site_fract_x
 _atom_site_fract_y
 _atom_site_fract_z
 _atom_site_occupancy
  Ge  Ge0  1  0.70957898  0.70957898  0.87126307  1
  Ge  Ge1  1  0.20957898  0.20957898  0.37126307  1
  Ge  Ge2  1  0.05103712  0.05103712  0.84688865  1
  Ge  Ge3  1  0.55103712  0.55103712  0.34688865  1
  Te  Te4  1  0.39370689  0.39370689  0.81887932  1
  Te  Te5  1  0.89370689  0.89370689  0.31887932  1
  Te  Te6  1  0.80323909  0.11826492  0.59580070  1
  Te  Te7  1  0.11826492  0.48269528  0.59580070  1
  Te  Te8  1  0.48269528  0.80323909  0.59580070  1
  Te  Te9  1  0.30323909  0.98269528  0.09580070  1
  Te  Te10  1  0.98269528  0.61826492  0.09580070  1
  Te  Te11  1  0.61826492  0.30323909  0.09580070  1
  Pd  Pd12  1  0.17197157  0.92199480  0.49639123  1
  Pd  Pd13  1  0.92199480  0.40964239  0.49639123  1
  Pd  Pd14  1  0.40964239  0.17197157  0.49639123  1
  Pd  Pd15  1  0.67197157  0.90964239  0.99639123  1
  Pd  Pd16  1  0.90964239  0.42199480  0.99639123  1
  Pd  Pd17  1  0.42199480  0.67197157  0.99639123  1
  Pd  Pd18  1  0.17498797  0.70224564  0.68892901  1
  Pd  Pd19  1  0.70224564  0.43383738  0.68892901  1
  Pd  Pd20  1  0.43383738  0.17498797  0.68892901  1
  Pd  Pd21  1  0.67498797  0.93383738  0.18892901  1
  Pd  Pd22  1  0.93383738  0.20224564  0.18892901  1
  Pd  Pd23  1  0.20224564  0.67498797  0.18892901  1
  Pd  Pd24  1  0.49169484  0.49169484  0.52491547  1
  Pd  Pd25  1  0.99169484  0.99169484  0.02491547  1
  Pd  Pd26  1  0.76705825  0.76705825  0.69882524  1
  Pd  Pd27  1  0.26705825  0.26705825  0.19882524  1
  Pd  Pd28  1  0.11055205  0.11055205  0.66834385  1
  Pd  Pd29  1  0.61055205  0.61055205  0.16834385  1
  Pd  Pd30  1  0.83305491  0.83305491  0.50083527  1
  Pd  Pd31  1  0.33305491  0.33305491  0.00083527  1
  Pd  Pd32  1  0.76763062  0.03332332  0.79690430  1
  Pd  Pd33  1  0.03332332  0.40214176  0.79690430  1
  Pd  Pd34  1  0.40214176  0.76763062  0.79690430  1
  Pd  Pd35  1  0.26763062  0.90214176  0.29690430  1
  Pd  Pd36  1  0.90214176  0.53332332  0.29690430  1
  Pd  Pd37  1  0.53332332  0.26763062  0.29690430  1
  Pd  Pd38  1  0.06425142  0.70237969  0.89465779  1
  Pd  Pd39  1  0.70237969  0.33871110  0.89465779  1
  Pd  Pd40  1  0.33871110  0.06425142  0.89465779  1
  Pd  Pd41  1  0.56425142  0.83871110  0.39465779  1
  Pd  Pd42  1  0.83871110  0.20237969  0.39465779  1
  Pd  Pd43  1  0.20237969  0.56425142  0.39465779  1
