# generated using pymatgen
data_Ho2Mn12GaGe11
_symmetry_space_group_name_H-M   'P 1'
_cell_length_a   5.17130703
_cell_length_b   5.17266674
_cell_length_c   16.23077359
_cell_angle_alpha   89.99999016
_cell_angle_beta   89.99998030
_cell_angle_gamma   60.00869183
_symmetry_Int_Tables_number   1
_chemical_formula_structural   Ho2Mn12GaGe11
_chemical_formula_sum   'Ho2 Mn12 Ga1 Ge11'
_cell_volume   376.03018182
_cell_formula_units_Z   1
loop_
 _symmetry_equiv_pos_site_id
 _symmetry_equiv_pos_as_xyz
  1  'x, y, z'
loop_
 _atom_site_type_symbol
 _atom_site_label
 _atom_site_symmetry_multiplicity
 _atom_site_fract_x
 _atom_site_fract_y
 _atom_site_fract_z
 _atom_site_occupancy
  Ho  Ho0  1  0.99997927  0.00000000  0.00066394  1
  Ho  Ho1  1  0.99997700  0.00000000  0.49993798  1
  Mn  Mn2  1  0.49999354  0.49999322  0.12443649  1
  Mn  Mn3  1  0.49998927  0.49999692  0.62534782  1
  Mn  Mn4  1  0.49999863  0.00000000  0.12442784  1
  Mn  Mn5  1  0.49999356  0.00000000  0.62535062  1
  Mn  Mn6  1  0.99998676  0.50000678  0.12443649  1
  Mn  Mn7  1  0.99998619  0.50000308  0.62534782  1
  Mn  Mn8  1  0.49999029  0.49999527  0.37523736  1
  Mn  Mn9  1  0.49999114  0.49999673  0.87461589  1
  Mn  Mn10  1  0.49999498  0.00000000  0.37523172  1
  Mn  Mn11  1  0.49999514  0.00000000  0.87461678  1
  Mn  Mn12  1  0.99998556  0.50000473  0.37523736  1
  Mn  Mn13  1  0.99998788  0.50000327  0.87461589  1
  Ga  Ga14  1  0.99999693  1.00000000  0.17287960  1
  Ge  Ge15  1  0.66665942  0.66662577  0.50002396  1
  Ge  Ge16  1  0.66668347  0.66659431  0.00051606  1
  Ge  Ge17  1  0.33327778  0.33340569  0.00051606  1
  Ge  Ge18  1  0.33328519  0.33337423  0.50002396  1
  Ge  Ge19  1  0.66666389  0.66660340  0.24886208  1
  Ge  Ge20  1  0.66664884  0.66664677  0.74997274  1
  Ge  Ge21  1  0.33326729  0.33339660  0.24886208  1
  Ge  Ge22  1  0.33329562  0.33335323  0.74997274  1
  Ge  Ge23  1  0.99998954  0.00000000  0.67190095  1
  Ge  Ge24  1  0.99999178  0.00000000  0.32865580  1
  Ge  Ge25  1  0.99999106  0.00000000  0.82830994  1
