# generated using pymatgen
data_HoInGe2O7
_symmetry_space_group_name_H-M   'P 1'
_cell_length_a   5.70218134
_cell_length_b   5.70218134
_cell_length_c   9.98210951
_cell_angle_alpha   97.17914597
_cell_angle_beta   97.17914597
_cell_angle_gamma   105.68448446
_symmetry_Int_Tables_number   1
_chemical_formula_structural   HoInGe2O7
_chemical_formula_sum   'Ho2 In2 Ge4 O14'
_cell_volume   305.72007642
_cell_formula_units_Z   2
loop_
 _symmetry_equiv_pos_site_id
 _symmetry_equiv_pos_as_xyz
  1  'x, y, z'
loop_
 _atom_site_type_symbol
 _atom_site_label
 _atom_site_symmetry_multiplicity
 _atom_site_fract_x
 _atom_site_fract_y
 _atom_site_fract_z
 _atom_site_occupancy
  Ho  Ho0  1  0.69933868  0.30297997  0.99554002  1
  Ho  Ho1  1  0.69702003  0.30066132  0.50445998  1
  In  In2  1  0.31305144  0.68770738  0.00289885  1
  In  In3  1  0.31229262  0.68694856  0.49710115  1
  Ge  Ge4  1  0.77222671  0.76266569  0.29631329  1
  Ge  Ge5  1  0.23733431  0.22777329  0.20368671  1
  Ge  Ge6  1  0.22219880  0.23214698  0.70402783  1
  Ge  Ge7  1  0.76785302  0.77780120  0.79597217  1
  O  O8  1  0.93079169  0.59404074  0.39264818  1
  O  O9  1  0.40595926  0.06920831  0.10735182  1
  O  O10  1  0.09156990  0.41464036  0.60288189  1
  O  O11  1  0.58535964  0.90843010  0.89711811  1
  O  O12  1  0.99455872  0.00544128  0.25000000  1
  O  O13  1  0.94245617  0.05754383  0.75000000  1
  O  O14  1  0.60085166  0.58913610  0.13762237  1
  O  O15  1  0.41086390  0.39914834  0.36237763  1
  O  O16  1  0.40398865  0.39536441  0.86153490  1
  O  O17  1  0.60463559  0.59601135  0.63846510  1
  O  O18  1  0.60174169  0.91210330  0.39784037  1
  O  O19  1  0.08789670  0.39825831  0.10215963  1
  O  O20  1  0.37938699  0.06137619  0.60626211  1
  O  O21  1  0.93862381  0.62061301  0.89373789  1
