# generated using pymatgen
data_GaCo4Ge3
_symmetry_space_group_name_H-M   'P 1'
_cell_length_a   4.63850773
_cell_length_b   4.63850773
_cell_length_c   4.63850773
_cell_angle_alpha   90.68634150
_cell_angle_beta   89.31365850
_cell_angle_gamma   90.68634150
_symmetry_Int_Tables_number   1
_chemical_formula_structural   GaCo4Ge3
_chemical_formula_sum   'Ga1 Co4 Ge3'
_cell_volume   99.77967986
_cell_formula_units_Z   1
loop_
 _symmetry_equiv_pos_site_id
 _symmetry_equiv_pos_as_xyz
  1  'x, y, z'
loop_
 _atom_site_type_symbol
 _atom_site_label
 _atom_site_symmetry_multiplicity
 _atom_site_fract_x
 _atom_site_fract_y
 _atom_site_fract_z
 _atom_site_occupancy
  Ga  Ga0  1  0.15881594  0.34118406  0.65881594  1
  Co  Co1  1  0.85853421  0.64146579  0.35853421  1
  Co  Co2  1  0.63891886  0.36368482  0.86790095  1
  Co  Co3  1  0.36790095  0.86108114  0.63631518  1
  Co  Co4  1  0.13631518  0.13209905  0.13891886  1
  Ge  Ge5  1  0.33583485  0.65655079  0.16023080  1
  Ge  Ge6  1  0.66023080  0.16416515  0.34344921  1
  Ge  Ge7  1  0.84344921  0.83976920  0.83583485  1
