# generated using pymatgen
data_Ge2Pb5SO12
_symmetry_space_group_name_H-M   'P 1'
_cell_length_a   7.49013598
_cell_length_b   10.26967079
_cell_length_c   10.27875218
_cell_angle_alpha   60.21932203
_cell_angle_beta   90.00000000
_cell_angle_gamma   90.00000000
_symmetry_Int_Tables_number   1
_chemical_formula_structural   Ge2Pb5SO12
_chemical_formula_sum   'Ge4 Pb10 S2 O24'
_cell_volume   686.23493037
_cell_formula_units_Z   2
loop_
 _symmetry_equiv_pos_site_id
 _symmetry_equiv_pos_as_xyz
  1  'x, y, z'
loop_
 _atom_site_type_symbol
 _atom_site_label
 _atom_site_symmetry_multiplicity
 _atom_site_fract_x
 _atom_site_fract_y
 _atom_site_fract_z
 _atom_site_occupancy
  Ge  Ge0  1  0.75000000  0.62194193  0.39950893  1
  Ge  Ge1  1  0.25000000  0.01974682  0.37610152  1
  Ge  Ge2  1  0.25000000  0.60521143  0.01461985  1
  Ge  Ge3  1  0.25000000  0.37459864  0.60577280  1
  Pb  Pb4  1  0.75000000  0.25210075  0.73787191  1
  Pb  Pb5  1  0.75000000  0.98419014  0.25838644  1
  Pb  Pb6  1  0.75000000  0.71868494  0.03513944  1
  Pb  Pb7  1  0.25000000  0.73718203  0.25395496  1
  Pb  Pb8  1  0.25000000  0.02703615  0.72680748  1
  Pb  Pb9  1  0.25000000  0.23541406  0.03388073  1
  Pb  Pb10  1  0.48134220  0.66733686  0.65576067  1
  Pb  Pb11  1  0.01190071  0.34942237  0.32271759  1
  Pb  Pb12  1  0.48809929  0.34942237  0.32271759  1
  Pb  Pb13  1  0.01865780  0.66733686  0.65576067  1
  S  S14  1  0.75000000  0.98096284  0.62216143  1
  S  S15  1  0.75000000  0.39920673  0.98069660  1
  O  O16  1  0.58830588  0.92578239  0.71814481  1
  O  O17  1  0.58853964  0.35520750  0.92700448  1
  O  O18  1  0.56509144  0.74625623  0.35261014  1
  O  O19  1  0.06561353  0.08981880  0.24943488  1
  O  O20  1  0.06251996  0.64581287  0.09566612  1
  O  O21  1  0.06461050  0.25002687  0.65846461  1
  O  O22  1  0.43438647  0.08981880  0.24943488  1
  O  O23  1  0.43748004  0.64581287  0.09566612  1
  O  O24  1  0.43538950  0.25002687  0.65846461  1
  O  O25  1  0.91169412  0.92578239  0.71814481  1
  O  O26  1  0.91146036  0.35520750  0.92700448  1
  O  O27  1  0.93490856  0.74625623  0.35261014  1
  O  O28  1  0.75000000  0.91634716  0.51783875  1
  O  O29  1  0.75000000  0.56769589  0.91464556  1
  O  O30  1  0.75000000  0.49861605  0.59629966  1
  O  O31  1  0.25000000  0.11886701  0.47860698  1
  O  O32  1  0.25000000  0.40090932  0.11910395  1
  O  O33  1  0.25000000  0.47884612  0.40257741  1
  O  O34  1  0.75000000  0.14884833  0.53078768  1
  O  O35  1  0.75000000  0.32702531  0.14762939  1
  O  O36  1  0.75000000  0.52194453  0.29787469  1
  O  O37  1  0.25000000  0.82226257  0.49189376  1
  O  O38  1  0.25000000  0.68601835  0.81884624  1
  O  O39  1  0.25000000  0.49701515  0.67938727  1
