# generated using pymatgen
data_Fe4Ni4RuS8
_symmetry_space_group_name_H-M   'P 1'
_cell_length_a   7.03205078
_cell_length_b   7.03205078
_cell_length_c   7.03205078
_cell_angle_alpha   90.00000000
_cell_angle_beta   60.00000000
_cell_angle_gamma   120.00000000
_symmetry_Int_Tables_number   1
_chemical_formula_structural   Fe4Ni4RuS8
_chemical_formula_sum   'Fe4 Ni4 Ru1 S8'
_cell_volume   245.88441144
_cell_formula_units_Z   1
loop_
 _symmetry_equiv_pos_site_id
 _symmetry_equiv_pos_as_xyz
  1  'x, y, z'
loop_
 _atom_site_type_symbol
 _atom_site_label
 _atom_site_symmetry_multiplicity
 _atom_site_fract_x
 _atom_site_fract_y
 _atom_site_fract_z
 _atom_site_occupancy
  Fe  Fe0  1  0.25087862  0.12543931  0.62368207  1
  Fe  Fe1  1  0.74912138  0.12543931  0.12543931  1
  Fe  Fe2  1  0.74912138  0.62368207  0.12543931  1
  Fe  Fe3  1  0.25087862  0.12543931  0.12543931  1
  Ni  Ni4  1  0.74675048  0.87337524  0.37987429  1
  Ni  Ni5  1  0.25324952  0.87337524  0.87337524  1
  Ni  Ni6  1  0.25324952  0.37987429  0.87337524  1
  Ni  Ni7  1  0.74675048  0.87337524  0.87337524  1
  Ru  Ru8  1  -0.00000000  0.50000000  0.50000000  1
  S  S9  1  0.51923631  0.25961816  0.74038184  1
  S  S10  1  0.00000000  0.74038184  0.74038184  1
  S  S11  1  -0.00000000  0.25961816  0.74038184  1
  S  S12  1  0.48076369  0.74038184  0.25961816  1
  S  S13  1  0.00000000  0.25961816  0.25961816  1
  S  S14  1  -0.00000000  0.74038184  0.25961816  1
  S  S15  1  0.50000000  0.25000000  0.25000000  1
  S  S16  1  0.50000000  0.75000000  0.75000000  1
