# generated using pymatgen
data_GdDyNi2
_symmetry_space_group_name_H-M   'P 1'
_cell_length_a   4.23721378
_cell_length_b   5.46501211
_cell_length_c   10.68788044
_cell_angle_alpha   97.08587613
_cell_angle_beta   90.00000000
_cell_angle_gamma   90.00000000
_symmetry_Int_Tables_number   1
_chemical_formula_structural   GdDyNi2
_chemical_formula_sum   'Gd3 Dy3 Ni6'
_cell_volume   245.60283889
_cell_formula_units_Z   3
loop_
 _symmetry_equiv_pos_site_id
 _symmetry_equiv_pos_as_xyz
  1  'x, y, z'
loop_
 _atom_site_type_symbol
 _atom_site_label
 _atom_site_symmetry_multiplicity
 _atom_site_fract_x
 _atom_site_fract_y
 _atom_site_fract_z
 _atom_site_occupancy
  Gd  Gd0  1  0.75000000  0.41680586  0.21248820  1
  Gd  Gd1  1  0.25000000  0.74187805  0.45330627  1
  Gd  Gd2  1  0.75000000  0.25843753  0.54767640  1
  Dy  Dy3  1  0.25000000  0.89561281  0.11822035  1
  Dy  Dy4  1  0.75000000  0.10392256  0.88074624  1
  Dy  Dy5  1  0.25000000  0.58367455  0.78790402  1
  Ni  Ni6  1  0.25000000  0.37933104  0.02330217  1
  Ni  Ni7  1  0.75000000  0.62140866  0.97498033  1
  Ni  Ni8  1  0.25000000  0.21120823  0.35827868  1
  Ni  Ni9  1  0.75000000  0.78799880  0.64285439  1
  Ni  Ni10  1  0.25000000  0.05352866  0.69210650  1
  Ni  Ni11  1  0.75000000  0.94619327  0.30813644  1
