# generated using pymatgen
data_GaCuSnSe4
_symmetry_space_group_name_H-M   'P 1'
_cell_length_a   5.67915487
_cell_length_b   5.67915487
_cell_length_c   6.93546905
_cell_angle_alpha   65.83107587
_cell_angle_beta   65.83107587
_cell_angle_gamma   90.00000000
_symmetry_Int_Tables_number   1
_chemical_formula_structural   GaCuSnSe4
_chemical_formula_sum   'Ga1 Cu1 Sn1 Se4'
_cell_volume   182.37621059
_cell_formula_units_Z   1
loop_
 _symmetry_equiv_pos_site_id
 _symmetry_equiv_pos_as_xyz
  1  'x, y, z'
loop_
 _atom_site_type_symbol
 _atom_site_label
 _atom_site_symmetry_multiplicity
 _atom_site_fract_x
 _atom_site_fract_y
 _atom_site_fract_z
 _atom_site_occupancy
  Ga  Ga0  1  0.25000000  0.75000000  0.50000000  1
  Cu  Cu1  1  0.75000000  0.25000000  0.50000000  1
  Sn  Sn2  1  0.50000000  0.50000000  -0.00000000  1
  Se  Se3  1  0.35938429  0.89774390  0.74715187  1
  Se  Se4  1  0.89346384  0.35510422  0.74715187  1
  Se  Se5  1  0.10225610  0.10653616  0.25284813  1
  Se  Se6  1  0.64489578  0.64061571  0.25284813  1
