# generated using pymatgen
data_Dy2YTaO7
_symmetry_space_group_name_H-M   'P 1'
_cell_length_a   6.47430386
_cell_length_b   6.47430386
_cell_length_c   7.52205224
_cell_angle_alpha   90.00000000
_cell_angle_beta   90.00000000
_cell_angle_gamma   109.34407557
_symmetry_Int_Tables_number   1
_chemical_formula_structural   Dy2YTaO7
_chemical_formula_sum   'Dy4 Y2 Ta2 O14'
_cell_volume   297.49918002
_cell_formula_units_Z   2
loop_
 _symmetry_equiv_pos_site_id
 _symmetry_equiv_pos_as_xyz
  1  'x, y, z'
loop_
 _atom_site_type_symbol
 _atom_site_label
 _atom_site_symmetry_multiplicity
 _atom_site_fract_x
 _atom_site_fract_y
 _atom_site_fract_z
 _atom_site_occupancy
  Dy  Dy0  1  0.99940923  0.46515292  0.50098537  1
  Dy  Dy1  1  0.53484708  0.00059077  0.49901463  1
  Dy  Dy2  1  0.00059077  0.53484708  0.00098537  1
  Dy  Dy3  1  0.46515292  0.99940923  0.99901463  1
  Y  Y4  1  0.50212715  0.50212715  0.25000000  1
  Y  Y5  1  0.49787285  0.49787285  0.75000000  1
  Ta  Ta6  1  0.00149430  0.00149430  0.25000000  1
  Ta  Ta7  1  0.99850570  0.99850570  0.75000000  1
  O  O8  1  0.93283543  0.06716457  0.50000000  1
  O  O9  1  0.06716457  0.93283543  -0.00000000  1
  O  O10  1  0.07179178  0.32249979  0.21901131  1
  O  O11  1  0.67750021  0.92820822  0.78098869  1
  O  O12  1  0.92820822  0.67750021  0.71901131  1
  O  O13  1  0.32249979  0.07179178  0.28098869  1
  O  O14  1  0.36215093  0.63784907  -0.00000000  1
  O  O15  1  0.63784907  0.36215093  0.50000000  1
  O  O16  1  0.37007319  0.62992681  0.50000000  1
  O  O17  1  0.62992681  0.37007319  -0.00000000  1
  O  O18  1  0.68041103  0.92969847  0.21535807  1
  O  O19  1  0.07030153  0.31958897  0.78464193  1
  O  O20  1  0.31958897  0.07030153  0.71535807  1
  O  O21  1  0.92969847  0.68041103  0.28464193  1
