# generated using pymatgen
data_Ga2Ag2SeS3
_symmetry_space_group_name_H-M   'P 1'
_cell_length_a   5.83336954
_cell_length_b   5.87611486
_cell_length_c   6.75300695
_cell_angle_alpha   64.82327844
_cell_angle_beta   64.41122984
_cell_angle_gamma   90.00000000
_symmetry_Int_Tables_number   1
_chemical_formula_structural   Ga2Ag2SeS3
_chemical_formula_sum   'Ga2 Ag2 Se1 S3'
_cell_volume   184.09000641
_cell_formula_units_Z   1
loop_
 _symmetry_equiv_pos_site_id
 _symmetry_equiv_pos_as_xyz
  1  'x, y, z'
loop_
 _atom_site_type_symbol
 _atom_site_label
 _atom_site_symmetry_multiplicity
 _atom_site_fract_x
 _atom_site_fract_y
 _atom_site_fract_z
 _atom_site_occupancy
  Ga  Ga0  1  0.75873137  0.26027150  0.49399337  1
  Ga  Ga1  1  0.50272474  0.48972850  0.00600663  1
  Ag  Ag2  1  0.24341718  0.74513128  0.49103171  1
  Ag  Ag3  1  0.98444889  0.00486872  0.00896829  1
  Se  Se4  1  0.40611163  0.87500000  0.75000000  1
  S  S5  1  0.62727477  0.58656635  0.24934558  1
  S  S6  1  0.12662034  0.16343365  0.25065442  1
  S  S7  1  0.84067109  0.37500000  0.75000000  1
