# generated using pymatgen
data_Ga2Ag2Se3S
_symmetry_space_group_name_H-M   'P 1'
_cell_length_a   5.97361851
_cell_length_b   6.01200774
_cell_length_c   6.95034803
_cell_angle_alpha   64.37387258
_cell_angle_beta   64.91654710
_cell_angle_gamma   90.00000000
_symmetry_Int_Tables_number   1
_chemical_formula_structural   Ga2Ag2Se3S
_chemical_formula_sum   'Ga2 Ag2 Se3 S1'
_cell_volume   198.62866806
_cell_formula_units_Z   1
loop_
 _symmetry_equiv_pos_site_id
 _symmetry_equiv_pos_as_xyz
  1  'x, y, z'
loop_
 _atom_site_type_symbol
 _atom_site_label
 _atom_site_symmetry_multiplicity
 _atom_site_fract_x
 _atom_site_fract_y
 _atom_site_fract_z
 _atom_site_occupancy
  Ga  Ga0  1  0.74445892  0.25959933  0.49358373  1
  Ga  Ga1  1  0.50554108  0.50318306  0.00641627  1
  Ag  Ag2  1  0.26210342  0.74342313  0.49257444  1
  Ag  Ag3  1  0.98789658  0.98599758  0.00742556  1
  Se  Se4  1  0.12500000  0.15706525  0.25000000  1
  Se  Se5  1  0.84622966  0.37536468  0.74925245  1
  Se  Se6  1  0.40377034  0.87461714  0.75074755  1
  S  S7  1  0.62500000  0.59074982  0.25000000  1
