# generated using pymatgen
data_Cu3Pd13S7
_symmetry_space_group_name_H-M   'P 1'
_cell_length_a   7.80607119
_cell_length_b   7.80607119
_cell_length_c   7.80607119
_cell_angle_alpha   70.36995172
_cell_angle_beta   70.36995172
_cell_angle_gamma   109.63004828
_symmetry_Int_Tables_number   1
_chemical_formula_structural   Cu3Pd13S7
_chemical_formula_sum   'Cu3 Pd13 S7'
_cell_volume   363.99486705
_cell_formula_units_Z   1
loop_
 _symmetry_equiv_pos_site_id
 _symmetry_equiv_pos_as_xyz
  1  'x, y, z'
loop_
 _atom_site_type_symbol
 _atom_site_label
 _atom_site_symmetry_multiplicity
 _atom_site_fract_x
 _atom_site_fract_y
 _atom_site_fract_z
 _atom_site_occupancy
  Cu  Cu0  1  0.76875512  0.00064225  0.99935775  1
  Cu  Cu1  1  0.00064225  0.76875512  0.99935775  1
  Cu  Cu2  1  0.00064225  0.00064225  0.23124488  1
  Pd  Pd3  1  0.33902994  0.58581868  0.41418132  1
  Pd  Pd4  1  0.58581868  0.58581868  0.66097006  1
  Pd  Pd5  1  0.58581868  0.33902994  0.41418132  1
  Pd  Pd6  1  0.66092257  0.24181840  0.75818160  1
  Pd  Pd7  1  0.41936360  0.75730828  0.99926164  1
  Pd  Pd8  1  0.41936360  0.00073836  0.24269172  1
  Pd  Pd9  1  0.00073836  0.41936360  0.24269172  1
  Pd  Pd10  1  0.75730828  0.41936360  0.99926164  1
  Pd  Pd11  1  0.24181840  0.66092257  0.75818160  1
  Pd  Pd12  1  0.00073836  0.75730828  0.58063640  1
  Pd  Pd13  1  0.24181840  0.24181840  0.33907743  1
  Pd  Pd14  1  0.75730828  0.00073836  0.58063640  1
  Pd  Pd15  1  0.22355301  0.22355301  0.77644699  1
  S  S16  1  0.50066729  0.50066729  0.99943429  1
  S  S17  1  0.50066729  0.00056571  0.49933271  1
  S  S18  1  0.00056571  0.50066729  0.49933271  1
  S  S19  1  0.69920506  0.69920506  0.30079494  1
  S  S20  1  0.30164755  0.99680365  0.00319635  1
  S  S21  1  0.99680365  0.30164755  0.00319635  1
  S  S22  1  0.99680365  0.99680365  0.69835245  1
