# generated using pymatgen
data_CuBi5S8
_symmetry_space_group_name_H-M   'P 1'
_cell_length_a   4.06317570
_cell_length_b   6.97552393
_cell_length_c   13.08486113
_cell_angle_alpha   89.66266938
_cell_angle_beta   81.06798108
_cell_angle_gamma   106.93251893
_symmetry_Int_Tables_number   1
_chemical_formula_structural   CuBi5S8
_chemical_formula_sum   'Cu1 Bi5 S8'
_cell_volume   349.96867131
_cell_formula_units_Z   1
loop_
 _symmetry_equiv_pos_site_id
 _symmetry_equiv_pos_as_xyz
  1  'x, y, z'
loop_
 _atom_site_type_symbol
 _atom_site_label
 _atom_site_symmetry_multiplicity
 _atom_site_fract_x
 _atom_site_fract_y
 _atom_site_fract_z
 _atom_site_occupancy
  Cu  Cu0  1  0.19405322  0.50000000  0.50000000  1
  Bi  Bi1  1  0.81176202  0.46544237  0.84674974  1
  Bi  Bi2  1  0.19306940  0.53455763  0.15325026  1
  Bi  Bi3  1  0.66055640  0.93550229  0.63556768  1
  Bi  Bi4  1  0.36062179  0.06449771  0.36443232  1
  Bi  Bi5  1  0.00068497  -0.00000000  -0.00000000  1
  S  S6  1  0.40790415  0.74659469  0.92838267  1
  S  S7  1  0.58969213  0.25340531  0.07161733  1
  S  S8  1  0.20329506  0.21029024  0.80393377  1
  S  S9  1  0.79693858  0.78970976  0.19606623  1
  S  S10  1  0.99283450  0.63428695  0.65321551  1
  S  S11  1  0.01176306  0.36571305  0.34678449  1
  S  S12  1  0.30396155  0.19941863  0.54932026  1
  S  S13  1  0.65386318  0.80058137  0.45067974  1
