# generated using pymatgen
data_Eu2MgGa3
_symmetry_space_group_name_H-M   'P 1'
_cell_length_a   4.70975367
_cell_length_b   6.02595643
_cell_length_c   5.95717674
_cell_angle_alpha   97.16527307
_cell_angle_beta   113.28473158
_cell_angle_gamma   66.99640948
_symmetry_Int_Tables_number   1
_chemical_formula_structural   Eu2MgGa3
_chemical_formula_sum   'Eu2 Mg1 Ga3'
_cell_volume   142.86106124
_cell_formula_units_Z   1
loop_
 _symmetry_equiv_pos_site_id
 _symmetry_equiv_pos_as_xyz
  1  'x, y, z'
loop_
 _atom_site_type_symbol
 _atom_site_label
 _atom_site_symmetry_multiplicity
 _atom_site_fract_x
 _atom_site_fract_y
 _atom_site_fract_z
 _atom_site_occupancy
  Eu  Eu0  1  0.75177721  0.20152325  0.70507766  1
  Eu  Eu1  1  0.24744871  0.79833641  0.29323382  1
  Mg  Mg2  1  0.93407263  0.40216411  0.27030937  1
  Ga  Ga3  1  0.06697284  0.60227524  0.73622093  1
  Ga  Ga4  1  0.44314097  0.21103537  0.09731731  1
  Ga  Ga5  1  0.55658764  0.78466562  0.89784090  1
