# generated using pymatgen
data_ZnGeO3
_symmetry_space_group_name_H-M   'P 1'
_cell_length_a   5.09373498
_cell_length_b   5.09373480
_cell_length_c   5.30978011
_cell_angle_alpha   61.33706876
_cell_angle_beta   61.33707190
_cell_angle_gamma   60.00000120
_symmetry_Int_Tables_number   1
_chemical_formula_structural   ZnGeO3
_chemical_formula_sum   'Zn2 Ge2 O6'
_cell_volume   99.33945022
_cell_formula_units_Z   2
loop_
 _symmetry_equiv_pos_site_id
 _symmetry_equiv_pos_as_xyz
  1  'x, y, z'
loop_
 _atom_site_type_symbol
 _atom_site_label
 _atom_site_symmetry_multiplicity
 _atom_site_fract_x
 _atom_site_fract_y
 _atom_site_fract_z
 _atom_site_occupancy
  Zn  Zn0  1  0.72247023  0.72247023  0.83258931  1
  Zn  Zn1  1  0.22247023  0.22247023  0.33258931  1
  Ge  Ge2  1  0.49887807  0.49887807  0.50336579  1
  Ge  Ge3  1  0.99887807  0.99887807  0.00336579  1
  O  O4  1  0.27268648  0.63512436  0.21874830  1
  O  O5  1  0.87344086  0.27268648  0.21874830  1
  O  O6  1  0.63512436  0.87344086  0.21874830  1
  O  O7  1  0.13512436  0.77268648  0.71874830  1
  O  O8  1  0.37344086  0.13512436  0.71874830  1
  O  O9  1  0.77268648  0.37344086  0.71874830  1
