# generated using pymatgen
data_DyGaAg
_symmetry_space_group_name_H-M   'P 1'
_cell_length_a   4.58930821
_cell_length_b   5.82260435
_cell_length_c   5.72439169
_cell_angle_alpha   95.41603615
_cell_angle_beta   113.63167782
_cell_angle_gamma   66.79050684
_symmetry_Int_Tables_number   1
_chemical_formula_structural   DyGaAg
_chemical_formula_sum   'Dy2 Ga2 Ag2'
_cell_volume   128.42893963
_cell_formula_units_Z   2
loop_
 _symmetry_equiv_pos_site_id
 _symmetry_equiv_pos_as_xyz
  1  'x, y, z'
loop_
 _atom_site_type_symbol
 _atom_site_label
 _atom_site_symmetry_multiplicity
 _atom_site_fract_x
 _atom_site_fract_y
 _atom_site_fract_z
 _atom_site_occupancy
  Dy  Dy0  1  0.75529675  0.70916515  0.21975866  1
  Dy  Dy1  1  0.24470325  0.29083485  0.78024134  1
  Ga  Ga2  1  0.04430166  0.11530217  0.20390549  1
  Ga  Ga3  1  0.95569834  0.88469783  0.79609451  1
  Ag  Ag4  1  0.54882942  0.27786730  0.37552613  1
  Ag  Ag5  1  0.45117058  0.72213270  0.62447387  1
