# generated using pymatgen
data_Co5CuS8
_symmetry_space_group_name_H-M   'P 1'
_cell_length_a   6.63736053
_cell_length_b   6.63736053
_cell_length_c   6.63736053
_cell_angle_alpha   90.00000000
_cell_angle_beta   60.00000000
_cell_angle_gamma   120.00000000
_symmetry_Int_Tables_number   1
_chemical_formula_structural   Co5CuS8
_chemical_formula_sum   'Co5 Cu1 S8'
_cell_volume   206.76223947
_cell_formula_units_Z   1
loop_
 _symmetry_equiv_pos_site_id
 _symmetry_equiv_pos_as_xyz
  1  'x, y, z'
loop_
 _atom_site_type_symbol
 _atom_site_label
 _atom_site_symmetry_multiplicity
 _atom_site_fract_x
 _atom_site_fract_y
 _atom_site_fract_z
 _atom_site_occupancy
  Co  Co0  1  0.74877009  0.37438504  0.87684487  1
  Co  Co1  1  0.25122991  0.37438504  0.37438504  1
  Co  Co2  1  0.25122991  0.87684487  0.37438504  1
  Co  Co3  1  0.74877009  0.37438504  0.37438504  1
  Co  Co4  1  0.50000000  0.75000000  0.75000000  1
  Cu  Cu5  1  -0.00000000  0.00000000  -0.00000000  1
  S  S6  1  0.27544509  0.13772255  0.58683236  1
  S  S7  1  0.72455491  0.13772255  0.13772255  1
  S  S8  1  0.72455491  0.58683236  0.13772255  1
  S  S9  1  0.27544509  0.13772255  0.13772255  1
  S  S10  1  0.23505198  0.61752599  0.14742203  1
  S  S11  1  0.76494802  0.61752599  0.61752599  1
  S  S12  1  0.76494802  0.14742203  0.61752599  1
  S  S13  1  0.23505198  0.61752599  0.61752599  1
