# generated using pymatgen
data_Ce2B4(IrRh)3
_symmetry_space_group_name_H-M   'P 1'
_cell_length_a   3.10181852
_cell_length_b   5.51779362
_cell_length_c   9.55129480
_cell_angle_alpha   89.98650843
_cell_angle_beta   90.00000000
_cell_angle_gamma   90.00000000
_symmetry_Int_Tables_number   1
_chemical_formula_structural   Ce2B4(IrRh)3
_chemical_formula_sum   'Ce2 B4 Ir3 Rh3'
_cell_volume   163.47226306
_cell_formula_units_Z   1
loop_
 _symmetry_equiv_pos_site_id
 _symmetry_equiv_pos_as_xyz
  1  'x, y, z'
loop_
 _atom_site_type_symbol
 _atom_site_label
 _atom_site_symmetry_multiplicity
 _atom_site_fract_x
 _atom_site_fract_y
 _atom_site_fract_z
 _atom_site_occupancy
  Ce  Ce0  1  -0.00000000  0.99986819  0.99978781  1
  Ce  Ce1  1  -0.00000000  0.50014292  0.50021236  1
  B  B2  1  -0.00000000  -0.00002877  0.33332229  1
  B  B3  1  -0.00000000  0.50012797  0.83350583  1
  B  B4  1  -0.00000000  0.49993790  0.16668569  1
  B  B5  1  -0.00000000  0.99978807  0.66648799  1
  Ir  Ir6  1  0.50000000  0.00000308  0.50034649  1
  Ir  Ir7  1  0.50000000  0.50001267  0.99964363  1
  Ir  Ir8  1  0.50000000  0.24999380  0.24993283  1
  Rh  Rh9  1  0.50000000  0.74998431  0.75009073  1
  Rh  Rh10  1  0.50000000  0.74999586  0.24990391  1
  Rh  Rh11  1  0.50000000  0.24997401  0.75008044  1
