# generated using pymatgen
data_Mg6CuSn
_symmetry_space_group_name_H-M   'P 1'
_cell_length_a   6.24328099
_cell_length_b   6.33607131
_cell_length_c   4.94019030
_cell_angle_alpha   90.00000000
_cell_angle_beta   90.00000000
_cell_angle_gamma   120.49288041
_symmetry_Int_Tables_number   1
_chemical_formula_structural   Mg6CuSn
_chemical_formula_sum   'Mg6 Cu1 Sn1'
_cell_volume   168.39484350
_cell_formula_units_Z   1
loop_
 _symmetry_equiv_pos_site_id
 _symmetry_equiv_pos_as_xyz
  1  'x, y, z'
loop_
 _atom_site_type_symbol
 _atom_site_label
 _atom_site_symmetry_multiplicity
 _atom_site_fract_x
 _atom_site_fract_y
 _atom_site_fract_z
 _atom_site_occupancy
  Mg  Mg0  1  0.66808998  0.33332568  0.25000000  1
  Mg  Mg1  1  0.66808998  0.83476329  0.25000000  1
  Mg  Mg2  1  0.32910978  0.17623492  0.75000000  1
  Mg  Mg3  1  0.32910978  0.65287586  0.75000000  1
  Mg  Mg4  1  0.84403759  0.17201930  0.75000000  1
  Mg  Mg5  1  0.82935825  0.66467963  0.75000000  1
  Cu  Cu6  1  0.16594798  0.33297349  0.25000000  1
  Sn  Sn7  1  0.16625665  0.83312782  0.25000000  1
