# generated using pymatgen
data_CdHgSe2
_symmetry_space_group_name_H-M   'P 1'
_cell_length_a   4.41478421
_cell_length_b   4.41478421
_cell_length_c   7.64237367
_cell_angle_alpha   73.21171668
_cell_angle_beta   90.00000000
_cell_angle_gamma   120.00000000
_symmetry_Int_Tables_number   1
_chemical_formula_structural   CdHgSe2
_chemical_formula_sum   'Cd1 Hg1 Se2'
_cell_volume   121.61057238
_cell_formula_units_Z   1
loop_
 _symmetry_equiv_pos_site_id
 _symmetry_equiv_pos_as_xyz
  1  'x, y, z'
loop_
 _atom_site_type_symbol
 _atom_site_label
 _atom_site_symmetry_multiplicity
 _atom_site_fract_x
 _atom_site_fract_y
 _atom_site_fract_z
 _atom_site_occupancy
  Cd  Cd0  1  0.50022170  0.00044339  0.49933491  1
  Hg  Hg1  1  0.99990075  0.99980150  0.00029776  1
  Se  Se2  1  0.87421586  0.74843171  0.37735243  1
  Se  Se3  1  0.37566170  0.75132340  0.87301490  1
