# generated using pymatgen
data_Ca(YTe2)2
_symmetry_space_group_name_H-M   'P 1'
_cell_length_a   4.42203163
_cell_length_b   7.76245577
_cell_length_c   7.54379705
_cell_angle_alpha   72.15141849
_cell_angle_beta   89.99999427
_cell_angle_gamma   89.99999903
_symmetry_Int_Tables_number   1
_chemical_formula_structural   Ca(YTe2)2
_chemical_formula_sum   'Ca1 Y2 Te4'
_cell_volume   246.48389617
_cell_formula_units_Z   1
loop_
 _symmetry_equiv_pos_site_id
 _symmetry_equiv_pos_as_xyz
  1  'x, y, z'
loop_
 _atom_site_type_symbol
 _atom_site_label
 _atom_site_symmetry_multiplicity
 _atom_site_fract_x
 _atom_site_fract_y
 _atom_site_fract_z
 _atom_site_occupancy
  Ca  Ca0  1  0.00000000  0.50000000  0.50000000  1
  Y  Y1  1  0.00000000  0.00000000  0.00000000  1
  Y  Y2  1  0.50000000  0.00000000  0.50000000  1
  Te  Te3  1  0.50000000  0.24490168  0.75983051  1
  Te  Te4  1  0.00000000  0.23776597  0.25405117  1
  Te  Te5  1  0.50000000  0.75509832  0.24016949  1
  Te  Te6  1  1.00000000  0.76223403  0.74594883  1
