# generated using pymatgen
data_Ce2ThO6
_symmetry_space_group_name_H-M   'P 1'
_cell_length_a   3.90640190
_cell_length_b   5.52146747
_cell_length_c   6.76126581
_cell_angle_alpha   65.90090085
_cell_angle_beta   73.20902756
_cell_angle_gamma   90.00000000
_symmetry_Int_Tables_number   1
_chemical_formula_structural   Ce2ThO6
_chemical_formula_sum   'Ce2 Th1 O6'
_cell_volume   126.28146873
_cell_formula_units_Z   1
loop_
 _symmetry_equiv_pos_site_id
 _symmetry_equiv_pos_as_xyz
  1  'x, y, z'
loop_
 _atom_site_type_symbol
 _atom_site_label
 _atom_site_symmetry_multiplicity
 _atom_site_fract_x
 _atom_site_fract_y
 _atom_site_fract_z
 _atom_site_occupancy
  Ce  Ce0  1  0.33249304  0.33249304  0.33501292  1
  Ce  Ce1  1  0.66750696  0.66750696  0.66498708  1
  Th  Th2  1  -0.00000000  -0.00000000  0.00000000  1
  O  O3  1  0.50000000  0.25424229  0.00000000  1
  O  O4  1  0.83167403  0.57956561  0.33665093  1
  O  O5  1  0.16832597  0.91621754  0.66334907  1
  O  O6  1  0.50000000  0.74575771  0.00000000  1
  O  O7  1  0.83167403  0.08378246  0.33665093  1
  O  O8  1  0.16832597  0.42043439  0.66334907  1
