# generated using pymatgen
data_Cd2SnGeAs4
_symmetry_space_group_name_H-M   'P 1'
_cell_length_a   6.14910816
_cell_length_b   6.14910816
_cell_length_c   7.33794326
_cell_angle_alpha   65.22891022
_cell_angle_beta   65.22891022
_cell_angle_gamma   90.00000000
_symmetry_Int_Tables_number   1
_chemical_formula_structural   Cd2SnGeAs4
_chemical_formula_sum   'Cd2 Sn1 Ge1 As4'
_cell_volume   223.50308008
_cell_formula_units_Z   1
loop_
 _symmetry_equiv_pos_site_id
 _symmetry_equiv_pos_as_xyz
  1  'x, y, z'
loop_
 _atom_site_type_symbol
 _atom_site_label
 _atom_site_symmetry_multiplicity
 _atom_site_fract_x
 _atom_site_fract_y
 _atom_site_fract_z
 _atom_site_occupancy
  Cd  Cd0  1  0.75000000  0.25000000  0.50000000  1
  Cd  Cd1  1  0.00000000  -0.00000000  -0.00000000  1
  Sn  Sn2  1  0.50000000  0.50000000  0.00000000  1
  Ge  Ge3  1  0.25000000  0.75000000  0.50000000  1
  As  As4  1  0.36759432  0.86437944  0.73894910  1
  As  As5  1  0.89345657  0.39667146  0.73894910  1
  As  As6  1  0.13562056  0.10654343  0.26105090  1
  As  As7  1  0.60332854  0.63240568  0.26105090  1
