# generated using pymatgen
data_Cs3Sb5S9
_symmetry_space_group_name_H-M   'P 1'
_cell_length_a   9.40036504
_cell_length_b   9.47852431
_cell_length_c   13.64583921
_cell_angle_alpha   84.19241045
_cell_angle_beta   69.85234289
_cell_angle_gamma   72.91590227
_symmetry_Int_Tables_number   1
_chemical_formula_structural   Cs3Sb5S9
_chemical_formula_sum   'Cs6 Sb10 S18'
_cell_volume   1091.09717568
_cell_formula_units_Z   2
loop_
 _symmetry_equiv_pos_site_id
 _symmetry_equiv_pos_as_xyz
  1  'x, y, z'
loop_
 _atom_site_type_symbol
 _atom_site_label
 _atom_site_symmetry_multiplicity
 _atom_site_fract_x
 _atom_site_fract_y
 _atom_site_fract_z
 _atom_site_occupancy
  Cs  Cs0  1  0.41834613  0.50000000  0.16330773  1
  Cs  Cs1  1  0.58165387  0.50000000  0.83669227  1
  Cs  Cs2  1  0.02566793  0.23110516  0.43043626  1
  Cs  Cs3  1  0.45610419  0.23110516  0.56956374  1
  Cs  Cs4  1  0.97433207  0.76889484  0.56956374  1
  Cs  Cs5  1  0.54389581  0.76889484  0.43043626  1
  Sb  Sb6  1  0.42727097  0.00000000  0.14545807  1
  Sb  Sb7  1  0.57272903  1.00000000  0.85454193  1
  Sb  Sb8  1  0.92099473  0.50000000  0.15801055  1
  Sb  Sb9  1  0.07900527  0.50000000  0.84198945  1
  Sb  Sb10  1  0.03468943  0.83696246  0.24433998  1
  Sb  Sb11  1  0.27902941  0.83696246  0.75566002  1
  Sb  Sb12  1  0.96531057  0.16303754  0.75566002  1
  Sb  Sb13  1  0.72097059  0.16303754  0.24433998  1
  Sb  Sb14  1  0.89376958  0.86295839  0.00000000  1
  Sb  Sb15  1  0.10623042  0.13704161  1.00000000  1
  S  S16  1  0.12229090  0.62814601  0.00000000  1
  S  S17  1  0.87770910  0.37185399  1.00000000  1
  S  S18  1  0.80845148  1.00000000  0.38309705  1
  S  S19  1  0.19154852  0.00000000  0.61690295  1
  S  S20  1  0.24199423  0.83365310  0.31091139  1
  S  S21  1  0.55290562  0.83365310  0.68908861  1
  S  S22  1  0.75800577  0.16634690  0.68908861  1
  S  S23  1  0.44709438  0.16634690  0.31091139  1
  S  S24  1  0.99109139  0.59894020  0.31544701  1
  S  S25  1  0.30653839  0.59894020  0.68455299  1
  S  S26  1  0.00890861  0.40105980  0.68455299  1
  S  S27  1  0.69346161  0.40105980  0.31544701  1
  S  S28  1  0.37966902  0.87890749  1.00000000  1
  S  S29  1  0.62033098  0.12109251  0.00000000  1
  S  S30  1  0.70121924  0.77211087  0.15017277  1
  S  S31  1  0.85139202  0.77211087  0.84982723  1
  S  S32  1  0.29878076  0.22788913  0.84982723  1
  S  S33  1  0.14860798  0.22788913  0.15017277  1
