# generated using pymatgen
data_Mg6CuSn
_symmetry_space_group_name_H-M   'P 1'
_cell_length_a   6.25787446
_cell_length_b   6.25787399
_cell_length_c   4.99508971
_cell_angle_alpha   90.00000000
_cell_angle_beta   90.00000000
_cell_angle_gamma   120.54198591
_symmetry_Int_Tables_number   1
_chemical_formula_structural   Mg6CuSn
_chemical_formula_sum   'Mg6 Cu1 Sn1'
_cell_volume   168.47277212
_cell_formula_units_Z   1
loop_
 _symmetry_equiv_pos_site_id
 _symmetry_equiv_pos_as_xyz
  1  'x, y, z'
loop_
 _atom_site_type_symbol
 _atom_site_label
 _atom_site_symmetry_multiplicity
 _atom_site_fract_x
 _atom_site_fract_y
 _atom_site_fract_z
 _atom_site_occupancy
  Mg  Mg0  1  0.16553732  0.82602595  0.25000000  1
  Mg  Mg1  1  0.67397405  0.33446268  0.25000000  1
  Mg  Mg2  1  0.66797440  0.83202560  0.25000000  1
  Mg  Mg3  1  0.33074414  0.65195100  0.75000000  1
  Mg  Mg4  1  0.84804900  0.16925586  0.75000000  1
  Mg  Mg5  1  0.83264871  0.66735129  0.75000000  1
  Cu  Cu6  1  0.14613630  0.35386370  0.25000000  1
  Sn  Sn7  1  0.33493609  0.16506391  0.75000000  1
