# generated using pymatgen
data_BaSr4Cl10
_symmetry_space_group_name_H-M   'P 1'
_cell_length_a   5.04937683
_cell_length_b   5.04937683
_cell_length_c   20.76512333
_cell_angle_alpha   83.01652039
_cell_angle_beta   90.00000000
_cell_angle_gamma   120.00000000
_symmetry_Int_Tables_number   1
_chemical_formula_structural   BaSr4Cl10
_chemical_formula_sum   'Ba1 Sr4 Cl10'
_cell_volume   453.96044199
_cell_formula_units_Z   1
loop_
 _symmetry_equiv_pos_site_id
 _symmetry_equiv_pos_as_xyz
  1  'x, y, z'
loop_
 _atom_site_type_symbol
 _atom_site_label
 _atom_site_symmetry_multiplicity
 _atom_site_fract_x
 _atom_site_fract_y
 _atom_site_fract_z
 _atom_site_occupancy
  Ba  Ba0  1  -0.00000000  -0.00000000  -0.00000000  1
  Sr  Sr1  1  0.59849713  0.19699426  0.20450861  1
  Sr  Sr2  1  0.19995004  0.39990008  0.40014987  1
  Sr  Sr3  1  0.80004996  0.60009992  0.59985013  1
  Sr  Sr4  1  0.40150287  0.80300574  0.79549139  1
  Cl  Cl5  1  0.05221553  0.10443106  0.84335342  1
  Cl  Cl6  1  0.85003547  0.70007094  0.44989359  1
  Cl  Cl7  1  0.45047766  0.90095532  0.64856702  1
  Cl  Cl8  1  0.64789772  0.29579545  0.05630683  1
  Cl  Cl9  1  0.24934208  0.49868417  0.25197375  1
  Cl  Cl10  1  0.35210228  0.70420455  0.94369317  1
  Cl  Cl11  1  0.14996453  0.29992906  0.55010641  1
  Cl  Cl12  1  0.75065792  0.50131583  0.74802625  1
  Cl  Cl13  1  0.94778447  0.89556894  0.15664658  1
  Cl  Cl14  1  0.54952234  0.09904468  0.35143298  1
