# generated using pymatgen
data_Ba4TiNb9O18
_symmetry_space_group_name_H-M   'P 1'
_cell_length_a   4.20996974
_cell_length_b   4.20996974
_cell_length_c   24.80320470
_cell_angle_alpha   90.00000000
_cell_angle_beta   90.00000000
_cell_angle_gamma   90.00000000
_symmetry_Int_Tables_number   1
_chemical_formula_structural   Ba4TiNb9O18
_chemical_formula_sum   'Ba4 Ti1 Nb9 O18'
_cell_volume   439.60816086
_cell_formula_units_Z   1
loop_
 _symmetry_equiv_pos_site_id
 _symmetry_equiv_pos_as_xyz
  1  'x, y, z'
loop_
 _atom_site_type_symbol
 _atom_site_label
 _atom_site_symmetry_multiplicity
 _atom_site_fract_x
 _atom_site_fract_y
 _atom_site_fract_z
 _atom_site_occupancy
  Ba  Ba0  1  0.00000000  0.00000000  0.41615912  1
  Ba  Ba1  1  -0.00000000  0.00000000  0.92266201  1
  Ba  Ba2  1  0.00000000  -0.00000000  0.07733799  1
  Ba  Ba3  1  -0.00000000  -0.00000000  0.58384088  1
  Ti  Ti4  1  0.50000000  0.50000000  0.00000000  1
  Nb  Nb5  1  0.00000000  0.50000000  0.24928966  1
  Nb  Nb6  1  -0.00000000  0.50000000  0.75071034  1
  Nb  Nb7  1  0.50000000  -0.00000000  0.24928966  1
  Nb  Nb8  1  0.50000000  -0.00000000  0.75071034  1
  Nb  Nb9  1  0.50000000  0.50000000  0.50000000  1
  Nb  Nb10  1  0.50000000  0.50000000  0.33164693  1
  Nb  Nb11  1  0.50000000  0.50000000  0.83417862  1
  Nb  Nb12  1  0.50000000  0.50000000  0.16582138  1
  Nb  Nb13  1  0.50000000  0.50000000  0.66835307  1
  O  O14  1  0.50000000  0.00000000  0.33634157  1
  O  O15  1  0.50000000  -0.00000000  0.83622542  1
  O  O16  1  0.00000000  0.50000000  0.33634157  1
  O  O17  1  0.00000000  0.50000000  0.83622542  1
  O  O18  1  0.50000000  -0.00000000  0.16377458  1
  O  O19  1  0.50000000  0.00000000  0.66365843  1
  O  O20  1  -0.00000000  0.50000000  0.16377458  1
  O  O21  1  -0.00000000  0.50000000  0.66365843  1
  O  O22  1  0.00000000  0.50000000  0.00000000  1
  O  O23  1  0.00000000  0.50000000  0.50000000  1
  O  O24  1  0.50000000  -0.00000000  0.00000000  1
  O  O25  1  0.50000000  -0.00000000  0.50000000  1
  O  O26  1  0.50000000  0.50000000  0.41913575  1
  O  O27  1  0.50000000  0.50000000  0.92045322  1
  O  O28  1  0.50000000  0.50000000  0.07954678  1
  O  O29  1  0.50000000  0.50000000  0.58086425  1
  O  O30  1  -0.00000000  -0.00000000  0.25025552  1
  O  O31  1  0.00000000  -0.00000000  0.74974448  1
