# generated using pymatgen
data_BaSrY4O8
_symmetry_space_group_name_H-M   'P 1'
_cell_length_a   3.46597058
_cell_length_b   10.34116820
_cell_length_c   12.14261943
_cell_angle_alpha   90.00000000
_cell_angle_beta   90.00000000
_cell_angle_gamma   90.00000000
_symmetry_Int_Tables_number   1
_chemical_formula_structural   BaSrY4O8
_chemical_formula_sum   'Ba2 Sr2 Y8 O16'
_cell_volume   435.21800889
_cell_formula_units_Z   2
loop_
 _symmetry_equiv_pos_site_id
 _symmetry_equiv_pos_as_xyz
  1  'x, y, z'
loop_
 _atom_site_type_symbol
 _atom_site_label
 _atom_site_symmetry_multiplicity
 _atom_site_fract_x
 _atom_site_fract_y
 _atom_site_fract_z
 _atom_site_occupancy
  Ba  Ba0  1  0.75000000  0.74674236  0.14915190  1
  Ba  Ba1  1  0.75000000  0.24674236  0.35084810  1
  Sr  Sr2  1  0.25000000  0.25379121  0.85170654  1
  Sr  Sr3  1  0.25000000  0.75379121  0.64829346  1
  Y  Y4  1  0.75000000  0.07691925  0.61297938  1
  Y  Y5  1  0.75000000  0.57691925  0.88702062  1
  Y  Y6  1  0.25000000  0.92063280  0.39342144  1
  Y  Y7  1  0.25000000  0.42063280  0.10657856  1
  Y  Y8  1  0.75000000  0.07590998  0.10774108  1
  Y  Y9  1  0.75000000  0.57590998  0.39225892  1
  Y  Y10  1  0.25000000  0.92699200  0.88477422  1
  Y  Y11  1  0.25000000  0.42699200  0.61522578  1
  O  O12  1  0.75000000  0.29013042  0.67083126  1
  O  O13  1  0.75000000  0.79013042  0.82916874  1
  O  O14  1  0.25000000  0.70970513  0.33783864  1
  O  O15  1  0.25000000  0.20970513  0.16216136  1
  O  O16  1  0.75000000  0.98092910  0.28406703  1
  O  O17  1  0.75000000  0.48092910  0.21593297  1
  O  O18  1  0.25000000  0.01657088  0.71691571  1
  O  O19  1  0.25000000  0.51657088  0.78308429  1
  O  O20  1  0.75000000  0.37610436  0.97600300  1
  O  O21  1  0.75000000  0.87610436  0.52399700  1
  O  O22  1  0.25000000  0.61644008  0.01556059  1
  O  O23  1  0.25000000  0.11644008  0.48443941  1
  O  O24  1  0.75000000  0.07839919  0.92059803  1
  O  O25  1  0.75000000  0.57839919  0.57940197  1
  O  O26  1  0.25000000  0.93073326  0.07128514  1
  O  O27  1  0.25000000  0.43073326  0.42871486  1
