# generated using pymatgen
data_Ca3Mg2Ni13
_symmetry_space_group_name_H-M   'P 1'
_cell_length_a   4.94571737
_cell_length_b   4.94571737
_cell_length_c   12.34859780
_cell_angle_alpha   89.99999885
_cell_angle_beta   101.55182545
_cell_angle_gamma   60.00000490
_symmetry_Int_Tables_number   1
_chemical_formula_structural   Ca3Mg2Ni13
_chemical_formula_sum   'Ca3 Mg2 Ni13'
_cell_volume   254.49210188
_cell_formula_units_Z   1
loop_
 _symmetry_equiv_pos_site_id
 _symmetry_equiv_pos_as_xyz
  1  'x, y, z'
loop_
 _atom_site_type_symbol
 _atom_site_label
 _atom_site_symmetry_multiplicity
 _atom_site_fract_x
 _atom_site_fract_y
 _atom_site_fract_z
 _atom_site_occupancy
  Ca  Ca0  1  -0.00000000  0.50000000  0.50000000  1
  Ca  Ca1  1  0.91412070  0.04293965  0.87118106  1
  Ca  Ca2  1  0.08587930  0.95706035  0.12881894  1
  Mg  Mg3  1  0.18307197  0.40846402  0.77460795  1
  Mg  Mg4  1  0.81692803  0.59153598  0.22539205  1
  Ni  Ni5  1  0.66861739  0.16569130  0.50292609  1
  Ni  Ni6  1  0.33138261  0.83430870  0.49707391  1
  Ni  Ni7  1  0.11195304  0.94402348  0.66361032  1
  Ni  Ni8  1  0.60763380  0.94402348  0.66361032  1
  Ni  Ni9  1  0.60763380  0.44834271  0.66361032  1
  Ni  Ni10  1  0.88804696  0.05597652  0.33638968  1
  Ni  Ni11  1  0.39236620  0.05597652  0.33638968  1
  Ni  Ni12  1  0.39236620  0.55165729  0.33638968  1
  Ni  Ni13  1  0.44546460  0.27726770  0.16819690  1
  Ni  Ni14  1  0.55453540  0.72273230  0.83180310  1
  Ni  Ni15  1  0.50000000  0.50000000  -0.00000000  1
  Ni  Ni16  1  0.50000000  0.00000000  -0.00000000  1
  Ni  Ni17  1  -0.00000000  0.50000000  -0.00000000  1
