# generated using pymatgen
data_Ba3SrAg4
_symmetry_space_group_name_H-M   'P 1'
_cell_length_a   4.98871302
_cell_length_b   6.62181523
_cell_length_c   8.65604995
_cell_angle_alpha   90.72740215
_cell_angle_beta   90.00000000
_cell_angle_gamma   90.00000000
_symmetry_Int_Tables_number   1
_chemical_formula_structural   Ba3SrAg4
_chemical_formula_sum   'Ba3 Sr1 Ag4'
_cell_volume   285.92381726
_cell_formula_units_Z   1
loop_
 _symmetry_equiv_pos_site_id
 _symmetry_equiv_pos_as_xyz
  1  'x, y, z'
loop_
 _atom_site_type_symbol
 _atom_site_label
 _atom_site_symmetry_multiplicity
 _atom_site_fract_x
 _atom_site_fract_y
 _atom_site_fract_z
 _atom_site_occupancy
  Ba  Ba0  1  0.25000000  0.63190224  0.18047937  1
  Ba  Ba1  1  0.75000000  0.12929106  0.32228023  1
  Ba  Ba2  1  0.75000000  0.36897115  0.81774530  1
  Sr  Sr3  1  0.25000000  0.86720866  0.68130317  1
  Ag  Ag4  1  0.25000000  0.38298233  0.53627839  1
  Ag  Ag5  1  0.25000000  0.11635103  0.03098492  1
  Ag  Ag6  1  0.75000000  0.62206285  0.46967391  1
  Ag  Ag7  1  0.75000000  0.88123067  0.96125472  1
