# generated using pymatgen
data_Ca2SmYMn4O12
_symmetry_space_group_name_H-M   'P 1'
_cell_length_a   5.40664572
_cell_length_b   5.54239239
_cell_length_c   7.61608013
_cell_angle_alpha   90.00000000
_cell_angle_beta   90.00000000
_cell_angle_gamma   90.18453105
_symmetry_Int_Tables_number   1
_chemical_formula_structural   Ca2SmYMn4O12
_chemical_formula_sum   'Ca2 Sm1 Y1 Mn4 O12'
_cell_volume   228.22038564
_cell_formula_units_Z   1
loop_
 _symmetry_equiv_pos_site_id
 _symmetry_equiv_pos_as_xyz
  1  'x, y, z'
loop_
 _atom_site_type_symbol
 _atom_site_label
 _atom_site_symmetry_multiplicity
 _atom_site_fract_x
 _atom_site_fract_y
 _atom_site_fract_z
 _atom_site_occupancy
  Ca  Ca0  1  0.98926652  0.04587338  0.25000000  1
  Ca  Ca1  1  0.48913020  0.45296011  0.75000000  1
  Sm  Sm2  1  0.51500521  0.55258205  0.25000000  1
  Y  Y3  1  0.01679550  0.94258545  0.75000000  1
  Mn  Mn4  1  0.00021749  0.49666979  0.99862131  1
  Mn  Mn5  1  0.50115448  0.00267679  0.50138748  1
  Mn  Mn6  1  0.00021749  0.49666979  0.50137869  1
  Mn  Mn7  1  0.50115448  0.00267679  0.99861252  1
  O  O8  1  0.09070788  0.47596331  0.25000000  1
  O  O9  1  0.41496092  0.97542718  0.25000000  1
  O  O10  1  0.91311351  0.53362659  0.75000000  1
  O  O11  1  0.60205061  0.02431647  0.75000000  1
  O  O12  1  0.20421348  0.20407893  0.94877768  1
  O  O13  1  0.28606798  0.71483472  0.54871628  1
  O  O14  1  0.78705142  0.78687537  0.45449041  1
  O  O15  1  0.70577998  0.29319711  0.04564649  1
  O  O16  1  0.78705142  0.78687537  0.04550959  1
  O  O17  1  0.70577998  0.29319711  0.45435351  1
  O  O18  1  0.20421348  0.20407893  0.55122232  1
  O  O19  1  0.28606798  0.71483472  0.95128372  1
