# generated using pymatgen
data_BaSr4(FeO3)5
_symmetry_space_group_name_H-M   'P 1'
_cell_length_a   3.93290691
_cell_length_b   3.93290691
_cell_length_c   19.58707521
_cell_angle_alpha   90.00000000
_cell_angle_beta   90.00000000
_cell_angle_gamma   90.00000000
_symmetry_Int_Tables_number   1
_chemical_formula_structural   BaSr4(FeO3)5
_chemical_formula_sum   'Ba1 Sr4 Fe5 O15'
_cell_volume   302.96811504
_cell_formula_units_Z   1
loop_
 _symmetry_equiv_pos_site_id
 _symmetry_equiv_pos_as_xyz
  1  'x, y, z'
loop_
 _atom_site_type_symbol
 _atom_site_label
 _atom_site_symmetry_multiplicity
 _atom_site_fract_x
 _atom_site_fract_y
 _atom_site_fract_z
 _atom_site_occupancy
  Ba  Ba0  1  0.50000000  0.50000000  0.10000000  1
  Sr  Sr1  1  0.50000000  0.50000000  0.30124608  1
  Sr  Sr2  1  0.50000000  0.50000000  0.50022668  1
  Sr  Sr3  1  0.50000000  0.50000000  0.69977332  1
  Sr  Sr4  1  0.50000000  0.50000000  0.89875392  1
  Fe  Fe5  1  -0.00000000  0.00000000  0.99777270  1
  Fe  Fe6  1  0.00000000  -0.00000000  0.20222730  1
  Fe  Fe7  1  -0.00000000  0.00000000  0.40025650  1
  Fe  Fe8  1  -0.00000000  -0.00000000  0.60000000  1
  Fe  Fe9  1  0.00000000  -0.00000000  0.79974350  1
  O  O10  1  0.00000000  -0.00000000  0.10000000  1
  O  O11  1  -0.00000000  -0.00000000  0.30192764  1
  O  O12  1  0.00000000  0.00000000  0.49977997  1
  O  O13  1  -0.00000000  -0.00000000  0.70022003  1
  O  O14  1  0.00000000  -0.00000000  0.89807236  1
  O  O15  1  -0.00000000  0.50000000  0.99496057  1
  O  O16  1  0.00000000  0.50000000  0.20503943  1
  O  O17  1  -0.00000000  0.50000000  0.40034036  1
  O  O18  1  0.00000000  0.50000000  0.60000000  1
  O  O19  1  0.00000000  0.50000000  0.79965964  1
  O  O20  1  0.50000000  0.00000000  0.99496057  1
  O  O21  1  0.50000000  0.00000000  0.20503943  1
  O  O22  1  0.50000000  0.00000000  0.40034036  1
  O  O23  1  0.50000000  -0.00000000  0.60000000  1
  O  O24  1  0.50000000  -0.00000000  0.79965964  1
