# generated using pymatgen
data_BaSr4Ti5O15
_symmetry_space_group_name_H-M   'P 1'
_cell_length_a   3.95679969
_cell_length_b   3.95679969
_cell_length_c   19.77739757
_cell_angle_alpha   90.00000000
_cell_angle_beta   90.00000000
_cell_angle_gamma   90.00000000
_symmetry_Int_Tables_number   1
_chemical_formula_structural   BaSr4Ti5O15
_chemical_formula_sum   'Ba1 Sr4 Ti5 O15'
_cell_volume   309.64015337
_cell_formula_units_Z   1
loop_
 _symmetry_equiv_pos_site_id
 _symmetry_equiv_pos_as_xyz
  1  'x, y, z'
loop_
 _atom_site_type_symbol
 _atom_site_label
 _atom_site_symmetry_multiplicity
 _atom_site_fract_x
 _atom_site_fract_y
 _atom_site_fract_z
 _atom_site_occupancy
  Ba  Ba0  1  0.00000000  -0.00000000  -0.00000000  1
  Sr  Sr1  1  0.00000000  -0.00000000  0.20069552  1
  Sr  Sr2  1  -0.00000000  0.00000000  0.39998887  1
  Sr  Sr3  1  0.00000000  -0.00000000  0.60001113  1
  Sr  Sr4  1  -0.00000000  0.00000000  0.79930448  1
  Ti  Ti5  1  0.50000000  0.50000000  0.10256474  1
  Ti  Ti6  1  0.50000000  0.50000000  0.30037536  1
  Ti  Ti7  1  0.50000000  0.50000000  0.50000000  1
  Ti  Ti8  1  0.50000000  0.50000000  0.69962464  1
  Ti  Ti9  1  0.50000000  0.50000000  0.89743526  1
  O  O10  1  0.50000000  0.50000000  -0.00000000  1
  O  O11  1  0.50000000  0.50000000  0.20105827  1
  O  O12  1  0.50000000  0.50000000  0.40009756  1
  O  O13  1  0.50000000  0.50000000  0.59990244  1
  O  O14  1  0.50000000  0.50000000  0.79894173  1
  O  O15  1  0.50000000  -0.00000000  0.10383034  1
  O  O16  1  0.50000000  -0.00000000  0.30009300  1
  O  O17  1  0.50000000  -0.00000000  0.50000000  1
  O  O18  1  0.50000000  0.00000000  0.69990700  1
  O  O19  1  0.50000000  0.00000000  0.89616966  1
  O  O20  1  0.00000000  0.50000000  0.10383034  1
  O  O21  1  0.00000000  0.50000000  0.30009300  1
  O  O22  1  0.00000000  0.50000000  0.50000000  1
  O  O23  1  -0.00000000  0.50000000  0.69990700  1
  O  O24  1  -0.00000000  0.50000000  0.89616966  1
