# generated using pymatgen
data_Ba2AlZnF9
_symmetry_space_group_name_H-M   'P 1'
_cell_length_a   5.67184304
_cell_length_b   7.52241463
_cell_length_c   17.87720458
_cell_angle_alpha   90.00000000
_cell_angle_beta   90.00000000
_cell_angle_gamma   90.00000000
_symmetry_Int_Tables_number   1
_chemical_formula_structural   Ba2AlZnF9
_chemical_formula_sum   'Ba8 Al4 Zn4 F36'
_cell_volume   762.74800727
_cell_formula_units_Z   4
loop_
 _symmetry_equiv_pos_site_id
 _symmetry_equiv_pos_as_xyz
  1  'x, y, z'
loop_
 _atom_site_type_symbol
 _atom_site_label
 _atom_site_symmetry_multiplicity
 _atom_site_fract_x
 _atom_site_fract_y
 _atom_site_fract_z
 _atom_site_occupancy
  Ba  Ba0  1  0.75000000  0.93965867  0.78395527  1
  Ba  Ba1  1  0.75000000  0.56034133  0.28395527  1
  Ba  Ba2  1  0.25000000  0.06034133  0.21604473  1
  Ba  Ba3  1  0.25000000  0.43965867  0.71604473  1
  Ba  Ba4  1  0.25000000  0.28885569  0.46415197  1
  Ba  Ba5  1  0.25000000  0.21114431  0.96415197  1
  Ba  Ba6  1  0.75000000  0.71114431  0.53584803  1
  Ba  Ba7  1  0.75000000  0.78885569  0.03584803  1
  Al  Al8  1  0.75000000  0.41727356  0.87446221  1
  Al  Al9  1  0.75000000  0.08272644  0.37446221  1
  Al  Al10  1  0.25000000  0.58272644  0.12553779  1
  Al  Al11  1  0.25000000  0.91727356  0.62553779  1
  Zn  Zn12  1  0.25000000  0.73267149  0.91128374  1
  Zn  Zn13  1  0.25000000  0.76732851  0.41128374  1
  Zn  Zn14  1  0.75000000  0.26732851  0.08871626  1
  Zn  Zn15  1  0.75000000  0.23267149  0.58871626  1
  F  F16  1  0.75000000  0.56491134  0.79577429  1
  F  F17  1  0.75000000  0.93508866  0.29577429  1
  F  F18  1  0.25000000  0.43508866  0.20422571  1
  F  F19  1  0.25000000  0.06491134  0.70422571  1
  F  F20  1  0.51952833  0.95270429  0.42398323  1
  F  F21  1  0.98047167  0.54729571  0.92398323  1
  F  F22  1  0.01952833  0.04729571  0.57601677  1
  F  F23  1  0.48047167  0.45270429  0.07601677  1
  F  F24  1  0.48047167  0.04729571  0.57601677  1
  F  F25  1  0.01952833  0.45270429  0.07601677  1
  F  F26  1  0.98047167  0.95270429  0.42398323  1
  F  F27  1  0.51952833  0.54729571  0.92398323  1
  F  F28  1  0.99943752  0.57687411  0.41871779  1
  F  F29  1  0.50056248  0.92312589  0.91871779  1
  F  F30  1  0.49943752  0.42312589  0.58128221  1
  F  F31  1  0.00056248  0.07687411  0.08128221  1
  F  F32  1  0.00056248  0.42312589  0.58128221  1
  F  F33  1  0.49943752  0.07687411  0.08128221  1
  F  F34  1  0.50056248  0.57687411  0.41871779  1
  F  F35  1  0.99943752  0.92312589  0.91871779  1
  F  F36  1  0.51781534  0.22393359  0.33681321  1
  F  F37  1  0.98218466  0.27606641  0.83681321  1
  F  F38  1  0.01781534  0.77606641  0.66318679  1
  F  F39  1  0.48218466  0.72393359  0.16318679  1
  F  F40  1  0.48218466  0.77606641  0.66318679  1
  F  F41  1  0.01781534  0.72393359  0.16318679  1
  F  F42  1  0.98218466  0.22393359  0.33681321  1
  F  F43  1  0.51781534  0.27606641  0.83681321  1
  F  F44  1  0.25000000  0.77468941  0.53726769  1
  F  F45  1  0.25000000  0.72531059  0.03726769  1
  F  F46  1  0.75000000  0.22531059  0.46273231  1
  F  F47  1  0.75000000  0.27468941  0.96273231  1
  F  F48  1  0.25000000  0.72071199  0.80254414  1
  F  F49  1  0.25000000  0.77928801  0.30254414  1
  F  F50  1  0.75000000  0.27928801  0.19745586  1
  F  F51  1  0.75000000  0.22071199  0.69745586  1
