# generated using pymatgen
data_AlGa(PO4)2
_symmetry_space_group_name_H-M   'P 1'
_cell_length_a   5.05061656
_cell_length_b   5.05061656
_cell_length_c   7.07566429
_cell_angle_alpha   89.79475826
_cell_angle_beta   89.79475826
_cell_angle_gamma   89.44437921
_symmetry_Int_Tables_number   1
_chemical_formula_structural   AlGa(PO4)2
_chemical_formula_sum   'Al1 Ga1 P2 O8'
_cell_volume   180.48041296
_cell_formula_units_Z   1
loop_
 _symmetry_equiv_pos_site_id
 _symmetry_equiv_pos_as_xyz
  1  'x, y, z'
loop_
 _atom_site_type_symbol
 _atom_site_label
 _atom_site_symmetry_multiplicity
 _atom_site_fract_x
 _atom_site_fract_y
 _atom_site_fract_z
 _atom_site_occupancy
  Al  Al0  1  0.19187975  0.80812025  0.25000000  1
  Ga  Ga1  1  0.80256696  0.19743304  0.75000000  1
  P  P2  1  0.30646222  0.30702549  0.49575440  1
  P  P3  1  0.69297451  0.69353778  0.00424560  1
  O  O4  1  0.15045949  0.23377339  0.67649592  1
  O  O5  1  0.22823811  0.13594088  0.32569711  1
  O  O6  1  0.86405912  0.77176189  0.17430289  1
  O  O7  1  0.76622661  0.84954051  0.82350408  1
  O  O8  1  0.25652801  0.59854941  0.44293729  1
  O  O9  1  0.60438006  0.26522542  0.53807865  1
  O  O10  1  0.73477458  0.39561994  0.96192135  1
  O  O11  1  0.40145059  0.74347199  0.05706271  1
