# generated using pymatgen
data_Ba2NdTlCu2O7
_symmetry_space_group_name_H-M   'P 1'
_cell_length_a   3.92903875
_cell_length_b   3.94818730
_cell_length_c   12.88166790
_cell_angle_alpha   90.00000000
_cell_angle_beta   90.00000000
_cell_angle_gamma   90.00000000
_symmetry_Int_Tables_number   1
_chemical_formula_structural   Ba2NdTlCu2O7
_chemical_formula_sum   'Ba2 Nd1 Tl1 Cu2 O7'
_cell_volume   199.82791535
_cell_formula_units_Z   1
loop_
 _symmetry_equiv_pos_site_id
 _symmetry_equiv_pos_as_xyz
  1  'x, y, z'
loop_
 _atom_site_type_symbol
 _atom_site_label
 _atom_site_symmetry_multiplicity
 _atom_site_fract_x
 _atom_site_fract_y
 _atom_site_fract_z
 _atom_site_occupancy
  Ba  Ba0  1  0.50000000  0.50383519  0.79489834  1
  Ba  Ba1  1  0.50000000  0.50383519  0.20510166  1
  Nd  Nd2  1  0.50000000  0.50011556  0.50000000  1
  Tl  Tl3  1  -0.00000000  0.06838007  0.00000000  1
  Cu  Cu4  1  0.00000000  0.00008930  0.63591825  1
  Cu  Cu5  1  -0.00000000  0.00008930  0.36408175  1
  O  O6  1  0.50000000  0.00138385  0.61920779  1
  O  O7  1  -0.00000000  0.49995479  0.61978664  1
  O  O8  1  0.50000000  0.00138385  0.38079221  1
  O  O9  1  0.00000000  0.49995479  0.38021336  1
  O  O10  1  -0.00000000  0.99221040  0.83345713  1
  O  O11  1  -0.00000000  0.99221040  0.16654287  1
  O  O12  1  0.50000000  0.38835730  0.00000000  1
