# generated using pymatgen
data_CsRbMnF6
_symmetry_space_group_name_H-M   'P 1'
_cell_length_a   6.31275949
_cell_length_b   8.92483600
_cell_length_c   6.31275949
_cell_angle_alpha   90.00000000
_cell_angle_beta   90.00000000
_cell_angle_gamma   90.00000000
_symmetry_Int_Tables_number   1
_chemical_formula_structural   CsRbMnF6
_chemical_formula_sum   'Cs2 Rb2 Mn2 F12'
_cell_volume   355.66303539
_cell_formula_units_Z   2
loop_
 _symmetry_equiv_pos_site_id
 _symmetry_equiv_pos_as_xyz
  1  'x, y, z'
loop_
 _atom_site_type_symbol
 _atom_site_label
 _atom_site_symmetry_multiplicity
 _atom_site_fract_x
 _atom_site_fract_y
 _atom_site_fract_z
 _atom_site_occupancy
  Cs  Cs0  1  0.50000000  0.25000000  -0.00000000  1
  Cs  Cs1  1  0.00000000  0.75000000  0.50000000  1
  Rb  Rb2  1  0.50000000  0.75000000  -0.00000000  1
  Rb  Rb3  1  0.00000000  0.25000000  0.50000000  1
  Mn  Mn4  1  0.00000000  -0.00000000  -0.00000000  1
  Mn  Mn5  1  0.50000000  0.50000000  0.50000000  1
  F  F6  1  0.00000000  0.20722498  -0.00000000  1
  F  F7  1  0.50000000  0.70722498  0.50000000  1
  F  F8  1  0.29280418  0.50000000  0.29280418  1
  F  F9  1  0.79280418  0.00000000  0.79280418  1
  F  F10  1  0.29280418  0.50000000  0.70719582  1
  F  F11  1  0.79280418  0.00000000  0.20719582  1
  F  F12  1  0.00000000  0.79277502  -0.00000000  1
  F  F13  1  0.50000000  0.29277502  0.50000000  1
  F  F14  1  0.70719582  0.50000000  0.70719582  1
  F  F15  1  0.20719582  -0.00000000  0.20719582  1
  F  F16  1  0.70719582  0.50000000  0.29280418  1
  F  F17  1  0.20719582  -0.00000000  0.79280418  1
