# generated using pymatgen
data_LuCuS2
_symmetry_space_group_name_H-M   'P 1'
_cell_length_a   3.89388421
_cell_length_b   6.20270354
_cell_length_c   13.15179995
_cell_angle_alpha   90.00000000
_cell_angle_beta   90.00000000
_cell_angle_gamma   90.00000000
_symmetry_Int_Tables_number   1
_chemical_formula_structural   LuCuS2
_chemical_formula_sum   'Lu4 Cu4 S8'
_cell_volume   317.65028675
_cell_formula_units_Z   4
loop_
 _symmetry_equiv_pos_site_id
 _symmetry_equiv_pos_as_xyz
  1  'x, y, z'
loop_
 _atom_site_type_symbol
 _atom_site_label
 _atom_site_symmetry_multiplicity
 _atom_site_fract_x
 _atom_site_fract_y
 _atom_site_fract_z
 _atom_site_occupancy
  S  S0  1  0.25000000  0.26450316  0.79266027  1
  S  S1  1  0.75000000  0.73549684  0.20733973  1
  S  S2  1  0.75000000  0.76450316  0.70733973  1
  S  S3  1  0.25000000  0.23549684  0.29266027  1
  S  S4  1  0.25000000  0.74089306  0.95931930  1
  S  S5  1  0.25000000  0.75910694  0.45931930  1
  S  S6  1  0.75000000  0.24089306  0.54068070  1
  S  S7  1  0.75000000  0.25910694  0.04068070  1
  Cu  Cu8  1  0.25000000  0.12089202  0.95363173  1
  Cu  Cu9  1  0.75000000  0.62089202  0.54636827  1
  Cu  Cu10  1  0.75000000  0.87910798  0.04636827  1
  Cu  Cu11  1  0.25000000  0.37910798  0.45363173  1
  Lu  Lu12  1  0.25000000  0.50285338  0.13360996  1
  Lu  Lu13  1  0.75000000  0.49714662  0.86639004  1
  Lu  Lu14  1  0.75000000  0.00285338  0.36639004  1
  Lu  Lu15  1  0.25000000  0.99714662  0.63360996  1
