# generated using pymatgen
data_Mg6ZrBi
_symmetry_space_group_name_H-M   'P 1'
_cell_length_a   6.43764219
_cell_length_b   6.43764165
_cell_length_c   5.13112412
_cell_angle_alpha   90.00000000
_cell_angle_beta   90.00000000
_cell_angle_gamma   118.44482246
_symmetry_Int_Tables_number   1
_chemical_formula_structural   Mg6ZrBi
_chemical_formula_sum   'Mg6 Zr1 Bi1'
_cell_volume   186.97841855
_cell_formula_units_Z   1
loop_
 _symmetry_equiv_pos_site_id
 _symmetry_equiv_pos_as_xyz
  1  'x, y, z'
loop_
 _atom_site_type_symbol
 _atom_site_label
 _atom_site_symmetry_multiplicity
 _atom_site_fract_x
 _atom_site_fract_y
 _atom_site_fract_z
 _atom_site_occupancy
  Mg  Mg0  1  0.15988112  0.81958587  0.25000000  1
  Mg  Mg1  1  0.68041413  0.34011888  0.25000000  1
  Mg  Mg2  1  0.66381450  0.83618550  0.25000000  1
  Mg  Mg3  1  0.33499874  0.66868567  0.75000000  1
  Mg  Mg4  1  0.83131433  0.16500126  0.75000000  1
  Mg  Mg5  1  0.83357333  0.66642667  0.75000000  1
  Zr  Zr6  1  0.16413989  0.33586011  0.25000000  1
  Bi  Bi7  1  0.33186396  0.16813604  0.75000000  1
