# generated using pymatgen
data_Al3Co
_symmetry_space_group_name_H-M   'P 1'
_cell_length_a   4.08702660
_cell_length_b   7.51915824
_cell_length_c   8.75148097
_cell_angle_alpha   115.37959554
_cell_angle_beta   76.49649700
_cell_angle_gamma   90.00000000
_symmetry_Int_Tables_number   1
_chemical_formula_structural   Al3Co
_chemical_formula_sum   'Al12 Co4'
_cell_volume   234.73024300
_cell_formula_units_Z   4
loop_
 _symmetry_equiv_pos_site_id
 _symmetry_equiv_pos_as_xyz
  1  'x, y, z'
loop_
 _atom_site_type_symbol
 _atom_site_label
 _atom_site_symmetry_multiplicity
 _atom_site_fract_x
 _atom_site_fract_y
 _atom_site_fract_z
 _atom_site_occupancy
  Al  Al0  1  0.23809408  0.39879237  0.52381185  1
  Al  Al1  1  0.75591110  0.58948882  0.48817781  1
  Al  Al2  1  0.40739781  0.79004329  0.18520438  1
  Al  Al3  1  0.57921056  0.24375765  0.84157889  1
  Al  Al4  1  0.79060268  0.90296523  0.41879464  1
  Al  Al5  1  0.19163746  0.10518205  0.61672509  1
  Al  Al6  1  0.49898833  0.00311929  0.00202333  1
  Al  Al7  1  0.58652616  0.60254898  0.82694769  1
  Al  Al8  1  0.40273568  0.39859133  0.19452863  1
  Al  Al9  1  0.12594489  0.83682433  0.74811022  1
  Al  Al10  1  0.86824083  0.15650950  0.26351834  1
  Al  Al11  1  0.98125232  0.51873021  0.03749535  1
  Co  Co12  1  0.98630925  0.82351286  0.02738149  1
  Co  Co13  1  0.00744216  0.18392152  0.98511568  1
  Co  Co14  1  0.28092088  0.72358930  0.43815825  1
  Co  Co15  1  0.71278582  0.27682328  0.57442837  1
