# generated using pymatgen
data_Al3GaN4
_symmetry_space_group_name_H-M   'P 1'
_cell_length_a   3.14858499
_cell_length_b   5.45158585
_cell_length_c   5.07768134
_cell_angle_alpha   89.96605696
_cell_angle_beta   90.00003949
_cell_angle_gamma   89.99933396
_symmetry_Int_Tables_number   1
_chemical_formula_structural   Al3GaN4
_chemical_formula_sum   'Al3 Ga1 N4'
_cell_volume   87.15727465
_cell_formula_units_Z   1
loop_
 _symmetry_equiv_pos_site_id
 _symmetry_equiv_pos_as_xyz
  1  'x, y, z'
loop_
 _atom_site_type_symbol
 _atom_site_label
 _atom_site_symmetry_multiplicity
 _atom_site_fract_x
 _atom_site_fract_y
 _atom_site_fract_z
 _atom_site_occupancy
  Al  Al0  1  0.50000122  0.83270796  0.49978864  1
  Al  Al1  1  0.49999915  0.16493608  0.00085717  1
  Al  Al2  1  0.00000022  0.66855910  0.00072702  1
  Ga  Ga3  1  0.99999929  0.33368324  0.49993704  1
  N  N4  1  0.99999637  0.33378093  0.11052518  1
  N  N5  1  0.49999606  0.83284935  0.12260056  1
  N  N6  1  0.50000417  0.15892340  0.62585783  1
  N  N7  1  0.00000352  0.67455995  0.62330656  1
