# generated using pymatgen
data_CaEu2(GeO3)4
_symmetry_space_group_name_H-M   'P 1'
_cell_length_a   5.18882880
_cell_length_b   10.26685325
_cell_length_c   10.23636227
_cell_angle_alpha   89.88547615
_cell_angle_beta   90.00000000
_cell_angle_gamma   90.00000000
_symmetry_Int_Tables_number   1
_chemical_formula_structural   CaEu2(GeO3)4
_chemical_formula_sum   'Ca2 Eu4 Ge8 O24'
_cell_volume   545.32006273
_cell_formula_units_Z   2
loop_
 _symmetry_equiv_pos_site_id
 _symmetry_equiv_pos_as_xyz
  1  'x, y, z'
loop_
 _atom_site_type_symbol
 _atom_site_label
 _atom_site_symmetry_multiplicity
 _atom_site_fract_x
 _atom_site_fract_y
 _atom_site_fract_z
 _atom_site_occupancy
  Ca  Ca0  1  0.50000000  0.50000000  0.50000000  1
  Ca  Ca1  1  0.50000000  0.00000000  0.00000000  1
  Eu  Eu2  1  0.50000000  0.00000000  0.50000000  1
  Eu  Eu3  1  0.50000000  0.50000000  0.00000000  1
  Eu  Eu4  1  0.50104955  0.75000000  0.75000000  1
  Eu  Eu5  1  0.49895045  0.25000000  0.25000000  1
  Ge  Ge6  1  0.99815262  0.75158384  0.02535488  1
  Ge  Ge7  1  0.00184738  0.24841616  0.97464512  1
  Ge  Ge8  1  0.00184738  0.25158384  0.52535488  1
  Ge  Ge9  1  0.99815262  0.74841616  0.47464512  1
  Ge  Ge10  1  0.00302158  0.02523037  0.75208228  1
  Ge  Ge11  1  0.99697842  0.97476963  0.24791772  1
  Ge  Ge12  1  0.99697842  0.52523037  0.25208228  1
  Ge  Ge13  1  0.00302158  0.47476963  0.74791772  1
  O  O14  1  0.25429971  0.56107170  0.67748517  1
  O  O15  1  0.25202509  0.05670857  0.32452031  1
  O  O16  1  0.25202509  0.44329143  0.17547969  1
  O  O17  1  0.25429971  0.93892830  0.82251483  1
  O  O18  1  0.74570029  0.43892830  0.32251483  1
  O  O19  1  0.74797491  0.94329143  0.67547969  1
  O  O20  1  0.74797491  0.55670857  0.82452031  1
  O  O21  1  0.74570029  0.06107170  0.17748517  1
  O  O22  1  0.74658197  0.67760328  0.56056000  1
  O  O23  1  0.74768546  0.32466283  0.05604738  1
  O  O24  1  0.74768546  0.17533717  0.44395262  1
  O  O25  1  0.74658197  0.82239672  0.93944000  1
  O  O26  1  0.25341803  0.32239672  0.43944000  1
  O  O27  1  0.25231454  0.67533717  0.94395262  1
  O  O28  1  0.25231454  0.82466283  0.55604738  1
  O  O29  1  0.25341803  0.17760328  0.06056000  1
  O  O30  1  0.15404525  0.87127922  0.12878802  1
  O  O31  1  0.15517859  0.37251416  0.87231612  1
  O  O32  1  0.15517859  0.12748584  0.62768388  1
  O  O33  1  0.15404525  0.62872078  0.37121198  1
  O  O34  1  0.84595475  0.12872078  0.87121198  1
  O  O35  1  0.84482141  0.62748584  0.12768388  1
  O  O36  1  0.84482141  0.87251416  0.37231612  1
  O  O37  1  0.84595475  0.37127922  0.62878802  1
