# generated using pymatgen
data_BaPb2(SO4)3
_symmetry_space_group_name_H-M   'P 1'
_cell_length_a   5.51824435
_cell_length_b   7.12095945
_cell_length_c   26.12240832
_cell_angle_alpha   89.82558085
_cell_angle_beta   90.00000000
_cell_angle_gamma   90.00000000
_symmetry_Int_Tables_number   1
_chemical_formula_structural   BaPb2(SO4)3
_chemical_formula_sum   'Ba4 Pb8 S12 O48'
_cell_volume   1026.48035308
_cell_formula_units_Z   4
loop_
 _symmetry_equiv_pos_site_id
 _symmetry_equiv_pos_as_xyz
  1  'x, y, z'
loop_
 _atom_site_type_symbol
 _atom_site_label
 _atom_site_symmetry_multiplicity
 _atom_site_fract_x
 _atom_site_fract_y
 _atom_site_fract_z
 _atom_site_occupancy
  Ba  Ba0  1  0.25000000  0.33963982  0.22810916  1
  Ba  Ba1  1  0.25000000  0.33958943  0.56114254  1
  Ba  Ba2  1  0.25000000  0.34009292  0.89399930  1
  Ba  Ba3  1  0.25000000  0.15994031  0.06098158  1
  Pb  Pb4  1  0.25000000  0.16833368  0.39595583  1
  Pb  Pb5  1  0.25000000  0.16815392  0.72928241  1
  Pb  Pb6  1  0.75000000  0.66753784  0.10360314  1
  Pb  Pb7  1  0.75000000  0.66871758  0.43598597  1
  Pb  Pb8  1  0.75000000  0.66873134  0.76933073  1
  Pb  Pb9  1  0.75000000  0.83312270  0.27042468  1
  Pb  Pb10  1  0.75000000  0.83261926  0.60362021  1
  Pb  Pb11  1  0.75000000  0.83195722  0.93680257  1
  S  S12  1  0.75000000  0.31375291  0.31324855  1
  S  S13  1  0.75000000  0.31373466  0.64657676  1
  S  S14  1  0.75000000  0.31382663  0.97883004  1
  S  S15  1  0.75000000  0.18611277  0.14557060  1
  S  S16  1  0.75000000  0.18387259  0.47775027  1
  S  S17  1  0.75000000  0.18383223  0.81104759  1
  S  S18  1  0.25000000  0.68578353  0.02165193  1
  S  S19  1  0.25000000  0.68527258  0.35507614  1
  S  S20  1  0.25000000  0.68523838  0.68840968  1
  S  S21  1  0.25000000  0.81409840  0.18828288  1
  S  S22  1  0.25000000  0.81521917  0.52121309  1
  S  S23  1  0.25000000  0.81532031  0.85454278  1
  O  O24  1  0.75000000  0.40251852  0.02988498  1
  O  O25  1  0.75000000  0.40559590  0.36371766  1
  O  O26  1  0.75000000  0.40557381  0.69704892  1
  O  O27  1  0.75000000  0.09706775  0.19669873  1
  O  O28  1  0.75000000  0.09937676  0.52946477  1
  O  O29  1  0.75000000  0.09941702  0.86273110  1
  O  O30  1  0.25000000  0.59834146  0.30414583  1
  O  O31  1  0.25000000  0.59823931  0.63746417  1
  O  O32  1  0.25000000  0.59673844  0.97091984  1
  O  O33  1  0.25000000  0.90327461  0.13756276  1
  O  O34  1  0.25000000  0.90471985  0.47041312  1
  O  O35  1  0.25000000  0.90484263  0.80374740  1
  O  O36  1  0.75000000  0.45353360  0.27021381  1
  O  O37  1  0.75000000  0.45361356  0.60353165  1
  O  O38  1  0.75000000  0.45643187  0.93658717  1
  O  O39  1  0.75000000  0.04394248  0.10341653  1
  O  O40  1  0.75000000  0.04098715  0.43611276  1
  O  O41  1  0.75000000  0.04098692  0.76940581  1
  O  O42  1  0.25000000  0.54912184  0.06460425  1
  O  O43  1  0.25000000  0.54408639  0.39749225  1
  O  O44  1  0.25000000  0.54410662  0.73083263  1
  O  O45  1  0.25000000  0.95063130  0.23117537  1
  O  O46  1  0.25000000  0.95139545  0.56428591  1
  O  O47  1  0.25000000  0.95137507  0.89762092  1
  O  O48  1  0.97005721  0.19031926  0.30808290  1
  O  O49  1  0.97009222  0.19039455  0.64138357  1
  O  O50  1  0.96866175  0.19068418  0.97305137  1
  O  O51  1  0.53127427  0.30933222  0.13974131  1
  O  O52  1  0.52961779  0.30693752  0.47148287  1
  O  O53  1  0.52965660  0.30696751  0.80476337  1
  O  O54  1  0.47239966  0.80866351  0.02664028  1
  O  O55  1  0.47187872  0.80810159  0.36072235  1
  O  O56  1  0.47187848  0.80807588  0.69404539  1
  O  O57  1  0.02751527  0.69126010  0.19343456  1
  O  O58  1  0.02778312  0.69201451  0.52654621  1
  O  O59  1  0.02783778  0.69203993  0.85984742  1
  O  O60  1  0.02760034  0.80866351  0.02664028  1
  O  O61  1  0.02812128  0.80810159  0.36072235  1
  O  O62  1  0.02812152  0.80807588  0.69404539  1
  O  O63  1  0.47248473  0.69126010  0.19343456  1
  O  O64  1  0.47221688  0.69201451  0.52654621  1
  O  O65  1  0.47216222  0.69203993  0.85984742  1
  O  O66  1  0.52994279  0.19031926  0.30808290  1
  O  O67  1  0.52990778  0.19039455  0.64138357  1
  O  O68  1  0.53133825  0.19068418  0.97305137  1
  O  O69  1  0.96872573  0.30933222  0.13974131  1
  O  O70  1  0.97038221  0.30693752  0.47148287  1
  O  O71  1  0.97034340  0.30696751  0.80476337  1
