# generated using pymatgen
data_K2SiF6
_symmetry_space_group_name_H-M   'P 1'
_cell_length_a   5.74107918
_cell_length_b   5.74107918
_cell_length_c   9.41976954
_cell_angle_alpha   90.00000000
_cell_angle_beta   90.00000000
_cell_angle_gamma   119.99999998
_symmetry_Int_Tables_number   1
_chemical_formula_structural   K2SiF6
_chemical_formula_sum   'K4 Si2 F12'
_cell_volume   268.87968028
_cell_formula_units_Z   2
loop_
 _symmetry_equiv_pos_site_id
 _symmetry_equiv_pos_as_xyz
  1  'x, y, z'
loop_
 _atom_site_type_symbol
 _atom_site_label
 _atom_site_symmetry_multiplicity
 _atom_site_fract_x
 _atom_site_fract_y
 _atom_site_fract_z
 _atom_site_occupancy
  F  F0  1  0.94803680  0.47401840  0.36878004  1
  F  F1  1  0.47401840  0.94803680  0.86878004  1
  F  F2  1  0.47401840  0.52598160  0.86878004  1
  F  F3  1  0.52598160  0.47401840  0.36878004  1
  F  F4  1  0.52598160  0.05196320  0.36878004  1
  F  F5  1  0.05196320  0.52598160  0.86878004  1
  F  F6  1  0.61932040  0.80966020  0.07830696  1
  F  F7  1  0.80966020  0.61932040  0.57830696  1
  F  F8  1  0.80966020  0.19033980  0.57830696  1
  F  F9  1  0.19033980  0.80966020  0.07830696  1
  F  F10  1  0.19033980  0.38067960  0.07830696  1
  F  F11  1  0.38067960  0.19033980  0.57830696  1
  Si  Si12  1  0.66666667  0.33333333  0.47565363  1
  Si  Si13  1  0.33333333  0.66666667  0.97565363  1
  K  K14  1  0.00000000  0.00000000  0.31237050  1
  K  K15  1  0.00000000  0.00000000  0.81237050  1
  K  K16  1  0.33333333  0.66666667  0.59165485  1
  K  K17  1  0.66666667  0.33333333  0.09165485  1
