# generated using pymatgen
data_SrMg6Zr
_symmetry_space_group_name_H-M   'P 1'
_cell_length_a   6.58576792
_cell_length_b   9.22513136
_cell_length_c   4.75593871
_cell_angle_alpha   90.00000000
_cell_angle_beta   90.00000000
_cell_angle_gamma   134.45781701
_symmetry_Int_Tables_number   1
_chemical_formula_structural   SrMg6Zr
_chemical_formula_sum   'Sr1 Mg6 Zr1'
_cell_volume   206.23922221
_cell_formula_units_Z   1
loop_
 _symmetry_equiv_pos_site_id
 _symmetry_equiv_pos_as_xyz
  1  'x, y, z'
loop_
 _atom_site_type_symbol
 _atom_site_label
 _atom_site_symmetry_multiplicity
 _atom_site_fract_x
 _atom_site_fract_y
 _atom_site_fract_z
 _atom_site_occupancy
  Sr  Sr0  1  0.24294555  0.87147277  0.25000000  1
  Mg  Mg1  1  0.75113248  0.37145021  0.25000000  1
  Mg  Mg2  1  0.75113248  0.87968128  0.25000000  1
  Mg  Mg3  1  0.25099674  0.14681156  0.75000000  1
  Mg  Mg4  1  0.25099674  0.60418618  0.75000000  1
  Mg  Mg5  1  0.78784104  0.14392102  0.75000000  1
  Mg  Mg6  1  0.71085475  0.60542837  0.75000000  1
  Zr  Zr7  1  0.25410023  0.37704962  0.25000000  1
