# generated using pymatgen
data_PrSbO4
_symmetry_space_group_name_H-M   'P 1'
_cell_length_a   5.59749693
_cell_length_b   7.79094497
_cell_length_c   7.78351537
_cell_angle_alpha   100.51180889
_cell_angle_beta   90.00000000
_cell_angle_gamma   90.00000000
_symmetry_Int_Tables_number   1
_chemical_formula_structural   PrSbO4
_chemical_formula_sum   'Pr4 Sb4 O16'
_cell_volume   333.74080704
_cell_formula_units_Z   4
loop_
 _symmetry_equiv_pos_site_id
 _symmetry_equiv_pos_as_xyz
  1  'x, y, z'
loop_
 _atom_site_type_symbol
 _atom_site_label
 _atom_site_symmetry_multiplicity
 _atom_site_fract_x
 _atom_site_fract_y
 _atom_site_fract_z
 _atom_site_occupancy
  O  O0  1  0.97572807  0.87928571  0.32642312  1
  O  O1  1  0.47572807  0.12071429  0.17357688  1
  O  O2  1  0.02427193  0.12071429  0.67357688  1
  O  O3  1  0.52427193  0.87928571  0.82642312  1
  O  O4  1  0.64079501  0.66897256  0.05505619  1
  O  O5  1  0.14079501  0.33102744  0.44494381  1
  O  O6  1  0.35920499  0.33102744  0.94494381  1
  O  O7  1  0.85920499  0.66897256  0.55505619  1
  O  O8  1  0.99781305  0.82707639  0.86966275  1
  O  O9  1  0.49781305  0.17292361  0.63033725  1
  O  O10  1  0.00218695  0.17292361  0.13033725  1
  O  O11  1  0.50218695  0.82707639  0.36966275  1
  O  O12  1  0.91087376  0.43890283  0.79632394  1
  O  O13  1  0.41087376  0.56109717  0.70367606  1
  O  O14  1  0.08912624  0.56109717  0.20367606  1
  O  O15  1  0.58912624  0.43890283  0.29632394  1
  Sb  Sb16  1  0.76738237  0.66345451  0.30144110  1
  Sb  Sb17  1  0.26738237  0.33654549  0.19855890  1
  Sb  Sb18  1  0.23261763  0.33654549  0.69855890  1
  Sb  Sb19  1  0.73261763  0.66345451  0.80144110  1
  Pr  Pr20  1  0.27413653  0.84921480  0.10069559  1
  Pr  Pr21  1  0.77413653  0.15078520  0.39930441  1
  Pr  Pr22  1  0.72586347  0.15078520  0.89930441  1
  Pr  Pr23  1  0.22586347  0.84921480  0.60069559  1
