# generated using pymatgen
data_La2ZnNi2
_symmetry_space_group_name_H-M   'P 1'
_cell_length_a   4.38907460
_cell_length_b   5.53428477
_cell_length_c   5.51967425
_cell_angle_alpha   120.08848952
_cell_angle_beta   113.42726486
_cell_angle_gamma   90.00000000
_symmetry_Int_Tables_number   1
_chemical_formula_structural   La2ZnNi2
_chemical_formula_sum   'La2 Zn1 Ni2'
_cell_volume   103.03627468
_cell_formula_units_Z   1
loop_
 _symmetry_equiv_pos_site_id
 _symmetry_equiv_pos_as_xyz
  1  'x, y, z'
loop_
 _atom_site_type_symbol
 _atom_site_label
 _atom_site_symmetry_multiplicity
 _atom_site_fract_x
 _atom_site_fract_y
 _atom_site_fract_z
 _atom_site_occupancy
  Ni  Ni0  1  0.49999905  0.74223312  0.99999811  1
  Ni  Ni1  1  0.50000095  0.25776688  0.00000189  1
  Zn  Zn2  1  0.00000000  0.00000000  0.00000000  1
  La  La3  1  0.19914952  0.69915051  0.39829904  1
  La  La4  1  0.80085048  0.30084949  0.60170096  1
