# generated using pymatgen
data_Zn3(AsO4)2
_symmetry_space_group_name_H-M   'P 1'
_cell_length_a   6.72441456
_cell_length_b   9.01480989
_cell_length_c   11.14281009
_cell_angle_alpha   90.00000000
_cell_angle_beta   93.67390725
_cell_angle_gamma   90.00000000
_symmetry_Int_Tables_number   1
_chemical_formula_structural   Zn3(AsO4)2
_chemical_formula_sum   'Zn12 As8 O32'
_cell_volume   674.08140312
_cell_formula_units_Z   4
loop_
 _symmetry_equiv_pos_site_id
 _symmetry_equiv_pos_as_xyz
  1  'x, y, z'
loop_
 _atom_site_type_symbol
 _atom_site_label
 _atom_site_symmetry_multiplicity
 _atom_site_fract_x
 _atom_site_fract_y
 _atom_site_fract_z
 _atom_site_occupancy
  O  O0  1  0.87340746  0.45215465  0.80171317  1
  O  O1  1  0.12659254  0.95215465  0.69828683  1
  O  O2  1  0.12659254  0.54784535  0.19828683  1
  O  O3  1  0.87340746  0.04784535  0.30171317  1
  O  O4  1  0.47703903  0.55148367  0.85656025  1
  O  O5  1  0.52296097  0.05148367  0.64343975  1
  O  O6  1  0.52296097  0.44851633  0.14343975  1
  O  O7  1  0.47703903  0.94851633  0.35656025  1
  O  O8  1  0.67388876  0.50266778  0.57658955  1
  O  O9  1  0.32611124  0.00266778  0.92341045  1
  O  O10  1  0.32611124  0.49733222  0.42341045  1
  O  O11  1  0.67388876  0.99733222  0.07658955  1
  O  O12  1  0.33595795  0.33140524  0.71519257  1
  O  O13  1  0.66404205  0.83140524  0.78480743  1
  O  O14  1  0.66404205  0.66859476  0.28480743  1
  O  O15  1  0.33595795  0.16859476  0.21519257  1
  O  O16  1  0.07841119  0.56557645  0.61935434  1
  O  O17  1  0.92158881  0.06557645  0.88064566  1
  O  O18  1  0.92158881  0.43442355  0.38064566  1
  O  O19  1  0.07841119  0.93442355  0.11935434  1
  O  O20  1  0.60850840  0.25140582  0.40708058  1
  O  O21  1  0.39149160  0.75140582  0.09291942  1
  O  O22  1  0.39149160  0.74859418  0.59291942  1
  O  O23  1  0.60850840  0.24859418  0.90708058  1
  O  O24  1  0.94948334  0.24000040  0.10657736  1
  O  O25  1  0.05051666  0.74000040  0.39342264  1
  O  O26  1  0.05051666  0.75999960  0.89342264  1
  O  O27  1  0.94948334  0.25999960  0.60657736  1
  O  O28  1  0.21786585  0.15822585  0.45346968  1
  O  O29  1  0.78213415  0.65822585  0.04653032  1
  O  O30  1  0.78213415  0.84177415  0.54653032  1
  O  O31  1  0.21786585  0.34177415  0.95346968  1
  Zn  Zn32  1  0.24713910  0.14400745  0.63456274  1
  Zn  Zn33  1  0.75286090  0.64400745  0.86543726  1
  Zn  Zn34  1  0.75286090  0.85599255  0.36543726  1
  Zn  Zn35  1  0.24713910  0.35599255  0.13456274  1
  Zn  Zn36  1  0.61847245  0.02114123  0.88387117  1
  Zn  Zn37  1  0.38152755  0.52114123  0.61612883  1
  Zn  Zn38  1  0.38152755  0.97885877  0.11612883  1
  Zn  Zn39  1  0.61847245  0.47885877  0.38387117  1
  Zn  Zn40  1  0.91950625  0.28335666  0.92158097  1
  Zn  Zn41  1  0.08049375  0.78335666  0.57841903  1
  Zn  Zn42  1  0.08049375  0.71664334  0.07841903  1
  Zn  Zn43  1  0.91950625  0.21664334  0.42158097  1
  As  As44  1  0.41737137  0.13128101  0.36404040  1
  As  As45  1  0.58262863  0.63128101  0.13595960  1
  As  As46  1  0.58262863  0.86871899  0.63595960  1
  As  As47  1  0.41737137  0.36871899  0.86404040  1
  As  As48  1  0.89367431  0.06126081  0.14714153  1
  As  As49  1  0.10632569  0.56126081  0.35285847  1
  As  As50  1  0.10632569  0.93873919  0.85285847  1
  As  As51  1  0.89367431  0.43873919  0.64714153  1
