# generated using pymatgen
data_Na3Rh(NO2)6
_symmetry_space_group_name_H-M   'P 1'
_cell_length_a   6.86764377
_cell_length_b   6.86764378
_cell_length_c   6.86764378
_cell_angle_alpha   72.30368274
_cell_angle_beta   72.30368272
_cell_angle_gamma   72.30368269
_symmetry_Int_Tables_number   1
_chemical_formula_structural   Na3Rh(NO2)6
_chemical_formula_sum   'Na3 Rh1 N6 O12'
_cell_volume   285.88114480
_cell_formula_units_Z   1
loop_
 _symmetry_equiv_pos_site_id
 _symmetry_equiv_pos_as_xyz
  1  'x, y, z'
loop_
 _atom_site_type_symbol
 _atom_site_label
 _atom_site_symmetry_multiplicity
 _atom_site_fract_x
 _atom_site_fract_y
 _atom_site_fract_z
 _atom_site_occupancy
  N  N0  1  0.79837290  0.17467925  0.79837290  1
  N  N1  1  0.79837290  0.79837290  0.17467925  1
  N  N2  1  0.17467925  0.79837290  0.79837290  1
  N  N3  1  0.82532075  0.20162710  0.20162710  1
  N  N4  1  0.20162710  0.82532075  0.20162710  1
  N  N5  1  0.20162710  0.20162710  0.82532075  1
  O  O6  1  0.91154406  0.28215782  0.28215782  1
  O  O7  1  0.08845594  0.71784218  0.71784218  1
  O  O8  1  0.71784218  0.71784218  0.08845594  1
  O  O9  1  0.71784218  0.08845594  0.71784218  1
  O  O10  1  0.24164358  0.62866662  0.24164358  1
  O  O11  1  0.24164358  0.24164358  0.62866662  1
  O  O12  1  0.62866662  0.24164358  0.24164358  1
  O  O13  1  0.37133338  0.75835642  0.75835642  1
  O  O14  1  0.75835642  0.37133338  0.75835642  1
  O  O15  1  0.75835642  0.75835642  0.37133338  1
  O  O16  1  0.28215782  0.91154406  0.28215782  1
  O  O17  1  0.28215782  0.28215782  0.91154406  1
  Na  Na18  1  0.73476320  0.73476320  0.73476320  1
  Na  Na19  1  0.26523680  0.26523680  0.26523680  1
  Na  Na20  1  0.50000000  0.50000000  0.50000000  1
  Rh  Rh21  1  0.00000000  0.00000000  0.00000000  1
