# generated using pymatgen
data_LiMg6Zr
_symmetry_space_group_name_H-M   'P 1'
_cell_length_a   6.39606375
_cell_length_b   6.39606324
_cell_length_c   5.07579632
_cell_angle_alpha   90.00000000
_cell_angle_beta   90.00000000
_cell_angle_gamma   120.40423228
_symmetry_Int_Tables_number   1
_chemical_formula_structural   LiMg6Zr
_chemical_formula_sum   'Li1 Mg6 Zr1'
_cell_volume   179.09228700
_cell_formula_units_Z   1
loop_
 _symmetry_equiv_pos_site_id
 _symmetry_equiv_pos_as_xyz
  1  'x, y, z'
loop_
 _atom_site_type_symbol
 _atom_site_label
 _atom_site_symmetry_multiplicity
 _atom_site_fract_x
 _atom_site_fract_y
 _atom_site_fract_z
 _atom_site_occupancy
  Li  Li0  1  0.33272685  0.16727315  0.75000000  1
  Mg  Mg1  1  0.17210802  0.83702995  0.25000000  1
  Mg  Mg2  1  0.66297005  0.32789198  0.25000000  1
  Mg  Mg3  1  0.66445052  0.83554948  0.25000000  1
  Mg  Mg4  1  0.33042175  0.66156168  0.75000000  1
  Mg  Mg5  1  0.83843832  0.16957825  0.75000000  1
  Mg  Mg6  1  0.83316524  0.66683476  0.75000000  1
  Zr  Zr7  1  0.16571923  0.33428077  0.25000000  1
