# generated using pymatgen
data_KAlCuF6
_symmetry_space_group_name_H-M   'P 1'
_cell_length_a   6.73723040
_cell_length_b   7.15358526
_cell_length_c   9.95376654
_cell_angle_alpha   90.00000000
_cell_angle_beta   90.00000000
_cell_angle_gamma   90.00000000
_symmetry_Int_Tables_number   1
_chemical_formula_structural   KAlCuF6
_chemical_formula_sum   'K4 Al4 Cu4 F24'
_cell_volume   479.72528294
_cell_formula_units_Z   4
loop_
 _symmetry_equiv_pos_site_id
 _symmetry_equiv_pos_as_xyz
  1  'x, y, z'
loop_
 _atom_site_type_symbol
 _atom_site_label
 _atom_site_symmetry_multiplicity
 _atom_site_fract_x
 _atom_site_fract_y
 _atom_site_fract_z
 _atom_site_occupancy
  F  F0  1  0.61552057  0.00747707  0.33414487  1
  F  F1  1  0.11552057  0.49252293  0.16585513  1
  F  F2  1  0.38447943  0.50747707  0.66585513  1
  F  F3  1  0.88447943  0.99252293  0.83414487  1
  F  F4  1  0.38447943  0.99252293  0.66585513  1
  F  F5  1  0.88447943  0.50747707  0.83414487  1
  F  F6  1  0.61552057  0.49252293  0.33414487  1
  F  F7  1  0.11552057  0.00747707  0.16585513  1
  F  F8  1  0.73799264  0.05521439  0.57503001  1
  F  F9  1  0.23799264  0.44478561  0.92496999  1
  F  F10  1  0.26200736  0.55521439  0.42496999  1
  F  F11  1  0.76200736  0.94478561  0.07503001  1
  F  F12  1  0.07215303  0.25000000  0.66363493  1
  F  F13  1  0.57215303  0.25000000  0.83636507  1
  F  F14  1  0.92784697  0.75000000  0.33636507  1
  F  F15  1  0.42784697  0.75000000  0.16363493  1
  F  F16  1  0.43572963  0.25000000  0.48451598  1
  F  F17  1  0.93572963  0.25000000  0.01548402  1
  F  F18  1  0.56427037  0.75000000  0.51548402  1
  F  F19  1  0.06427037  0.75000000  0.98451598  1
  F  F20  1  0.23799264  0.05521439  0.92496999  1
  F  F21  1  0.73799264  0.44478561  0.57503001  1
  F  F22  1  0.76200736  0.55521439  0.07503001  1
  F  F23  1  0.26200736  0.94478561  0.42496999  1
  Al  Al24  1  0.50000000  0.00000000  0.50000000  1
  Al  Al25  1  0.00000000  0.50000000  0.00000000  1
  Al  Al26  1  0.50000000  0.50000000  0.50000000  1
  Al  Al27  1  0.00000000  0.00000000  0.00000000  1
  K  K28  1  0.98728408  0.25000000  0.38064608  1
  K  K29  1  0.51271592  0.75000000  0.88064608  1
  K  K30  1  0.48728408  0.25000000  0.11935392  1
  K  K31  1  0.01271592  0.75000000  0.61935392  1
  Cu  Cu32  1  0.31319769  0.25000000  0.76205524  1
  Cu  Cu33  1  0.68680231  0.75000000  0.23794476  1
  Cu  Cu34  1  0.18680231  0.75000000  0.26205524  1
  Cu  Cu35  1  0.81319769  0.25000000  0.73794476  1
