# generated using pymatgen
data_BaCa2(SiO3)3
_symmetry_space_group_name_H-M   'P 1'
_cell_length_a   6.76417039
_cell_length_b   6.86518403
_cell_length_c   9.75628965
_cell_angle_alpha   83.18795599
_cell_angle_beta   69.40094945
_cell_angle_gamma   77.73695980
_symmetry_Int_Tables_number   1
_chemical_formula_structural   BaCa2(SiO3)3
_chemical_formula_sum   'Ba2 Ca4 Si6 O18'
_cell_volume   413.93580387
_cell_formula_units_Z   2
loop_
 _symmetry_equiv_pos_site_id
 _symmetry_equiv_pos_as_xyz
  1  'x, y, z'
loop_
 _atom_site_type_symbol
 _atom_site_label
 _atom_site_symmetry_multiplicity
 _atom_site_fract_x
 _atom_site_fract_y
 _atom_site_fract_z
 _atom_site_occupancy
  O  O0  1  0.39414176  0.77097799  0.12366586  1
  O  O1  1  0.60585824  0.22902201  0.87633414  1
  O  O2  1  0.75770524  0.49218598  0.08935705  1
  O  O3  1  0.24229476  0.50781402  0.91064295  1
  O  O4  1  0.36657728  0.38836624  0.23143148  1
  O  O5  1  0.63342272  0.61163376  0.76856852  1
  O  O6  1  0.50696973  0.63696816  0.35390327  1
  O  O7  1  0.49303027  0.36303184  0.64609673  1
  O  O8  1  0.37987499  0.85418045  0.58493102  1
  O  O9  1  0.62012501  0.14581955  0.41506898  1
  O  O10  1  0.10733231  0.62756266  0.55580499  1
  O  O11  1  0.89266769  0.37243734  0.44419501  1
  O  O12  1  0.02928395  0.23374988  0.73581188  1
  O  O13  1  0.97071605  0.76625012  0.26418812  1
  O  O14  1  0.89712002  0.90031062  0.87409702  1
  O  O15  1  0.10287998  0.09968938  0.12590298  1
  O  O16  1  0.79601418  0.04674325  0.62781261  1
  O  O17  1  0.20398582  0.95325675  0.37218739  1
  Si  Si18  1  0.51287431  0.55958849  0.19448994  1
  Si  Si19  1  0.48712569  0.44041151  0.80551006  1
  Si  Si20  1  0.28982940  0.76370164  0.48020797  1
  Si  Si21  1  0.71017060  0.23629836  0.51979203  1
  Si  Si22  1  0.15358720  0.90247475  0.22427576  1
  Si  Si23  1  0.84641280  0.09752525  0.77572424  1
  Ca  Ca24  1  0.23416199  0.28385755  0.48851877  1
  Ca  Ca25  1  0.76583801  0.71614245  0.51148123  1
  Ca  Ca26  1  0.94581565  0.56325418  0.82801332  1
  Ca  Ca27  1  0.05418435  0.43674582  0.17198668  1
  Ba  Ba28  1  0.68078682  0.05178217  0.15216165  1
  Ba  Ba29  1  0.31921318  0.94821783  0.84783835  1
