# generated using pymatgen
data_Tb4Si2S3O7
_symmetry_space_group_name_H-M   'P 1'
_cell_length_a   10.80139730
_cell_length_b   10.80139730
_cell_length_c   10.80139730
_cell_angle_alpha   100.82730434
_cell_angle_beta   113.95852843
_cell_angle_gamma   113.95852846
_symmetry_Int_Tables_number   1
_chemical_formula_structural   Tb4Si2S3O7
_chemical_formula_sum   'Tb16 Si8 S12 O28'
_cell_volume   953.90360906
_cell_formula_units_Z   4
loop_
 _symmetry_equiv_pos_site_id
 _symmetry_equiv_pos_as_xyz
  1  'x, y, z'
loop_
 _atom_site_type_symbol
 _atom_site_label
 _atom_site_symmetry_multiplicity
 _atom_site_fract_x
 _atom_site_fract_y
 _atom_site_fract_z
 _atom_site_occupancy
  O  O0  1  0.25000000  0.39894002  0.14894002  1
  O  O1  1  0.75000000  0.14894002  0.39894002  1
  O  O2  1  0.75000000  0.60105998  0.85105998  1
  O  O3  1  0.25000000  0.85105998  0.60105998  1
  O  O4  1  0.01806041  0.82575415  0.34381456  1
  O  O5  1  0.48193959  0.82575415  0.80769373  1
  O  O6  1  0.48193959  0.65618544  0.17424585  1
  O  O7  1  0.98193959  0.80769373  0.82575415  1
  O  O8  1  0.51806041  0.34381456  0.82575415  1
  O  O9  1  0.51806041  0.17424585  0.19230627  1
  O  O10  1  0.98193959  0.17424585  0.65618544  1
  O  O11  1  0.01806041  0.19230627  0.17424585  1
  O  O12  1  0.76839020  0.91908846  0.43316472  1
  O  O13  1  0.73160980  0.16477451  0.15069826  1
  O  O14  1  0.73160980  0.56683528  0.08091154  1
  O  O15  1  0.98592375  0.15069826  0.91908846  1
  O  O16  1  0.51407625  0.43316472  0.16477451  1
  O  O17  1  0.51407625  0.08091154  0.84930174  1
  O  O18  1  0.98592375  0.83522549  0.56683528  1
  O  O19  1  0.76839020  0.84930174  0.83522549  1
  O  O20  1  0.23160980  0.08091154  0.56683528  1
  O  O21  1  0.26839020  0.83522549  0.84930174  1
  O  O22  1  0.26839020  0.43316472  0.91908846  1
  O  O23  1  0.01407625  0.84930174  0.08091154  1
  O  O24  1  0.48592375  0.56683528  0.83522549  1
  O  O25  1  0.48592375  0.91908846  0.15069826  1
  O  O26  1  0.01407625  0.16477451  0.43316472  1
  O  O27  1  0.23160980  0.15069826  0.16477451  1
  Si  Si28  1  0.37498518  0.90371014  0.77869532  1
  Si  Si29  1  0.12501482  0.90371014  0.52872496  1
  Si  Si30  1  0.12501482  0.22130468  0.09628986  1
  Si  Si31  1  0.62501482  0.52872496  0.90371014  1
  Si  Si32  1  0.87498518  0.77869532  0.90371014  1
  Si  Si33  1  0.87498518  0.09628986  0.47127504  1
  Si  Si34  1  0.62501482  0.09628986  0.22130468  1
  Si  Si35  1  0.37498518  0.47127504  0.09628986  1
  S  S36  1  0.25000000  0.12500000  0.87500000  1
  S  S37  1  0.75000000  0.87500000  0.12500000  1
  S  S38  1  0.75000000  0.37500000  0.62500000  1
  S  S39  1  0.25000000  0.62500000  0.37500000  1
  S  S40  1  0.85343280  0.50000000  0.35343280  1
  S  S41  1  0.85343280  0.35343280  0.00000000  1
  S  S42  1  0.64656720  0.64656720  0.50000000  1
  S  S43  1  0.64656720  0.00000000  0.64656720  1
  S  S44  1  0.14656720  0.50000000  0.64656720  1
  S  S45  1  0.14656720  0.64656720  0.00000000  1
  S  S46  1  0.35343280  0.35343280  0.50000000  1
  S  S47  1  0.35343280  0.00000000  0.35343280  1
  Tb  Tb48  1  0.09426263  0.04713132  0.29713132  1
  Tb  Tb49  1  0.25000000  0.29713132  0.70286868  1
  Tb  Tb50  1  0.25000000  0.95286868  0.04713132  1
  Tb  Tb51  1  0.40573737  0.70286868  0.95286868  1
  Tb  Tb52  1  0.90573737  0.95286868  0.70286868  1
  Tb  Tb53  1  0.75000000  0.70286868  0.29713132  1
  Tb  Tb54  1  0.75000000  0.04713132  0.95286868  1
  Tb  Tb55  1  0.59426263  0.29713132  0.04713132  1
  Tb  Tb56  1  0.01412050  0.65818796  0.17230845  1
  Tb  Tb57  1  0.48587950  0.65818796  0.64406746  1
  Tb  Tb58  1  0.48587950  0.82769155  0.34181204  1
  Tb  Tb59  1  0.98587950  0.64406746  0.65818796  1
  Tb  Tb60  1  0.51412050  0.17230845  0.65818796  1
  Tb  Tb61  1  0.51412050  0.34181204  0.35593254  1
  Tb  Tb62  1  0.98587950  0.34181204  0.82769155  1
  Tb  Tb63  1  0.01412050  0.35593254  0.34181204  1
