# generated using pymatgen
data_Sr3Ta6(Si2O13)2
_symmetry_space_group_name_H-M   'P 1'
_cell_length_a   9.03505957
_cell_length_b   9.03505957
_cell_length_c   7.74188034
_cell_angle_alpha   90.00000000
_cell_angle_beta   90.00000000
_cell_angle_gamma   119.99999998
_symmetry_Int_Tables_number   1
_chemical_formula_structural   Sr3Ta6(Si2O13)2
_chemical_formula_sum   'Sr3 Ta6 Si4 O26'
_cell_volume   547.31723801
_cell_formula_units_Z   1
loop_
 _symmetry_equiv_pos_site_id
 _symmetry_equiv_pos_as_xyz
  1  'x, y, z'
loop_
 _atom_site_type_symbol
 _atom_site_label
 _atom_site_symmetry_multiplicity
 _atom_site_fract_x
 _atom_site_fract_y
 _atom_site_fract_z
 _atom_site_occupancy
  O  O0  1  0.00000000  0.22139093  0.50000000  1
  O  O1  1  0.77860907  0.77860907  0.50000000  1
  O  O2  1  0.22139093  0.00000000  0.50000000  1
  O  O3  1  0.50890947  0.68594958  0.29123821  1
  O  O4  1  0.31405042  0.82295989  0.29123821  1
  O  O5  1  0.17704011  0.49109053  0.29123821  1
  O  O6  1  0.49109053  0.17704011  0.70876179  1
  O  O7  1  0.17704011  0.49109053  0.70876179  1
  O  O8  1  0.50890947  0.68594958  0.70876179  1
  O  O9  1  0.31405042  0.82295989  0.70876179  1
  O  O10  1  0.68594958  0.50890947  0.29123821  1
  O  O11  1  0.82295989  0.31405042  0.29123821  1
  O  O12  1  0.82295989  0.31405042  0.70876179  1
  O  O13  1  0.33333333  0.66666667  0.00000000  1
  O  O14  1  0.66666667  0.33333333  0.00000000  1
  O  O15  1  0.27929368  0.00000000  0.00000000  1
  O  O16  1  0.72070632  0.72070632  0.00000000  1
  O  O17  1  0.00000000  0.27929368  0.00000000  1
  O  O18  1  0.81462257  0.00000000  0.23462740  1
  O  O19  1  0.18537743  0.18537743  0.76537260  1
  O  O20  1  0.00000000  0.81462257  0.76537260  1
  O  O21  1  0.00000000  0.81462257  0.23462740  1
  O  O22  1  0.18537743  0.18537743  0.23462740  1
  O  O23  1  0.81462257  0.00000000  0.76537260  1
  O  O24  1  0.49109053  0.17704011  0.29123821  1
  O  O25  1  0.68594958  0.50890947  0.70876179  1
  Si  Si26  1  0.66666667  0.33333333  0.20932027  1
  Si  Si27  1  0.66666667  0.33333333  0.79067973  1
  Si  Si28  1  0.33333333  0.66666667  0.79067973  1
  Si  Si29  1  0.33333333  0.66666667  0.20932027  1
  Sr  Sr30  1  0.40301791  0.40301791  0.50000000  1
  Sr  Sr31  1  0.00000000  0.59698209  0.50000000  1
  Sr  Sr32  1  0.59698209  0.00000000  0.50000000  1
  Ta  Ta33  1  0.00000000  0.23853332  0.75400679  1
  Ta  Ta34  1  0.76146668  0.76146668  0.75400679  1
  Ta  Ta35  1  0.23853332  0.00000000  0.24599321  1
  Ta  Ta36  1  0.76146668  0.76146668  0.24599321  1
  Ta  Ta37  1  0.23853332  0.00000000  0.75400679  1
  Ta  Ta38  1  0.00000000  0.23853332  0.24599321  1
