# generated using pymatgen
data_Hf5Si4
_symmetry_space_group_name_H-M   'P 1'
_cell_length_a   7.07033269
_cell_length_b   7.07033269
_cell_length_c   12.87656301
_cell_angle_alpha   90.00000000
_cell_angle_beta   90.00000000
_cell_angle_gamma   90.00000000
_symmetry_Int_Tables_number   1
_chemical_formula_structural   Hf5Si4
_chemical_formula_sum   'Hf20 Si16'
_cell_volume   643.69429022
_cell_formula_units_Z   4
loop_
 _symmetry_equiv_pos_site_id
 _symmetry_equiv_pos_as_xyz
  1  'x, y, z'
loop_
 _atom_site_type_symbol
 _atom_site_label
 _atom_site_symmetry_multiplicity
 _atom_site_fract_x
 _atom_site_fract_y
 _atom_site_fract_z
 _atom_site_occupancy
  Hf  Hf0  1  0.67543634  0.32456366  0.75000000  1
  Hf  Hf1  1  0.32456366  0.67543634  0.25000000  1
  Hf  Hf2  1  0.82456366  0.82456366  0.50000000  1
  Hf  Hf3  1  0.17543634  0.17543634  0.00000000  1
  Hf  Hf4  1  0.49615174  0.15023890  0.53461291  1
  Hf  Hf5  1  0.50384826  0.84976110  0.03461291  1
  Hf  Hf6  1  0.65023890  0.00384826  0.28461291  1
  Hf  Hf7  1  0.34976110  0.99615174  0.78461291  1
  Hf  Hf8  1  0.84976110  0.50384826  0.96538709  1
  Hf  Hf9  1  0.15023890  0.49615174  0.46538709  1
  Hf  Hf10  1  0.00384826  0.65023890  0.71538709  1
  Hf  Hf11  1  0.99615174  0.34976110  0.21538709  1
  Hf  Hf12  1  0.49987346  0.35408648  0.12644841  1
  Hf  Hf13  1  0.50012654  0.64591352  0.62644841  1
  Hf  Hf14  1  0.85408648  0.00012654  0.87644841  1
  Hf  Hf15  1  0.14591352  0.99987346  0.37644841  1
  Hf  Hf16  1  0.64591352  0.50012654  0.37355159  1
  Hf  Hf17  1  0.35408648  0.49987346  0.87355159  1
  Hf  Hf18  1  0.00012654  0.85408648  0.12355159  1
  Hf  Hf19  1  0.99987346  0.14591352  0.62355159  1
  Si  Si20  1  0.79639742  0.14718518  0.07223855  1
  Si  Si21  1  0.20360258  0.85281482  0.57223855  1
  Si  Si22  1  0.64718518  0.70360258  0.82223855  1
  Si  Si23  1  0.35281482  0.29639742  0.32223855  1
  Si  Si24  1  0.85281482  0.20360258  0.42776145  1
  Si  Si25  1  0.14718518  0.79639742  0.92776145  1
  Si  Si26  1  0.70360258  0.64718518  0.17776145  1
  Si  Si27  1  0.29639742  0.35281482  0.67776145  1
  Si  Si28  1  0.54908076  0.19843906  0.93600176  1
  Si  Si29  1  0.45091924  0.80156094  0.43600176  1
  Si  Si30  1  0.69843906  0.95091924  0.68600176  1
  Si  Si31  1  0.30156094  0.04908076  0.18600176  1
  Si  Si32  1  0.80156094  0.45091924  0.56399824  1
  Si  Si33  1  0.19843906  0.54908076  0.06399824  1
  Si  Si34  1  0.95091924  0.69843906  0.31399824  1
  Si  Si35  1  0.04908076  0.30156094  0.81399824  1
