# generated using pymatgen
data_Li2WO4
_symmetry_space_group_name_H-M   'P 1'
_cell_length_a   8.49523141
_cell_length_b   9.63388307
_cell_length_c   9.63388307
_cell_angle_alpha   78.79054857
_cell_angle_beta   63.83843831
_cell_angle_gamma   63.83843829
_symmetry_Int_Tables_number   1
_chemical_formula_structural   Li2WO4
_chemical_formula_sum   'Li16 W8 O32'
_cell_volume   635.18389797
_cell_formula_units_Z   8
loop_
 _symmetry_equiv_pos_site_id
 _symmetry_equiv_pos_as_xyz
  1  'x, y, z'
loop_
 _atom_site_type_symbol
 _atom_site_label
 _atom_site_symmetry_multiplicity
 _atom_site_fract_x
 _atom_site_fract_y
 _atom_site_fract_z
 _atom_site_occupancy
  Li  Li0  1  0.36524842  0.13475158  0.13475158  1
  Li  Li1  1  0.00000000  0.36524842  0.13475158  1
  Li  Li2  1  0.50000000  0.13475158  0.36524842  1
  Li  Li3  1  0.63475158  0.36524842  0.36524842  1
  Li  Li4  1  0.63475158  0.86524842  0.86524842  1
  Li  Li5  1  0.00000000  0.63475158  0.86524842  1
  Li  Li6  1  0.50000000  0.86524842  0.63475158  1
  Li  Li7  1  0.36524842  0.63475158  0.63475158  1
  Li  Li8  1  0.74444572  0.51110856  0.75000000  1
  Li  Li9  1  0.25555428  0.75000000  0.98889144  1
  Li  Li10  1  0.00555428  0.25000000  0.48889144  1
  Li  Li11  1  0.99444572  0.01110856  0.25000000  1
  Li  Li12  1  0.25555428  0.48889144  0.25000000  1
  Li  Li13  1  0.74444572  0.25000000  0.01110856  1
  Li  Li14  1  0.99444572  0.75000000  0.51110856  1
  Li  Li15  1  0.00555428  0.98889144  0.75000000  1
  O  O16  1  0.98700326  0.87304410  0.12695590  1
  O  O17  1  0.84186401  0.64338830  0.14338830  1
  O  O18  1  0.62864062  0.85661170  0.35661170  1
  O  O19  1  0.48525232  0.35661170  0.64338830  1
  O  O20  1  0.37135938  0.14338830  0.64338830  1
  O  O21  1  0.15813599  0.35661170  0.85661170  1
  O  O22  1  0.51474768  0.64338830  0.35661170  1
  O  O23  1  0.48525232  0.14338830  0.85661170  1
  O  O24  1  0.37074307  0.90477943  0.86442204  1
  O  O25  1  0.73516511  0.63557796  0.90477943  1
  O  O26  1  0.27552250  0.86442204  0.59522057  1
  O  O27  1  0.13994454  0.59522057  0.63557796  1
  O  O28  1  0.72447750  0.90477943  0.63557796  1
  O  O29  1  0.26483489  0.59522057  0.86442204  1
  O  O30  1  0.62925693  0.63557796  0.59522057  1
  O  O31  1  0.86005546  0.86442204  0.90477943  1
  O  O32  1  0.62925693  0.09522057  0.13557796  1
  O  O33  1  0.26483489  0.36442204  0.09522057  1
  O  O34  1  0.72447750  0.13557796  0.40477943  1
  O  O35  1  0.86005546  0.40477943  0.36442204  1
  O  O36  1  0.27552250  0.09522057  0.36442204  1
  O  O37  1  0.73516511  0.40477943  0.13557796  1
  O  O38  1  0.37074307  0.36442204  0.40477943  1
  O  O39  1  0.13994454  0.13557796  0.09522057  1
  O  O40  1  0.61395916  0.37304410  0.87304410  1
  O  O41  1  0.86004737  0.12695590  0.62695590  1
  O  O42  1  0.01299674  0.37304410  0.62695590  1
  O  O43  1  0.13995263  0.87304410  0.37304410  1
  O  O44  1  0.38604084  0.62695590  0.12695590  1
  O  O45  1  0.01299674  0.12695590  0.87304410  1
  O  O46  1  0.51474768  0.85661170  0.14338830  1
  O  O47  1  0.98700326  0.62695590  0.37304410  1
  W  W48  1  0.77550378  0.88580946  0.11419054  1
  W  W49  1  0.77550378  0.61419054  0.38580946  1
  W  W50  1  0.38969433  0.38580946  0.88580946  1
  W  W51  1  0.66131324  0.11419054  0.61419054  1
  W  W52  1  0.22449622  0.38580946  0.61419054  1
  W  W53  1  0.33868676  0.88580946  0.38580946  1
  W  W54  1  0.61030567  0.61419054  0.11419054  1
  W  W55  1  0.22449622  0.11419054  0.88580946  1
