# generated using pymatgen
data_Ag6Ge2O7
_symmetry_space_group_name_H-M   'P 1'
_cell_length_a   5.53357892
_cell_length_b   10.21137926
_cell_length_c   16.33759290
_cell_angle_alpha   90.00000000
_cell_angle_beta   89.78790449
_cell_angle_gamma   90.00000000
_symmetry_Int_Tables_number   1
_chemical_formula_structural   Ag6Ge2O7
_chemical_formula_sum   'Ag24 Ge8 O28'
_cell_volume   923.15708910
_cell_formula_units_Z   4
loop_
 _symmetry_equiv_pos_site_id
 _symmetry_equiv_pos_as_xyz
  1  'x, y, z'
loop_
 _atom_site_type_symbol
 _atom_site_label
 _atom_site_symmetry_multiplicity
 _atom_site_fract_x
 _atom_site_fract_y
 _atom_site_fract_z
 _atom_site_occupancy
  O  O0  1  0.44835571  0.74038921  0.31163897  1
  O  O1  1  0.55164429  0.24038921  0.68836103  1
  O  O2  1  0.86347943  0.92047441  0.30948403  1
  O  O3  1  0.13652057  0.42047441  0.69051597  1
  O  O4  1  0.89316564  0.67834995  0.21637644  1
  O  O5  1  0.10683436  0.17834995  0.78362356  1
  O  O6  1  0.09877244  0.17488843  0.60658112  1
  O  O7  1  0.90122756  0.67488843  0.39341888  1
  O  O8  1  0.55813209  0.06435606  0.54062319  1
  O  O9  1  0.44186791  0.56435606  0.45937681  1
  O  O10  1  0.12320262  0.90752879  0.55022179  1
  O  O11  1  0.87679738  0.40752879  0.44977821  1
  O  O12  1  0.13511403  0.12782472  0.43566701  1
  O  O13  1  0.86488597  0.62782472  0.56433299  1
  O  O14  1  0.55914836  0.85845346  0.87389526  1
  O  O15  1  0.44085164  0.35845346  0.12610474  1
  O  O16  1  0.50442436  0.68093447  0.73314564  1
  O  O17  1  0.49557564  0.18093447  0.26685436  1
  O  O18  1  0.91900623  0.86407134  0.73973023  1
  O  O19  1  0.08099377  0.36407134  0.26026977  1
  O  O20  1  0.88707259  0.63848107  0.84804693  1
  O  O21  1  0.11292741  0.13848107  0.15195307  1
  O  O22  1  0.15181623  0.88046431  0.08018520  1
  O  O23  1  0.84818377  0.38046431  0.91981480  1
  O  O24  1  0.43724056  0.55810039  0.93124509  1
  O  O25  1  0.11663582  0.10530925  0.97486724  1
  O  O26  1  0.88336418  0.60530925  0.02513276  1
  O  O27  1  0.56275944  0.05810039  0.06875491  1
  Ge  Ge28  1  0.76435543  0.56792688  0.46928925  1
  Ge  Ge29  1  0.23564457  0.06792688  0.53071075  1
  Ge  Ge30  1  0.22745002  0.25234019  0.69491256  1
  Ge  Ge31  1  0.77254998  0.75234019  0.30508744  1
  Ge  Ge32  1  0.28415432  0.26555515  0.20427769  1
  Ge  Ge33  1  0.24273885  0.04790805  0.06703789  1
  Ge  Ge34  1  0.75726115  0.54790805  0.93296211  1
  Ge  Ge35  1  0.71584568  0.76555515  0.79572231  1
  Ag  Ag36  1  0.82689694  0.98513441  0.92840051  1
  Ag  Ag37  1  0.17310306  0.48513441  0.07159949  1
  Ag  Ag38  1  0.71906595  0.01120843  0.42198977  1
  Ag  Ag39  1  0.28093405  0.51120843  0.57801023  1
  Ag  Ag40  1  0.71589490  0.84058530  0.57256710  1
  Ag  Ag41  1  0.28410510  0.34058530  0.42743290  1
  Ag  Ag42  1  0.31589866  0.00905794  0.82540059  1
  Ag  Ag43  1  0.68410134  0.50905794  0.17459941  1
  Ag  Ag44  1  0.27621856  0.99911247  0.32503068  1
  Ag  Ag45  1  0.72378144  0.49911247  0.67496932  1
  Ag  Ag46  1  0.30350612  0.78420876  0.45211947  1
  Ag  Ag47  1  0.69649388  0.28420876  0.54788053  1
  Ag  Ag48  1  0.68520540  0.24156760  0.00835180  1
  Ag  Ag49  1  0.31479460  0.74156760  0.99164820  1
  Ag  Ag50  1  0.25677800  0.29374580  0.91081879  1
  Ag  Ag51  1  0.74322200  0.79374580  0.08918121  1
  Ag  Ag52  1  0.29132044  0.51298709  0.80593838  1
  Ag  Ag53  1  0.70867956  0.01298709  0.19406162  1
  Ag  Ag54  1  0.27721677  0.54087338  0.29490276  1
  Ag  Ag55  1  0.72278323  0.04087338  0.70509724  1
  Ag  Ag56  1  0.27860662  0.80400478  0.65681262  1
  Ag  Ag57  1  0.72139338  0.30400478  0.34318738  1
  Ag  Ag58  1  0.30564067  0.79663789  0.19077071  1
  Ag  Ag59  1  0.69435933  0.29663789  0.80922929  1
