# generated using pymatgen
data_H6N4O9
_symmetry_space_group_name_H-M   'P 1'
_cell_length_a   6.26769526
_cell_length_b   16.20121166
_cell_length_c   4.57037408
_cell_angle_alpha   90.00000000
_cell_angle_beta   90.00000000
_cell_angle_gamma   90.00000000
_symmetry_Int_Tables_number   1
_chemical_formula_structural   H6N4O9
_chemical_formula_sum   'H12 N8 O18'
_cell_volume   464.09524258
_cell_formula_units_Z   2
loop_
 _symmetry_equiv_pos_site_id
 _symmetry_equiv_pos_as_xyz
  1  'x, y, z'
loop_
 _atom_site_type_symbol
 _atom_site_label
 _atom_site_symmetry_multiplicity
 _atom_site_fract_x
 _atom_site_fract_y
 _atom_site_fract_z
 _atom_site_occupancy
  H  H0  1  0.98227422  0.00467287  0.18968244  1
  H  H1  1  0.98227422  0.99532713  0.81031756  1
  H  H2  1  0.01772578  0.49532713  0.68968244  1
  H  H3  1  0.01772578  0.50467287  0.31031756  1
  H  H4  1  0.17842945  0.94993227  0.02551882  1
  H  H5  1  0.17842945  0.05006773  0.97448118  1
  H  H6  1  0.82157055  0.55006773  0.52551882  1
  H  H7  1  0.82157055  0.44993227  0.47448118  1
  H  H8  1  0.85510754  0.69463994  0.72271140  1
  H  H9  1  0.85510754  0.30536006  0.27728860  1
  H  H10  1  0.14489246  0.80536006  0.22271140  1
  H  H11  1  0.14489246  0.19463994  0.77728860  1
  N  N12  1  0.92017199  0.50000000  0.50000000  1
  N  N13  1  0.07982801  0.00000000  0.00000000  1
  N  N14  1  0.63802899  0.00000000  0.50000000  1
  N  N15  1  0.36197101  0.50000000  0.00000000  1
  N  N16  1  0.76097403  0.73545947  0.09007846  1
  N  N17  1  0.76097403  0.26454053  0.90992154  1
  N  N18  1  0.23902597  0.76454053  0.59007846  1
  N  N19  1  0.23902597  0.23545947  0.40992154  1
  O  O20  1  0.84883179  0.00000000  0.50000000  1
  O  O21  1  0.15116821  0.50000000  0.00000000  1
  O  O22  1  0.54379891  0.94627390  0.35250574  1
  O  O23  1  0.54379891  0.05372610  0.64749426  1
  O  O24  1  0.45620109  0.55372610  0.85250574  1
  O  O25  1  0.45620109  0.44627390  0.14749426  1
  O  O26  1  0.71914388  0.71441398  0.34103143  1
  O  O27  1  0.71914388  0.28558602  0.65896857  1
  O  O28  1  0.28085612  0.78558602  0.84103143  1
  O  O29  1  0.28085612  0.21441398  0.15896857  1
  O  O30  1  0.86386754  0.67288725  0.92539014  1
  O  O31  1  0.86386754  0.32711275  0.07460986  1
  O  O32  1  0.13613246  0.82711275  0.42539014  1
  O  O33  1  0.13613246  0.17288725  0.57460986  1
  O  O34  1  0.73076324  0.80110439  0.96865159  1
  O  O35  1  0.73076324  0.19889561  0.03134841  1
  O  O36  1  0.26923676  0.69889561  0.46865159  1
  O  O37  1  0.26923676  0.30110439  0.53134841  1
