# generated using pymatgen
data_BaGd2NiO5
_symmetry_space_group_name_H-M   'P 1'
_cell_length_a   3.82729673
_cell_length_b   5.86943389
_cell_length_c   6.76122191
_cell_angle_alpha   115.72619779
_cell_angle_beta   106.44213486
_cell_angle_gamma   89.99875725
_symmetry_Int_Tables_number   1
_chemical_formula_structural   BaGd2NiO5
_chemical_formula_sum   'Ba1 Gd2 Ni1 O5'
_cell_volume   129.90098162
_cell_formula_units_Z   1
loop_
 _symmetry_equiv_pos_site_id
 _symmetry_equiv_pos_as_xyz
  1  'x, y, z'
loop_
 _atom_site_type_symbol
 _atom_site_label
 _atom_site_symmetry_multiplicity
 _atom_site_fract_x
 _atom_site_fract_y
 _atom_site_fract_z
 _atom_site_occupancy
  O  O0  1  1.00024941  0.50024878  1.00049911  1
  O  O1  1  0.35222564  0.59396777  0.70453393  1
  O  O2  1  0.64765674  0.40667148  0.29523173  1
  O  O3  1  0.64764761  0.88858596  0.29523113  1
  O  O4  1  0.35223491  0.11054103  0.70453232  1
  Ni  Ni5  1  0.50002692  0.50002667  1.00005416  1
  Ba  Ba6  1  0.99998212  0.99998117  0.99996305  1
  Gd  Gd7  1  0.79668831  0.29669493  0.59338752  1
  Gd  Gd8  1  0.20328816  0.70328209  0.40656660  1
