# generated using pymatgen
data_CaNiP2O7
_symmetry_space_group_name_H-M   'P 1'
_cell_length_a   6.47100296
_cell_length_b   6.56988860
_cell_length_c   6.70143363
_cell_angle_alpha   66.30331671
_cell_angle_beta   87.28524670
_cell_angle_gamma   82.53697144
_symmetry_Int_Tables_number   1
_chemical_formula_structural   CaNiP2O7
_chemical_formula_sum   'Ca2 Ni2 P4 O14'
_cell_volume   258.66819808
_cell_formula_units_Z   2
loop_
 _symmetry_equiv_pos_site_id
 _symmetry_equiv_pos_as_xyz
  1  'x, y, z'
loop_
 _atom_site_type_symbol
 _atom_site_label
 _atom_site_symmetry_multiplicity
 _atom_site_fract_x
 _atom_site_fract_y
 _atom_site_fract_z
 _atom_site_occupancy
  O  O0  1  0.77783187  0.61024907  0.47966870  1
  O  O1  1  0.22216813  0.38975093  0.52033130  1
  O  O2  1  0.97261058  0.10091979  0.72057836  1
  O  O3  1  0.02738942  0.89908021  0.27942164  1
  O  O4  1  0.58922946  0.25378524  0.43833440  1
  O  O5  1  0.41077054  0.74621476  0.56166560  1
  O  O6  1  0.37496102  0.59908660  0.16182850  1
  O  O7  1  0.62503898  0.40091340  0.83817150  1
  O  O8  1  0.93206246  0.61618441  0.13733497  1
  O  O9  1  0.06793754  0.38381559  0.86266503  1
  O  O10  1  0.66936669  0.94966397  0.13290082  1
  O  O11  1  0.33063331  0.05033603  0.86709918  1
  O  O12  1  0.27317881  0.20526454  0.25387469  1
  O  O13  1  0.72682119  0.79473546  0.74612531  1
  P  P14  1  0.14329687  0.22861090  0.75150019  1
  P  P15  1  0.85670313  0.77138910  0.24849981  1
  P  P16  1  0.62657081  0.64240666  0.66814052  1
  P  P17  1  0.37342919  0.35759334  0.33185948  1
  Ca  Ca18  1  0.85719059  0.27110364  0.17417685  1
  Ca  Ca19  1  0.14280941  0.72889636  0.82582315  1
  Ni  Ni20  1  0.64787370  0.09980795  0.77633518  1
  Ni  Ni21  1  0.35212630  0.90019205  0.22366482  1
