# generated using pymatgen
data_Na5FeO4
_symmetry_space_group_name_H-M   'P 1'
_cell_length_a   6.03403806
_cell_length_b   10.52519480
_cell_length_c   18.20393688
_cell_angle_alpha   90.00000000
_cell_angle_beta   90.00000000
_cell_angle_gamma   90.00000000
_symmetry_Int_Tables_number   1
_chemical_formula_structural   Na5FeO4
_chemical_formula_sum   'Na40 Fe8 O32'
_cell_volume   1156.12158241
_cell_formula_units_Z   8
loop_
 _symmetry_equiv_pos_site_id
 _symmetry_equiv_pos_as_xyz
  1  'x, y, z'
loop_
 _atom_site_type_symbol
 _atom_site_label
 _atom_site_symmetry_multiplicity
 _atom_site_fract_x
 _atom_site_fract_y
 _atom_site_fract_z
 _atom_site_occupancy
  O  O0  1  0.85720071  0.04886034  0.12122605  1
  O  O1  1  0.35720080  0.95113896  0.37877409  1
  O  O2  1  0.64280067  0.54886046  0.87877423  1
  O  O3  1  0.14280076  0.45113883  0.62122564  1
  O  O4  1  0.14280076  0.95113896  0.87877423  1
  O  O5  1  0.64280067  0.04886034  0.62122564  1
  O  O6  1  0.35720080  0.45113883  0.12122605  1
  O  O7  1  0.85720071  0.54886046  0.37877409  1
  O  O8  1  0.80222475  0.36736194  0.04461626  1
  O  O9  1  0.30222485  0.63263831  0.45538333  1
  O  O10  1  0.69777497  0.86736206  0.95538346  1
  O  O11  1  0.19777506  0.13263819  0.54461640  1
  O  O12  1  0.19777506  0.63263831  0.95538346  1
  O  O13  1  0.69777497  0.36736194  0.54461640  1
  O  O14  1  0.30222485  0.13263819  0.04461626  1
  O  O15  1  0.80222475  0.86736206  0.45538333  1
  O  O16  1  0.73630579  0.37376116  0.71200351  1
  O  O17  1  0.23630588  0.62623909  0.78799635  1
  O  O18  1  0.76369393  0.87376129  0.28799621  1
  O  O19  1  0.26369402  0.12623896  0.21200338  1
  O  O20  1  0.26369402  0.62623909  0.28799621  1
  O  O21  1  0.76369393  0.37376116  0.21200338  1
  O  O22  1  0.23630588  0.12623896  0.71200351  1
  O  O23  1  0.73630579  0.87376129  0.78799635  1
  O  O24  1  0.73787944  0.13543706  0.87459222  1
  O  O25  1  0.23787953  0.86456319  0.62540765  1
  O  O26  1  0.76212028  0.63543718  0.12540751  1
  O  O27  1  0.26212037  0.36456306  0.37459208  1
  O  O28  1  0.26212037  0.86456319  0.12540751  1
  O  O29  1  0.76212028  0.13543706  0.37459208  1
  O  O30  1  0.23787953  0.36456306  0.87459222  1
  O  O31  1  0.73787944  0.63543718  0.62540765  1
  Na  Na32  1  0.10223793  0.42143988  0.75214317  1
  Na  Na33  1  0.42664814  0.30052535  0.64037381  1
  Na  Na34  1  0.57335167  0.19947477  0.14037367  1
  Na  Na35  1  0.07335176  0.80052547  0.35962647  1
  Na  Na36  1  0.07335176  0.30052535  0.14037367  1
  Na  Na37  1  0.57335167  0.69947490  0.35962647  1
  Na  Na38  1  0.42664814  0.80052547  0.85962660  1
  Na  Na39  1  0.92664805  0.19947477  0.64037381  1
  Na  Na40  1  0.89576741  0.82624852  0.17142477  1
  Na  Na41  1  0.39576750  0.17375173  0.32857537  1
  Na  Na42  1  0.60423231  0.32624840  0.82857496  1
  Na  Na43  1  0.10423240  0.67375185  0.67142490  1
  Na  Na44  1  0.10423240  0.17375173  0.82857496  1
  Na  Na45  1  0.60423231  0.82624852  0.67142490  1
  Na  Na46  1  0.39576750  0.67375185  0.17142477  1
  Na  Na47  1  0.89576741  0.32624840  0.32857537  1
  Na  Na48  1  0.90932988  0.16359817  0.00184516  1
  Na  Na49  1  0.40932997  0.83640207  0.49815498  1
  Na  Na50  1  0.59066984  0.66359734  0.99815512  1
  Na  Na51  1  0.09066993  0.33640195  0.50184474  1
  Na  Na52  1  0.09066993  0.83640207  0.99815512  1
  Na  Na53  1  0.59066984  0.16359817  0.50184474  1
  Na  Na54  1  0.40932997  0.33640195  0.00184516  1
  Na  Na55  1  0.90932988  0.66359734  0.49815498  1
  Na  Na56  1  0.91823292  0.93929600  0.56521238  1
  Na  Na57  1  0.39776198  0.92144000  0.24785655  1
  Na  Na58  1  0.60223783  0.57856037  0.74785669  1
  Na  Na59  1  0.92664805  0.69947490  0.85962660  1
  Na  Na60  1  0.10223793  0.92144000  0.74785669  1
  Na  Na61  1  0.60223783  0.07856024  0.75214317  1
  Na  Na62  1  0.39776198  0.42143988  0.25214359  1
  Na  Na63  1  0.89776188  0.57856037  0.24785655  1
  Na  Na64  1  0.91823292  0.43929588  0.93478749  1
  Na  Na65  1  0.41823302  0.56070342  0.56521238  1
  Na  Na66  1  0.58176679  0.93929600  0.06521279  1
  Na  Na67  1  0.08176689  0.06070424  0.43478735  1
  Na  Na68  1  0.08176689  0.56070342  0.06521279  1
  Na  Na69  1  0.58176679  0.43929588  0.43478735  1
  Na  Na70  1  0.41823302  0.06070424  0.93478749  1
  Na  Na71  1  0.89776188  0.07856024  0.25214359  1
  Fe  Fe72  1  0.82832153  0.45968012  0.62336745  1
  Fe  Fe73  1  0.32832162  0.54032013  0.87663241  1
  Fe  Fe74  1  0.67167819  0.95968024  0.37663228  1
  Fe  Fe75  1  0.17167829  0.04032001  0.12336786  1
  Fe  Fe76  1  0.17167829  0.54032013  0.37663228  1
  Fe  Fe77  1  0.67167819  0.45968012  0.12336786  1
  Fe  Fe78  1  0.32832162  0.04032001  0.62336745  1
  Fe  Fe79  1  0.82832153  0.95968024  0.87663241  1
