# generated using pymatgen
data_AgMo3P3O16
_symmetry_space_group_name_H-M   'P 1'
_cell_length_a   6.51604171
_cell_length_b   7.90236198
_cell_length_c   13.02542394
_cell_angle_alpha   80.11601279
_cell_angle_beta   79.56652938
_cell_angle_gamma   82.60645025
_symmetry_Int_Tables_number   1
_chemical_formula_structural   AgMo3P3O16
_chemical_formula_sum   'Ag2 Mo6 P6 O32'
_cell_volume   646.52120754
_cell_formula_units_Z   2
loop_
 _symmetry_equiv_pos_site_id
 _symmetry_equiv_pos_as_xyz
  1  'x, y, z'
loop_
 _atom_site_type_symbol
 _atom_site_label
 _atom_site_symmetry_multiplicity
 _atom_site_fract_x
 _atom_site_fract_y
 _atom_site_fract_z
 _atom_site_occupancy
  O  O0  1  0.42384681  0.02948975  0.89599443  1
  O  O1  1  0.57615319  0.97051025  0.10400557  1
  O  O2  1  0.63693688  0.14995609  0.69545151  1
  O  O3  1  0.36306312  0.85004391  0.30454849  1
  O  O4  1  0.83718839  0.38326893  0.77804142  1
  O  O5  1  0.16281161  0.61673107  0.22195858  1
  O  O6  1  0.62798185  0.25743590  0.98576666  1
  O  O7  1  0.37201815  0.74256410  0.01423334  1
  O  O8  1  0.39795945  0.39270552  0.81659268  1
  O  O9  1  0.60204055  0.60729448  0.18340732  1
  O  O10  1  0.63987046  0.75630795  0.84398285  1
  O  O11  1  0.36012954  0.24369205  0.15601715  1
  O  O12  1  0.86551634  0.01121508  0.86068442  1
  O  O13  1  0.13448366  0.98878492  0.13931558  1
  O  O14  1  0.19025553  0.05770419  0.64973571  1
  O  O15  1  0.80974447  0.94229581  0.35026429  1
  O  O16  1  0.89203190  0.23400189  0.52565129  1
  O  O17  1  0.10796810  0.76599811  0.47434871  1
  O  O18  1  0.51559057  0.24905589  0.51982682  1
  O  O19  1  0.48440943  0.75094411  0.48017318  1
  O  O20  1  0.27987070  0.04760994  0.43463276  1
  O  O21  1  0.72012930  0.95239006  0.56536724  1
  O  O22  1  0.13661381  0.42503213  0.62318866  1
  O  O23  1  0.86338619  0.57496787  0.37681134  1
  O  O24  1  0.22032348  0.40466935  0.38974457  1
  O  O25  1  0.77967652  0.59533065  0.61025543  1
  O  O26  1  0.08363696  0.30752457  0.01365090  1
  O  O27  1  0.91636304  0.69247543  0.98634910  1
  O  O28  1  0.98497314  0.34510825  0.26510611  1
  O  O29  1  0.01502686  0.65489175  0.73489389  1
  O  O30  1  0.74488359  0.20330530  0.16268226  1
  O  O31  1  0.25511641  0.79669470  0.83731774  1
  P  P32  1  0.93495648  0.51160785  0.68494602  1
  P  P33  1  0.06504352  0.48839215  0.31505398  1
  P  P34  1  0.69381301  0.14445207  0.57664878  1
  P  P35  1  0.30618699  0.85554793  0.42335122  1
  P  P36  1  0.42415207  0.83399746  0.89982153  1
  P  P37  1  0.57584793  0.16600254  0.10017847  1
  Mo  Mo38  1  0.80156038  0.78489211  0.45753475  1
  Mo  Mo39  1  0.19843962  0.21510789  0.54246525  1
  Mo  Mo40  1  0.93911975  0.78933067  0.85843929  1
  Mo  Mo41  1  0.06088025  0.21066933  0.14156071  1
  Mo  Mo42  1  0.59820646  0.23322756  0.83535891  1
  Mo  Mo43  1  0.40179354  0.76677244  0.16464109  1
  Ag  Ag44  1  0.40748242  0.62442464  0.67011423  1
  Ag  Ag45  1  0.59251758  0.37557536  0.32988577  1
