# generated using pymatgen
data_Sr2MnO4
_symmetry_space_group_name_H-M   'P 1'
_cell_length_a   3.86531262
_cell_length_b   3.86531262
_cell_length_c   6.85889228
_cell_angle_alpha   106.36610063
_cell_angle_beta   106.36610071
_cell_angle_gamma   90.00000002
_symmetry_Int_Tables_number   1
_chemical_formula_structural   Sr2MnO4
_chemical_formula_sum   'Sr2 Mn1 O4'
_cell_volume   93.98849109
_cell_formula_units_Z   1
loop_
 _symmetry_equiv_pos_site_id
 _symmetry_equiv_pos_as_xyz
  1  'x, y, z'
loop_
 _atom_site_type_symbol
 _atom_site_label
 _atom_site_symmetry_multiplicity
 _atom_site_fract_x
 _atom_site_fract_y
 _atom_site_fract_z
 _atom_site_occupancy
  O  O0  1  0.84358286  0.84358336  0.68716746  1
  O  O1  1  0.15641653  0.15641657  0.31283272  1
  O  O2  1  0.00000052  0.50000122  0.00000068  1
  O  O3  1  0.49999889  0.00000000  0.00000024  1
  Mn  Mn4  1  0.00000000  0.00000000  0.00000000  1
  Sr  Sr5  1  0.64381453  0.64381413  0.28762788  1
  Sr  Sr6  1  0.35618486  0.35618581  0.71237230  1
