# generated using pymatgen
data_Ca3MnZnO6
_symmetry_space_group_name_H-M   'P 1'
_cell_length_a   6.41934961
_cell_length_b   6.41934961
_cell_length_c   6.41934961
_cell_angle_alpha   91.89409341
_cell_angle_beta   91.89409332
_cell_angle_gamma   91.89409345
_symmetry_Int_Tables_number   1
_chemical_formula_structural   Ca3MnZnO6
_chemical_formula_sum   'Ca6 Mn2 Zn2 O12'
_cell_volume   264.08547814
_cell_formula_units_Z   2
loop_
 _symmetry_equiv_pos_site_id
 _symmetry_equiv_pos_as_xyz
  1  'x, y, z'
loop_
 _atom_site_type_symbol
 _atom_site_label
 _atom_site_symmetry_multiplicity
 _atom_site_fract_x
 _atom_site_fract_y
 _atom_site_fract_z
 _atom_site_occupancy
  O  O0  1  0.21267385  0.41796797  0.54690969  1
  O  O1  1  0.78732526  0.58203200  0.45309007  1
  O  O2  1  0.58203183  0.45309014  0.78732598  1
  O  O3  1  0.45308902  0.78732555  0.58203194  1
  O  O4  1  0.04691038  0.91796778  0.71267434  1
  O  O5  1  0.91796857  0.71267424  0.04691012  1
  O  O6  1  0.28732569  0.95308900  0.08203141  1
  O  O7  1  0.08203211  0.28732573  0.95308969  1
  O  O8  1  0.95309030  0.08203219  0.28732547  1
  O  O9  1  0.54691009  0.21267443  0.41796782  1
  O  O10  1  0.41796728  0.54690983  0.21267378  1
  O  O11  1  0.71267498  0.04691098  0.91796840  1
  Ca  Ca12  1  0.61175475  0.88824503  0.25000009  1
  Ca  Ca13  1  0.11175454  0.74999941  0.38824512  1
  Ca  Ca14  1  0.74999997  0.38824522  0.11175412  1
  Ca  Ca15  1  0.38824593  0.11175494  0.74999972  1
  Ca  Ca16  1  0.88824614  0.25000056  0.61175469  1
  Ca  Ca17  1  0.25000070  0.61175475  0.88824569  1
  Mn  Mn18  1  0.49999958  0.50000077  0.49999991  1
  Mn  Mn19  1  0.00000000  0.00000000  0.00000000  1
  Zn  Zn20  1  0.74999935  0.75000037  0.75000061  1
  Zn  Zn21  1  0.24999976  0.24999960  0.25000071  1
