# generated using pymatgen
data_Na5Y(WO4)4
_symmetry_space_group_name_H-M   'P 1'
_cell_length_a   10.03547184
_cell_length_b   10.03547184
_cell_length_c   10.03547183
_cell_angle_alpha   108.88574236
_cell_angle_beta   108.88574229
_cell_angle_gamma   110.64863200
_symmetry_Int_Tables_number   1
_chemical_formula_structural   Na5Y(WO4)4
_chemical_formula_sum   'Na10 Y2 W8 O32'
_cell_volume   777.77432887
_cell_formula_units_Z   2
loop_
 _symmetry_equiv_pos_site_id
 _symmetry_equiv_pos_as_xyz
  1  'x, y, z'
loop_
 _atom_site_type_symbol
 _atom_site_label
 _atom_site_symmetry_multiplicity
 _atom_site_fract_x
 _atom_site_fract_y
 _atom_site_fract_z
 _atom_site_occupancy
  O  O0  1  0.30303400  0.67126755  0.92779067  1
  O  O1  1  0.17126755  0.74347688  0.36823355  1
  O  O2  1  0.87524333  0.80303400  0.13176645  1
  O  O3  1  0.24347688  0.37524333  0.57220933  1
  O  O4  1  0.69696600  0.32873245  0.07220933  1
  O  O5  1  0.82873245  0.25652312  0.63176645  1
  O  O6  1  0.12475667  0.19696600  0.86823355  1
  O  O7  1  0.75652312  0.62475667  0.42779067  1
  O  O8  1  0.63752729  0.98495829  0.00670342  1
  O  O9  1  0.48495829  0.97825488  0.34743100  1
  O  O10  1  0.13082388  0.13752729  0.15256900  1
  O  O11  1  0.47825488  0.63082388  0.49329658  1
  O  O12  1  0.36247271  0.01504171  0.99329658  1
  O  O13  1  0.51504171  0.02174512  0.65256900  1
  O  O14  1  0.86917612  0.86247271  0.84743100  1
  O  O15  1  0.52174512  0.36917612  0.50670342  1
  O  O16  1  0.34853292  0.77300895  0.69712444  1
  O  O17  1  0.27300895  0.07588451  0.42447603  1
  O  O18  1  0.15140847  0.84853292  0.07552397  1
  O  O19  1  0.57588451  0.65140847  0.80287556  1
  O  O20  1  0.51471499  0.66395699  0.21843012  1
  O  O21  1  0.16395699  0.44552687  0.14924200  1
  O  O22  1  0.79628487  0.01471499  0.35075800  1
  O  O23  1  0.94552687  0.29628487  0.28156988  1
  O  O24  1  0.48528501  0.33604301  0.78156988  1
  O  O25  1  0.83604301  0.55447313  0.85075800  1
  O  O26  1  0.20371513  0.98528501  0.64924200  1
  O  O27  1  0.05447313  0.70371513  0.71843012  1
  O  O28  1  0.42411549  0.34859153  0.19712444  1
  O  O29  1  0.84859153  0.15146708  0.92447603  1
  O  O30  1  0.72699105  0.92411549  0.57552397  1
  O  O31  1  0.65146708  0.22699105  0.30287556  1
  Na  Na32  1  0.19959975  0.53572623  0.42505279  1
  Na  Na33  1  0.03572623  0.11067344  0.33612649  1
  Na  Na34  1  0.27454695  0.69959975  0.16387351  1
  Na  Na35  1  0.61067344  0.77454695  0.07494721  1
  Na  Na36  1  0.80040025  0.46427377  0.57494721  1
  Na  Na37  1  0.12500000  0.37500000  0.75000000  1
  Na  Na38  1  0.72545305  0.30040025  0.83612649  1
  Na  Na39  1  0.38932656  0.22545305  0.92505279  1
  Na  Na40  1  0.87500000  0.62500000  0.25000000  1
  Na  Na41  1  0.96427377  0.88932656  0.66387351  1
  Y  Y42  1  0.62500000  0.87500000  0.75000000  1
  Y  Y43  1  0.37500000  0.12500000  0.25000000  1
  W  W44  1  0.72785325  0.20165116  0.15870089  1
  W  W45  1  0.06915235  0.22785325  0.02620208  1
  W  W46  1  0.70165116  0.04295027  0.47379792  1
  W  W47  1  0.54295027  0.56915235  0.34129911  1
  W  W48  1  0.45704973  0.43084765  0.65870089  1
  W  W49  1  0.93084765  0.77214675  0.97379792  1
  W  W50  1  0.29834884  0.95704973  0.52620208  1
  W  W51  1  0.27214675  0.79834884  0.84129911  1
