# generated using pymatgen
data_LaCrO4
_symmetry_space_group_name_H-M   'P 1'
_cell_length_a   6.74985955
_cell_length_b   7.14658565
_cell_length_c   7.29032339
_cell_angle_alpha   90.00000000
_cell_angle_beta   90.00000000
_cell_angle_gamma   105.56313706
_symmetry_Int_Tables_number   1
_chemical_formula_structural   LaCrO4
_chemical_formula_sum   'La4 Cr4 O16'
_cell_volume   338.77990834
_cell_formula_units_Z   4
loop_
 _symmetry_equiv_pos_site_id
 _symmetry_equiv_pos_as_xyz
  1  'x, y, z'
loop_
 _atom_site_type_symbol
 _atom_site_label
 _atom_site_symmetry_multiplicity
 _atom_site_fract_x
 _atom_site_fract_y
 _atom_site_fract_z
 _atom_site_occupancy
  O  O0  1  0.50513977  0.60689867  0.16003568  1
  O  O1  1  0.99486023  0.89310133  0.66003568  1
  O  O2  1  0.49486023  0.39310133  0.83996432  1
  O  O3  1  0.00513977  0.10689867  0.33996432  1
  O  O4  1  0.27386820  0.88081538  0.29182649  1
  O  O5  1  0.22613180  0.61918462  0.79182649  1
  O  O6  1  0.72613180  0.11918462  0.70817351  1
  O  O7  1  0.77386820  0.38081538  0.20817351  1
  O  O8  1  0.07823586  0.25336895  0.99785708  1
  O  O9  1  0.42176414  0.24663105  0.49785708  1
  O  O10  1  0.92176414  0.74663105  0.00214292  1
  O  O11  1  0.57823586  0.75336895  0.50214292  1
  O  O12  1  0.66946630  0.01623448  0.11123546  1
  O  O13  1  0.83053370  0.48376552  0.61123546  1
  O  O14  1  0.33053370  0.98376552  0.88876454  1
  O  O15  1  0.16946630  0.51623448  0.38876454  1
  Cr  Cr16  1  0.38745473  0.69706100  0.33603631  1
  Cr  Cr17  1  0.11254527  0.80293900  0.83603631  1
  Cr  Cr18  1  0.61254527  0.30293900  0.66396369  1
  Cr  Cr19  1  0.88745473  0.19706100  0.16396369  1
  La  La20  1  0.90061290  0.71719867  0.34494641  1
  La  La21  1  0.59938710  0.78280133  0.84494641  1
  La  La22  1  0.09938710  0.28280133  0.65505359  1
  La  La23  1  0.40061290  0.21719867  0.15505359  1
