# generated using pymatgen
data_Cu4P2O9
_symmetry_space_group_name_H-M   'P 1'
_cell_length_a   6.38098051
_cell_length_b   8.15510383
_cell_length_c   13.63420194
_cell_angle_alpha   90.00000000
_cell_angle_beta   90.00000000
_cell_angle_gamma   90.00000000
_symmetry_Int_Tables_number   1
_chemical_formula_structural   Cu4P2O9
_chemical_formula_sum   'Cu16 P8 O36'
_cell_volume   709.49058237
_cell_formula_units_Z   4
loop_
 _symmetry_equiv_pos_site_id
 _symmetry_equiv_pos_as_xyz
  1  'x, y, z'
loop_
 _atom_site_type_symbol
 _atom_site_label
 _atom_site_symmetry_multiplicity
 _atom_site_fract_x
 _atom_site_fract_y
 _atom_site_fract_z
 _atom_site_occupancy
  O  O0  1  0.25000000  0.20213464  0.90622591  1
  O  O1  1  0.75000000  0.79786536  0.09377409  1
  O  O2  1  0.25000000  0.70213464  0.59377409  1
  O  O3  1  0.75000000  0.29786536  0.40622591  1
  O  O4  1  0.55037803  0.88789584  0.65123571  1
  O  O5  1  0.05037803  0.11210416  0.34876429  1
  O  O6  1  0.94962197  0.38789584  0.84876429  1
  O  O7  1  0.44962197  0.61210416  0.15123571  1
  O  O8  1  0.44962197  0.11210416  0.34876429  1
  O  O9  1  0.94962197  0.88789584  0.65123571  1
  O  O10  1  0.05037803  0.61210416  0.15123571  1
  O  O11  1  0.55037803  0.38789584  0.84876429  1
  O  O12  1  0.25000000  0.90266651  0.24451351  1
  O  O13  1  0.75000000  0.09733349  0.75548649  1
  O  O14  1  0.45259568  0.91459069  0.86255517  1
  O  O15  1  0.25000000  0.40266651  0.25548649  1
  O  O16  1  0.25000000  0.88164967  0.43032227  1
  O  O17  1  0.75000000  0.11835033  0.56967773  1
  O  O18  1  0.25000000  0.38164967  0.06967773  1
  O  O19  1  0.75000000  0.61835033  0.93032227  1
  O  O20  1  0.54740432  0.08540931  0.13744483  1
  O  O21  1  0.04740432  0.91459069  0.86255517  1
  O  O22  1  0.95259568  0.58540931  0.36255517  1
  O  O23  1  0.45259568  0.41459069  0.63744483  1
  O  O24  1  0.75000000  0.83457025  0.41024777  1
  O  O25  1  0.25000000  0.16542975  0.58975223  1
  O  O26  1  0.75000000  0.33457025  0.08975223  1
  O  O27  1  0.25000000  0.66542975  0.91024777  1
  O  O28  1  0.75000000  0.59007681  0.52444153  1
  O  O29  1  0.25000000  0.40992319  0.47555847  1
  O  O30  1  0.75000000  0.09007681  0.97555847  1
  O  O31  1  0.25000000  0.90992319  0.02444153  1
  O  O32  1  0.54740432  0.58540931  0.36255517  1
  O  O33  1  0.04740432  0.41459069  0.63744483  1
  O  O34  1  0.95259568  0.08540931  0.13744483  1
  O  O35  1  0.75000000  0.59733349  0.74451351  1
  P  P36  1  0.75000000  0.64994335  0.41516419  1
  P  P37  1  0.25000000  0.35005665  0.58483581  1
  P  P38  1  0.75000000  0.14994335  0.08483581  1
  P  P39  1  0.25000000  0.85005665  0.91516419  1
  P  P40  1  0.75000000  0.49676429  0.84318218  1
  P  P41  1  0.25000000  0.50323571  0.15681782  1
  P  P42  1  0.75000000  0.99676429  0.65681782  1
  P  P43  1  0.25000000  0.00323571  0.34318218  1
  Cu  Cu44  1  0.25000000  0.14489825  0.05206481  1
  Cu  Cu45  1  0.75000000  0.85510175  0.94793519  1
  Cu  Cu46  1  0.25000000  0.64489825  0.44793519  1
  Cu  Cu47  1  0.75000000  0.35510175  0.55206481  1
  Cu  Cu48  1  0.25000000  0.43716887  0.91208248  1
  Cu  Cu49  1  0.75000000  0.56283113  0.08791752  1
  Cu  Cu50  1  0.25000000  0.93716887  0.58791752  1
  Cu  Cu51  1  0.75000000  0.06283113  0.41208248  1
  Cu  Cu52  1  0.99276694  0.64732611  0.65711608  1
  Cu  Cu53  1  0.49276694  0.35267389  0.34288392  1
  Cu  Cu54  1  0.50723306  0.14732611  0.84288392  1
  Cu  Cu55  1  0.00723306  0.85267389  0.15711608  1
  Cu  Cu56  1  0.00723306  0.35267389  0.34288392  1
  Cu  Cu57  1  0.50723306  0.64732611  0.65711608  1
  Cu  Cu58  1  0.49276694  0.85267389  0.15711608  1
  Cu  Cu59  1  0.99276694  0.14732611  0.84288392  1
