# generated using pymatgen
data_Ba2CoO4
_symmetry_space_group_name_H-M   'P 1'
_cell_length_a   5.95556534
_cell_length_b   7.70055268
_cell_length_c   10.66386960
_cell_angle_alpha   90.00000000
_cell_angle_beta   90.00000000
_cell_angle_gamma   90.00000000
_symmetry_Int_Tables_number   1
_chemical_formula_structural   Ba2CoO4
_chemical_formula_sum   'Ba8 Co4 O16'
_cell_volume   489.05726615
_cell_formula_units_Z   4
loop_
 _symmetry_equiv_pos_site_id
 _symmetry_equiv_pos_as_xyz
  1  'x, y, z'
loop_
 _atom_site_type_symbol
 _atom_site_label
 _atom_site_symmetry_multiplicity
 _atom_site_fract_x
 _atom_site_fract_y
 _atom_site_fract_z
 _atom_site_occupancy
  O  O0  1  0.00258762  0.18500666  0.64770032  1
  O  O1  1  0.50258762  0.81499334  0.35229968  1
  O  O2  1  0.49741238  0.68500666  0.85229968  1
  O  O3  1  0.99741238  0.31499334  0.14770032  1
  O  O4  1  0.99741238  0.81499334  0.35229968  1
  O  O5  1  0.49741238  0.18500666  0.64770032  1
  O  O6  1  0.50258762  0.31499334  0.14770032  1
  O  O7  1  0.00258762  0.68500666  0.85229968  1
  O  O8  1  0.25000000  0.69066536  0.08224418  1
  O  O9  1  0.75000000  0.30933464  0.91775582  1
  O  O10  1  0.25000000  0.19066536  0.41775582  1
  O  O11  1  0.75000000  0.80933464  0.58224418  1
  O  O12  1  0.75000000  0.49193365  0.41848662  1
  O  O13  1  0.25000000  0.50806635  0.58151338  1
  O  O14  1  0.75000000  0.99193365  0.08151338  1
  O  O15  1  0.25000000  0.00806635  0.91848662  1
  Co  Co16  1  0.25000000  0.77615905  0.92265028  1
  Co  Co17  1  0.75000000  0.22384095  0.07734972  1
  Co  Co18  1  0.25000000  0.27615905  0.57734972  1
  Co  Co19  1  0.75000000  0.72384095  0.42265028  1
  Ba  Ba20  1  0.25000000  0.35176767  0.92595669  1
  Ba  Ba21  1  0.75000000  0.64823233  0.07404331  1
  Ba  Ba22  1  0.25000000  0.85176767  0.57404331  1
  Ba  Ba23  1  0.75000000  0.14823233  0.42595669  1
  Ba  Ba24  1  0.25000000  0.50922509  0.30959559  1
  Ba  Ba25  1  0.75000000  0.49077491  0.69040441  1
  Ba  Ba26  1  0.25000000  0.00922509  0.19040441  1
  Ba  Ba27  1  0.75000000  0.99077491  0.80959559  1
