# generated using pymatgen
data_CaMgV2O7
_symmetry_space_group_name_H-M   'P 1'
_cell_length_a   6.84190192
_cell_length_b   11.43823407
_cell_length_c   14.68509611
_cell_angle_alpha   90.00000000
_cell_angle_beta   90.00000000
_cell_angle_gamma   99.42379837
_symmetry_Int_Tables_number   1
_chemical_formula_structural   CaMgV2O7
_chemical_formula_sum   'Ca8 Mg8 V16 O56'
_cell_volume   1133.73504699
_cell_formula_units_Z   8
loop_
 _symmetry_equiv_pos_site_id
 _symmetry_equiv_pos_as_xyz
  1  'x, y, z'
loop_
 _atom_site_type_symbol
 _atom_site_label
 _atom_site_symmetry_multiplicity
 _atom_site_fract_x
 _atom_site_fract_y
 _atom_site_fract_z
 _atom_site_occupancy
  O  O0  1  0.75953988  0.96151678  0.98165113  1
  O  O1  1  0.24046012  0.53848322  0.48165113  1
  O  O2  1  0.24046012  0.03848322  0.01834887  1
  O  O3  1  0.75953988  0.46151678  0.51834887  1
  O  O4  1  0.98979764  0.87161248  0.85564952  1
  O  O5  1  0.01020236  0.62838752  0.35564952  1
  O  O6  1  0.01020236  0.12838752  0.14435048  1
  O  O7  1  0.98979764  0.37161248  0.64435048  1
  O  O8  1  0.99450192  0.11738425  0.85947509  1
  O  O9  1  0.00549808  0.38261575  0.35947509  1
  O  O10  1  0.00549808  0.88261575  0.14052491  1
  O  O11  1  0.99450192  0.61738425  0.64052491  1
  O  O12  1  0.67809146  0.95570692  0.28682283  1
  O  O13  1  0.32190854  0.54429308  0.78682283  1
  O  O14  1  0.32190854  0.04429308  0.71317717  1
  O  O15  1  0.67809146  0.45570692  0.21317717  1
  O  O16  1  0.95858045  0.13503713  0.36619612  1
  O  O17  1  0.04141955  0.36496287  0.86619612  1
  O  O18  1  0.04141955  0.86496287  0.63380388  1
  O  O19  1  0.95858045  0.63503713  0.13380388  1
  O  O20  1  0.04971106  0.89593448  0.34008518  1
  O  O21  1  0.38728787  0.82171555  0.44347997  1
  O  O22  1  0.95028894  0.60406552  0.84008518  1
  O  O23  1  0.04971106  0.39593448  0.15991482  1
  O  O24  1  0.71983662  0.70850173  0.47966245  1
  O  O25  1  0.28016338  0.79149827  0.97966245  1
  O  O26  1  0.28016338  0.29149827  0.52033755  1
  O  O27  1  0.71983662  0.20850173  0.02033755  1
  O  O28  1  0.76289245  0.94475692  0.47233348  1
  O  O29  1  0.23710755  0.55524308  0.97233348  1
  O  O30  1  0.23710755  0.05524308  0.52766652  1
  O  O31  1  0.76289245  0.44475692  0.02766652  1
  O  O32  1  0.42927964  0.20508880  0.89365416  1
  O  O33  1  0.57072036  0.29491120  0.39365416  1
  O  O34  1  0.57072036  0.79491120  0.10634584  1
  O  O35  1  0.42927964  0.70508880  0.60634584  1
  O  O36  1  0.69266245  0.22447059  0.74923969  1
  O  O37  1  0.30733755  0.27552941  0.24923969  1
  O  O38  1  0.30733755  0.77552941  0.25076031  1
  O  O39  1  0.69266245  0.72447059  0.75076031  1
  O  O40  1  0.63745668  0.46468068  0.70386858  1
  O  O41  1  0.36254332  0.03531932  0.20386858  1
  O  O42  1  0.36254332  0.53531932  0.29613142  1
  O  O43  1  0.63745668  0.96468068  0.79613142  1
  O  O44  1  0.30492382  0.29447623  0.72886193  1
  O  O45  1  0.69507618  0.20552377  0.22886193  1
  O  O46  1  0.69507618  0.70552377  0.27113807  1
  O  O47  1  0.30492382  0.79447623  0.77113807  1
  O  O48  1  0.59782564  0.40871479  0.87746466  1
  O  O49  1  0.40217436  0.09128521  0.37746466  1
  O  O50  1  0.40217436  0.59128521  0.12253534  1
  O  O51  1  0.59782564  0.90871479  0.62253534  1
  O  O52  1  0.38728787  0.32171555  0.05652003  1
  O  O53  1  0.61271213  0.17828445  0.55652003  1
  O  O54  1  0.61271213  0.67828445  0.94347997  1
  O  O55  1  0.95028894  0.10406552  0.65991482  1
  Mg  Mg56  1  0.00298982  0.74715977  0.74593017  1
  Mg  Mg57  1  0.99701018  0.75284023  0.24593017  1
  Mg  Mg58  1  0.99701018  0.25284023  0.25406983  1
  Mg  Mg59  1  0.00298982  0.24715977  0.75406983  1
  Mg  Mg60  1  0.63744863  0.57389217  0.82587647  1
  Mg  Mg61  1  0.36255137  0.92610783  0.32587647  1
  Mg  Mg62  1  0.36255137  0.42610783  0.17412353  1
  Mg  Mg63  1  0.63744863  0.07389217  0.67412353  1
  Ca  Ca64  1  0.32597518  0.97101909  0.87062469  1
  Ca  Ca65  1  0.67402482  0.52898091  0.37062469  1
  Ca  Ca66  1  0.67402482  0.02898091  0.12937531  1
  Ca  Ca67  1  0.32597518  0.47101909  0.62937531  1
  Ca  Ca68  1  0.07768639  0.22811162  0.99211322  1
  Ca  Ca69  1  0.92231361  0.27188838  0.49211322  1
  Ca  Ca70  1  0.92231361  0.77188838  0.00788678  1
  Ca  Ca71  1  0.07768639  0.72811162  0.50788678  1
  V  V72  1  0.50909412  0.29318068  0.79507594  1
  V  V73  1  0.49090588  0.20681932  0.29507594  1
  V  V74  1  0.49090588  0.70681932  0.20492406  1
  V  V75  1  0.50909412  0.79318068  0.70492406  1
  V  V76  1  0.58410574  0.31272134  0.98641477  1
  V  V77  1  0.41589426  0.18727866  0.48641477  1
  V  V78  1  0.41589426  0.68727866  0.01358523  1
  V  V79  1  0.58410574  0.81272134  0.51358523  1
  V  V80  1  0.86814002  0.48408903  0.13558069  1
  V  V81  1  0.13185998  0.01591097  0.63558069  1
  V  V82  1  0.13185998  0.51591097  0.86441931  1
  V  V83  1  0.86814002  0.98408903  0.36441931  1
  V  V84  1  0.84068014  0.48118450  0.62850841  1
  V  V85  1  0.15931986  0.01881550  0.12850841  1
  V  V86  1  0.15931986  0.51881550  0.37149159  1
  V  V87  1  0.84068014  0.98118450  0.87149159  1
