# generated using pymatgen
data_CeGeAu
_symmetry_space_group_name_H-M   'P 1'
_cell_length_a   4.52534831
_cell_length_b   7.37550741
_cell_length_c   7.94651757
_cell_angle_alpha   90.00000000
_cell_angle_beta   90.00000000
_cell_angle_gamma   90.00000000
_symmetry_Int_Tables_number   1
_chemical_formula_structural   CeGeAu
_chemical_formula_sum   'Ce4 Ge4 Au4'
_cell_volume   265.22885079
_cell_formula_units_Z   4
loop_
 _symmetry_equiv_pos_site_id
 _symmetry_equiv_pos_as_xyz
  1  'x, y, z'
loop_
 _atom_site_type_symbol
 _atom_site_label
 _atom_site_symmetry_multiplicity
 _atom_site_fract_x
 _atom_site_fract_y
 _atom_site_fract_z
 _atom_site_occupancy
  Ge  Ge0  1  0.25000000  0.71528227  0.40359596  1
  Ge  Ge1  1  0.25000000  0.21528227  0.09640404  1
  Ge  Ge2  1  0.75000000  0.28471773  0.59640404  1
  Ge  Ge3  1  0.75000000  0.78471773  0.90359596  1
  Ce  Ce4  1  0.75000000  0.50286033  0.20514885  1
  Ce  Ce5  1  0.25000000  0.99713967  0.70514885  1
  Ce  Ce6  1  0.75000000  0.00286033  0.29485115  1
  Ce  Ce7  1  0.25000000  0.49713967  0.79485115  1
  Au  Au8  1  0.25000000  0.81036153  0.07744152  1
  Au  Au9  1  0.25000000  0.31036153  0.42255848  1
  Au  Au10  1  0.75000000  0.68963847  0.57744152  1
  Au  Au11  1  0.75000000  0.18963847  0.92255848  1
