# generated using pymatgen
data_In(IO3)3
_symmetry_space_group_name_H-M   'P 1'
_cell_length_a   7.57657421
_cell_length_b   7.57657421
_cell_length_c   7.57657421
_cell_angle_alpha   81.56050764
_cell_angle_beta   81.56050760
_cell_angle_gamma   81.56050767
_symmetry_Int_Tables_number   1
_chemical_formula_structural   In(IO3)3
_chemical_formula_sum   'In2 I6 O18'
_cell_volume   422.06134794
_cell_formula_units_Z   2
loop_
 _symmetry_equiv_pos_site_id
 _symmetry_equiv_pos_as_xyz
  1  'x, y, z'
loop_
 _atom_site_type_symbol
 _atom_site_label
 _atom_site_symmetry_multiplicity
 _atom_site_fract_x
 _atom_site_fract_y
 _atom_site_fract_z
 _atom_site_occupancy
  O  O0  1  0.21488928  0.73349220  0.42464149  1
  O  O1  1  0.73349220  0.42464149  0.21488928  1
  O  O2  1  0.42464149  0.21488928  0.73349220  1
  O  O3  1  0.78511072  0.26650780  0.57535851  1
  O  O4  1  0.26650780  0.57535851  0.78511072  1
  O  O5  1  0.57535851  0.78511072  0.26650780  1
  O  O6  1  0.29888560  0.08316301  0.42758216  1
  O  O7  1  0.08316301  0.42758216  0.29888560  1
  O  O8  1  0.29370539  0.93791990  0.05429564  1
  O  O9  1  0.05429564  0.29370539  0.93791990  1
  O  O10  1  0.93791990  0.05429564  0.29370539  1
  O  O11  1  0.70629461  0.06208010  0.94570436  1
  O  O12  1  0.94570436  0.70629461  0.06208010  1
  O  O13  1  0.06208010  0.94570436  0.70629461  1
  O  O14  1  0.57241784  0.70111440  0.91683699  1
  O  O15  1  0.91683699  0.57241784  0.70111440  1
  O  O16  1  0.70111440  0.91683699  0.57241784  1
  O  O17  1  0.42758216  0.29888560  0.08316301  1
  In  In18  1  0.17864328  0.17864328  0.17864328  1
  In  In19  1  0.82135672  0.82135672  0.82135672  1
  I  I20  1  0.58073324  0.27933033  0.86986048  1
  I  I21  1  0.72066967  0.13013952  0.41926676  1
  I  I22  1  0.13013952  0.41926676  0.72066967  1
  I  I23  1  0.41926676  0.72066967  0.13013952  1
  I  I24  1  0.86986048  0.58073324  0.27933033  1
  I  I25  1  0.27933033  0.86986048  0.58073324  1
