# generated using pymatgen
data_BAsPbO5
_symmetry_space_group_name_H-M   'P 1'
_cell_length_a   7.26578806
_cell_length_b   7.26578806
_cell_length_c   7.01246809
_cell_angle_alpha   90.00000000
_cell_angle_beta   90.00000000
_cell_angle_gamma   120.00000001
_symmetry_Int_Tables_number   1
_chemical_formula_structural   BAsPbO5
_chemical_formula_sum   'B3 As3 Pb3 O15'
_cell_volume   320.60255607
_cell_formula_units_Z   3
loop_
 _symmetry_equiv_pos_site_id
 _symmetry_equiv_pos_as_xyz
  1  'x, y, z'
loop_
 _atom_site_type_symbol
 _atom_site_label
 _atom_site_symmetry_multiplicity
 _atom_site_fract_x
 _atom_site_fract_y
 _atom_site_fract_z
 _atom_site_occupancy
  B  B0  1  0.77222073  0.42672333  0.56640448  1
  B  B1  1  0.65450260  0.22777927  0.23307115  1
  B  B2  1  0.57327667  0.34549740  0.89973782  1
  O  O3  1  0.66022842  0.37629269  0.09149512  1
  O  O4  1  0.62370731  0.28393572  0.42482845  1
  O  O5  1  0.71606428  0.33977158  0.75816179  1
  O  O6  1  0.82330541  0.92446427  0.87359847  1
  O  O7  1  0.10115887  0.17669459  0.54026514  1
  O  O8  1  0.07553573  0.89884113  0.20693180  1
  O  O9  1  0.48432473  0.99780930  0.19128493  1
  O  O10  1  0.00219070  0.48651543  0.52461826  1
  O  O11  1  0.51348457  0.51567527  0.85795159  1
  O  O12  1  0.20592200  0.73162726  0.88948426  1
  O  O13  1  0.26837274  0.47429474  0.22281760  1
  O  O14  1  0.52570526  0.79407800  0.55615093  1
  O  O15  1  0.34878565  0.14978155  0.88932969  1
  O  O16  1  0.85021845  0.19900409  0.22266303  1
  O  O17  1  0.80099591  0.65121435  0.55599636  1
  As  As18  1  0.66842951  0.73842545  0.71121009  1
  As  As19  1  0.06999594  0.33157049  0.37787676  1
  As  As20  1  0.26157455  0.93000406  0.04454343  1
  Pb  Pb21  1  0.06269937  0.33169721  0.87755962  1
  Pb  Pb22  1  0.26899783  0.93730063  0.54422629  1
  Pb  Pb23  1  0.66830279  0.73100217  0.21089295  1
