# generated using pymatgen
data_InSn2Br5
_symmetry_space_group_name_H-M   'P 1'
_cell_length_a   8.43929788
_cell_length_b   8.43929788
_cell_length_c   9.51720739
_cell_angle_alpha   116.31913044
_cell_angle_beta   116.31913046
_cell_angle_gamma   89.99999999
_symmetry_Int_Tables_number   1
_chemical_formula_structural   InSn2Br5
_chemical_formula_sum   'In2 Sn4 Br10'
_cell_volume   528.03307909
_cell_formula_units_Z   2
loop_
 _symmetry_equiv_pos_site_id
 _symmetry_equiv_pos_as_xyz
  1  'x, y, z'
loop_
 _atom_site_type_symbol
 _atom_site_label
 _atom_site_symmetry_multiplicity
 _atom_site_fract_x
 _atom_site_fract_y
 _atom_site_fract_z
 _atom_site_occupancy
  Br  Br0  1  0.20342891  0.70342891  0.72947054  1
  Br  Br1  1  0.47395837  0.97395837  0.27052946  1
  Br  Br2  1  0.79657109  0.29657109  0.27052946  1
  Br  Br3  1  0.97395837  0.79657109  0.27052946  1
  Br  Br4  1  0.29657109  0.47395837  0.27052946  1
  Br  Br5  1  0.02604163  0.20342891  0.72947054  1
  Br  Br6  1  0.00000000  0.00000000  0.00000000  1
  Br  Br7  1  0.50000000  0.50000000  0.00000000  1
  Br  Br8  1  0.52604163  0.02604163  0.72947054  1
  Br  Br9  1  0.70342891  0.52604163  0.72947054  1
  In  In10  1  0.25000000  0.25000000  0.50000000  1
  In  In11  1  0.75000000  0.75000000  0.50000000  1
  Sn  Sn12  1  0.32461702  0.17538298  0.00000000  1
  Sn  Sn13  1  0.17538298  0.67538298  0.00000000  1
  Sn  Sn14  1  0.67538298  0.82461702  0.00000000  1
  Sn  Sn15  1  0.82461702  0.32461702  0.00000000  1
