# generated using pymatgen
data_CeSnPt
_symmetry_space_group_name_H-M   'P 1'
_cell_length_a   7.59541596
_cell_length_b   7.59541597
_cell_length_c   4.17432870
_cell_angle_alpha   90.00000000
_cell_angle_beta   90.00000000
_cell_angle_gamma   119.99999998
_symmetry_Int_Tables_number   1
_chemical_formula_structural   CeSnPt
_chemical_formula_sum   'Ce3 Sn3 Pt3'
_cell_volume   208.55490168
_cell_formula_units_Z   3
loop_
 _symmetry_equiv_pos_site_id
 _symmetry_equiv_pos_as_xyz
  1  'x, y, z'
loop_
 _atom_site_type_symbol
 _atom_site_label
 _atom_site_symmetry_multiplicity
 _atom_site_fract_x
 _atom_site_fract_y
 _atom_site_fract_z
 _atom_site_occupancy
  Sn  Sn0  1  0.00000000  0.25208916  0.50000000  1
  Sn  Sn1  1  0.74791084  0.74791084  0.50000000  1
  Sn  Sn2  1  0.25208916  0.00000000  0.50000000  1
  Ce  Ce3  1  0.41236212  0.41236212  0.00000000  1
  Ce  Ce4  1  0.58763788  0.00000000  0.00000000  1
  Ce  Ce5  1  0.00000000  0.58763788  0.00000000  1
  Pt  Pt6  1  0.33333333  0.66666667  0.50000000  1
  Pt  Pt7  1  0.00000000  0.00000000  0.00000000  1
  Pt  Pt8  1  0.66666667  0.33333333  0.50000000  1
