# generated using pymatgen
data_Co3Mo3N
_symmetry_space_group_name_H-M   'P 1'
_cell_length_a   7.81345746
_cell_length_b   7.81345746
_cell_length_c   7.81345746
_cell_angle_alpha   59.99999999
_cell_angle_beta   59.99999999
_cell_angle_gamma   60.00000002
_symmetry_Int_Tables_number   1
_chemical_formula_structural   Co3Mo3N
_chemical_formula_sum   'Co12 Mo12 N4'
_cell_volume   337.29877037
_cell_formula_units_Z   4
loop_
 _symmetry_equiv_pos_site_id
 _symmetry_equiv_pos_as_xyz
  1  'x, y, z'
loop_
 _atom_site_type_symbol
 _atom_site_label
 _atom_site_symmetry_multiplicity
 _atom_site_fract_x
 _atom_site_fract_y
 _atom_site_fract_z
 _atom_site_occupancy
  N  N0  1  0.00000000  0.00000000  0.00000000  1
  N  N1  1  0.00000000  0.00000000  0.50000000  1
  N  N2  1  0.50000000  0.00000000  0.00000000  1
  N  N3  1  0.00000000  0.50000000  0.00000000  1
  Co  Co4  1  0.50000000  0.50000000  0.50000000  1
  Co  Co5  1  0.50000000  0.50000000  0.00000000  1
  Co  Co6  1  0.00000000  0.50000000  0.50000000  1
  Co  Co7  1  0.50000000  0.00000000  0.50000000  1
  Co  Co8  1  0.29459111  0.29459111  0.29459111  1
  Co  Co9  1  0.70540889  0.70540889  0.38377334  1
  Co  Co10  1  0.38377334  0.70540889  0.70540889  1
  Co  Co11  1  0.70540889  0.38377334  0.70540889  1
  Co  Co12  1  0.61622666  0.29459111  0.29459111  1
  Co  Co13  1  0.29459111  0.61622666  0.29459111  1
  Co  Co14  1  0.29459111  0.29459111  0.61622666  1
  Co  Co15  1  0.70540889  0.70540889  0.70540889  1
  Mo  Mo16  1  0.92290428  0.32709572  0.32709572  1
  Mo  Mo17  1  0.67290428  0.67290428  0.07709572  1
  Mo  Mo18  1  0.07709572  0.07709572  0.67290428  1
  Mo  Mo19  1  0.67290428  0.07709572  0.07709572  1
  Mo  Mo20  1  0.67290428  0.07709572  0.67290428  1
  Mo  Mo21  1  0.07709572  0.67290428  0.07709572  1
  Mo  Mo22  1  0.32709572  0.92290428  0.32709572  1
  Mo  Mo23  1  0.32709572  0.32709572  0.92290428  1
  Mo  Mo24  1  0.92290428  0.92290428  0.32709572  1
  Mo  Mo25  1  0.92290428  0.32709572  0.92290428  1
  Mo  Mo26  1  0.07709572  0.67290428  0.67290428  1
  Mo  Mo27  1  0.32709572  0.92290428  0.92290428  1
