# generated using pymatgen
data_KZnP2H5O9
_symmetry_space_group_name_H-M   'P 1'
_cell_length_a   7.73856137
_cell_length_b   7.91247426
_cell_length_c   8.06759983
_cell_angle_alpha   64.68922845
_cell_angle_beta   84.88374486
_cell_angle_gamma   72.06248628
_symmetry_Int_Tables_number   1
_chemical_formula_structural   KZnP2H5O9
_chemical_formula_sum   'K2 Zn2 P4 H10 O18'
_cell_volume   424.34158398
_cell_formula_units_Z   2
loop_
 _symmetry_equiv_pos_site_id
 _symmetry_equiv_pos_as_xyz
  1  'x, y, z'
loop_
 _atom_site_type_symbol
 _atom_site_label
 _atom_site_symmetry_multiplicity
 _atom_site_fract_x
 _atom_site_fract_y
 _atom_site_fract_z
 _atom_site_occupancy
  H  H0  1  0.45641192  0.52346273  0.72668867  1
  H  H1  1  0.54358808  0.47653727  0.27331133  1
  H  H2  1  0.55331555  0.66910914  0.72639019  1
  H  H3  1  0.44668445  0.33089086  0.27360981  1
  H  H4  1  0.13936795  0.28079766  0.43680757  1
  H  H5  1  0.86063205  0.71920234  0.56319243  1
  H  H6  1  0.79820192  0.07893727  0.42317137  1
  H  H7  1  0.20179808  0.92106273  0.57682863  1
  H  H8  1  0.53366442  0.70268478  0.46208453  1
  H  H9  1  0.46633558  0.29731522  0.53791547  1
  O  O10  1  0.74268788  0.91792172  0.41386812  1
  O  O11  1  0.52333050  0.78525138  0.32250116  1
  O  O12  1  0.26232427  0.06379669  0.90821633  1
  O  O13  1  0.47666950  0.21474862  0.67749884  1
  O  O14  1  0.23521814  0.50307429  0.85788146  1
  O  O15  1  0.76478186  0.49692571  0.14211854  1
  O  O16  1  0.16050358  0.81291816  0.56527581  1
  O  O17  1  0.83949642  0.18708184  0.43472419  1
  O  O18  1  0.47491066  0.15416550  0.18920682  1
  O  O19  1  0.52508934  0.84583450  0.81079318  1
  O  O20  1  0.03202637  0.20171794  0.15749443  1
  O  O21  1  0.96797363  0.79828206  0.84250557  1
  O  O22  1  0.95465420  0.60270991  0.66002516  1
  O  O23  1  0.04534580  0.39729009  0.33997484  1
  O  O24  1  0.43765066  0.42932416  0.32284487  1
  O  O25  1  0.56234934  0.57067584  0.67715513  1
  O  O26  1  0.73767573  0.93620331  0.09178367  1
  O  O27  1  0.25731212  0.08207828  0.58613188  1
  P  P28  1  0.62213461  0.95147524  0.25440333  1
  P  P29  1  0.37786539  0.04852476  0.74559667  1
  P  P30  1  0.92038832  0.32080537  0.25977264  1
  P  P31  1  0.07961168  0.67919463  0.74022736  1
  K  K32  1  0.13847907  0.77563032  0.22395514  1
  K  K33  1  0.86152093  0.22436968  0.77604486  1
  Zn  Zn34  1  0.26079218  0.23177474  0.03088400  1
  Zn  Zn35  1  0.73920782  0.76822526  0.96911600  1
