# generated using pymatgen
data_CaAlSiHO5
_symmetry_space_group_name_H-M   'P 1'
_cell_length_a   5.75151886
_cell_length_b   7.11997734
_cell_length_c   8.60503134
_cell_angle_alpha   90.00000000
_cell_angle_beta   90.00000000
_cell_angle_gamma   90.00000000
_symmetry_Int_Tables_number   1
_chemical_formula_structural   CaAlSiHO5
_chemical_formula_sum   'Ca4 Al4 Si4 H4 O20'
_cell_volume   352.38191882
_cell_formula_units_Z   4
loop_
 _symmetry_equiv_pos_site_id
 _symmetry_equiv_pos_as_xyz
  1  'x, y, z'
loop_
 _atom_site_type_symbol
 _atom_site_label
 _atom_site_symmetry_multiplicity
 _atom_site_fract_x
 _atom_site_fract_y
 _atom_site_fract_z
 _atom_site_occupancy
  H  H0  1  0.47993623  0.47716249  0.49307401  1
  H  H1  1  0.97993623  0.02283751  0.50692599  1
  H  H2  1  0.52006377  0.97716249  0.00692599  1
  H  H3  1  0.02006377  0.52283751  0.99307401  1
  O  O4  1  0.49440480  0.60444322  0.43579533  1
  O  O5  1  0.99440480  0.89555678  0.56420467  1
  O  O6  1  0.50559520  0.10444322  0.06420467  1
  O  O7  1  0.00559520  0.39555678  0.93579533  1
  O  O8  1  0.75832122  0.38643144  0.19291041  1
  O  O9  1  0.25832122  0.11356856  0.80708959  1
  O  O10  1  0.24167878  0.88643144  0.30708959  1
  O  O11  1  0.74167878  0.61356856  0.69291041  1
  O  O12  1  0.49130019  0.42999262  0.92880083  1
  O  O13  1  0.99130019  0.07000738  0.07119917  1
  O  O14  1  0.50869981  0.92999262  0.57119917  1
  O  O15  1  0.00869981  0.57000738  0.42880083  1
  O  O16  1  0.57219189  0.78885326  0.93294360  1
  O  O17  1  0.07219189  0.71114674  0.06705640  1
  O  O18  1  0.42780811  0.28885326  0.56705640  1
  O  O19  1  0.92780811  0.21114674  0.43294360  1
  O  O20  1  0.26777693  0.64862235  0.71070295  1
  O  O21  1  0.76777693  0.85137765  0.28929705  1
  O  O22  1  0.73222307  0.14862235  0.78929705  1
  O  O23  1  0.23222307  0.35137765  0.21070295  1
  Al  Al24  1  0.24282728  0.23766150  0.00533402  1
  Al  Al25  1  0.74282728  0.26233850  0.99466598  1
  Al  Al26  1  0.25717272  0.76233850  0.50533402  1
  Al  Al27  1  0.75717272  0.73766150  0.49466598  1
  Si  Si28  1  0.98757985  0.37913682  0.31018600  1
  Si  Si29  1  0.01242015  0.87913682  0.18981400  1
  Si  Si30  1  0.48757985  0.12086318  0.68981400  1
  Si  Si31  1  0.51242015  0.62086318  0.81018600  1
  Ca  Ca32  1  0.46970455  0.63630578  0.16436149  1
  Ca  Ca33  1  0.96970455  0.86369422  0.83563851  1
  Ca  Ca34  1  0.53029545  0.13630578  0.33563851  1
  Ca  Ca35  1  0.03029545  0.36369422  0.66436149  1
