# generated using pymatgen
data_DyH4I3O11
_symmetry_space_group_name_H-M   'P 1'
_cell_length_a   7.13319246
_cell_length_b   7.56239029
_cell_length_c   10.84996928
_cell_angle_alpha   94.08655547
_cell_angle_beta   106.02004545
_cell_angle_gamma   108.29103407
_symmetry_Int_Tables_number   1
_chemical_formula_structural   DyH4I3O11
_chemical_formula_sum   'Dy2 H8 I6 O22'
_cell_volume   526.08393314
_cell_formula_units_Z   2
loop_
 _symmetry_equiv_pos_site_id
 _symmetry_equiv_pos_as_xyz
  1  'x, y, z'
loop_
 _atom_site_type_symbol
 _atom_site_label
 _atom_site_symmetry_multiplicity
 _atom_site_fract_x
 _atom_site_fract_y
 _atom_site_fract_z
 _atom_site_occupancy
  Dy  Dy0  1  0.90194657  0.58258524  0.21256173  1
  Dy  Dy1  1  0.09805443  0.41741476  0.78743827  1
  H  H2  1  0.86489855  0.74340462  0.61133854  1
  H  H3  1  0.13510145  0.25659538  0.38866146  1
  H  H4  1  0.80860663  0.92792197  0.62325255  1
  H  H5  1  0.19139337  0.07207803  0.37674745  1
  H  H6  1  0.76048183  0.89489806  0.13944563  1
  H  H7  1  0.26969846  0.09367331  0.71986387  1
  H  H8  1  0.73030154  0.90632669  0.28013613  1
  H  H9  1  0.23951817  0.10510194  0.86055437  1
  I  I10  1  0.73713329  0.27157766  0.44819397  1
  I  I11  1  0.26286671  0.72842234  0.55180603  1
  I  I12  1  0.70978700  0.63719529  0.83702570  1
  I  I13  1  0.29021300  0.36280471  0.16297430  1
  I  I14  1  0.69660638  0.15895826  0.93783679  1
  I  I15  1  0.30339362  0.84104174  0.06216321  1
  O  O16  1  0.24599769  0.20935969  0.37917259  1
  O  O17  1  0.86233714  0.28103371  0.10350715  1
  O  O18  1  0.09526313  0.83275838  0.13118135  1
  O  O19  1  0.90473687  0.16724162  0.86881865  1
  O  O20  1  0.35521753  0.08368603  0.02677961  1
  O  O21  1  0.64478247  0.91631397  0.97322039  1
  O  O22  1  0.13766286  0.71896629  0.89649285  1
  O  O23  1  0.71163498  0.53439225  0.98611426  1
  O  O24  1  0.24062708  0.55488734  0.24758703  1
  O  O25  1  0.75937292  0.44511266  0.75241297  1
  O  O26  1  0.57373958  0.43749413  0.24437127  1
  O  O27  1  0.42626042  0.56250587  0.75562873  1
  O  O28  1  0.05787913  0.62100538  0.62572006  1
  O  O29  1  0.94212087  0.37899462  0.37427994  1
  O  O30  1  0.09902025  0.79039477  0.41045885  1
  O  O31  1  0.90097975  0.20960523  0.58954115  1
  O  O32  1  0.39263933  0.96034237  0.65263932  1
  O  O33  1  0.60736067  0.03965763  0.34736068  1
  O  O34  1  0.23114103  0.16644255  0.78271001  1
  O  O35  1  0.76885897  0.83355745  0.21728999  1
  O  O36  1  0.28836502  0.46560775  0.01388574  1
  O  O37  1  0.75400231  0.79064031  0.62082741  1
