# generated using pymatgen
data_LiCrPO4
_symmetry_space_group_name_H-M   'P 1'
_cell_length_a   4.77228990
_cell_length_b   6.35210459
_cell_length_c   10.27126822
_cell_angle_alpha   90.00000000
_cell_angle_beta   90.00000000
_cell_angle_gamma   90.00000000
_symmetry_Int_Tables_number   1
_chemical_formula_structural   LiCrPO4
_chemical_formula_sum   'Li4 Cr4 P4 O16'
_cell_volume   311.36409355
_cell_formula_units_Z   4
loop_
 _symmetry_equiv_pos_site_id
 _symmetry_equiv_pos_as_xyz
  1  'x, y, z'
loop_
 _atom_site_type_symbol
 _atom_site_label
 _atom_site_symmetry_multiplicity
 _atom_site_fract_x
 _atom_site_fract_y
 _atom_site_fract_z
 _atom_site_occupancy
  Li  Li0  1  0.00000000  0.00000000  0.00000000  1
  Li  Li1  1  0.50000160  0.00000000  0.49999966  1
  Li  Li2  1  0.00000000  0.49999899  0.00000000  1
  Li  Li3  1  0.50000160  0.49999899  0.49999966  1
  O  O4  1  0.78653405  0.55339568  0.33811720  1
  O  O5  1  0.21346496  0.44660389  0.66188213  1
  O  O6  1  0.71346656  0.55339568  0.83811785  1
  O  O7  1  0.78653405  0.94660288  0.33811720  1
  O  O8  1  0.28653664  0.05339668  0.16188246  1
  O  O9  1  0.74336814  0.24999950  0.10176449  1
  O  O10  1  0.28653664  0.44660389  0.16188246  1
  O  O11  1  0.21346496  0.05339668  0.66188213  1
  O  O12  1  0.25663087  0.75000007  0.89823681  1
  O  O13  1  0.75663247  0.24999950  0.60176317  1
  O  O14  1  0.80783464  0.75000007  0.54823494  1
  O  O15  1  0.24336864  0.75000007  0.39823714  1
  O  O16  1  0.69216597  0.75000007  0.04823528  1
  O  O17  1  0.30783304  0.24999950  0.95176504  1
  O  O18  1  0.19216437  0.24999950  0.45176439  1
  O  O19  1  0.71346656  0.94660288  0.83811785  1
  P  P20  1  0.58151732  0.75000007  0.90501223  1
  P  P21  1  0.91848330  0.75000007  0.40501256  1
  P  P22  1  0.41848379  0.24999950  0.09498612  1
  P  P23  1  0.08151571  0.24999950  0.59498775  1
  Cr  Cr24  1  0.05065305  0.75000007  0.71407548  1
  Cr  Cr25  1  0.44934436  0.75000007  0.21407581  1
  Cr  Cr26  1  0.94934596  0.24999950  0.28592385  1
  Cr  Cr27  1  0.55065466  0.24999950  0.78592450  1
