# generated using pymatgen
data_Sb2P5O16
_symmetry_space_group_name_H-M   'P 1'
_cell_length_a   7.56457214
_cell_length_b   10.44398599
_cell_length_c   10.70179316
_cell_angle_alpha   90.00000000
_cell_angle_beta   69.23910648
_cell_angle_gamma   90.00000000
_symmetry_Int_Tables_number   1
_chemical_formula_structural   Sb2P5O16
_chemical_formula_sum   'Sb4 P10 O32'
_cell_volume   790.58818405
_cell_formula_units_Z   2
loop_
 _symmetry_equiv_pos_site_id
 _symmetry_equiv_pos_as_xyz
  1  'x, y, z'
loop_
 _atom_site_type_symbol
 _atom_site_label
 _atom_site_symmetry_multiplicity
 _atom_site_fract_x
 _atom_site_fract_y
 _atom_site_fract_z
 _atom_site_occupancy
  O  O0  1  0.21001902  0.21883914  0.19429570  1
  O  O1  1  0.33435298  0.47793373  0.10772086  1
  O  O2  1  0.37193606  0.01107670  0.08503585  1
  O  O3  1  0.23197096  0.69258704  0.42823920  1
  O  O4  1  0.21001902  0.78116086  0.69429570  1
  O  O5  1  0.52450782  0.16544938  0.20436226  1
  O  O6  1  0.33435298  0.52206627  0.60772086  1
  O  O7  1  0.37193606  0.98892330  0.58503585  1
  O  O8  1  0.53290820  0.76758890  0.23987096  1
  O  O9  1  0.23197096  0.30741296  0.92823920  1
  O  O10  1  0.48917386  0.33380240  0.44375546  1
  O  O11  1  0.68252896  0.51575128  0.03189289  1
  O  O12  1  0.53998414  0.56494213  0.36536323  1
  O  O13  1  0.51228420  0.77484998  0.48316171  1
  O  O14  1  0.78122298  0.00702362  0.07462185  1
  O  O15  1  0.52450782  0.83455062  0.70436226  1
  O  O16  1  0.53290820  0.23241110  0.73987096  1
  O  O17  1  0.74290290  0.07620332  0.31258648  1
  O  O18  1  0.48917386  0.66619760  0.94375546  1
  O  O19  1  0.86476285  0.23527098  0.11583486  1
  O  O20  1  0.68252896  0.48424872  0.53189289  1
  O  O21  1  0.53998414  0.43505787  0.86536323  1
  O  O22  1  0.51228420  0.22515002  0.98316171  1
  O  O23  1  0.99836805  0.54075952  0.05259851  1
  O  O24  1  0.78122298  0.99297638  0.57462185  1
  O  O25  1  0.86249993  0.26722596  0.47864233  1
  O  O26  1  0.74290290  0.92379668  0.81258648  1
  O  O27  1  0.97061423  0.45919859  0.32132044  1
  O  O28  1  0.86476285  0.76472902  0.61583486  1
  O  O29  1  0.99836805  0.45924048  0.55259851  1
  O  O30  1  0.86249993  0.73277404  0.97864233  1
  O  O31  1  0.97061423  0.54080141  0.82132044  1
  P  P32  1  0.39331262  0.14799160  0.11834887  1
  P  P33  1  0.44816405  0.70510128  0.37175441  1
  P  P34  1  0.39331262  0.85200840  0.61834887  1
  P  P35  1  0.49830364  0.46718452  0.49072540  1
  P  P36  1  0.74238082  0.11729344  0.17568297  1
  P  P37  1  0.44816405  0.29489872  0.87175441  1
  P  P38  1  0.49830364  0.53281548  0.99072540  1
  P  P39  1  0.74238082  0.88270656  0.67568297  1
  P  P40  1  0.88633557  0.41200009  0.46711257  1
  P  P41  1  0.88633557  0.58799991  0.96711257  1
  Sb  Sb42  1  0.07779826  0.37101934  0.12802340  1
  Sb  Sb43  1  0.07779826  0.62898066  0.62802340  1
  Sb  Sb44  1  0.62240494  0.85881778  0.01800999  1
  Sb  Sb45  1  0.62240494  0.14118222  0.51800999  1
