# generated using pymatgen
data_LiSn2(PO4)3
_symmetry_space_group_name_H-M   'P 1'
_cell_length_a   8.61477199
_cell_length_b   12.30981296
_cell_length_c   8.80473234
_cell_angle_alpha   90.00000000
_cell_angle_beta   90.00000000
_cell_angle_gamma   89.22832994
_symmetry_Int_Tables_number   1
_chemical_formula_structural   LiSn2(PO4)3
_chemical_formula_sum   'Li4 Sn8 P12 O48'
_cell_volume   933.62400573
_cell_formula_units_Z   4
loop_
 _symmetry_equiv_pos_site_id
 _symmetry_equiv_pos_as_xyz
  1  'x, y, z'
loop_
 _atom_site_type_symbol
 _atom_site_label
 _atom_site_symmetry_multiplicity
 _atom_site_fract_x
 _atom_site_fract_y
 _atom_site_fract_z
 _atom_site_occupancy
  Li  Li0  1  0.07455889  0.69675196  0.09603218  1
  Li  Li1  1  0.42544111  0.80324804  0.59603218  1
  Li  Li2  1  0.57455889  0.19675196  0.40396782  1
  Li  Li3  1  0.92544111  0.30324804  0.90396782  1
  O  O4  1  0.04766120  0.43427569  0.87420365  1
  O  O5  1  0.05580614  0.18075726  0.57828455  1
  O  O6  1  0.06431385  0.88741295  0.88962296  1
  O  O7  1  0.06366630  0.59447148  0.68754297  1
  O  O8  1  0.08929113  0.58206774  0.36427967  1
  O  O9  1  0.12057467  0.24819706  0.00503987  1
  O  O10  1  0.13362298  0.82497199  0.21247571  1
  O  O11  1  0.14630283  0.96843319  0.41638721  1
  O  O12  1  0.15648990  0.18190412  0.27344325  1
  O  O13  1  0.18567620  0.44500159  0.17515288  1
  O  O14  1  0.21670658  0.05685307  0.05332456  1
  O  O15  1  0.22479956  0.77615185  0.48317749  1
  O  O16  1  0.27520044  0.72384815  0.98317749  1
  O  O17  1  0.28329342  0.44314693  0.55332456  1
  O  O18  1  0.31432380  0.05499841  0.67515288  1
  O  O19  1  0.34351010  0.31809588  0.77344325  1
  O  O20  1  0.35369717  0.53156681  0.91638721  1
  O  O21  1  0.36637702  0.67502801  0.71247571  1
  O  O22  1  0.37942533  0.25180294  0.50503987  1
  O  O23  1  0.41070887  0.91793226  0.86427967  1
  O  O24  1  0.43633370  0.90552852  0.18754297  1
  O  O25  1  0.43568615  0.61258705  0.38962296  1
  O  O26  1  0.44419386  0.31924274  0.07828455  1
  O  O27  1  0.45233880  0.06572431  0.37420365  1
  O  O28  1  0.54766120  0.93427569  0.62579635  1
  O  O29  1  0.55580614  0.68075726  0.92171545  1
  O  O30  1  0.56431385  0.38741295  0.61037704  1
  O  O31  1  0.56366630  0.09447148  0.81245703  1
  O  O32  1  0.58929113  0.08206774  0.13572033  1
  O  O33  1  0.62057467  0.74819706  0.49496013  1
  O  O34  1  0.63362298  0.32497199  0.28752429  1
  O  O35  1  0.64630283  0.46843319  0.08361279  1
  O  O36  1  0.65648990  0.68190412  0.22655675  1
  O  O37  1  0.68567620  0.94500159  0.32484712  1
  O  O38  1  0.71670658  0.55685307  0.44667544  1
  O  O39  1  0.72479956  0.27615185  0.01682251  1
  O  O40  1  0.77520044  0.22384815  0.51682251  1
  O  O41  1  0.78329342  0.94314693  0.94667544  1
  O  O42  1  0.81432380  0.55499841  0.82484712  1
  O  O43  1  0.84351010  0.81809588  0.72655675  1
  O  O44  1  0.85369717  0.03156681  0.58361279  1
  O  O45  1  0.86637702  0.17502801  0.78752429  1
  O  O46  1  0.87942533  0.75180294  0.99496013  1
  O  O47  1  0.91070887  0.41793226  0.63572033  1
  O  O48  1  0.93633370  0.40552852  0.31245703  1
  O  O49  1  0.93568615  0.11258705  0.11037704  1
  O  O50  1  0.94419386  0.81924274  0.42171545  1
  O  O51  1  0.95233880  0.56572431  0.12579635  1
  P  P52  1  0.03907644  0.49538656  0.24740578  1
  P  P53  1  0.10750693  0.14768931  0.11218744  1
  P  P54  1  0.11293464  0.84911815  0.38608827  1
  P  P55  1  0.38706536  0.65088185  0.88608827  1
  P  P56  1  0.39249307  0.35231069  0.61218744  1
  P  P57  1  0.46092356  0.00461344  0.74740578  1
  P  P58  1  0.53907644  0.99538656  0.25259422  1
  P  P59  1  0.60750693  0.64768931  0.38781256  1
  P  P60  1  0.61293464  0.34911815  0.11391173  1
  P  P61  1  0.88706536  0.15088185  0.61391173  1
  P  P62  1  0.89249307  0.85231069  0.88781256  1
  P  P63  1  0.96092356  0.50461344  0.75259422  1
  Sn  Sn64  1  0.24413860  0.60584257  0.53244088  1
  Sn  Sn65  1  0.24199402  0.11556294  0.46967649  1
  Sn  Sn66  1  0.25586140  0.89415743  0.03244088  1
  Sn  Sn67  1  0.25800598  0.38443706  0.96967649  1
  Sn  Sn68  1  0.74199402  0.61556294  0.03032351  1
  Sn  Sn69  1  0.74413860  0.10584257  0.96755912  1
  Sn  Sn70  1  0.75800598  0.88443706  0.53032351  1
  Sn  Sn71  1  0.75586140  0.39415743  0.46755912  1
