# generated using pymatgen
data_VPO5
_symmetry_space_group_name_H-M   'P 1'
_cell_length_a   7.01504578
_cell_length_b   7.72712453
_cell_length_c   7.57874842
_cell_angle_alpha   90.81754262
_cell_angle_beta   90.12063457
_cell_angle_gamma   119.71425569
_symmetry_Int_Tables_number   1
_chemical_formula_structural   VPO5
_chemical_formula_sum   'V4 P4 O20'
_cell_volume   356.73964292
_cell_formula_units_Z   4
loop_
 _symmetry_equiv_pos_site_id
 _symmetry_equiv_pos_as_xyz
  1  'x, y, z'
loop_
 _atom_site_type_symbol
 _atom_site_label
 _atom_site_symmetry_multiplicity
 _atom_site_fract_x
 _atom_site_fract_y
 _atom_site_fract_z
 _atom_site_occupancy
  O  O0  1  0.17220345  0.88185390  0.97717185  1
  O  O1  1  0.06404879  0.64372301  0.22900355  1
  O  O2  1  0.22815304  0.72604967  0.65515530  1
  O  O3  1  0.27507884  0.60813401  0.97340383  1
  O  O4  1  0.21191673  0.39166627  0.51601475  1
  O  O5  1  0.45631135  0.89714619  0.19171033  1
  O  O6  1  0.05390051  0.10394469  0.29747304  1
  O  O7  1  0.25874068  0.24383339  0.84661479  1
  O  O8  1  0.68126669  0.87932328  0.46788599  1
  O  O9  1  0.44783778  0.36152388  0.27993261  1
  O  O10  1  0.55216205  0.63847664  0.72006723  1
  O  O11  1  0.31873304  0.12067635  0.53211354  1
  O  O12  1  0.74125947  0.75616571  0.15338469  1
  O  O13  1  0.94609932  0.89605561  0.70252674  1
  O  O14  1  0.82779656  0.11814606  0.02282813  1
  O  O15  1  0.78808292  0.60833341  0.48398521  1
  O  O16  1  0.72492069  0.39186574  0.02659625  1
  O  O17  1  0.77184662  0.27395118  0.34484461  1
  O  O18  1  0.93595106  0.35627709  0.77099668  1
  O  O19  1  0.54368883  0.10285347  0.80828914  1
  P  P20  1  0.24046495  0.75737807  0.09081428  1
  P  P21  1  0.25685887  0.24480623  0.40840845  1
  P  P22  1  0.74314068  0.75519383  0.59159146  1
  P  P23  1  0.75953488  0.24262165  0.90918552  1
  V  V24  1  0.24267334  0.53834799  0.73027089  1
  V  V25  1  0.24947890  0.04341007  0.77043487  1
  V  V26  1  0.75052138  0.95658986  0.22956451  1
  V  V27  1  0.75732636  0.46165163  0.26972932  1
