# generated using pymatgen
data_V5(PbO6)2
_symmetry_space_group_name_H-M   'P 1'
_cell_length_a   5.34458743
_cell_length_b   8.46581575
_cell_length_c   12.05114555
_cell_angle_alpha   98.80250361
_cell_angle_beta   90.00000000
_cell_angle_gamma   90.00000000
_symmetry_Int_Tables_number   1
_chemical_formula_structural   V5(PbO6)2
_chemical_formula_sum   'V10 Pb4 O24'
_cell_volume   538.84730387
_cell_formula_units_Z   2
loop_
 _symmetry_equiv_pos_site_id
 _symmetry_equiv_pos_as_xyz
  1  'x, y, z'
loop_
 _atom_site_type_symbol
 _atom_site_label
 _atom_site_symmetry_multiplicity
 _atom_site_fract_x
 _atom_site_fract_y
 _atom_site_fract_z
 _atom_site_occupancy
  O  O0  1  0.41738590  0.99999997  0.25000038  1
  O  O1  1  0.58261345  0.99999989  0.75000029  1
  O  O2  1  0.05882043  0.49999963  0.75000037  1
  O  O3  1  0.94117892  0.49999970  0.24999962  1
  O  O4  1  0.02275489  0.93865270  0.89444585  1
  O  O5  1  0.02275489  0.06134776  0.60555418  1
  O  O6  1  0.97724632  0.06134783  0.10555427  1
  O  O7  1  0.97724632  0.93865277  0.39444594  1
  O  O8  1  0.58499746  0.45414962  0.86262265  1
  O  O9  1  0.58499746  0.54585084  0.63737737  1
  O  O10  1  0.41500189  0.54585091  0.13737746  1
  O  O11  1  0.41500189  0.45414969  0.36262274  1
  O  O12  1  0.01371115  0.78728823  0.67031710  1
  O  O13  1  0.01371115  0.21271223  0.82968293  1
  O  O14  1  0.42851046  0.82649644  0.50682843  1
  O  O15  1  0.42851046  0.17350402  0.99317160  1
  O  O16  1  0.57148889  0.17350409  0.49317169  1
  O  O17  1  0.57148889  0.82649651  0.00682851  1
  O  O18  1  0.96417019  0.63562981  0.46944680  1
  O  O19  1  0.98628820  0.21271230  0.32968301  1
  O  O20  1  0.03583102  0.36437071  0.53055331  1
  O  O21  1  0.03583102  0.63562974  0.96944671  1
  O  O22  1  0.98628820  0.78728830  0.17031719  1
  O  O23  1  0.96417019  0.36436958  0.03055328  1
  V  V24  1  0.87837120  0.84677733  0.02456991  1
  V  V25  1  0.87837120  0.15322327  0.47543030  1
  V  V26  1  0.12162815  0.15322320  0.97543021  1
  V  V27  1  0.12162815  0.84677726  0.52456982  1
  V  V28  1  0.10659809  0.56411914  0.11767878  1
  V  V29  1  0.10659809  0.43588026  0.38232130  1
  V  V30  1  0.89340126  0.43588019  0.88232121  1
  V  V31  1  0.89302454  0.99999989  0.75000029  1
  V  V32  1  0.10697667  0.99999997  0.25000038  1
  V  V33  1  0.89340126  0.56411906  0.61767869  1
  Pb  Pb34  1  0.35074920  0.71896453  0.82208814  1
  Pb  Pb35  1  0.35074920  0.28103593  0.67791189  1
  Pb  Pb36  1  0.64925015  0.28103600  0.17791197  1
  Pb  Pb37  1  0.64925015  0.71896460  0.32208823  1
