# generated using pymatgen
data_VH20S2(NO7)2
_symmetry_space_group_name_H-M   'P 1'
_cell_length_a   6.33923113
_cell_length_b   9.38330392
_cell_length_c   12.68560191
_cell_angle_alpha   90.00000000
_cell_angle_beta   90.00000000
_cell_angle_gamma   107.08137487
_symmetry_Int_Tables_number   1
_chemical_formula_structural   VH20S2(NO7)2
_chemical_formula_sum   'V2 H40 S4 N4 O28'
_cell_volume   721.29132093
_cell_formula_units_Z   2
loop_
 _symmetry_equiv_pos_site_id
 _symmetry_equiv_pos_as_xyz
  1  'x, y, z'
loop_
 _atom_site_type_symbol
 _atom_site_label
 _atom_site_symmetry_multiplicity
 _atom_site_fract_x
 _atom_site_fract_y
 _atom_site_fract_z
 _atom_site_occupancy
  H  H0  1  0.33046748  0.52198284  0.64897126  1
  H  H1  1  0.66953352  0.97801762  0.14897164  1
  H  H2  1  0.66953354  0.47801753  0.35102876  1
  H  H3  1  0.33046593  0.02198275  0.85102838  1
  H  H4  1  0.34107634  0.39761362  0.56608263  1
  H  H5  1  0.65892470  0.10238665  0.06608222  1
  H  H6  1  0.65892468  0.60238675  0.43391740  1
  H  H7  1  0.34107632  0.89761371  0.93391780  1
  H  H8  1  0.99390798  0.35567072  0.30911176  1
  H  H9  1  0.00609257  0.14432843  0.80911217  1
  H  H10  1  0.00609255  0.64432853  0.69088827  1
  H  H11  1  0.99390796  0.85567081  0.19088786  1
  H  H12  1  0.93749397  0.23000675  0.39692256  1
  H  H13  1  0.06250708  0.26999352  0.89692297  1
  H  H14  1  0.06250706  0.76999361  0.60307668  1
  H  H15  1  0.93749395  0.73000685  0.10307706  1
  H  H16  1  0.10314386  0.75522671  0.37803044  1
  H  H17  1  0.89685715  0.74477375  0.87803085  1
  H  H18  1  0.89685717  0.24477366  0.62196880  1
  H  H19  1  0.80139806  0.43495195  0.82935140  1
  H  H20  1  0.33116957  0.72595037  0.41095934  1
  H  H21  1  0.66883095  0.77404898  0.91095975  1
  H  H22  1  0.66883097  0.27404888  0.58904069  1
  H  H23  1  0.33116959  0.22595027  0.08904028  1
  H  H24  1  0.36839532  0.66361242  0.07604152  1
  H  H25  1  0.63160412  0.83638805  0.57604193  1
  H  H26  1  0.63160414  0.33638796  0.92395850  1
  H  H27  1  0.36839534  0.16361232  0.42395809  1
  H  H28  1  0.46287702  0.56721772  0.16984532  1
  H  H29  1  0.53712349  0.93278162  0.66984573  1
  H  H30  1  0.53712351  0.43278153  0.83015470  1
  H  H31  1  0.46287704  0.06721762  0.33015430  1
  H  H32  1  0.40189163  0.72460171  0.20322619  1
  H  H33  1  0.59810731  0.77539763  0.70322580  1
  H  H34  1  0.59810782  0.27539866  0.79677384  1
  H  H35  1  0.40189165  0.22460162  0.29677422  1
  H  H36  1  0.19860297  0.56504841  0.17064863  1
  H  H37  1  0.80139804  0.93495205  0.67064825  1
  H  H38  1  0.19860299  0.06504832  0.32935178  1
  H  H39  1  0.10314388  0.25522662  0.12196918  1
  N  N40  1  0.35789331  0.63131474  0.15519356  1
  N  N41  1  0.64210720  0.86868460  0.65519397  1
  N  N42  1  0.64210722  0.36868450  0.84480646  1
  N  N43  1  0.35789225  0.13131578  0.34480605  1
  O  O44  1  0.30371954  0.49235119  0.57396279  1
  O  O45  1  0.69628150  0.00764908  0.07396317  1
  O  O46  1  0.69628148  0.50764918  0.42603724  1
  O  O47  1  0.30371952  0.99235129  0.92603686  1
  O  O48  1  0.02592761  0.33495743  0.38310424  1
  O  O49  1  0.97407137  0.16504173  0.88310386  1
  O  O50  1  0.97407135  0.66504183  0.61689578  1
  O  O51  1  0.02592759  0.83495752  0.11689617  1
  O  O52  1  0.17460019  0.67694131  0.39246867  1
  O  O53  1  0.82539924  0.82305916  0.89246829  1
  O  O54  1  0.82539926  0.32305906  0.60753135  1
  O  O55  1  0.17460021  0.17694122  0.10753173  1
  O  O56  1  0.94960930  0.88528153  0.32500783  1
  O  O57  1  0.05039014  0.61471894  0.82500824  1
  O  O58  1  0.05039016  0.11471885  0.67499219  1
  O  O59  1  0.94960932  0.38528143  0.17499178  1
  O  O60  1  0.62366914  0.78345873  0.43723791  1
  O  O61  1  0.37633030  0.71654174  0.93723832  1
  O  O62  1  0.37633032  0.21654165  0.56276212  1
  O  O63  1  0.62366916  0.28345863  0.06276171  1
  O  O64  1  0.78684688  0.05151135  0.42366635  1
  O  O65  1  0.21315368  0.44848780  0.92366676  1
  O  O66  1  0.21315366  0.94848789  0.57633367  1
  O  O67  1  0.78684686  0.55151145  0.07633326  1
  O  O68  1  0.58844060  0.91039690  0.27426231  1
  O  O69  1  0.41155991  0.58960244  0.77426271  1
  O  O70  1  0.41155993  0.08960235  0.72573772  1
  O  O71  1  0.58844062  0.41039680  0.22573731  1
  S  S72  1  0.74010322  0.90958042  0.36528070  1
  S  S73  1  0.25989778  0.59042004  0.86528111  1
  S  S74  1  0.25989780  0.09041995  0.63471932  1
  S  S75  1  0.74010324  0.40958033  0.13471891  1
  V  V76  1  0.99999998  0.50000009  0.49999962  1
  V  V77  1  0.00000000  0.00000000  0.00000000  1
