# generated using pymatgen
data_Sr5(Br4Cl)2
_symmetry_space_group_name_H-M   'P 1'
_cell_length_a   7.15836656
_cell_length_b   11.60124086
_cell_length_c   11.60124086
_cell_angle_alpha   90.00000000
_cell_angle_beta   90.00000000
_cell_angle_gamma   90.00000000
_symmetry_Int_Tables_number   1
_chemical_formula_structural   Sr5(Br4Cl)2
_chemical_formula_sum   'Sr10 Br16 Cl4'
_cell_volume   963.43589005
_cell_formula_units_Z   2
loop_
 _symmetry_equiv_pos_site_id
 _symmetry_equiv_pos_as_xyz
  1  'x, y, z'
loop_
 _atom_site_type_symbol
 _atom_site_label
 _atom_site_symmetry_multiplicity
 _atom_site_fract_x
 _atom_site_fract_y
 _atom_site_fract_z
 _atom_site_occupancy
  Cl  Cl0  1  0.50000000  0.75000000  0.25000000  1
  Cl  Cl1  1  0.50000000  0.25000000  0.75000000  1
  Cl  Cl2  1  0.00000000  0.75000000  0.25000000  1
  Cl  Cl3  1  0.00000000  0.25000000  0.75000000  1
  Br  Br4  1  0.90184134  0.83938231  0.95921530  1
  Br  Br5  1  0.90184134  0.54078470  0.83938231  1
  Br  Br6  1  0.90184134  0.95921530  0.66061769  1
  Br  Br7  1  0.90184134  0.66061769  0.54078470  1
  Br  Br8  1  0.09815866  0.16061769  0.04078470  1
  Br  Br9  1  0.09815866  0.45921530  0.16061769  1
  Br  Br10  1  0.62293933  0.15308228  0.46242900  1
  Br  Br11  1  0.62293933  0.03757100  0.15308228  1
  Br  Br12  1  0.62293933  0.46242900  0.34691772  1
  Br  Br13  1  0.62293933  0.34691772  0.03757100  1
  Br  Br14  1  0.37706067  0.84691772  0.53757100  1
  Br  Br15  1  0.37706067  0.96242900  0.84691772  1
  Br  Br16  1  0.37706067  0.53757100  0.65308228  1
  Br  Br17  1  0.37706067  0.65308228  0.96242900  1
  Br  Br18  1  0.09815866  0.33938231  0.45921530  1
  Br  Br19  1  0.09815866  0.04078470  0.33938231  1
  Sr  Sr20  1  0.15000758  0.75000000  0.75000000  1
  Sr  Sr21  1  0.84999242  0.25000000  0.25000000  1
  Sr  Sr22  1  0.75175285  0.60947723  0.09321905  1
  Sr  Sr23  1  0.75175285  0.40678095  0.60947723  1
  Sr  Sr24  1  0.75175285  0.09321905  0.89052277  1
  Sr  Sr25  1  0.75175285  0.89052277  0.40678095  1
  Sr  Sr26  1  0.24824715  0.39052277  0.90678095  1
  Sr  Sr27  1  0.24824715  0.59321905  0.39052277  1
  Sr  Sr28  1  0.24824715  0.90678095  0.10947723  1
  Sr  Sr29  1  0.24824715  0.10947723  0.59321905  1
