# generated using pymatgen
data_LiSnPO4
_symmetry_space_group_name_H-M   'P 1'
_cell_length_a   8.28783481
_cell_length_b   18.72252111
_cell_length_c   5.01330334
_cell_angle_alpha   90.00000000
_cell_angle_beta   90.00000000
_cell_angle_gamma   90.00000000
_symmetry_Int_Tables_number   1
_chemical_formula_structural   LiSnPO4
_chemical_formula_sum   'Li8 Sn8 P8 O32'
_cell_volume   777.91007905
_cell_formula_units_Z   8
loop_
 _symmetry_equiv_pos_site_id
 _symmetry_equiv_pos_as_xyz
  1  'x, y, z'
loop_
 _atom_site_type_symbol
 _atom_site_label
 _atom_site_symmetry_multiplicity
 _atom_site_fract_x
 _atom_site_fract_y
 _atom_site_fract_z
 _atom_site_occupancy
  Li  Li0  1  0.01119559  0.94386989  0.94713354  1
  Li  Li1  1  0.17433078  0.34613152  0.43834356  1
  Li  Li2  1  0.32566922  0.84613152  0.93834356  1
  Li  Li3  1  0.48880441  0.44386989  0.44713354  1
  Li  Li4  1  0.51119559  0.55613011  0.94713354  1
  Li  Li5  1  0.67433078  0.15386848  0.43834356  1
  Li  Li6  1  0.82566922  0.65386848  0.93834356  1
  Li  Li7  1  0.98880441  0.05613011  0.44713354  1
  O  O8  1  0.05509388  0.64166063  0.81442968  1
  O  O9  1  0.09724995  0.96966250  0.30562474  1
  O  O10  1  0.10202118  0.47073347  0.87617244  1
  O  O11  1  0.14476773  0.13249693  0.38584397  1
  O  O12  1  0.17982162  0.68810883  0.24928896  1
  O  O13  1  0.21335528  0.92250948  0.74613191  1
  O  O14  1  0.22200884  0.75496279  0.81408680  1
  O  O15  1  0.25294913  0.85180251  0.31979576  1
  O  O16  1  0.24705087  0.35180251  0.81979576  1
  O  O17  1  0.27799116  0.25496279  0.31408680  1
  O  O18  1  0.28664472  0.42250948  0.24613191  1
  O  O19  1  0.32017838  0.18810883  0.74928896  1
  O  O20  1  0.35523227  0.63249693  0.88584397  1
  O  O21  1  0.39797882  0.97073347  0.37617244  1
  O  O22  1  0.40275005  0.46966250  0.80562474  1
  O  O23  1  0.44490612  0.14166063  0.31442968  1
  O  O24  1  0.55509388  0.85833937  0.81442968  1
  O  O25  1  0.59724995  0.53033750  0.30562474  1
  O  O26  1  0.60202118  0.02926653  0.87617244  1
  O  O27  1  0.64476773  0.36750307  0.38584397  1
  O  O28  1  0.67982162  0.81189117  0.24928896  1
  O  O29  1  0.71335528  0.57749052  0.74613191  1
  O  O30  1  0.72200884  0.74503721  0.81408680  1
  O  O31  1  0.75294913  0.64819749  0.31979576  1
  O  O32  1  0.74705087  0.14819749  0.81979576  1
  O  O33  1  0.77799116  0.24503721  0.31408680  1
  O  O34  1  0.78664472  0.07749052  0.24613191  1
  O  O35  1  0.82017838  0.31189117  0.74928896  1
  O  O36  1  0.85523227  0.86750307  0.88584397  1
  O  O37  1  0.89797882  0.52926653  0.37617244  1
  O  O38  1  0.90275005  0.03033750  0.80562474  1
  O  O39  1  0.94490612  0.35833937  0.31442968  1
  P  P40  1  0.20750980  0.67863250  0.94407791  1
  P  P41  1  0.23537818  0.92897570  0.44298748  1
  P  P42  1  0.26462182  0.42897570  0.94298748  1
  P  P43  1  0.29249020  0.17863250  0.44407791  1
  P  P44  1  0.70750980  0.82136750  0.94407791  1
  P  P45  1  0.73537818  0.57102430  0.44298748  1
  P  P46  1  0.76462182  0.07102430  0.94298748  1
  P  P47  1  0.79249020  0.32136750  0.44407791  1
  Sn  Sn48  1  0.06140087  0.77609325  0.46708174  1
  Sn  Sn49  1  0.15933825  0.55511907  0.54017152  1
  Sn  Sn50  1  0.34066175  0.05511907  0.04017152  1
  Sn  Sn51  1  0.43859913  0.27609325  0.96708174  1
  Sn  Sn52  1  0.56140087  0.72390675  0.46708174  1
  Sn  Sn53  1  0.65933825  0.94488093  0.54017152  1
  Sn  Sn54  1  0.84066175  0.44488093  0.04017152  1
  Sn  Sn55  1  0.93859913  0.22390675  0.96708174  1
