# generated using pymatgen
data_Tl3FeCl5
_symmetry_space_group_name_H-M   'P 1'
_cell_length_a   8.53448690
_cell_length_b   8.53448690
_cell_length_c   9.59613921
_cell_angle_alpha   116.40308223
_cell_angle_beta   116.40308216
_cell_angle_gamma   90.00000003
_symmetry_Int_Tables_number   1
_chemical_formula_structural   Tl3FeCl5
_chemical_formula_sum   'Tl6 Fe2 Cl10'
_cell_volume   543.44342992
_cell_formula_units_Z   2
loop_
 _symmetry_equiv_pos_site_id
 _symmetry_equiv_pos_as_xyz
  1  'x, y, z'
loop_
 _atom_site_type_symbol
 _atom_site_label
 _atom_site_symmetry_multiplicity
 _atom_site_fract_x
 _atom_site_fract_y
 _atom_site_fract_z
 _atom_site_occupancy
  Cl  Cl0  1  0.50000000  0.50000000  0.00000000  1
  Cl  Cl1  1  0.00000000  0.00000000  0.00000000  1
  Cl  Cl2  1  0.00575409  0.50575409  0.30980544  1
  Cl  Cl3  1  0.69594865  0.19594865  0.69019456  1
  Cl  Cl4  1  0.99424591  0.49424591  0.69019456  1
  Cl  Cl5  1  0.19594865  0.99424591  0.69019456  1
  Cl  Cl6  1  0.49424591  0.69594865  0.69019456  1
  Cl  Cl7  1  0.80405135  0.00575409  0.30980544  1
  Cl  Cl8  1  0.30405135  0.80405135  0.30980544  1
  Cl  Cl9  1  0.50575409  0.30405135  0.30980544  1
  Fe  Fe10  1  0.75000000  0.25000000  0.50000000  1
  Fe  Fe11  1  0.25000000  0.75000000  0.50000000  1
  Tl  Tl12  1  0.75000000  0.75000000  0.50000000  1
  Tl  Tl13  1  0.25000000  0.25000000  0.50000000  1
  Tl  Tl14  1  0.33545517  0.83545517  0.00000000  1
  Tl  Tl15  1  0.16454483  0.33545517  0.00000000  1
  Tl  Tl16  1  0.83545517  0.66454483  0.00000000  1
  Tl  Tl17  1  0.66454483  0.16454483  0.00000000  1
