# generated using pymatgen
data_SnPCl9
_symmetry_space_group_name_H-M   'P 1'
_cell_length_a   7.41626014
_cell_length_b   9.35947482
_cell_length_c   10.00198485
_cell_angle_alpha   101.10310881
_cell_angle_beta   96.57778854
_cell_angle_gamma   95.16408642
_symmetry_Int_Tables_number   1
_chemical_formula_structural   SnPCl9
_chemical_formula_sum   'Sn2 P2 Cl18'
_cell_volume   672.29396075
_cell_formula_units_Z   2
loop_
 _symmetry_equiv_pos_site_id
 _symmetry_equiv_pos_as_xyz
  1  'x, y, z'
loop_
 _atom_site_type_symbol
 _atom_site_label
 _atom_site_symmetry_multiplicity
 _atom_site_fract_x
 _atom_site_fract_y
 _atom_site_fract_z
 _atom_site_occupancy
  P  P0  1  0.04957913  0.19361199  0.77819244  1
  P  P1  1  0.95042087  0.80638801  0.22180756  1
  Cl  Cl2  1  0.37602290  0.57448913  0.21770978  1
  Cl  Cl3  1  0.62397710  0.42551087  0.78229022  1
  Cl  Cl4  1  0.42065555  0.16220554  0.44208027  1
  Cl  Cl5  1  0.57934445  0.83779446  0.55791973  1
  Cl  Cl6  1  0.06792889  0.28198901  0.24395064  1
  Cl  Cl7  1  0.93207111  0.71801099  0.75604936  1
  Cl  Cl8  1  0.51973279  0.22898307  0.12807181  1
  Cl  Cl9  1  0.48026721  0.77101693  0.87192819  1
  Cl  Cl10  1  0.29197995  0.51862653  0.54840959  1
  Cl  Cl11  1  0.70802005  0.48137347  0.45159041  1
  Cl  Cl12  1  0.84528619  0.61284168  0.11837106  1
  Cl  Cl13  1  0.15471381  0.38715832  0.88162894  1
  Cl  Cl14  1  0.94702127  0.20603315  0.59260967  1
  Cl  Cl15  1  0.05297873  0.79396685  0.40739033  1
  Cl  Cl16  1  0.24081422  0.06174902  0.76872469  1
  Cl  Cl17  1  0.75918578  0.93825098  0.23127531  1
  Cl  Cl18  1  0.85598611  0.11554352  0.87109635  1
  Cl  Cl19  1  0.14401389  0.88445648  0.12890365  1
  Sn  Sn20  1  0.61071313  0.63897145  0.67857088  1
  Sn  Sn21  1  0.38928687  0.36102855  0.32142912  1
