# generated using pymatgen
data_Te2AuI
_symmetry_space_group_name_H-M   'P 1'
_cell_length_a   4.14020047
_cell_length_b   4.82563827
_cell_length_c   12.97854945
_cell_angle_alpha   90.00000000
_cell_angle_beta   90.00000000
_cell_angle_gamma   90.00000000
_symmetry_Int_Tables_number   1
_chemical_formula_structural   Te2AuI
_chemical_formula_sum   'Te4 Au2 I2'
_cell_volume   259.29986494
_cell_formula_units_Z   2
loop_
 _symmetry_equiv_pos_site_id
 _symmetry_equiv_pos_as_xyz
  1  'x, y, z'
loop_
 _atom_site_type_symbol
 _atom_site_label
 _atom_site_symmetry_multiplicity
 _atom_site_fract_x
 _atom_site_fract_y
 _atom_site_fract_z
 _atom_site_occupancy
  Te  Te0  1  0.50000000  0.19667501  0.58015987  1
  Te  Te1  1  0.50000000  0.80332499  0.41984013  1
  Te  Te2  1  0.50000000  0.19667501  0.91984013  1
  Te  Te3  1  0.50000000  0.80332499  0.08015987  1
  I  I4  1  0.00000000  0.26497565  0.25000000  1
  I  I5  1  0.00000000  0.73502435  0.75000000  1
  Au  Au6  1  0.00000000  0.50000000  0.50000000  1
  Au  Au7  1  0.00000000  0.50000000  0.00000000  1
