# generated using pymatgen
data_In4Bi2S9
_symmetry_space_group_name_H-M   'P 1'
_cell_length_a   3.97783772
_cell_length_b   11.32089429
_cell_length_c   16.53421495
_cell_angle_alpha   94.23048437
_cell_angle_beta   90.00000000
_cell_angle_gamma   90.00000000
_symmetry_Int_Tables_number   1
_chemical_formula_structural   In4Bi2S9
_chemical_formula_sum   'In8 Bi4 S18'
_cell_volume   742.55131041
_cell_formula_units_Z   2
loop_
 _symmetry_equiv_pos_site_id
 _symmetry_equiv_pos_as_xyz
  1  'x, y, z'
loop_
 _atom_site_type_symbol
 _atom_site_label
 _atom_site_symmetry_multiplicity
 _atom_site_fract_x
 _atom_site_fract_y
 _atom_site_fract_z
 _atom_site_occupancy
  In  In0  1  0.25000000  0.50649842  0.40485544  1
  In  In1  1  0.25000000  0.73420589  0.08058642  1
  In  In2  1  0.75000000  0.49350158  0.59514456  1
  In  In3  1  0.75000000  0.26579411  0.91941358  1
  In  In4  1  0.75000000  0.48981097  0.21215895  1
  In  In5  1  0.25000000  0.14156670  0.68385628  1
  In  In6  1  0.75000000  0.85843330  0.31614372  1
  In  In7  1  0.25000000  0.51018903  0.78784105  1
  Bi  Bi8  1  0.75000000  0.86841214  0.57486746  1
  Bi  Bi9  1  0.25000000  0.10413148  0.09789795  1
  Bi  Bi10  1  0.25000000  0.13158786  0.42513254  1
  Bi  Bi11  1  0.75000000  0.89586852  0.90210205  1
  S  S12  1  0.25000000  0.62623008  0.54505034  1
  S  S13  1  0.25000000  0.90714044  0.68429090  1
  S  S14  1  0.75000000  0.37376992  0.45494966  1
  S  S15  1  0.75000000  0.58774315  0.08350234  1
  S  S16  1  0.75000000  0.10174623  0.56586962  1
  S  S17  1  0.75000000  0.91299256  0.05954727  1
  S  S18  1  0.75000000  0.63314353  0.34145087  1
  S  S19  1  0.75000000  0.14656872  0.78248132  1
  S  S20  1  0.25000000  0.37908831  0.25811420  1
  S  S21  1  0.25000000  0.41225685  0.91649766  1
  S  S22  1  0.25000000  0.85343128  0.21751868  1
  S  S23  1  0.25000000  0.08700744  0.94045273  1
  S  S24  1  0.25000000  0.73420966  0.92211309  1
  S  S25  1  0.75000000  0.62091169  0.74188580  1
  S  S26  1  0.75000000  0.09285956  0.31570910  1
  S  S27  1  0.25000000  0.36685647  0.65854913  1
  S  S28  1  0.25000000  0.89825377  0.43413038  1
  S  S29  1  0.75000000  0.26579034  0.07788691  1
