# generated using pymatgen
data_Re4Cl8O9
_symmetry_space_group_name_H-M   'P 1'
_cell_length_a   6.43301026
_cell_length_b   6.58095026
_cell_length_c   13.01484103
_cell_angle_alpha   78.34676195
_cell_angle_beta   88.49857887
_cell_angle_gamma   83.75776775
_symmetry_Int_Tables_number   1
_chemical_formula_structural   Re4Cl8O9
_chemical_formula_sum   'Re4 Cl8 O9'
_cell_volume   536.42600042
_cell_formula_units_Z   1
loop_
 _symmetry_equiv_pos_site_id
 _symmetry_equiv_pos_as_xyz
  1  'x, y, z'
loop_
 _atom_site_type_symbol
 _atom_site_label
 _atom_site_symmetry_multiplicity
 _atom_site_fract_x
 _atom_site_fract_y
 _atom_site_fract_z
 _atom_site_occupancy
  O  O0  1  0.50000000  0.00000000  0.50000000  1
  O  O1  1  0.19857996  0.54942484  0.14352830  1
  O  O2  1  0.80142004  0.45057516  0.85647170  1
  O  O3  1  0.60461235  0.38464474  0.10240546  1
  O  O4  1  0.60843602  0.79708937  0.71585785  1
  O  O5  1  0.80869562  0.69844305  0.46387827  1
  O  O6  1  0.19130438  0.30155695  0.53612173  1
  O  O7  1  0.39538765  0.61535526  0.89759454  1
  O  O8  1  0.39156398  0.20291063  0.28414215  1
  Cl  Cl9  1  0.23128426  0.11169549  0.06449059  1
  Cl  Cl10  1  0.15948800  0.82146939  0.63344477  1
  Cl  Cl11  1  0.84051200  0.17853061  0.36655523  1
  Cl  Cl12  1  0.63984711  0.25954276  0.64016075  1
  Cl  Cl13  1  0.75404561  0.86309483  0.22541795  1
  Cl  Cl14  1  0.24595439  0.13690517  0.77458205  1
  Cl  Cl15  1  0.76871574  0.88830451  0.93550941  1
  Cl  Cl16  1  0.36015289  0.74045724  0.35983925  1
  Re  Re17  1  0.64933437  0.89518900  0.39367787  1
  Re  Re18  1  0.35066563  0.10481100  0.60632213  1
  Re  Re19  1  0.36380281  0.32307676  0.15259939  1
  Re  Re20  1  0.63619719  0.67692324  0.84740061  1
