# generated using pymatgen
data_Tl2GeTe5
_symmetry_space_group_name_H-M   'P 1'
_cell_length_a   8.49613765
_cell_length_b   8.49613765
_cell_length_c   15.10032353
_cell_angle_alpha   90.00000000
_cell_angle_beta   90.00000000
_cell_angle_gamma   89.98727280
_symmetry_Int_Tables_number   1
_chemical_formula_structural   Tl2GeTe5
_chemical_formula_sum   'Tl8 Ge4 Te20'
_cell_volume   1090.00708754
_cell_formula_units_Z   4
loop_
 _symmetry_equiv_pos_site_id
 _symmetry_equiv_pos_as_xyz
  1  'x, y, z'
loop_
 _atom_site_type_symbol
 _atom_site_label
 _atom_site_symmetry_multiplicity
 _atom_site_fract_x
 _atom_site_fract_y
 _atom_site_fract_z
 _atom_site_occupancy
  Ge  Ge0  1  0.50000000  0.50000000  0.38162081  1
  Ge  Ge1  1  0.50000000  0.50000000  0.61837919  1
  Ge  Ge2  1  0.00000000  0.00000000  0.38157319  1
  Ge  Ge3  1  0.00000000  0.00000000  0.61842681  1
  Te  Te4  1  0.68658732  0.68658732  0.00000000  1
  Te  Te5  1  0.31341268  0.31341268  0.00000000  1
  Te  Te6  1  0.83289346  0.83289346  0.50000000  1
  Te  Te7  1  0.16710654  0.16710654  0.50000000  1
  Te  Te8  1  0.18667642  0.81332358  0.00000000  1
  Te  Te9  1  0.81332358  0.18667642  0.00000000  1
  Te  Te10  1  0.50000000  0.50000000  0.12801910  1
  Te  Te11  1  0.50000000  0.50000000  0.87198090  1
  Te  Te12  1  0.00000000  0.00000000  0.12799118  1
  Te  Te13  1  0.00000000  0.00000000  0.87200882  1
  Te  Te14  1  0.17809081  0.82190919  0.71991244  1
  Te  Te15  1  0.82190919  0.17809081  0.71991244  1
  Te  Te16  1  0.82190919  0.17809081  0.28008756  1
  Te  Te17  1  0.17809081  0.82190919  0.28008756  1
  Te  Te18  1  0.32195103  0.32195103  0.71983722  1
  Te  Te19  1  0.67804897  0.67804897  0.71983722  1
  Te  Te20  1  0.32195103  0.32195103  0.28016278  1
  Te  Te21  1  0.67804897  0.67804897  0.28016278  1
  Te  Te22  1  0.33282451  0.66717549  0.50000000  1
  Te  Te23  1  0.66717549  0.33282451  0.50000000  1
  Tl  Tl24  1  0.00000000  0.50000000  0.62087216  1
  Tl  Tl25  1  0.50000000  0.00000000  0.37912784  1
  Tl  Tl26  1  0.00000000  0.50000000  0.37912784  1
  Tl  Tl27  1  0.50000000  0.00000000  0.62087216  1
  Tl  Tl28  1  0.00000000  0.50000000  0.87763153  1
  Tl  Tl29  1  0.50000000  0.00000000  0.12236847  1
  Tl  Tl30  1  0.00000000  0.50000000  0.12236847  1
  Tl  Tl31  1  0.50000000  0.00000000  0.87763153  1
