# generated using pymatgen
data_Pd(PbCl3)2
_symmetry_space_group_name_H-M   'P 1'
_cell_length_a   6.53112453
_cell_length_b   8.17664301
_cell_length_c   9.20434469
_cell_angle_alpha   91.21586326
_cell_angle_beta   90.00000000
_cell_angle_gamma   90.00000000
_symmetry_Int_Tables_number   1
_chemical_formula_structural   Pd(PbCl3)2
_chemical_formula_sum   'Pd2 Pb4 Cl12'
_cell_volume   491.42594558
_cell_formula_units_Z   2
loop_
 _symmetry_equiv_pos_site_id
 _symmetry_equiv_pos_as_xyz
  1  'x, y, z'
loop_
 _atom_site_type_symbol
 _atom_site_label
 _atom_site_symmetry_multiplicity
 _atom_site_fract_x
 _atom_site_fract_y
 _atom_site_fract_z
 _atom_site_occupancy
  Cl  Cl0  1  0.35190200  0.83320317  0.43957808  1
  Cl  Cl1  1  0.85190200  0.66679683  0.56042192  1
  Cl  Cl2  1  0.64809800  0.16679683  0.56042192  1
  Cl  Cl3  1  0.14809800  0.33320317  0.43957808  1
  Cl  Cl4  1  0.29654821  0.85850040  0.05960188  1
  Cl  Cl5  1  0.79654821  0.64149960  0.94039812  1
  Cl  Cl6  1  0.62259812  0.47002734  0.23668501  1
  Cl  Cl7  1  0.12259812  0.02997266  0.76331499  1
  Cl  Cl8  1  0.37740188  0.52997266  0.76331499  1
  Cl  Cl9  1  0.87740188  0.97002734  0.23668501  1
  Cl  Cl10  1  0.20345179  0.35850040  0.05960188  1
  Cl  Cl11  1  0.70345179  0.14149960  0.94039812  1
  Pd  Pd12  1  0.50000000  0.50000000  0.00000000  1
  Pd  Pd13  1  0.00000000  0.00000000  0.00000000  1
  Pb  Pb14  1  0.04263686  0.62406400  0.28291516  1
  Pb  Pb15  1  0.54263686  0.87593600  0.71708484  1
  Pb  Pb16  1  0.95736314  0.37593600  0.71708484  1
  Pb  Pb17  1  0.45736314  0.12406400  0.28291516  1
