# generated using pymatgen
data_P4N3Cl11
_symmetry_space_group_name_H-M   'P 1'
_cell_length_a   8.03238206
_cell_length_b   8.03238206
_cell_length_c   8.03238206
_cell_angle_alpha   85.29810369
_cell_angle_beta   85.29810364
_cell_angle_gamma   85.29810365
_symmetry_Int_Tables_number   1
_chemical_formula_structural   P4N3Cl11
_chemical_formula_sum   'P4 N3 Cl11'
_cell_volume   513.28088754
_cell_formula_units_Z   1
loop_
 _symmetry_equiv_pos_site_id
 _symmetry_equiv_pos_as_xyz
  1  'x, y, z'
loop_
 _atom_site_type_symbol
 _atom_site_label
 _atom_site_symmetry_multiplicity
 _atom_site_fract_x
 _atom_site_fract_y
 _atom_site_fract_z
 _atom_site_occupancy
  N  N0  1  0.52836580  0.74907110  0.49113338  1
  N  N1  1  0.49113338  0.52836580  0.74907110  1
  N  N2  1  0.74907110  0.49113338  0.52836580  1
  P  P3  1  0.62407441  0.62407441  0.62407441  1
  P  P4  1  0.49247645  0.41401984  0.91500191  1
  P  P5  1  0.91500191  0.49247645  0.41401984  1
  P  P6  1  0.41401984  0.91500191  0.49247645  1
  Cl  Cl7  1  0.76006177  0.76006177  0.76006177  1
  Cl  Cl8  1  0.94531819  0.28784277  0.28666084  1
  Cl  Cl9  1  0.28666084  0.94531819  0.28784277  1
  Cl  Cl10  1  0.28784277  0.28666084  0.94531819  1
  Cl  Cl11  1  0.93931109  0.68827624  0.24447627  1
  Cl  Cl12  1  0.24447627  0.93931109  0.68827624  1
  Cl  Cl13  1  0.68827624  0.24447627  0.93931109  1
  Cl  Cl14  1  0.12014306  0.48507651  0.54394520  1
  Cl  Cl15  1  0.54394520  0.12014306  0.48507651  1
  Cl  Cl16  1  0.48507651  0.54394520  0.12014306  1
  Cl  Cl17  1  0.01137519  0.01137519  0.01137519  1
