# generated using pymatgen
data_Hg4As2I3
_symmetry_space_group_name_H-M   'P 1'
_cell_length_a   13.39567026
_cell_length_b   13.39567026
_cell_length_c   13.39567026
_cell_angle_alpha   90.00000000
_cell_angle_beta   90.00000000
_cell_angle_gamma   90.00000000
_symmetry_Int_Tables_number   1
_chemical_formula_structural   Hg4As2I3
_chemical_formula_sum   'Hg32 As16 I24'
_cell_volume   2403.77240919
_cell_formula_units_Z   8
loop_
 _symmetry_equiv_pos_site_id
 _symmetry_equiv_pos_as_xyz
  1  'x, y, z'
loop_
 _atom_site_type_symbol
 _atom_site_label
 _atom_site_symmetry_multiplicity
 _atom_site_fract_x
 _atom_site_fract_y
 _atom_site_fract_z
 _atom_site_occupancy
  As  As0  1  0.11345460  0.11345460  0.11345460  1
  As  As1  1  0.38654540  0.88654540  0.61345460  1
  As  As2  1  0.61345460  0.38654540  0.88654540  1
  As  As3  1  0.88654540  0.61345460  0.38654540  1
  As  As4  1  0.88654540  0.88654540  0.88654540  1
  As  As5  1  0.61345460  0.11345460  0.38654540  1
  As  As6  1  0.38654540  0.61345460  0.11345460  1
  As  As7  1  0.11345460  0.38654540  0.61345460  1
  As  As8  1  0.44687788  0.44687788  0.44687788  1
  As  As9  1  0.05312212  0.55312212  0.94687788  1
  As  As10  1  0.94687788  0.05312212  0.55312212  1
  As  As11  1  0.55312212  0.94687788  0.05312212  1
  As  As12  1  0.55312212  0.55312212  0.55312212  1
  As  As13  1  0.94687788  0.44687788  0.05312212  1
  As  As14  1  0.05312212  0.94687788  0.44687788  1
  As  As15  1  0.44687788  0.05312212  0.94687788  1
  I  I16  1  0.18640899  0.44174769  0.25946446  1
  I  I17  1  0.25946446  0.18640899  0.44174769  1
  I  I18  1  0.44174769  0.25946446  0.18640899  1
  I  I19  1  0.05825231  0.74053554  0.68640899  1
  I  I20  1  0.75946446  0.31359101  0.55825231  1
  I  I21  1  0.55825231  0.75946446  0.31359101  1
  I  I22  1  0.24053554  0.81359101  0.94174769  1
  I  I23  1  0.74053554  0.68640899  0.05825231  1
  I  I24  1  0.94174769  0.24053554  0.81359101  1
  I  I25  1  0.68640899  0.05825231  0.74053554  1
  I  I26  1  0.81359101  0.94174769  0.24053554  1
  I  I27  1  0.31359101  0.55825231  0.75946446  1
  I  I28  1  0.81359101  0.55825231  0.74053554  1
  I  I29  1  0.74053554  0.81359101  0.55825231  1
  I  I30  1  0.55825231  0.74053554  0.81359101  1
  I  I31  1  0.94174769  0.25946446  0.31359101  1
  I  I32  1  0.24053554  0.68640899  0.44174769  1
  I  I33  1  0.44174769  0.24053554  0.68640899  1
  I  I34  1  0.75946446  0.18640899  0.05825231  1
  I  I35  1  0.25946446  0.31359101  0.94174769  1
  I  I36  1  0.05825231  0.75946446  0.18640899  1
  I  I37  1  0.31359101  0.94174769  0.25946446  1
  I  I38  1  0.18640899  0.05825231  0.75946446  1
  I  I39  1  0.68640899  0.44174769  0.24053554  1
  Hg  Hg40  1  0.22503525  0.22503525  0.22503525  1
  Hg  Hg41  1  0.27496475  0.77496475  0.72503525  1
  Hg  Hg42  1  0.72503525  0.27496475  0.77496475  1
  Hg  Hg43  1  0.77496475  0.72503525  0.27496475  1
  Hg  Hg44  1  0.77496475  0.77496475  0.77496475  1
  Hg  Hg45  1  0.72503525  0.22503525  0.27496475  1
  Hg  Hg46  1  0.27496475  0.72503525  0.22503525  1
  Hg  Hg47  1  0.22503525  0.27496475  0.72503525  1
  Hg  Hg48  1  0.03934815  0.01262360  0.26257562  1
  Hg  Hg49  1  0.26257562  0.03934815  0.01262360  1
  Hg  Hg50  1  0.01262360  0.26257562  0.03934815  1
  Hg  Hg51  1  0.48737640  0.73742438  0.53934815  1
  Hg  Hg52  1  0.76257562  0.46065185  0.98737640  1
  Hg  Hg53  1  0.98737640  0.76257562  0.46065185  1
  Hg  Hg54  1  0.23742438  0.96065185  0.51262360  1
  Hg  Hg55  1  0.73742438  0.53934815  0.48737640  1
  Hg  Hg56  1  0.51262360  0.23742438  0.96065185  1
  Hg  Hg57  1  0.53934815  0.48737640  0.73742438  1
  Hg  Hg58  1  0.96065185  0.51262360  0.23742438  1
  Hg  Hg59  1  0.46065185  0.98737640  0.76257562  1
  Hg  Hg60  1  0.96065185  0.98737640  0.73742438  1
  Hg  Hg61  1  0.73742438  0.96065185  0.98737640  1
  Hg  Hg62  1  0.98737640  0.73742438  0.96065185  1
  Hg  Hg63  1  0.51262360  0.26257562  0.46065185  1
  Hg  Hg64  1  0.23742438  0.53934815  0.01262360  1
  Hg  Hg65  1  0.01262360  0.23742438  0.53934815  1
  Hg  Hg66  1  0.76257562  0.03934815  0.48737640  1
  Hg  Hg67  1  0.26257562  0.46065185  0.51262360  1
  Hg  Hg68  1  0.48737640  0.76257562  0.03934815  1
  Hg  Hg69  1  0.46065185  0.51262360  0.26257562  1
  Hg  Hg70  1  0.03934815  0.48737640  0.76257562  1
  Hg  Hg71  1  0.53934815  0.01262360  0.23742438  1
