# generated using pymatgen
data_Sr4Bi6Se13
_symmetry_space_group_name_H-M   'P 1'
_cell_length_a   4.27492968
_cell_length_b   17.27204783
_cell_length_c   18.73284449
_cell_angle_alpha   90.41517559
_cell_angle_beta   90.00000000
_cell_angle_gamma   90.00000000
_symmetry_Int_Tables_number   1
_chemical_formula_structural   Sr4Bi6Se13
_chemical_formula_sum   'Sr8 Bi12 Se26'
_cell_volume   1383.13678984
_cell_formula_units_Z   2
loop_
 _symmetry_equiv_pos_site_id
 _symmetry_equiv_pos_as_xyz
  1  'x, y, z'
loop_
 _atom_site_type_symbol
 _atom_site_label
 _atom_site_symmetry_multiplicity
 _atom_site_fract_x
 _atom_site_fract_y
 _atom_site_fract_z
 _atom_site_occupancy
  Se  Se0  1  0.75000000  0.61651861  0.27734543  1
  Se  Se1  1  0.25000000  0.38348139  0.72265457  1
  Se  Se2  1  0.75000000  0.87618051  0.33482307  1
  Se  Se3  1  0.25000000  0.12381949  0.66517693  1
  Se  Se4  1  0.75000000  0.06956410  0.48535320  1
  Se  Se5  1  0.25000000  0.93043590  0.51464680  1
  Se  Se6  1  0.75000000  0.73533598  0.12602516  1
  Se  Se7  1  0.25000000  0.26466402  0.87397484  1
  Se  Se8  1  0.75000000  0.10575928  0.23752845  1
  Se  Se9  1  0.25000000  0.89424072  0.76247155  1
  Se  Se10  1  0.25000000  0.10551968  0.03928233  1
  Se  Se11  1  0.75000000  0.89448032  0.96071767  1
  Se  Se12  1  0.75000000  0.35755796  0.23588517  1
  Se  Se13  1  0.25000000  0.64244204  0.76411483  1
  Se  Se14  1  0.75000000  0.07989052  0.82240116  1
  Se  Se15  1  0.25000000  0.92010948  0.17759884  1
  Se  Se16  1  0.75000000  0.30471054  0.06129819  1
  Se  Se17  1  0.25000000  0.69528946  0.93870181  1
  Se  Se18  1  0.75000000  0.47879380  0.91285734  1
  Se  Se19  1  0.25000000  0.52120620  0.08714266  1
  Se  Se20  1  0.25000000  0.69841032  0.44433931  1
  Se  Se21  1  0.75000000  0.30158968  0.55566069  1
  Se  Se22  1  0.25000000  0.45984983  0.41012753  1
  Se  Se23  1  0.75000000  0.54015017  0.58987247  1
  Se  Se24  1  0.25000000  0.21978260  0.36120627  1
  Se  Se25  1  0.75000000  0.78021740  0.63879373  1
  Sr  Sr26  1  0.25000000  0.48840476  0.24628907  1
  Sr  Sr27  1  0.75000000  0.51159524  0.75371093  1
  Sr  Sr28  1  0.25000000  0.22920834  0.18002076  1
  Sr  Sr29  1  0.75000000  0.77079166  0.81997924  1
  Sr  Sr30  1  0.25000000  0.01318481  0.34033346  1
  Sr  Sr31  1  0.75000000  0.98681519  0.65966654  1
  Sr  Sr32  1  0.25000000  0.75706690  0.27101869  1
  Sr  Sr33  1  0.75000000  0.24293310  0.72898131  1
  Bi  Bi34  1  0.75000000  0.82936970  0.47790483  1
  Bi  Bi35  1  0.25000000  0.17063030  0.52209517  1
  Bi  Bi36  1  0.25000000  0.67315090  0.61985331  1
  Bi  Bi37  1  0.75000000  0.32684910  0.38014669  1
  Bi  Bi38  1  0.25000000  0.41680854  0.57823903  1
  Bi  Bi39  1  0.75000000  0.58319146  0.42176097  1
  Bi  Bi40  1  0.75000000  0.18712250  0.95557639  1
  Bi  Bi41  1  0.25000000  0.81287750  0.04442361  1
  Bi  Bi42  1  0.25000000  0.98980012  0.88031554  1
  Bi  Bi43  1  0.75000000  0.01019988  0.11968446  1
  Bi  Bi44  1  0.25000000  0.39348102  0.98115659  1
  Bi  Bi45  1  0.75000000  0.60651898  0.01884341  1
