# generated using pymatgen
data_Hg4As2Br3
_symmetry_space_group_name_H-M   'P 1'
_cell_length_a   13.02890005
_cell_length_b   13.02890005
_cell_length_c   13.02890005
_cell_angle_alpha   90.00000000
_cell_angle_beta   90.00000000
_cell_angle_gamma   90.00000000
_symmetry_Int_Tables_number   1
_chemical_formula_structural   Hg4As2Br3
_chemical_formula_sum   'Hg32 As16 Br24'
_cell_volume   2211.68492279
_cell_formula_units_Z   8
loop_
 _symmetry_equiv_pos_site_id
 _symmetry_equiv_pos_as_xyz
  1  'x, y, z'
loop_
 _atom_site_type_symbol
 _atom_site_label
 _atom_site_symmetry_multiplicity
 _atom_site_fract_x
 _atom_site_fract_y
 _atom_site_fract_z
 _atom_site_occupancy
  As  As0  1  0.44584293  0.44584293  0.44584293  1
  As  As1  1  0.05415707  0.55415707  0.94584293  1
  As  As2  1  0.94584293  0.05415707  0.55415707  1
  As  As3  1  0.55415707  0.94584293  0.05415707  1
  As  As4  1  0.55415707  0.55415707  0.55415707  1
  As  As5  1  0.94584293  0.44584293  0.05415707  1
  As  As6  1  0.05415707  0.94584293  0.44584293  1
  As  As7  1  0.44584293  0.05415707  0.94584293  1
  As  As8  1  0.10883359  0.10883359  0.10883359  1
  As  As9  1  0.39116641  0.89116641  0.60883359  1
  As  As10  1  0.60883359  0.39116641  0.89116641  1
  As  As11  1  0.89116641  0.60883359  0.39116641  1
  As  As12  1  0.89116641  0.89116641  0.89116641  1
  As  As13  1  0.60883359  0.10883359  0.39116641  1
  As  As14  1  0.39116641  0.60883359  0.10883359  1
  As  As15  1  0.10883359  0.39116641  0.60883359  1
  Br  Br16  1  0.18593067  0.43328784  0.26621176  1
  Br  Br17  1  0.26621176  0.18593067  0.43328784  1
  Br  Br18  1  0.43328784  0.26621176  0.18593067  1
  Br  Br19  1  0.06671216  0.73378824  0.68593067  1
  Br  Br20  1  0.76621176  0.31406933  0.56671216  1
  Br  Br21  1  0.56671216  0.76621176  0.31406933  1
  Br  Br22  1  0.23378824  0.81406933  0.93328784  1
  Br  Br23  1  0.73378824  0.68593067  0.06671216  1
  Br  Br24  1  0.93328784  0.23378824  0.81406933  1
  Br  Br25  1  0.68593067  0.06671216  0.73378824  1
  Br  Br26  1  0.81406933  0.93328784  0.23378824  1
  Br  Br27  1  0.31406933  0.56671216  0.76621176  1
  Br  Br28  1  0.81406933  0.56671216  0.73378824  1
  Br  Br29  1  0.73378824  0.81406933  0.56671216  1
  Br  Br30  1  0.56671216  0.73378824  0.81406933  1
  Br  Br31  1  0.93328784  0.26621176  0.31406933  1
  Br  Br32  1  0.23378824  0.68593067  0.43328784  1
  Br  Br33  1  0.43328784  0.23378824  0.68593067  1
  Br  Br34  1  0.76621176  0.18593067  0.06671216  1
  Br  Br35  1  0.26621176  0.31406933  0.93328784  1
  Br  Br36  1  0.06671216  0.76621176  0.18593067  1
  Br  Br37  1  0.31406933  0.93328784  0.26621176  1
  Br  Br38  1  0.18593067  0.06671216  0.76621176  1
  Br  Br39  1  0.68593067  0.43328784  0.23378824  1
  Hg  Hg40  1  0.03264008  0.99876731  0.25473300  1
  Hg  Hg41  1  0.25473300  0.03264008  0.99876731  1
  Hg  Hg42  1  0.99876731  0.25473300  0.03264008  1
  Hg  Hg43  1  0.50123269  0.74526700  0.53264008  1
  Hg  Hg44  1  0.75473300  0.46735992  0.00123269  1
  Hg  Hg45  1  0.00123269  0.75473300  0.46735992  1
  Hg  Hg46  1  0.24526700  0.96735992  0.49876731  1
  Hg  Hg47  1  0.74526700  0.53264008  0.50123269  1
  Hg  Hg48  1  0.49876731  0.24526700  0.96735992  1
  Hg  Hg49  1  0.53264008  0.50123269  0.74526700  1
  Hg  Hg50  1  0.96735992  0.49876731  0.24526700  1
  Hg  Hg51  1  0.46735992  0.00123269  0.75473300  1
  Hg  Hg52  1  0.96735992  0.00123269  0.74526700  1
  Hg  Hg53  1  0.74526700  0.96735992  0.00123269  1
  Hg  Hg54  1  0.00123269  0.74526700  0.96735992  1
  Hg  Hg55  1  0.49876731  0.25473300  0.46735992  1
  Hg  Hg56  1  0.24526700  0.53264008  0.99876731  1
  Hg  Hg57  1  0.99876731  0.24526700  0.53264008  1
  Hg  Hg58  1  0.75473300  0.03264008  0.50123269  1
  Hg  Hg59  1  0.25473300  0.46735992  0.49876731  1
  Hg  Hg60  1  0.50123269  0.75473300  0.03264008  1
  Hg  Hg61  1  0.46735992  0.49876731  0.25473300  1
  Hg  Hg62  1  0.03264008  0.50123269  0.75473300  1
  Hg  Hg63  1  0.53264008  0.99876731  0.24526700  1
  Hg  Hg64  1  0.22285772  0.22285772  0.22285772  1
  Hg  Hg65  1  0.27714228  0.77714228  0.72285772  1
  Hg  Hg66  1  0.72285772  0.27714228  0.77714228  1
  Hg  Hg67  1  0.77714228  0.72285772  0.27714228  1
  Hg  Hg68  1  0.77714228  0.77714228  0.77714228  1
  Hg  Hg69  1  0.72285772  0.22285772  0.27714228  1
  Hg  Hg70  1  0.27714228  0.72285772  0.22285772  1
  Hg  Hg71  1  0.22285772  0.27714228  0.72285772  1
