# generated using pymatgen
data_Ba(BrO3)2
_symmetry_space_group_name_H-M   'P 1'
_cell_length_a   7.41548108
_cell_length_b   7.41548108
_cell_length_c   7.98198700
_cell_angle_alpha   106.01246012
_cell_angle_beta   106.01246009
_cell_angle_gamma   113.96387806
_symmetry_Int_Tables_number   1
_chemical_formula_structural   Ba(BrO3)2
_chemical_formula_sum   'Ba2 Br4 O12'
_cell_volume   345.89928173
_cell_formula_units_Z   2
loop_
 _symmetry_equiv_pos_site_id
 _symmetry_equiv_pos_as_xyz
  1  'x, y, z'
loop_
 _atom_site_type_symbol
 _atom_site_label
 _atom_site_symmetry_multiplicity
 _atom_site_fract_x
 _atom_site_fract_y
 _atom_site_fract_z
 _atom_site_occupancy
  O  O0  1  0.19887456  0.45172928  0.60570649  1
  O  O1  1  0.84602279  0.59316807  0.39429351  1
  O  O2  1  0.20172928  0.44887456  0.10570649  1
  O  O3  1  0.34316807  0.09602279  0.89429351  1
  O  O4  1  0.33423105  0.87457745  0.23911373  1
  O  O5  1  0.63546372  0.09511732  0.76088627  1
  O  O6  1  0.71761321  0.13910925  0.11485021  1
  O  O7  1  0.02425904  0.60276300  0.88514979  1
  O  O8  1  0.88910925  0.96761321  0.61485021  1
  O  O9  1  0.35276300  0.27425904  0.38514979  1
  O  O10  1  0.84511732  0.88546372  0.26088627  1
  O  O11  1  0.62457745  0.58423105  0.73911373  1
  Br  Br12  1  0.40583683  0.51688478  0.54257639  1
  Br  Br13  1  0.97430839  0.86326044  0.45742361  1
  Br  Br14  1  0.26688478  0.65583683  0.04257639  1
  Br  Br15  1  0.61326044  0.22430839  0.95742361  1
  Ba  Ba16  1  0.75079041  0.25079041  0.50000000  1
  Ba  Ba17  1  1.00079041  1.00079041  0.00000000  1
