# generated using pymatgen
data_SrBiSe3
_symmetry_space_group_name_H-M   'P 1'
_cell_length_a   4.26780097
_cell_length_b   16.12663110
_cell_length_c   33.81257199
_cell_angle_alpha   90.00000000
_cell_angle_beta   90.00000000
_cell_angle_gamma   90.00000000
_symmetry_Int_Tables_number   1
_chemical_formula_structural   SrBiSe3
_chemical_formula_sum   'Sr16 Bi16 Se48'
_cell_volume   2327.15878296
_cell_formula_units_Z   16
loop_
 _symmetry_equiv_pos_site_id
 _symmetry_equiv_pos_as_xyz
  1  'x, y, z'
loop_
 _atom_site_type_symbol
 _atom_site_label
 _atom_site_symmetry_multiplicity
 _atom_site_fract_x
 _atom_site_fract_y
 _atom_site_fract_z
 _atom_site_occupancy
  Se  Se0  1  0.14015979  0.55573782  0.84197193  1
  Se  Se1  1  0.64015979  0.44426218  0.65802807  1
  Se  Se2  1  0.35984021  0.05573782  0.15802807  1
  Se  Se3  1  0.85984021  0.94426218  0.34197193  1
  Se  Se4  1  0.95316090  0.61122754  0.97232249  1
  Se  Se5  1  0.45316090  0.38877246  0.52767751  1
  Se  Se6  1  0.54683910  0.11122754  0.02767751  1
  Se  Se7  1  0.04683910  0.88877246  0.47232249  1
  Se  Se8  1  1.01135334  0.88973889  0.00932932  1
  Se  Se9  1  0.51135334  0.11026111  0.49067068  1
  Se  Se10  1  0.48864666  0.38973889  0.99067068  1
  Se  Se11  1  -0.01135334  0.61026111  0.50932932  1
  Se  Se12  1  0.51090996  0.58181847  0.89690213  1
  Se  Se13  1  1.01090996  0.41818153  0.60309787  1
  Se  Se14  1  -0.01090996  0.08181847  0.10309787  1
  Se  Se15  1  0.48909004  0.91818153  0.39690213  1
  Se  Se16  1  1.02530343  0.79067563  0.88682735  1
  Se  Se17  1  0.52530343  0.20932437  0.61317265  1
  Se  Se18  1  0.47469657  0.29067563  0.11317265  1
  Se  Se19  1  0.49695964  0.52185289  0.78582396  1
  Se  Se20  1  -0.02530343  0.70932437  0.38682735  1
  Se  Se21  1  0.51447618  0.77195944  0.55809177  1
  Se  Se22  1  0.48552382  0.72804056  0.05809177  1
  Se  Se23  1  -0.01447618  0.27195944  0.44190823  1
  Se  Se24  1  1.02187584  0.71888534  0.75822544  1
  Se  Se25  1  0.52187584  0.28111466  0.74177456  1
  Se  Se26  1  0.47812416  0.21888534  0.24177456  1
  Se  Se27  1  -0.02187584  0.78111466  0.25822544  1
  Se  Se28  1  -0.01426870  0.85659134  0.13549083  1
  Se  Se29  1  0.48573130  0.14340866  0.36450917  1
  Se  Se30  1  0.51426870  0.35659134  0.86450917  1
  Se  Se31  1  1.01426870  0.64340866  0.63549083  1
  Se  Se32  1  1.03527366  0.00485051  0.58465174  1
  Se  Se33  1  0.53527366  0.99514949  0.91534826  1
  Se  Se34  1  0.46472634  0.50485051  0.41534826  1
  Se  Se35  1  -0.03527366  0.49514949  0.08465174  1
  Se  Se36  1  0.52066578  0.85515348  0.67727404  1
  Se  Se37  1  1.02066578  0.14484652  0.82272596  1
  Se  Se38  1  -0.02066578  0.35515348  0.32272596  1
  Se  Se39  1  0.47933422  0.64484652  0.17727404  1
  Se  Se40  1  0.53096399  0.91908824  0.79772326  1
  Se  Se41  1  1.03096399  0.08091176  0.70227674  1
  Se  Se42  1  -0.03096399  0.41908824  0.20227674  1
  Se  Se43  1  0.46903601  0.58091176  0.29772326  1
  Se  Se44  1  0.50304036  0.97814711  0.28582396  1
  Se  Se45  1  0.00304036  0.02185289  0.21417604  1
  Se  Se46  1  0.99695964  0.47814711  0.71417604  1
  Se  Se47  1  1.01447618  0.22804056  0.94190823  1
  Sr  Sr48  1  0.50387774  0.56456072  0.57668743  1
  Sr  Sr49  1  0.00387774  0.43543928  0.92331257  1
  Sr  Sr50  1  0.99612226  0.06456072  0.42331257  1
  Sr  Sr51  1  0.49612226  0.93543928  0.07668743  1
  Sr  Sr52  1  -0.01219434  0.13080513  0.29645924  1
  Sr  Sr53  1  0.48780566  0.86919487  0.20354076  1
  Sr  Sr54  1  0.51219434  0.63080513  0.70354076  1
  Sr  Sr55  1  1.01219434  0.36919487  0.79645924  1
  Sr  Sr56  1  0.46257553  0.78301568  0.32694384  1
  Sr  Sr57  1  -0.03742447  0.21698432  0.17305616  1
  Sr  Sr58  1  1.03742447  0.28301568  0.67305616  1
  Sr  Sr59  1  0.53742447  0.71698432  0.82694384  1
  Sr  Sr60  1  1.02074925  0.20408422  0.54357252  1
  Sr  Sr61  1  0.52074925  0.79591578  0.95642748  1
  Sr  Sr62  1  0.47925075  0.70408422  0.45642748  1
  Sr  Sr63  1  -0.02074925  0.29591578  0.04357252  1
  Bi  Bi64  1  1.01242903  0.95163132  0.85932398  1
  Bi  Bi65  1  0.51242903  0.04836868  0.64067602  1
  Bi  Bi66  1  0.48757097  0.45163132  0.14067602  1
  Bi  Bi67  1  -0.01242903  0.54836868  0.35932398  1
  Bi  Bi68  1  1.00754074  0.87955967  0.73461963  1
  Bi  Bi69  1  0.50754074  0.12044033  0.76538037  1
  Bi  Bi70  1  0.49245926  0.37955967  0.26538037  1
  Bi  Bi71  1  -0.00754074  0.62044033  0.23461963  1
  Bi  Bi72  1  0.52209363  0.94893405  0.52145133  1
  Bi  Bi73  1  1.02209363  0.05106595  0.97854867  1
  Bi  Bi74  1  -0.02209363  0.44893405  0.47854867  1
  Bi  Bi75  1  0.47790637  0.55106595  0.02145133  1
  Bi  Bi76  1  1.01124955  0.80307184  0.61102165  1
  Bi  Bi77  1  0.51124955  0.19692816  0.88897835  1
  Bi  Bi78  1  0.48875045  0.30307184  0.38897835  1
  Bi  Bi79  1  -0.01124955  0.69692816  0.11102165  1
