# generated using pymatgen
data_TaCoTe2
_symmetry_space_group_name_H-M   'P 1'
_cell_length_a   6.34012094
_cell_length_b   7.79036410
_cell_length_c   8.53987820
_cell_angle_alpha   114.54312991
_cell_angle_beta   90.00000000
_cell_angle_gamma   90.00000000
_symmetry_Int_Tables_number   1
_chemical_formula_structural   TaCoTe2
_chemical_formula_sum   'Ta4 Co4 Te8'
_cell_volume   383.69023695
_cell_formula_units_Z   4
loop_
 _symmetry_equiv_pos_site_id
 _symmetry_equiv_pos_as_xyz
  1  'x, y, z'
loop_
 _atom_site_type_symbol
 _atom_site_label
 _atom_site_symmetry_multiplicity
 _atom_site_fract_x
 _atom_site_fract_y
 _atom_site_fract_z
 _atom_site_occupancy
  Co  Co0  1  0.15041682  0.05734453  0.60038985  1
  Co  Co1  1  0.84958318  0.94265547  0.39961015  1
  Co  Co2  1  0.34958318  0.55734453  0.60038985  1
  Co  Co3  1  0.65041682  0.44265547  0.39961015  1
  Te  Te4  1  0.74324029  0.63997341  0.72037081  1
  Te  Te5  1  0.75675971  0.13997341  0.72037081  1
  Te  Te6  1  0.24324029  0.86002659  0.27962919  1
  Te  Te7  1  0.25675971  0.36002659  0.27962919  1
  Te  Te8  1  0.74913197  0.09895422  0.20007602  1
  Te  Te9  1  0.24913197  0.40104578  0.79992398  1
  Te  Te10  1  0.25086803  0.90104578  0.79992398  1
  Te  Te11  1  0.75086803  0.59895422  0.20007602  1
  Ta  Ta12  1  0.02142274  0.69091095  0.48550145  1
  Ta  Ta13  1  0.52142274  0.80908905  0.51449855  1
  Ta  Ta14  1  0.97857726  0.30908905  0.51449855  1
  Ta  Ta15  1  0.47857726  0.19091095  0.48550145  1
