# generated using pymatgen
data_B10H13
_symmetry_space_group_name_H-M   'P 1'
_cell_length_a   12.12997187
_cell_length_b   12.12997187
_cell_length_c   14.65835571
_cell_angle_alpha   114.44101447
_cell_angle_beta   114.44101448
_cell_angle_gamma   89.99999999
_symmetry_Int_Tables_number   1
_chemical_formula_structural   B10H13
_chemical_formula_sum   'B80 H104'
_cell_volume   1748.99902374
_cell_formula_units_Z   8
loop_
 _symmetry_equiv_pos_site_id
 _symmetry_equiv_pos_as_xyz
  1  'x, y, z'
loop_
 _atom_site_type_symbol
 _atom_site_label
 _atom_site_symmetry_multiplicity
 _atom_site_fract_x
 _atom_site_fract_y
 _atom_site_fract_z
 _atom_site_occupancy
  H  H0  1  0.97152172  0.58686115  0.57309202  1
  H  H1  1  0.60157030  0.98623087  0.57309202  1
  H  H2  1  0.83686115  0.35157030  0.07309202  1
  H  H3  1  0.23623087  0.72152172  0.07309202  1
  H  H4  1  0.73623087  0.85157030  0.07309202  1
  H  H5  1  0.47152172  0.48623087  0.57309202  1
  H  H6  1  0.10157030  0.08686115  0.57309202  1
  H  H7  1  0.33686115  0.22152172  0.07309202  1
  H  H8  1  0.82611528  0.55296914  0.43276944  1
  H  H9  1  0.60665416  0.87980030  0.43276944  1
  H  H10  1  0.80296914  0.35665416  0.93276944  1
  H  H11  1  0.12980030  0.57611528  0.93276944  1
  H  H12  1  0.62980030  0.85665416  0.93276944  1
  H  H13  1  0.32611528  0.37980030  0.43276944  1
  H  H14  1  0.10665416  0.05296914  0.43276944  1
  H  H15  1  0.30296914  0.07611528  0.93276944  1
  H  H16  1  0.82707056  0.36833775  0.37213318  1
  H  H17  1  0.54506262  0.00379544  0.37213318  1
  H  H18  1  0.61833775  0.29506262  0.87213318  1
  H  H19  1  0.25379544  0.57707056  0.87213318  1
  H  H20  1  0.75379544  0.79506262  0.87213318  1
  H  H21  1  0.32707056  0.50379544  0.37213318  1
  H  H22  1  0.04506262  0.86833775  0.37213318  1
  H  H23  1  0.11833775  0.07707056  0.87213318  1
  H  H24  1  0.97213671  0.40305649  0.51242096  1
  H  H25  1  0.54028425  0.10936447  0.51242096  1
  H  H26  1  0.65305649  0.29028425  0.01242096  1
  H  H27  1  0.35936447  0.72213671  0.01242096  1
  H  H28  1  0.85936447  0.79028425  0.01242096  1
  H  H29  1  0.47213671  0.60936447  0.51242096  1
  H  H30  1  0.04028425  0.90305649  0.51242096  1
  H  H31  1  0.15305649  0.22213671  0.01242096  1
  H  H32  1  0.01650643  0.64320727  0.73432283  1
  H  H33  1  0.71781640  0.09111555  0.73432283  1
  H  H34  1  0.89320727  0.46781640  0.23432283  1
  H  H35  1  0.34111555  0.76650643  0.23432283  1
  H  H36  1  0.84111555  0.96781640  0.23432283  1
  H  H37  1  0.51650643  0.59111555  0.73432283  1
  H  H38  1  0.21781640  0.14320727  0.73432283  1
  H  H39  1  0.39320727  0.26650643  0.23432283  1
  H  H40  1  0.90124265  0.73177766  0.55276488  1
  H  H41  1  0.65152224  0.82098723  0.55276488  1
  H  H42  1  0.98177766  0.40152224  0.05276488  1
  H  H43  1  0.07098723  0.65124265  0.05276488  1
  H  H44  1  0.57098723  0.90152224  0.05276488  1
  H  H45  1  0.73327487  0.66194071  0.64031256  1
  H  H46  1  0.40124265  0.32098723  0.55276488  1
  H  H47  1  0.48177766  0.15124265  0.05276488  1
  H  H48  1  0.64748216  0.55952648  0.37849360  1
  H  H49  1  0.73101144  0.81896712  0.37849360  1
  H  H50  1  0.80952648  0.48101144  0.87849360  1
  H  H51  1  0.06896712  0.39748216  0.87849360  1
  H  H52  1  0.56896712  0.98101144  0.87849360  1
  H  H53  1  0.14748216  0.31896712  0.37849360  1
  H  H54  1  0.23101144  0.05952648  0.37849360  1
  H  H55  1  0.30952648  0.89748216  0.87849360  1
  H  H56  1  0.64970284  0.28519800  0.28847552  1
  H  H57  1  0.63877268  1.00327751  0.28847552  1
  H  H58  1  0.53519800  0.38877268  0.78847552  1
  H  H59  1  0.25327751  0.39970284  0.78847552  1
  H  H60  1  0.75327751  0.88877268  0.78847552  1
  H  H61  1  0.14970284  0.50327751  0.28847552  1
  H  H62  1  0.13877268  0.78519800  0.28847552  1
  H  H63  1  0.03519800  0.89970284  0.78847552  1
  H  H64  1  0.90825125  0.22674674  0.38650800  1
  H  H65  1  0.47825675  0.15976126  0.38650800  1
  H  H66  1  0.47674674  0.22825675  0.88650800  1
  H  H67  1  0.40976126  0.65825125  0.88650800  1
  H  H68  1  0.90976126  0.72825675  0.88650800  1
  H  H69  1  0.40825125  0.65976126  0.38650800  1
  H  H70  1  0.97825675  0.72674674  0.38650800  1
  H  H71  1  0.97674674  0.15825125  0.88650800  1
  H  H72  1  0.01911424  0.36936988  0.64434764  1
  H  H73  1  0.62523340  0.27497776  0.64434764  1
  H  H74  1  0.61936988  0.37523340  0.14434764  1
  H  H75  1  0.52497776  0.76911424  0.14434764  1
  H  H76  1  0.02497776  0.87523340  0.14434764  1
  H  H77  1  0.51911424  0.77497776  0.64434764  1
  H  H78  1  0.12523340  0.86936988  0.64434764  1
  H  H79  1  0.11936988  0.26911424  0.14434764  1
  H  H80  1  0.21737254  0.07685507  0.20441323  1
  H  H81  1  0.37755816  0.96737254  0.70441323  1
  H  H82  1  0.32685507  0.73704069  0.70441323  1
  H  H83  1  0.98704069  0.12755816  0.20441323  1
  H  H84  1  0.48704069  0.57685507  0.20441323  1
  H  H85  1  0.71737254  0.62755816  0.20441323  1
  H  H86  1  0.87755816  0.23704069  0.70441323  1
  H  H87  1  0.82685507  0.46737254  0.70441323  1
  H  H88  1  0.16161150  0.83360485  0.96907583  1
  H  H89  1  0.38547098  0.91161150  0.46907583  1
  H  H90  1  0.08360485  0.55746433  0.46907583  1
  H  H91  1  0.80746433  0.13547098  0.96907583  1
  H  H92  1  0.30746433  0.33360485  0.96907583  1
  H  H93  1  0.66161150  0.63547098  0.96907583  1
  H  H94  1  0.88547098  0.05746433  0.46907583  1
  H  H95  1  0.58360485  0.41161150  0.46907583  1
  H  H96  1  0.41194071  0.98327487  0.14031256  1
  H  H97  1  0.40703769  0.16194071  0.64031256  1
  H  H98  1  0.23327487  0.47837186  0.64031256  1
  H  H99  1  0.72837186  0.15703769  0.14031256  1
  H  H100  1  0.22837186  0.48327487  0.14031256  1
  H  H101  1  0.91194071  0.65703769  0.14031256  1
  H  H102  1  0.90703769  0.97837186  0.64031256  1
  H  H103  1  0.15152224  0.23177766  0.55276488  1
  B  B104  1  0.93524024  0.57616271  0.64344956  1
  B  B105  1  0.70820932  0.06728685  0.64344956  1
  B  B106  1  0.82616271  0.45820932  0.14344956  1
  B  B107  1  0.31728685  0.68524024  0.14344956  1
  B  B108  1  0.81728685  0.95820932  0.14344956  1
  B  B109  1  0.43524024  0.56728685  0.64344956  1
  B  B110  1  0.20820932  0.07616271  0.64344956  1
  B  B111  1  0.32616271  0.18524024  0.14344956  1
  B  B112  1  0.86905644  0.63287650  0.54237384  1
  B  B113  1  0.67331740  0.90949734  0.54237384  1
  B  B114  1  0.88287650  0.42331740  0.04237384  1
  B  B115  1  0.15949734  0.61905644  0.04237384  1
  B  B116  1  0.65949734  0.92331740  0.04237384  1
  B  B117  1  0.36905644  0.40949734  0.54237384  1
  B  B118  1  0.17331740  0.13287650  0.54237384  1
  B  B119  1  0.38287650  0.11905644  0.04237384  1
  B  B120  1  0.72473538  0.52863173  0.44053053  1
  B  B121  1  0.71579516  0.91189880  0.44053053  1
  B  B122  1  0.77863173  0.46579516  0.94053053  1
  B  B123  1  0.16189880  0.47473538  0.94053053  1
  B  B124  1  0.66189880  0.96579516  0.94053053  1
  B  B125  1  0.22473538  0.41189880  0.44053053  1
  B  B126  1  0.21579516  0.02863173  0.44053053  1
  B  B127  1  0.27863173  0.97473538  0.94053053  1
  B  B128  1  0.72605139  0.35006798  0.38232091  1
  B  B129  1  0.65626953  0.03225294  0.38232091  1
  B  B130  1  0.60006798  0.40626953  0.88232091  1
  B  B131  1  0.28225294  0.47605139  0.88232091  1
  B  B132  1  0.78225294  0.90626953  0.88232091  1
  B  B133  1  0.22605139  0.53225294  0.38232091  1
  B  B134  1  0.15626953  0.85006798  0.38232091  1
  B  B135  1  0.10006798  0.97605139  0.88232091  1
  B  B136  1  0.87219779  0.31068612  0.43685216  1
  B  B137  1  0.56465437  0.12616604  0.43685216  1
  B  B138  1  0.56068612  0.31465437  0.93685216  1
  B  B139  1  0.37616604  0.62219779  0.93685216  1
  B  B140  1  0.87616604  0.81465437  0.93685216  1
  B  B141  1  0.37219779  0.62616604  0.43685216  1
  B  B142  1  0.06465437  0.81068612  0.43685216  1
  B  B143  1  0.06068612  0.12219779  0.93685216  1
  B  B144  1  0.93659975  0.39886147  0.58515894  1
  B  B145  1  0.64855920  0.18629747  0.58515894  1
  B  B146  1  0.64886147  0.39855920  0.08515894  1
  B  B147  1  0.43629747  0.68659975  0.08515894  1
  B  B148  1  0.93629747  0.89855920  0.08515894  1
  B  B149  1  0.43659975  0.68629747  0.58515894  1
  B  B150  1  0.14855920  0.89886147  0.58515894  1
  B  B151  1  0.14886147  0.18659975  0.08515894  1
  B  B152  1  0.77614630  0.58754559  0.58845262  1
  B  B153  1  0.81230632  1.00090702  0.58845262  1
  B  B154  1  0.83754559  0.56230632  0.08845262  1
  B  B155  1  0.25090702  0.52614630  0.08845262  1
  B  B156  1  0.75090702  0.06230632  0.08845262  1
  B  B157  1  0.27614630  0.50090702  0.58845262  1
  B  B158  1  0.31230632  0.08754559  0.58845262  1
  B  B159  1  0.33754559  0.02614630  0.08845262  1
  B  B160  1  0.69097125  0.43355553  0.49265183  1
  B  B161  1  0.80168058  0.05909630  0.49265183  1
  B  B162  1  0.68355553  0.55168058  0.99265183  1
  B  B163  1  0.30909630  0.44097125  0.99265183  1
  B  B164  1  0.80909630  0.05168058  0.99265183  1
  B  B165  1  0.19097125  0.55909630  0.49265183  1
  B  B166  1  0.30168058  0.93355553  0.49265183  1
  B  B167  1  0.18355553  0.94097125  0.99265183  1
  B  B168  1  0.77792938  0.31505185  0.50017568  1
  B  B169  1  0.72224630  0.18512383  0.50017568  1
  B  B170  1  0.56505185  0.47224630  0.00017568  1
  B  B171  1  0.43512383  0.52792938  0.00017568  1
  B  B172  1  0.93512383  0.97224630  0.00017568  1
  B  B173  1  0.27792938  0.68512383  0.50017568  1
  B  B174  1  0.22224630  0.81505185  0.50017568  1
  B  B175  1  0.06505185  0.02792938  0.00017568  1
  B  B176  1  0.82268973  0.46355889  0.62020422  1
  B  B177  1  0.79751449  0.15664533  0.62020422  1
  B  B178  1  0.71355889  0.54751449  0.12020422  1
  B  B179  1  0.40664533  0.57268973  0.12020422  1
  B  B180  1  0.90664533  0.04751449  0.12020422  1
  B  B181  1  0.32268973  0.65664533  0.62020422  1
  B  B182  1  0.29751449  0.96355889  0.62020422  1
  B  B183  1  0.21355889  0.07268973  0.12020422  1
