# generated using pymatgen
data_Ge3Bi2O9
_symmetry_space_group_name_H-M   'P 1'
_cell_length_a   7.06166953
_cell_length_b   7.06166953
_cell_length_c   10.15684749
_cell_angle_alpha   90.00000000
_cell_angle_beta   90.00000000
_cell_angle_gamma   119.99999999
_symmetry_Int_Tables_number   1
_chemical_formula_structural   Ge3Bi2O9
_chemical_formula_sum   'Ge6 Bi4 O18'
_cell_volume   438.63607062
_cell_formula_units_Z   2
loop_
 _symmetry_equiv_pos_site_id
 _symmetry_equiv_pos_as_xyz
  1  'x, y, z'
loop_
 _atom_site_type_symbol
 _atom_site_label
 _atom_site_symmetry_multiplicity
 _atom_site_fract_x
 _atom_site_fract_y
 _atom_site_fract_z
 _atom_site_occupancy
  O  O0  1  0.42559141  0.07166409  0.39539669  1
  O  O1  1  0.35392732  0.42559141  0.89539669  1
  O  O2  1  0.07166409  0.64607268  0.89539669  1
  O  O3  1  0.92833591  0.35392732  0.39539669  1
  O  O4  1  0.64607268  0.57440859  0.39539669  1
  O  O5  1  0.57440859  0.92833591  0.89539669  1
  O  O6  1  0.57440859  0.92833591  0.60460331  1
  O  O7  1  0.64607268  0.57440859  0.10460331  1
  O  O8  1  0.92833591  0.35392732  0.10460331  1
  O  O9  1  0.07166409  0.64607268  0.60460331  1
  O  O10  1  0.20432957  0.26720078  0.25000000  1
  O  O11  1  0.93712879  0.20432957  0.75000000  1
  O  O12  1  0.26720078  0.06287121  0.75000000  1
  O  O13  1  0.73279922  0.93712879  0.25000000  1
  O  O14  1  0.06287121  0.79567043  0.25000000  1
  O  O15  1  0.79567043  0.73279922  0.75000000  1
  O  O16  1  0.42559141  0.07166409  0.10460331  1
  O  O17  1  0.35392732  0.42559141  0.60460331  1
  Ge  Ge18  1  0.70988980  0.92995962  0.75000000  1
  Ge  Ge19  1  0.77993018  0.70988980  0.25000000  1
  Ge  Ge20  1  0.92995962  0.22006982  0.25000000  1
  Ge  Ge21  1  0.07004038  0.77993018  0.75000000  1
  Ge  Ge22  1  0.22006982  0.29011020  0.75000000  1
  Ge  Ge23  1  0.29011020  0.07004038  0.25000000  1
  Bi  Bi24  1  0.33333333  0.66666667  0.47824181  1
  Bi  Bi25  1  0.66666667  0.33333333  0.97824181  1
  Bi  Bi26  1  0.66666667  0.33333333  0.52175819  1
  Bi  Bi27  1  0.33333333  0.66666667  0.02175819  1
