# generated using pymatgen
data_CeSi3N5
_symmetry_space_group_name_H-M   'P 1'
_cell_length_a   4.81583649
_cell_length_b   7.88132275
_cell_length_c   11.31490050
_cell_angle_alpha   90.00000000
_cell_angle_beta   90.00000000
_cell_angle_gamma   90.00000000
_symmetry_Int_Tables_number   1
_chemical_formula_structural   CeSi3N5
_chemical_formula_sum   'Ce4 Si12 N20'
_cell_volume   429.45887797
_cell_formula_units_Z   4
loop_
 _symmetry_equiv_pos_site_id
 _symmetry_equiv_pos_as_xyz
  1  'x, y, z'
loop_
 _atom_site_type_symbol
 _atom_site_label
 _atom_site_symmetry_multiplicity
 _atom_site_fract_x
 _atom_site_fract_y
 _atom_site_fract_z
 _atom_site_occupancy
  Ce  Ce0  1  0.00374334  0.44047217  0.82971099  1
  Ce  Ce1  1  0.49625666  0.55952783  0.32971099  1
  Ce  Ce2  1  0.99625666  0.94047217  0.67028901  1
  Ce  Ce3  1  0.50374334  0.05952783  0.17028901  1
  Si  Si4  1  0.97663726  0.53293247  0.54090626  1
  Si  Si5  1  0.51428399  0.16191003  0.83937570  1
  Si  Si6  1  0.51657199  0.29319935  0.58333657  1
  Si  Si7  1  0.48342801  0.79319935  0.91666343  1
  Si  Si8  1  0.98571601  0.83808997  0.33937570  1
  Si  Si9  1  0.01657199  0.20680065  0.41666343  1
  Si  Si10  1  0.02336274  0.03293247  0.95909374  1
  Si  Si11  1  0.47663726  0.96706753  0.45909374  1
  Si  Si12  1  0.48571601  0.66191003  0.66062430  1
  Si  Si13  1  0.98342801  0.70680065  0.08333657  1
  Si  Si14  1  0.01428399  0.33808997  0.16062430  1
  Si  Si15  1  0.52336274  0.46706753  0.04090626  1
  N  N16  1  0.16566045  0.29380432  0.29482195  1
  N  N17  1  0.17036481  0.10987937  0.83175048  1
  N  N18  1  0.81538645  0.01841634  0.40687513  1
  N  N19  1  0.31538645  0.48158366  0.59312487  1
  N  N20  1  0.32963519  0.89012063  0.33175048  1
  N  N21  1  0.29629155  0.14989680  0.51029557  1
  N  N22  1  0.82963519  0.60987937  0.66824952  1
  N  N23  1  0.95302781  0.65749771  0.42026876  1
  N  N24  1  0.67036481  0.39012063  0.16824952  1
  N  N25  1  0.45302781  0.84250229  0.57973124  1
  N  N26  1  0.70370845  0.64989680  0.98970443  1
  N  N27  1  0.20370845  0.85010320  0.01029557  1
  N  N28  1  0.18461355  0.51841634  0.09312487  1
  N  N29  1  0.66566045  0.20619568  0.70517805  1
  N  N30  1  0.83433955  0.79380432  0.20517805  1
  N  N31  1  0.79629155  0.35010320  0.48970443  1
  N  N32  1  0.04697219  0.15749771  0.07973124  1
  N  N33  1  0.54697219  0.34250229  0.92026876  1
  N  N34  1  0.68461355  0.98158366  0.90687513  1
  N  N35  1  0.33433955  0.70619568  0.79482195  1
