# generated using pymatgen
data_Mg14CrBi
_symmetry_space_group_name_H-M   'P 1'
_cell_length_a   6.35079367
_cell_length_b   6.35079315
_cell_length_c   10.41826459
_cell_angle_alpha   90.00000000
_cell_angle_beta   90.00000000
_cell_angle_gamma   120.00000263
_symmetry_Int_Tables_number   1
_chemical_formula_structural   Mg14CrBi
_chemical_formula_sum   'Mg14 Cr1 Bi1'
_cell_volume   363.89993189
_cell_formula_units_Z   1
loop_
 _symmetry_equiv_pos_site_id
 _symmetry_equiv_pos_as_xyz
  1  'x, y, z'
loop_
 _atom_site_type_symbol
 _atom_site_label
 _atom_site_symmetry_multiplicity
 _atom_site_fract_x
 _atom_site_fract_y
 _atom_site_fract_z
 _atom_site_occupancy
  Mg  Mg0  1  0.16606885  0.83303393  0.12500000  1
  Mg  Mg1  1  0.16515309  0.83257604  0.62500000  1
  Mg  Mg2  1  0.66696607  0.33393115  0.12500000  1
  Mg  Mg3  1  0.66742396  0.33484691  0.62500000  1
  Mg  Mg4  1  0.66696607  0.83303393  0.12500000  1
  Mg  Mg5  1  0.66742396  0.83257604  0.62500000  1
  Mg  Mg6  1  0.33310623  0.16689377  0.36533772  1
  Mg  Mg7  1  0.33310623  0.16689377  0.88466228  1
  Mg  Mg8  1  0.33310623  0.66621345  0.36533772  1
  Mg  Mg9  1  0.33310623  0.66621345  0.88466228  1
  Mg  Mg10  1  0.83378655  0.16689377  0.36533772  1
  Mg  Mg11  1  0.83378655  0.16689377  0.88466228  1
  Mg  Mg12  1  0.83333300  0.66666700  0.37375446  1
  Mg  Mg13  1  0.83333300  0.66666700  0.87624554  1
  Cr  Cr14  1  0.16666700  0.33333300  0.12500000  1
  Bi  Bi15  1  0.16666700  0.33333300  0.62500000  1
