# generated using pymatgen
data_Zr5Te6
_symmetry_space_group_name_H-M   'P 1'
_cell_length_a   11.80801888
_cell_length_b   11.80801888
_cell_length_c   7.17403936
_cell_angle_alpha   90.00000000
_cell_angle_beta   90.00000000
_cell_angle_gamma   120.00000000
_symmetry_Int_Tables_number   1
_chemical_formula_structural   Zr5Te6
_chemical_formula_sum   'Zr15 Te18'
_cell_volume   866.26040593
_cell_formula_units_Z   3
loop_
 _symmetry_equiv_pos_site_id
 _symmetry_equiv_pos_as_xyz
  1  'x, y, z'
loop_
 _atom_site_type_symbol
 _atom_site_label
 _atom_site_symmetry_multiplicity
 _atom_site_fract_x
 _atom_site_fract_y
 _atom_site_fract_z
 _atom_site_occupancy
  Zr  Zr0  1  0.00000000  0.36272678  0.50000000  1
  Zr  Zr1  1  0.36272678  0.00000000  0.50000000  1
  Zr  Zr2  1  0.63727322  0.63727322  0.50000000  1
  Zr  Zr3  1  0.00000000  0.63727322  0.50000000  1
  Zr  Zr4  1  0.63727322  0.00000000  0.50000000  1
  Zr  Zr5  1  0.36272678  0.36272678  0.50000000  1
  Zr  Zr6  1  0.29787130  0.29787130  0.00000000  1
  Zr  Zr7  1  0.00000000  0.70212870  0.00000000  1
  Zr  Zr8  1  0.70212870  0.00000000  0.00000000  1
  Zr  Zr9  1  0.70212870  0.70212870  0.00000000  1
  Zr  Zr10  1  0.00000000  0.29787130  0.00000000  1
  Zr  Zr11  1  0.29787130  0.00000000  0.00000000  1
  Zr  Zr12  1  0.33333333  0.66666667  0.51138390  1
  Zr  Zr13  1  0.66666667  0.33333333  0.48861610  1
  Zr  Zr14  1  0.00000000  0.00000000  0.00000000  1
  Te  Te15  1  0.22450130  0.77549870  0.24479909  1
  Te  Te16  1  0.55099741  0.77549870  0.24479909  1
  Te  Te17  1  0.22450130  0.44900259  0.24479909  1
  Te  Te18  1  0.77549870  0.55099741  0.75520091  1
  Te  Te19  1  0.77549870  0.22450130  0.75520091  1
  Te  Te20  1  0.44900259  0.22450130  0.75520091  1
  Te  Te21  1  0.11760048  0.55880024  0.79089215  1
  Te  Te22  1  0.44119976  0.55880024  0.79089215  1
  Te  Te23  1  0.44119976  0.88239952  0.79089215  1
  Te  Te24  1  0.55880024  0.44119976  0.20910785  1
  Te  Te25  1  0.88239952  0.44119976  0.20910785  1
  Te  Te26  1  0.55880024  0.11760048  0.20910785  1
  Te  Te27  1  0.10654787  0.21309575  0.71096710  1
  Te  Te28  1  0.78690425  0.89345213  0.71096710  1
  Te  Te29  1  0.10654787  0.89345213  0.71096710  1
  Te  Te30  1  0.89345213  0.78690425  0.28903290  1
  Te  Te31  1  0.89345213  0.10654787  0.28903290  1
  Te  Te32  1  0.21309575  0.10654787  0.28903290  1
