# generated using pymatgen
data_Ta(TeBr3)2
_symmetry_space_group_name_H-M   'P 1'
_cell_length_a   7.66791274
_cell_length_b   7.75839398
_cell_length_c   13.49609406
_cell_angle_alpha   80.93524598
_cell_angle_beta   77.94033118
_cell_angle_gamma   77.62697282
_symmetry_Int_Tables_number   1
_chemical_formula_structural   Ta(TeBr3)2
_chemical_formula_sum   'Ta2 Te4 Br12'
_cell_volume   761.57107396
_cell_formula_units_Z   2
loop_
 _symmetry_equiv_pos_site_id
 _symmetry_equiv_pos_as_xyz
  1  'x, y, z'
loop_
 _atom_site_type_symbol
 _atom_site_label
 _atom_site_symmetry_multiplicity
 _atom_site_fract_x
 _atom_site_fract_y
 _atom_site_fract_z
 _atom_site_occupancy
  Ta  Ta0  1  0.79856107  0.34248388  0.80517074  1
  Ta  Ta1  1  0.20143893  0.65751612  0.19482926  1
  Te  Te2  1  0.27156826  0.15959346  0.54092458  1
  Te  Te3  1  0.72843174  0.84040654  0.45907542  1
  Te  Te4  1  0.43359542  0.82544541  0.61354474  1
  Te  Te5  1  0.56640458  0.17455459  0.38645526  1
  Br  Br6  1  0.90338697  0.24727920  0.96846196  1
  Br  Br7  1  0.09661303  0.75272080  0.03153804  1
  Br  Br8  1  0.97381777  0.04694000  0.72877210  1
  Br  Br9  1  0.02618223  0.95306000  0.27122790  1
  Br  Br10  1  0.08079316  0.47081380  0.72666958  1
  Br  Br11  1  0.91920684  0.52918620  0.27333042  1
  Br  Br12  1  0.30063380  0.56324332  0.37795382  1
  Br  Br13  1  0.69936620  0.43675668  0.62204618  1
  Br  Br14  1  0.46651847  0.80950044  0.14352470  1
  Br  Br15  1  0.53348153  0.19049956  0.85647530  1
  Br  Br16  1  0.37506415  0.36705281  0.14544029  1
  Br  Br17  1  0.62493585  0.63294719  0.85455971  1
