# generated using pymatgen
data_LiMo2(PO4)3
_symmetry_space_group_name_H-M   'P 1'
_cell_length_a   8.52757664
_cell_length_b   9.20438932
_cell_length_c   8.59723645
_cell_angle_alpha   61.89468888
_cell_angle_beta   120.22594557
_cell_angle_gamma   117.90270831
_symmetry_Int_Tables_number   1
_chemical_formula_structural   LiMo2(PO4)3
_chemical_formula_sum   'Li2 Mo4 P6 O24'
_cell_volume   490.15927145
_cell_formula_units_Z   2
loop_
 _symmetry_equiv_pos_site_id
 _symmetry_equiv_pos_as_xyz
  1  'x, y, z'
loop_
 _atom_site_type_symbol
 _atom_site_label
 _atom_site_symmetry_multiplicity
 _atom_site_fract_x
 _atom_site_fract_y
 _atom_site_fract_z
 _atom_site_occupancy
  Li  Li0  1  0.31690157  0.13128086  0.92659517  1
  Li  Li1  1  0.68309445  0.86871855  0.07340155  1
  Mo  Mo2  1  0.34927624  0.05356090  0.64283811  1
  Mo  Mo3  1  0.65072828  0.94643702  0.35716418  1
  Mo  Mo4  1  0.86484976  0.57031269  0.14993440  1
  Mo  Mo5  1  0.13514954  0.42968747  0.85006528  1
  P  P6  1  0.75053593  0.24602802  0.96598871  1
  P  P7  1  0.46791662  0.25387259  0.24708042  1
  P  P8  1  0.24946459  0.75397167  0.03401322  1
  P  P9  1  0.53208183  0.74612554  0.75291696  1
  P  P10  1  0.96234831  0.75207457  0.46316738  1
  P  P11  1  0.03765283  0.24792548  0.53683374  1
  O  O12  1  0.11693144  0.73267104  0.12190719  1
  O  O13  1  0.46193392  0.80046595  0.17257871  1
  O  O14  1  0.79883751  0.40894069  0.00472867  1
  O  O15  1  0.82756843  0.79878265  0.49093909  1
  O  O16  1  0.27358566  0.27887069  0.10067628  1
  O  O17  1  0.87572335  0.74416823  0.25900241  1
  O  O18  1  0.72641612  0.72113309  0.89932072  1
  O  O19  1  0.16125702  0.89058831  0.49094273  1
  O  O20  1  0.77248708  0.08502352  0.14679801  1
  O  O21  1  0.88306877  0.26733330  0.87809420  1
  O  O22  1  0.62524399  0.42522737  0.20843134  1
  O  O23  1  0.51557381  0.88744783  0.79331594  1
  O  O24  1  0.83874193  0.10941323  0.50905081  1
  O  O25  1  0.53806690  0.19953113  0.82742823  1
  O  O26  1  0.20116401  0.59106084  0.99527661  1
  O  O27  1  0.17243611  0.20121423  0.50907161  1
  O  O28  1  0.51575426  0.80045936  0.54920685  1
  O  O29  1  0.48424740  0.19954418  0.45079039  1
  O  O30  1  0.12426798  0.25582897  0.74099647  1
  O  O31  1  0.48442359  0.11254869  0.20668401  1
  O  O32  1  0.22751864  0.91497704  0.85320632  1
  O  O33  1  0.98716515  0.57665236  0.60570978  1
  O  O34  1  0.37475480  0.57477111  0.79155964  1
  O  O35  1  0.01283418  0.42334884  0.39428885  1
