# generated using pymatgen
data_Sr3P4O13
_symmetry_space_group_name_H-M   'P 1'
_cell_length_a   7.36169045
_cell_length_b   7.85033935
_cell_length_c   10.32385780
_cell_angle_alpha   102.53435874
_cell_angle_beta   103.14408557
_cell_angle_gamma   94.36112149
_symmetry_Int_Tables_number   1
_chemical_formula_structural   Sr3P4O13
_chemical_formula_sum   'Sr6 P8 O26'
_cell_volume   562.19925403
_cell_formula_units_Z   2
loop_
 _symmetry_equiv_pos_site_id
 _symmetry_equiv_pos_as_xyz
  1  'x, y, z'
loop_
 _atom_site_type_symbol
 _atom_site_label
 _atom_site_symmetry_multiplicity
 _atom_site_fract_x
 _atom_site_fract_y
 _atom_site_fract_z
 _atom_site_occupancy
  O  O0  1  0.45439742  0.50967267  0.78840405  1
  O  O1  1  0.54560258  0.49032733  0.21159595  1
  O  O2  1  0.79075582  0.46948809  0.77082173  1
  O  O3  1  0.20924418  0.53051191  0.22917827  1
  O  O4  1  0.18284479  0.28344582  0.36342456  1
  O  O5  1  0.81715521  0.71655418  0.63657544  1
  O  O6  1  0.99129714  0.80826122  0.95635411  1
  O  O7  1  0.00870286  0.19173878  0.04364589  1
  O  O8  1  0.74447708  0.40121821  0.51473912  1
  O  O9  1  0.25552292  0.59878179  0.48526088  1
  O  O10  1  0.93264498  0.48742215  0.31717583  1
  O  O11  1  0.06735502  0.51257785  0.68282417  1
  O  O12  1  0.52590783  0.18092514  0.57135433  1
  O  O13  1  0.47409217  0.81907486  0.42864567  1
  O  O14  1  0.33635729  0.09922892  0.04616289  1
  O  O15  1  0.66364271  0.90077108  0.95383711  1
  O  O16  1  0.15504730  0.89701794  0.45621397  1
  O  O17  1  0.84495270  0.10298206  0.54378603  1
  O  O18  1  0.11819327  0.12022554  0.82193631  1
  O  O19  1  0.88180673  0.87977446  0.17806369  1
  O  O20  1  0.26369340  0.39705087  1.00085095  1
  O  O21  1  0.73630660  0.60294913  -0.00085095  1
  O  O22  1  0.40046157  0.87168057  0.66716675  1
  O  O23  1  0.59953843  0.12831943  0.33283325  1
  O  O24  1  0.36638033  0.71691205  0.10753669  1
  O  O25  1  0.63361967  0.28308795  0.89246331  1
  P  P26  1  0.13798842  0.46329822  0.34772420  1
  P  P27  1  0.86201158  0.53670178  0.65227580  1
  P  P28  1  0.82614824  0.81049657  0.02160244  1
  P  P29  1  0.17385176  0.18950343  0.97839756  1
  P  P30  1  0.67125119  0.18982047  0.48839509  1
  P  P31  1  0.32874881  0.81017953  0.51160491  1
  P  P32  1  0.63837663  0.46097966  0.85881324  1
  P  P33  1  0.36162337  0.53902034  0.14118676  1
  Sr  Sr34  1  0.78577405  0.77053510  0.37409924  1
  Sr  Sr35  1  0.21422595  0.22946490  0.62590076  1
  Sr  Sr36  1  0.70670042  0.22091599  0.13610215  1
  Sr  Sr37  1  0.29329958  0.77908401  0.86389785  1
  Sr  Sr38  1  0.75061933  0.01596030  0.75681567  1
  Sr  Sr39  1  0.24938067  0.98403970  0.24318433  1
