# generated using pymatgen
data_Ag7NO11
_symmetry_space_group_name_H-M   'P 1'
_cell_length_a   7.23845441
_cell_length_b   7.03314071
_cell_length_c   7.23845439
_cell_angle_alpha   59.02953338
_cell_angle_beta   59.99999987
_cell_angle_gamma   59.02953436
_symmetry_Int_Tables_number   1
_chemical_formula_structural   Ag7NO11
_chemical_formula_sum   'Ag7 N1 O11'
_cell_volume   256.68309260
_cell_formula_units_Z   1
loop_
 _symmetry_equiv_pos_site_id
 _symmetry_equiv_pos_as_xyz
  1  'x, y, z'
loop_
 _atom_site_type_symbol
 _atom_site_label
 _atom_site_symmetry_multiplicity
 _atom_site_fract_x
 _atom_site_fract_y
 _atom_site_fract_z
 _atom_site_occupancy
  Ag  Ag0  1  0.99931132  0.00206605  0.99931132  1
  Ag  Ag1  1  0.00108304  0.49978342  0.00108304  1
  Ag  Ag2  1  0.00028356  0.99940802  0.50015421  1
  Ag  Ag3  1  0.50015421  0.99940802  0.00028356  1
  Ag  Ag4  1  0.49805051  0.49978342  0.00108304  1
  Ag  Ag5  1  0.50015421  0.99940802  0.50015421  1
  Ag  Ag6  1  0.00108304  0.49978342  0.49805051  1
  N  N7  1  0.50004680  0.49985960  0.50004680  1
  O  O8  1  0.14478101  0.12978581  0.14478101  1
  O  O9  1  0.14478101  0.12978581  0.58065217  1
  O  O10  1  0.13727123  0.58818632  0.13727123  1
  O  O11  1  0.58065217  0.12978581  0.14478101  1
  O  O12  1  0.29844439  0.49980005  0.60087778  1
  O  O13  1  0.60087778  0.49980005  0.29844439  1
  O  O14  1  0.60087778  0.49980005  0.60087778  1
  O  O15  1  0.41755210  0.87014525  0.85615133  1
  O  O16  1  0.85615133  0.87014525  0.41755210  1
  O  O17  1  0.86229320  0.41312040  0.86229320  1
  O  O18  1  0.85615133  0.87014525  0.85615133  1
