# generated using pymatgen
data_LiVPO5
_symmetry_space_group_name_H-M   'P 1'
_cell_length_a   6.93668432
_cell_length_b   7.15397956
_cell_length_c   7.96377930
_cell_angle_alpha   89.78208372
_cell_angle_beta   91.35281212
_cell_angle_gamma   116.63311369
_symmetry_Int_Tables_number   1
_chemical_formula_structural   LiVPO5
_chemical_formula_sum   'Li4 V4 P4 O20'
_cell_volume   353.16034593
_cell_formula_units_Z   4
loop_
 _symmetry_equiv_pos_site_id
 _symmetry_equiv_pos_as_xyz
  1  'x, y, z'
loop_
 _atom_site_type_symbol
 _atom_site_label
 _atom_site_symmetry_multiplicity
 _atom_site_fract_x
 _atom_site_fract_y
 _atom_site_fract_z
 _atom_site_occupancy
  Li  Li0  1  0.30647680  0.81510264  0.43004367  1
  Li  Li1  1  0.20440629  0.28405548  0.07248704  1
  Li  Li2  1  0.79559397  0.71594383  0.92751258  1
  Li  Li3  1  0.69352200  0.18489666  0.56995718  1
  O  O4  1  0.26650012  0.25747565  0.82844613  1
  O  O5  1  0.07766303  0.65174476  0.24231936  1
  O  O6  1  0.23707966  0.74580672  0.67718512  1
  O  O7  1  0.26076149  0.58005507  0.99161586  1
  O  O8  1  0.22418512  0.40066981  0.51300668  1
  O  O9  1  0.44341394  0.90582913  0.18228998  1
  O  O10  1  0.06130862  0.09789631  0.30662718  1
  O  O11  1  0.13827073  0.86533181  0.97647582  1
  O  O12  1  0.65199885  0.88604400  0.47810750  1
  O  O13  1  0.43062786  0.35658174  0.26792373  1
  O  O14  1  0.56937095  0.64341756  0.73207587  1
  O  O15  1  0.34799996  0.11395531  0.52189336  1
  O  O16  1  0.86172953  0.13466750  0.02352507  1
  O  O17  1  0.93869237  0.90210455  0.69337246  1
  O  O18  1  0.55658706  0.09417173  0.81770966  1
  O  O19  1  0.77581515  0.59932950  0.48699295  1
  O  O20  1  0.73923878  0.41994425  0.00838377  1
  O  O21  1  0.76292134  0.25419414  0.32281452  1
  O  O22  1  0.92233577  0.34825455  0.75768023  1
  O  O23  1  0.73349869  0.74252365  0.17155347  1
  P  P24  1  0.23206620  0.74961627  0.09371012  1
  P  P25  1  0.26589675  0.24389446  0.40727286  1
  P  P26  1  0.73410206  0.75610485  0.59272674  1
  P  P27  1  0.76793406  0.25038304  0.90628950  1
  V  V28  1  0.24522959  0.51789076  0.73921269  1
  V  V29  1  0.24777679  0.02024226  0.76342768  1
  V  V30  1  0.75222347  0.97975705  0.23657195  1
  V  V31  1  0.75477140  0.48211010  0.26078821  1
