# generated using pymatgen
data_Mg14CrSb
_symmetry_space_group_name_H-M   'P 1'
_cell_length_a   6.32828513
_cell_length_b   6.30920828
_cell_length_c   10.33473425
_cell_angle_alpha   90.00000000
_cell_angle_beta   90.00000000
_cell_angle_gamma   119.90033515
_symmetry_Int_Tables_number   1
_chemical_formula_structural   Mg14CrSb
_chemical_formula_sum   'Mg14 Cr1 Sb1'
_cell_volume   357.70592216
_cell_formula_units_Z   1
loop_
 _symmetry_equiv_pos_site_id
 _symmetry_equiv_pos_as_xyz
  1  'x, y, z'
loop_
 _atom_site_type_symbol
 _atom_site_label
 _atom_site_symmetry_multiplicity
 _atom_site_fract_x
 _atom_site_fract_y
 _atom_site_fract_z
 _atom_site_occupancy
  Mg  Mg0  1  0.16711721  0.33355811  0.62500000  1
  Mg  Mg1  1  0.16649232  0.83324566  0.62500000  1
  Mg  Mg2  1  0.66787357  0.33285306  0.12500000  1
  Mg  Mg3  1  0.66654834  0.33370212  0.62500000  1
  Mg  Mg4  1  0.66787357  0.83501951  0.12500000  1
  Mg  Mg5  1  0.66654834  0.83284522  0.62500000  1
  Mg  Mg6  1  0.33278859  0.16976500  0.37365023  1
  Mg  Mg7  1  0.33278859  0.16976500  0.87634977  1
  Mg  Mg8  1  0.33278859  0.66302459  0.37365023  1
  Mg  Mg9  1  0.33278859  0.66302459  0.87634977  1
  Mg  Mg10  1  0.83645460  0.16822780  0.37347519  1
  Mg  Mg11  1  0.83645460  0.16822780  0.87652481  1
  Mg  Mg12  1  0.83162571  0.66581336  0.37653644  1
  Mg  Mg13  1  0.83162571  0.66581336  0.87346356  1
  Cr  Cr14  1  0.16520147  0.33260023  0.12500000  1
  Sb  Sb15  1  0.16503019  0.83251459  0.12500000  1
