# generated using pymatgen
data_BaV3O8
_symmetry_space_group_name_H-M   'P 1'
_cell_length_a   5.63805898
_cell_length_b   7.60944200
_cell_length_c   8.38260298
_cell_angle_alpha   107.40400957
_cell_angle_beta   90.00000000
_cell_angle_gamma   90.00000000
_symmetry_Int_Tables_number   1
_chemical_formula_structural   BaV3O8
_chemical_formula_sum   'Ba2 V6 O16'
_cell_volume   343.17019724
_cell_formula_units_Z   2
loop_
 _symmetry_equiv_pos_site_id
 _symmetry_equiv_pos_as_xyz
  1  'x, y, z'
loop_
 _atom_site_type_symbol
 _atom_site_label
 _atom_site_symmetry_multiplicity
 _atom_site_fract_x
 _atom_site_fract_y
 _atom_site_fract_z
 _atom_site_occupancy
  O  O0  1  0.50216187  0.16708859  0.56710633  1
  O  O1  1  0.00216164  0.83291200  0.43289310  1
  O  O2  1  0.50209956  0.81729713  0.31103077  1
  O  O3  1  0.00209933  0.18270345  0.68896985  1
  O  O4  1  0.00204543  0.17645701  0.01655044  1
  O  O5  1  0.50204520  0.82354358  0.98344899  1
  O  O6  1  0.75614534  0.12961859  0.27166703  1
  O  O7  1  0.25614557  0.87038199  0.72833359  1
  O  O8  1  0.75527695  0.52364448  0.79885101  1
  O  O9  1  0.25527718  0.47635471  0.20114805  1
  O  O10  1  0.50226015  0.57233253  0.51455871  1
  O  O11  1  0.00225992  0.42766806  0.48544072  1
  O  O12  1  0.25081633  0.13043368  0.27085799  1
  O  O13  1  0.74905077  0.47595046  0.20125930  1
  O  O14  1  0.75081610  0.86956551  0.72914226  1
  O  O15  1  0.24905100  0.52404873  0.79874095  1
  V  V16  1  0.50225947  0.58500618  0.31810872  1
  V  V17  1  0.00225969  0.41499300  0.68189153  1
  V  V18  1  0.00262394  0.29471773  0.22219804  1
  V  V19  1  0.50262371  0.70528145  0.77780221  1
  V  V20  1  0.00283205  0.93121703  0.63867139  1
  V  V21  1  0.50283361  0.06878216  0.36132768  1
  Ba  Ba22  1  0.50282464  0.21502351  0.89904626  1
  Ba  Ba23  1  0.00282487  0.78497568  0.10095399  1
