# generated using pymatgen
data_Al2NiO4
_symmetry_space_group_name_H-M   'P 1'
_cell_length_a   5.75980850
_cell_length_b   5.77175835
_cell_length_c   17.20331631
_cell_angle_alpha   59.78284919
_cell_angle_beta   59.71092484
_cell_angle_gamma   59.92869511
_symmetry_Int_Tables_number   1
_chemical_formula_structural   Al2NiO4
_chemical_formula_sum   'Al12 Ni6 O24'
_cell_volume   402.63180743
_cell_formula_units_Z   6
loop_
 _symmetry_equiv_pos_site_id
 _symmetry_equiv_pos_as_xyz
  1  'x, y, z'
loop_
 _atom_site_type_symbol
 _atom_site_label
 _atom_site_symmetry_multiplicity
 _atom_site_fract_x
 _atom_site_fract_y
 _atom_site_fract_z
 _atom_site_occupancy
  Al  Al0  1  0.49429975  0.00387129  0.16744225  1
  Al  Al1  1  0.49440285  0.49680339  0.00401982  1
  Al  Al2  1  0.13074410  0.11619484  0.37893622  1
  Al  Al3  1  0.49428514  0.49951445  0.16743926  1
  Al  Al4  1  0.50110981  0.00064194  0.49933909  1
  Al  Al5  1  0.13989053  0.11747944  0.70838948  1
  Al  Al6  1  0.50111284  0.50018109  0.49933739  1
  Al  Al7  1  0.86548925  0.88532791  0.28792739  1
  Al  Al8  1  0.50416453  0.00243156  0.83182377  1
  Al  Al9  1  0.50416957  0.49795616  0.83181140  1
  Al  Al10  1  0.86843828  0.88268603  0.62206580  1
  Al  Al11  1  0.86094703  0.87977796  0.95985068  1
  Ni  Ni12  1  0.12751403  0.12380193  0.04166829  1
  Ni  Ni13  1  0.49913876  0.50143902  0.33264384  1
  Ni  Ni14  1  0.99822741  0.49958664  0.16753036  1
  Ni  Ni15  1  0.50209275  0.49902974  0.66662237  1
  Ni  Ni16  1  0.00027772  0.50026414  0.49972150  1
  Ni  Ni17  1  0.00564682  0.49874423  0.83229043  1
  O  O18  1  0.28150903  0.25225686  0.08499328  1
  O  O19  1  0.26201424  0.24375600  0.25015352  1
  O  O20  1  0.28141574  0.71131192  0.08501341  1
  O  O21  1  0.70261393  0.26388399  0.08985779  1
  O  O22  1  0.25702422  0.75849347  0.24199314  1
  O  O23  1  0.26546684  0.23235036  0.42251208  1
  O  O24  1  0.73186980  0.26524363  0.24412542  1
  O  O25  1  0.72576417  0.75399455  0.08874129  1
  O  O26  1  0.26545773  0.73457788  0.42251599  1
  O  O27  1  0.27280935  0.24613347  0.57831942  1
  O  O28  1  0.73188656  0.77045419  0.24412795  1
  O  O29  1  0.73801117  0.24559177  0.42358586  1
  O  O30  1  0.26820551  0.22945130  0.75459365  1
  O  O31  1  0.26073029  0.75348134  0.57743774  1
  O  O32  1  0.73422123  0.26380170  0.57831765  1
  O  O33  1  0.29398642  0.25275278  0.90018407  1
  O  O34  1  0.72949889  0.75483049  0.42025331  1
  O  O35  1  0.26819171  0.73858675  0.75459339  1
  O  O36  1  0.75224446  0.24117191  0.75514782  1
  O  O37  1  0.73421476  0.76704922  0.57832076  1
  O  O38  1  0.26701235  0.74201362  0.91633897  1
  O  O39  1  0.72682983  0.27054011  0.91771063  1
  O  O40  1  0.73023814  0.75301258  0.75458248  1
  O  O41  1  0.72683542  0.74952832  0.91771803  1
