# generated using pymatgen
data_KCuF3
_symmetry_space_group_name_H-M   'P 1'
_cell_length_a   5.75495772
_cell_length_b   5.75495772
_cell_length_c   5.75495772
_cell_angle_alpha   90.28056390
_cell_angle_beta   119.83814871
_cell_angle_gamma   119.83814875
_symmetry_Int_Tables_number   1
_chemical_formula_structural   KCuF3
_chemical_formula_sum   'K2 Cu2 F6'
_cell_volume   135.10360184
_cell_formula_units_Z   2
loop_
 _symmetry_equiv_pos_site_id
 _symmetry_equiv_pos_as_xyz
  1  'x, y, z'
loop_
 _atom_site_type_symbol
 _atom_site_label
 _atom_site_symmetry_multiplicity
 _atom_site_fract_x
 _atom_site_fract_y
 _atom_site_fract_z
 _atom_site_occupancy
  F  F0  1  0.01362767  0.25681383  0.75681383  1
  F  F1  1  0.50000000  0.75681383  0.74318617  1
  F  F2  1  0.50000000  0.24318617  0.25681383  1
  F  F3  1  0.98637233  0.74318617  0.24318617  1
  F  F4  1  0.50000000  0.75000000  0.25000000  1
  F  F5  1  0.50000000  0.25000000  0.75000000  1
  K  K6  1  0.00000000  0.75000000  0.75000000  1
  K  K7  1  0.00000000  0.25000000  0.25000000  1
  Cu  Cu8  1  0.50000000  0.00000000  0.50000000  1
  Cu  Cu9  1  0.50000000  0.50000000  0.00000000  1
