# generated using pymatgen
data_Ca(Ce2Se3)4
_symmetry_space_group_name_H-M   'P 1'
_cell_length_a   23.14885095
_cell_length_b   8.91255359
_cell_length_c   8.91255328
_cell_angle_alpha   89.94862718
_cell_angle_beta   54.67101015
_cell_angle_gamma   54.67101116
_symmetry_Int_Tables_number   1
_chemical_formula_structural   Ca(Ce2Se3)4
_chemical_formula_sum   'Ca2 Ce16 Se24'
_cell_volume   1059.19378596
_cell_formula_units_Z   2
loop_
 _symmetry_equiv_pos_site_id
 _symmetry_equiv_pos_as_xyz
  1  'x, y, z'
loop_
 _atom_site_type_symbol
 _atom_site_label
 _atom_site_symmetry_multiplicity
 _atom_site_fract_x
 _atom_site_fract_y
 _atom_site_fract_z
 _atom_site_occupancy
  Ca  Ca0  1  0.16674074  0.24983168  0.62494976  1
  Ca  Ca1  1  0.66674074  0.12494976  0.74983168  1
  Ce  Ce2  1  0.00003381  0.12521047  0.74995030  1
  Ce  Ce3  1  0.08365971  0.62426153  0.37448798  1
  Ce  Ce4  1  0.33331569  0.37484360  0.24922396  1
  Ce  Ce5  1  0.24989349  0.87525577  0.12570143  1
  Ce  Ce6  1  0.16655892  0.75024246  0.87535575  1
  Ce  Ce7  1  0.33307578  0.12490901  0.75023363  1
  Ce  Ce8  1  0.41662798  0.62535026  0.37567898  1
  Ce  Ce9  1  0.50003381  0.24995030  0.62521047  1
  Ce  Ce10  1  0.66655892  0.37535575  0.25024246  1
  Ce  Ce11  1  0.58365971  0.87448798  0.12426153  1
  Ce  Ce12  1  0.49988634  0.74989668  0.87505393  1
  Ce  Ce13  1  0.74989349  0.62570143  0.37525577  1
  Ce  Ce14  1  0.83307578  0.25023363  0.62490901  1
  Ce  Ce15  1  0.99988634  0.37505393  0.24989668  1
  Ce  Ce16  1  0.91662798  0.87567898  0.12535026  1
  Ce  Ce17  1  0.83331569  0.74922396  0.87484360  1
  Se  Se18  1  0.11660512  0.50137688  0.00141897  1
  Se  Se19  1  0.04923176  0.35036143  0.49952689  1
  Se  Se20  1  0.28433205  0.14889017  0.14662225  1
  Se  Se21  1  0.05015324  0.00016754  0.34950327  1
  Se  Se22  1  0.28322583  0.50022837  0.99986273  1
  Se  Se23  1  0.11683145  0.64964241  0.65099056  1
  Se  Se24  1  0.21695215  0.99819020  0.85113287  1
  Se  Se25  1  0.21638823  0.85058699  0.50112483  1
  Se  Se26  1  0.45011107  0.49922515  0.99984174  1
  Se  Se27  1  0.38325898  0.34988022  0.50049164  1
  Se  Se28  1  0.38294600  0.00053681  0.34974776  1
  Se  Se29  1  0.61683145  0.15099056  0.14964241  1
  Se  Se30  1  0.61660512  0.50141897  0.00137688  1
  Se  Se31  1  0.45017165  0.65007541  0.65013772  1
  Se  Se32  1  0.54923176  0.99952689  0.85036143  1
  Se  Se33  1  0.55015324  0.84950327  0.50016754  1
  Se  Se34  1  0.78322583  0.49986273  0.00022837  1
  Se  Se35  1  0.71695215  0.35113287  0.49819020  1
  Se  Se36  1  0.71638823  0.00112483  0.35058699  1
  Se  Se37  1  0.95017165  0.15013772  0.15007541  1
  Se  Se38  1  0.95011107  0.49984174  0.99922515  1
  Se  Se39  1  0.88325898  0.00049164  0.84988022  1
  Se  Se40  1  0.78433205  0.64662225  0.64889017  1
  Se  Se41  1  0.88294600  0.84974776  0.50053681  1
