# generated using pymatgen
data_CaGe2O5
_symmetry_space_group_name_H-M   'P 1'
_cell_length_a   5.80387950
_cell_length_b   7.44479690
_cell_length_c   8.38374919
_cell_angle_alpha   90.00000000
_cell_angle_beta   90.00000000
_cell_angle_gamma   90.00000000
_symmetry_Int_Tables_number   1
_chemical_formula_structural   CaGe2O5
_chemical_formula_sum   'Ca4 Ge8 O20'
_cell_volume   362.25093808
_cell_formula_units_Z   4
loop_
 _symmetry_equiv_pos_site_id
 _symmetry_equiv_pos_as_xyz
  1  'x, y, z'
loop_
 _atom_site_type_symbol
 _atom_site_label
 _atom_site_symmetry_multiplicity
 _atom_site_fract_x
 _atom_site_fract_y
 _atom_site_fract_z
 _atom_site_occupancy
  O  O0  1  0.00000000  0.84357166  0.07312200  1
  O  O1  1  0.00000000  0.15642834  0.92687800  1
  O  O2  1  0.00000000  0.34357166  0.42687800  1
  O  O3  1  0.00000000  0.65642834  0.57312200  1
  O  O4  1  0.50000000  0.34292492  0.44470821  1
  O  O5  1  0.50000000  0.65707508  0.55529179  1
  O  O6  1  0.50000000  0.84292492  0.05529179  1
  O  O7  1  0.50000000  0.15707508  0.94470821  1
  O  O8  1  0.20872304  0.50000000  0.00000000  1
  O  O9  1  0.79127696  0.00000000  0.50000000  1
  O  O10  1  0.79127696  0.50000000  0.00000000  1
  O  O11  1  0.20872304  0.00000000  0.50000000  1
  O  O12  1  0.24131402  0.10559675  0.20800401  1
  O  O13  1  0.24131402  0.89440325  0.79199599  1
  O  O14  1  0.75868598  0.60559675  0.29199599  1
  O  O15  1  0.75868598  0.39440325  0.70800401  1
  O  O16  1  0.75868598  0.89440325  0.79199599  1
  O  O17  1  0.75868598  0.10559675  0.20800401  1
  O  O18  1  0.24131402  0.39440325  0.70800401  1
  O  O19  1  0.24131402  0.60559675  0.29199599  1
  Ca  Ca20  1  0.50000000  0.36339528  0.16609167  1
  Ca  Ca21  1  0.50000000  0.63660472  0.83390833  1
  Ca  Ca22  1  0.50000000  0.86339528  0.33390833  1
  Ca  Ca23  1  0.50000000  0.13660472  0.66609167  1
  Ge  Ge24  1  0.00000000  0.60872339  0.14589526  1
  Ge  Ge25  1  0.00000000  0.39127661  0.85410474  1
  Ge  Ge26  1  0.00000000  0.10872339  0.35410474  1
  Ge  Ge27  1  0.00000000  0.89127661  0.64589526  1
  Ge  Ge28  1  0.25344172  0.50000000  0.50000000  1
  Ge  Ge29  1  0.74655828  0.00000000  0.00000000  1
  Ge  Ge30  1  0.74655828  0.50000000  0.50000000  1
  Ge  Ge31  1  0.25344172  0.00000000  0.00000000  1
