# generated using pymatgen
data_Hg3AsO4
_symmetry_space_group_name_H-M   'P 1'
_cell_length_a   5.29483786
_cell_length_b   9.33114173
_cell_length_c   12.38573348
_cell_angle_alpha   96.04035264
_cell_angle_beta   90.00000000
_cell_angle_gamma   90.00000000
_symmetry_Int_Tables_number   1
_chemical_formula_structural   Hg3AsO4
_chemical_formula_sum   'Hg12 As4 O16'
_cell_volume   608.54300427
_cell_formula_units_Z   4
loop_
 _symmetry_equiv_pos_site_id
 _symmetry_equiv_pos_as_xyz
  1  'x, y, z'
loop_
 _atom_site_type_symbol
 _atom_site_label
 _atom_site_symmetry_multiplicity
 _atom_site_fract_x
 _atom_site_fract_y
 _atom_site_fract_z
 _atom_site_occupancy
  O  O0  1  0.44002145  0.46545927  0.22888375  1
  O  O1  1  0.94002145  0.03454073  0.27111625  1
  O  O2  1  0.55997855  0.53454073  0.77111625  1
  O  O3  1  0.05997855  0.96545927  0.72888375  1
  O  O4  1  0.02193709  0.33964743  0.11616966  1
  O  O5  1  0.52193709  0.16035257  0.38383034  1
  O  O6  1  0.97806291  0.66035257  0.88383034  1
  O  O7  1  0.47806291  0.83964743  0.61616966  1
  O  O8  1  0.01332330  0.39381286  0.34703150  1
  O  O9  1  0.50549472  0.12968395  0.72266847  1
  O  O10  1  0.98667670  0.60618714  0.65296850  1
  O  O11  1  0.48667670  0.89381286  0.84703150  1
  O  O12  1  0.99450528  0.62968395  0.22266847  1
  O  O13  1  0.49450528  0.87031605  0.27733153  1
  O  O14  1  0.00549472  0.37031605  0.77733153  1
  O  O15  1  0.51332330  0.10618714  0.15296850  1
  As  As16  1  0.88519021  0.54396451  0.77282215  1
  As  As17  1  0.11480979  0.45603549  0.22717785  1
  As  As18  1  0.38519021  0.95603549  0.72717785  1
  As  As19  1  0.61480979  0.04396451  0.27282215  1
  Hg  Hg20  1  0.84603664  0.17195586  0.62575227  1
  Hg  Hg21  1  0.63607775  0.31435562  0.04372851  1
  Hg  Hg22  1  0.86392225  0.81435562  0.54372851  1
  Hg  Hg23  1  0.36392225  0.68564438  0.95627149  1
  Hg  Hg24  1  0.13607775  0.18564438  0.45627149  1
  Hg  Hg25  1  0.34603664  0.32804414  0.87424773  1
  Hg  Hg26  1  0.15396336  0.82804414  0.37424773  1
  Hg  Hg27  1  0.65396336  0.67195586  0.12575227  1
  Hg  Hg28  1  0.63285061  0.45207571  0.41502693  1
  Hg  Hg29  1  0.13285061  0.04792429  0.08497307  1
  Hg  Hg30  1  0.36714939  0.54792429  0.58497307  1
  Hg  Hg31  1  0.86714939  0.95207571  0.91502693  1
