# generated using pymatgen
data_NaCaNb2O6F
_symmetry_space_group_name_H-M   'P 1'
_cell_length_a   7.48147845
_cell_length_b   7.53080916
_cell_length_c   7.48147903
_cell_angle_alpha   59.78164218
_cell_angle_beta   59.62239497
_cell_angle_gamma   59.78164507
_symmetry_Int_Tables_number   1
_chemical_formula_structural   NaCaNb2O6F
_chemical_formula_sum   'Na2 Ca2 Nb4 O12 F2'
_cell_volume   296.21956071
_cell_formula_units_Z   2
loop_
 _symmetry_equiv_pos_site_id
 _symmetry_equiv_pos_as_xyz
  1  'x, y, z'
loop_
 _atom_site_type_symbol
 _atom_site_label
 _atom_site_symmetry_multiplicity
 _atom_site_fract_x
 _atom_site_fract_y
 _atom_site_fract_z
 _atom_site_occupancy
  Ca  Ca0  1  0.62500000  0.12500000  0.62500000  1
  Ca  Ca1  1  0.62500000  0.62500000  0.62500000  1
  F  F2  1  0.50678198  0.49321802  0.50678198  1
  F  F3  1  0.74321802  0.75678198  0.74321802  1
  Na  Na4  1  0.12500000  0.62500000  0.62500000  1
  Na  Na5  1  0.62500000  0.62500000  0.12500000  1
  Nb  Nb6  1  0.12500000  0.12500000  0.12500000  1
  Nb  Nb7  1  0.12500000  0.12500000  0.62500000  1
  Nb  Nb8  1  0.12500000  0.62500000  0.12500000  1
  Nb  Nb9  1  0.62500000  0.12500000  0.12500000  1
  O  O10  1  0.05165949  0.06151070  0.44488444  1
  O  O11  1  0.06160556  0.43839444  0.06160556  1
  O  O12  1  0.44488444  0.06151070  0.05165949  1
  O  O13  1  0.05165949  0.44194537  0.44488444  1
  O  O14  1  0.19834051  0.18848930  0.80511556  1
  O  O15  1  0.18839444  0.81160556  0.18839444  1
  O  O16  1  0.44488444  0.44194537  0.05165949  1
  O  O17  1  0.44758435  0.05241565  0.44758435  1
  O  O18  1  0.80511556  0.18848930  0.19834051  1
  O  O19  1  0.19834051  0.80805463  0.80511556  1
  O  O20  1  0.80511556  0.80805463  0.19834051  1
  O  O21  1  0.80241565  0.19758435  0.80241565  1
