# generated using pymatgen
data_Mg14NbSb
_symmetry_space_group_name_H-M   'P 1'
_cell_length_a   6.33507752
_cell_length_b   6.33507701
_cell_length_c   10.19110662
_cell_angle_alpha   90.00000000
_cell_angle_beta   90.00000000
_cell_angle_gamma   120.00000266
_symmetry_Int_Tables_number   1
_chemical_formula_structural   Mg14NbSb
_chemical_formula_sum   'Mg14 Nb1 Sb1'
_cell_volume   354.20590538
_cell_formula_units_Z   1
loop_
 _symmetry_equiv_pos_site_id
 _symmetry_equiv_pos_as_xyz
  1  'x, y, z'
loop_
 _atom_site_type_symbol
 _atom_site_label
 _atom_site_symmetry_multiplicity
 _atom_site_fract_x
 _atom_site_fract_y
 _atom_site_fract_z
 _atom_site_occupancy
  Mg  Mg0  1  0.16816459  0.83408180  0.12500000  1
  Mg  Mg1  1  0.16544161  0.83272031  0.62500000  1
  Mg  Mg2  1  0.66591820  0.33183541  0.12500000  1
  Mg  Mg3  1  0.66727969  0.33455839  0.62500000  1
  Mg  Mg4  1  0.66591820  0.83408180  0.12500000  1
  Mg  Mg5  1  0.66727969  0.83272031  0.62500000  1
  Mg  Mg6  1  0.32962370  0.17037630  0.36899341  1
  Mg  Mg7  1  0.32962370  0.17037630  0.88100659  1
  Mg  Mg8  1  0.32962370  0.65924839  0.36899341  1
  Mg  Mg9  1  0.32962370  0.65924839  0.88100659  1
  Mg  Mg10  1  0.84075161  0.17037630  0.36899341  1
  Mg  Mg11  1  0.84075161  0.17037630  0.88100659  1
  Mg  Mg12  1  0.83333300  0.66666700  0.37205958  1
  Mg  Mg13  1  0.83333300  0.66666700  0.87794042  1
  Nb  Nb14  1  0.16666700  0.33333300  0.12500000  1
  Sb  Sb15  1  0.16666700  0.33333300  0.62500000  1
