# generated using pymatgen
data_Li3Cr2(PO4)3
_symmetry_space_group_name_H-M   'P 1'
_cell_length_a   8.45529197
_cell_length_b   8.72535047
_cell_length_c   12.00083408
_cell_angle_alpha   90.00003230
_cell_angle_beta   89.57162646
_cell_angle_gamma   89.99994162
_symmetry_Int_Tables_number   1
_chemical_formula_structural   Li3Cr2(PO4)3
_chemical_formula_sum   'Li12 Cr8 P12 O48'
_cell_volume   885.34141849
_cell_formula_units_Z   4
loop_
 _symmetry_equiv_pos_site_id
 _symmetry_equiv_pos_as_xyz
  1  'x, y, z'
loop_
 _atom_site_type_symbol
 _atom_site_label
 _atom_site_symmetry_multiplicity
 _atom_site_fract_x
 _atom_site_fract_y
 _atom_site_fract_z
 _atom_site_occupancy
  Cr  Cr0  1  0.24721482  0.02738242  0.10687129  1
  Cr  Cr1  1  0.24619525  0.46517204  0.88917594  1
  Cr  Cr2  1  0.25278266  0.52736234  0.39314843  1
  Cr  Cr3  1  0.25378943  0.96518477  0.61083511  1
  Cr  Cr4  1  0.74621057  0.03481523  0.38916489  1
  Cr  Cr5  1  0.74721734  0.47263766  0.60685157  1
  Cr  Cr6  1  0.75380475  0.53482796  0.11082406  1
  Cr  Cr7  1  0.75278518  0.97261758  0.89312871  1
  Li  Li8  1  0.06951337  0.51165091  0.65489830  1
  Li  Li9  1  0.08203958  0.08789624  0.30960728  1
  Li  Li10  1  0.17647728  0.78230456  0.82419845  1
  Li  Li11  1  0.32352266  0.28231601  0.67580159  1
  Li  Li12  1  0.41796141  0.58789600  0.19039312  1
  Li  Li13  1  0.43048428  0.01165836  0.84509991  1
  Li  Li14  1  0.56951572  0.98834164  0.15490009  1
  Li  Li15  1  0.58203859  0.41210400  0.80960688  1
  Li  Li16  1  0.67647734  0.71768399  0.32419841  1
  Li  Li17  1  0.82352272  0.21769544  0.17580155  1
  Li  Li18  1  0.91796042  0.91210276  0.69039272  1
  Li  Li19  1  0.93048663  0.48834909  0.34510170  1
  O  O20  1  0.05359890  0.87300424  0.55609863  1
  O  O21  1  0.05738734  0.66736115  0.39829231  1
  O  O22  1  0.05889277  0.88547594  0.10402719  1
  O  O23  1  0.06323894  0.57636013  0.81345947  1
  O  O24  1  0.09479589  0.36214966  0.41692409  1
  O  O25  1  0.11764443  0.20530684  0.16848617  1
  O  O26  1  0.12650466  0.99459977  0.75453111  1
  O  O27  1  0.13791400  0.41880446  0.02766472  1
  O  O28  1  0.17299661  0.27041464  0.81238512  1
  O  O29  1  0.18629837  0.17748293  0.56428720  1
  O  O30  1  0.22640340  0.47438811  0.22479310  1
  O  O31  1  0.23224477  0.04972682  0.94080232  1
  O  O32  1  0.26775123  0.54972061  0.55920428  1
  O  O33  1  0.27359710  0.97438610  0.27521451  1
  O  O34  1  0.31369243  0.67748501  0.93572088  1
  O  O35  1  0.32699861  0.77041279  0.68761560  1
  O  O36  1  0.36208795  0.91880884  0.47233910  1
  O  O37  1  0.37349554  0.49460164  0.74547361  1
  O  O38  1  0.38235790  0.70530615  0.33152754  1
  O  O39  1  0.40520516  0.86215012  0.08308030  1
  O  O40  1  0.43676059  0.07636194  0.68653307  1
  O  O41  1  0.44111486  0.38548087  0.39597206  1
  O  O42  1  0.44261998  0.16735854  0.10170824  1
  O  O43  1  0.44639842  0.37300548  0.94390504  1
  O  O44  1  0.55360158  0.62699452  0.05609496  1
  O  O45  1  0.55738002  0.83264146  0.89829176  1
  O  O46  1  0.55888514  0.61451913  0.60402794  1
  O  O47  1  0.56323941  0.92363806  0.31346693  1
  O  O48  1  0.59479484  0.13784988  0.91691970  1
  O  O49  1  0.61764210  0.29469385  0.66847246  1
  O  O50  1  0.62650446  0.50539836  0.25452639  1
  O  O51  1  0.63791205  0.08119116  0.52766090  1
  O  O52  1  0.67300139  0.22958721  0.31238440  1
  O  O53  1  0.68630757  0.32251499  0.06427912  1
  O  O54  1  0.72640290  0.02561390  0.72478549  1
  O  O55  1  0.73224877  0.45027939  0.44079572  1
  O  O56  1  0.76775523  0.95027318  0.05919768  1
  O  O57  1  0.77359660  0.52561189  0.77520690  1
  O  O58  1  0.81370163  0.82251707  0.43571280  1
  O  O59  1  0.82700339  0.72958536  0.18761488  1
  O  O60  1  0.86208600  0.58119554  0.97233528  1
  O  O61  1  0.87349534  0.00540023  0.24546889  1
  O  O62  1  0.88235557  0.79469316  0.83151383  1
  O  O63  1  0.90520411  0.63785034  0.58307591  1
  O  O64  1  0.93676106  0.42363987  0.18654053  1
  O  O65  1  0.94110723  0.11452406  0.89597281  1
  O  O66  1  0.94261266  0.33263885  0.60170769  1
  O  O67  1  0.94640110  0.12699576  0.44390137  1
  P  P68  1  0.03863792  0.24920788  0.50940672  1
  P  P69  1  0.11172317  0.38272132  0.14956223  1
  P  P70  1  0.11146692  0.11249243  0.85358435  1
  P  P71  1  0.38827992  0.88271863  0.35044362  1
  P  P72  1  0.38853082  0.61249231  0.64641827  1
  P  P73  1  0.46135920  0.74921027  0.99059547  1
  P  P74  1  0.53864080  0.25078973  0.00940453  1
  P  P75  1  0.61146918  0.38750769  0.35358173  1
  P  P76  1  0.61172008  0.11728137  0.64955638  1
  P  P77  1  0.88853308  0.88750757  0.14641565  1
  P  P78  1  0.88827783  0.61727868  0.85043777  1
  P  P79  1  0.96136208  0.75079212  0.49059328  1
