# generated using pymatgen
data_CuAs4(H5O8)2
_symmetry_space_group_name_H-M   'P 1'
_cell_length_a   5.47198396
_cell_length_b   7.71509634
_cell_length_c   8.62467332
_cell_angle_alpha   107.77565949
_cell_angle_beta   98.54817929
_cell_angle_gamma   92.94246431
_symmetry_Int_Tables_number   1
_chemical_formula_structural   CuAs4(H5O8)2
_chemical_formula_sum   'Cu1 As4 H10 O16'
_cell_volume   341.05935943
_cell_formula_units_Z   1
loop_
 _symmetry_equiv_pos_site_id
 _symmetry_equiv_pos_as_xyz
  1  'x, y, z'
loop_
 _atom_site_type_symbol
 _atom_site_label
 _atom_site_symmetry_multiplicity
 _atom_site_fract_x
 _atom_site_fract_y
 _atom_site_fract_z
 _atom_site_occupancy
  As  As0  1  0.03428610  0.28184471  0.69892177  1
  As  As1  1  0.96571390  0.71815529  0.30107823  1
  As  As2  1  0.42136189  0.81516328  0.79749879  1
  As  As3  1  0.57863811  0.18483672  0.20250121  1
  Cu  Cu4  1  0.00000000  0.00000000  0.00000000  1
  O  O5  1  0.86842915  0.47361135  0.72554982  1
  O  O6  1  0.13157085  0.52638865  0.27445018  1
  O  O7  1  0.12038162  0.24150105  0.50565413  1
  O  O8  1  0.87961838  0.75849895  0.49434587  1
  O  O9  1  0.87134377  0.09684085  0.71188081  1
  O  O10  1  0.12865623  0.90315915  0.28811919  1
  O  O11  1  0.29537437  0.36453932  0.85274982  1
  O  O12  1  0.70462563  0.63546068  0.14725018  1
  O  O13  1  0.67488942  0.84889444  0.95119336  1
  O  O14  1  0.32511058  0.15110556  0.04880664  1
  O  O15  1  0.41897625  0.60435795  0.64654726  1
  O  O16  1  0.58102375  0.39564205  0.35345274  1
  O  O17  1  0.14066440  0.79447592  0.85919411  1
  O  O18  1  0.85933560  0.20552408  0.14080589  1
  O  O19  1  0.41613985  0.97955718  0.69654324  1
  O  O20  1  0.58386015  0.02044282  0.30345676  1
  H  H21  1  0.11029022  0.10734958  0.44160264  1
  H  H22  1  0.88970978  0.89265042  0.55839736  1
  H  H23  1  0.98497073  0.59156910  0.77626799  1
  H  H24  1  0.01502927  0.40843090  0.22373201  1
  H  H25  1  0.31390876  0.28404445  0.92583818  1
  H  H26  1  0.68609124  0.71595555  0.07416182  1
  H  H27  1  0.57605854  0.54764235  0.66435658  1
  H  H28  1  0.42394146  0.45235765  0.33564342  1
  H  H29  1  0.59105262  0.03901042  0.70385563  1
  H  H30  1  0.40894738  0.96098958  0.29614437  1
