# generated using pymatgen
data_CdPH6NO5
_symmetry_space_group_name_H-M   'P 1'
_cell_length_a   4.99488600
_cell_length_b   5.87990474
_cell_length_c   18.31688136
_cell_angle_alpha   90.00000000
_cell_angle_beta   90.00000000
_cell_angle_gamma   90.00000000
_symmetry_Int_Tables_number   1
_chemical_formula_structural   CdPH6NO5
_chemical_formula_sum   'Cd4 P4 H24 N4 O20'
_cell_volume   537.95680209
_cell_formula_units_Z   4
loop_
 _symmetry_equiv_pos_site_id
 _symmetry_equiv_pos_as_xyz
  1  'x, y, z'
loop_
 _atom_site_type_symbol
 _atom_site_label
 _atom_site_symmetry_multiplicity
 _atom_site_fract_x
 _atom_site_fract_y
 _atom_site_fract_z
 _atom_site_occupancy
  H  H0  1  0.55826221  0.75000000  0.47727059  1
  H  H1  1  0.05826221  0.25000000  0.02272941  1
  H  H2  1  0.44173779  0.25000000  0.52272941  1
  H  H3  1  0.94173779  0.75000000  0.97727059  1
  H  H4  1  0.90912383  0.75000000  0.47605762  1
  H  H5  1  0.40912383  0.25000000  0.02394238  1
  H  H6  1  0.09087617  0.25000000  0.52394238  1
  H  H7  1  0.59087617  0.75000000  0.97605762  1
  H  H8  1  0.31737551  0.88313621  0.65006614  1
  H  H9  1  0.81737551  0.11686379  0.84993386  1
  H  H10  1  0.68262449  0.38313621  0.34993386  1
  H  H11  1  0.18262449  0.61686379  0.15006614  1
  H  H12  1  0.68262449  0.11686379  0.34993386  1
  H  H13  1  0.18262449  0.88313621  0.15006614  1
  H  H14  1  0.31737551  0.61686379  0.65006614  1
  H  H15  1  0.81737551  0.38313621  0.84993386  1
  H  H16  1  0.74058334  0.89497844  0.54091072  1
  H  H17  1  0.24058334  0.10502156  0.95908928  1
  H  H18  1  0.25941666  0.39497844  0.45908928  1
  H  H19  1  0.75941666  0.60502156  0.04091072  1
  H  H20  1  0.25941666  0.10502156  0.45908928  1
  H  H21  1  0.75941666  0.89497844  0.04091072  1
  H  H22  1  0.74058334  0.60502156  0.54091072  1
  H  H23  1  0.24058334  0.39497844  0.95908928  1
  Cd  Cd24  1  0.85993967  0.75000000  0.73465283  1
  Cd  Cd25  1  0.35993967  0.25000000  0.76534717  1
  Cd  Cd26  1  0.14006033  0.25000000  0.26534717  1
  Cd  Cd27  1  0.64006033  0.75000000  0.23465283  1
  P  P28  1  0.28361730  0.75000000  0.85363966  1
  P  P29  1  0.78361730  0.25000000  0.64636034  1
  P  P30  1  0.71638270  0.25000000  0.14636034  1
  P  P31  1  0.21638270  0.75000000  0.35363966  1
  O  O32  1  0.57999072  0.75000000  0.83282763  1
  O  O33  1  0.07999072  0.25000000  0.66717237  1
  O  O34  1  0.42000928  0.25000000  0.16717237  1
  O  O35  1  0.92000928  0.75000000  0.33282763  1
  O  O36  1  0.13273834  0.96281001  0.82046772  1
  O  O37  1  0.63273834  0.03718999  0.67953228  1
  O  O38  1  0.86726166  0.46281001  0.17953228  1
  O  O39  1  0.36726166  0.53718999  0.32046772  1
  O  O40  1  0.86726166  0.03718999  0.17953228  1
  O  O41  1  0.36726166  0.96281001  0.32046772  1
  O  O42  1  0.13273834  0.53718999  0.82046772  1
  O  O43  1  0.63273834  0.46281001  0.67953228  1
  O  O44  1  0.25337102  0.75000000  0.93818380  1
  O  O45  1  0.75337102  0.25000000  0.56181620  1
  O  O46  1  0.74662898  0.25000000  0.06181620  1
  O  O47  1  0.24662898  0.75000000  0.43818380  1
  O  O48  1  0.19828116  0.75000000  0.64326805  1
  O  O49  1  0.69828116  0.25000000  0.85673195  1
  O  O50  1  0.80171884  0.25000000  0.35673195  1
  O  O51  1  0.30171884  0.75000000  0.14326805  1
  N  N52  1  0.73646029  0.75000000  0.50888065  1
  N  N53  1  0.23646029  0.25000000  0.99111935  1
  N  N54  1  0.26353971  0.25000000  0.49111935  1
  N  N55  1  0.76353971  0.75000000  0.00888065  1
