# generated using pymatgen
data_CsBaIn2(PO4)3
_symmetry_space_group_name_H-M   'P 1'
_cell_length_a   10.42292086
_cell_length_b   10.42292086
_cell_length_c   10.42292086
_cell_angle_alpha   90.00000000
_cell_angle_beta   90.00000000
_cell_angle_gamma   90.00000000
_symmetry_Int_Tables_number   1
_chemical_formula_structural   CsBaIn2(PO4)3
_chemical_formula_sum   'Cs4 Ba4 In8 P12 O48'
_cell_volume   1132.31776411
_cell_formula_units_Z   4
loop_
 _symmetry_equiv_pos_site_id
 _symmetry_equiv_pos_as_xyz
  1  'x, y, z'
loop_
 _atom_site_type_symbol
 _atom_site_label
 _atom_site_symmetry_multiplicity
 _atom_site_fract_x
 _atom_site_fract_y
 _atom_site_fract_z
 _atom_site_occupancy
  Ba  Ba0  1  0.18513794  0.31486206  0.68513794  1
  Ba  Ba1  1  0.31486206  0.68513794  0.18513794  1
  Ba  Ba2  1  0.68513794  0.18513794  0.31486206  1
  Ba  Ba3  1  0.81486206  0.81486206  0.81486206  1
  Cs  Cs4  1  0.04611310  0.04611310  0.04611310  1
  Cs  Cs5  1  0.45388690  0.95388690  0.54611310  1
  Cs  Cs6  1  0.54611310  0.45388690  0.95388690  1
  Cs  Cs7  1  0.95388690  0.54611310  0.45388690  1
  In  In8  1  0.09829350  0.90170650  0.40170650  1
  In  In9  1  0.16943388  0.66943388  0.83056612  1
  In  In10  1  0.33056612  0.33056612  0.33056612  1
  In  In11  1  0.40170650  0.09829350  0.90170650  1
  In  In12  1  0.59829350  0.59829350  0.59829350  1
  In  In13  1  0.66943388  0.83056612  0.16943388  1
  In  In14  1  0.83056612  0.16943388  0.66943388  1
  In  In15  1  0.90170650  0.40170650  0.09829350  1
  O  O16  1  0.00218842  0.56522591  0.76477978  1
  O  O17  1  0.00802360  0.07265787  0.33254381  1
  O  O18  1  0.05132797  0.79604235  0.22626792  1
  O  O19  1  0.06522591  0.73522022  0.99781158  1
  O  O20  1  0.07265787  0.33254381  0.00802360  1
  O  O21  1  0.08985038  0.84616254  0.75658955  1
  O  O22  1  0.15383746  0.25658955  0.41014962  1
  O  O23  1  0.16745619  0.99197640  0.57265787  1
  O  O24  1  0.20395765  0.72626792  0.44867203  1
  O  O25  1  0.22626792  0.05132797  0.79604235  1
  O  O26  1  0.23522022  0.50218842  0.93477409  1
  O  O27  1  0.24341045  0.58985038  0.65383746  1
  O  O28  1  0.25658955  0.41014962  0.15383746  1
  O  O29  1  0.26477978  0.49781158  0.43477409  1
  O  O30  1  0.27373208  0.94867203  0.29604235  1
  O  O31  1  0.29604235  0.27373208  0.94867203  1
  O  O32  1  0.33254381  0.00802360  0.07265787  1
  O  O33  1  0.34616254  0.74341045  0.91014962  1
  O  O34  1  0.41014962  0.15383746  0.25658955  1
  O  O35  1  0.42734213  0.66745619  0.50802360  1
  O  O36  1  0.43477409  0.26477978  0.49781158  1
  O  O37  1  0.44867203  0.20395765  0.72626792  1
  O  O38  1  0.49197640  0.92734213  0.83254381  1
  O  O39  1  0.49781158  0.43477409  0.26477978  1
  O  O40  1  0.50218842  0.93477409  0.23522022  1
  O  O41  1  0.50802360  0.42734213  0.66745619  1
  O  O42  1  0.55132797  0.70395765  0.77373208  1
  O  O43  1  0.56522591  0.76477978  0.00218842  1
  O  O44  1  0.57265787  0.16745619  0.99197640  1
  O  O45  1  0.58985038  0.65383746  0.24341045  1
  O  O46  1  0.65383746  0.24341045  0.58985038  1
  O  O47  1  0.66745619  0.50802360  0.42734213  1
  O  O48  1  0.70395765  0.77373208  0.55132797  1
  O  O49  1  0.72626792  0.44867203  0.20395765  1
  O  O50  1  0.73522022  0.99781158  0.06522591  1
  O  O51  1  0.74341045  0.91014962  0.34616254  1
  O  O52  1  0.75658955  0.08985038  0.84616254  1
  O  O53  1  0.76477978  0.00218842  0.56522591  1
  O  O54  1  0.77373208  0.55132797  0.70395765  1
  O  O55  1  0.79604235  0.22626792  0.05132797  1
  O  O56  1  0.83254381  0.49197640  0.92734213  1
  O  O57  1  0.84616254  0.75658955  0.08985038  1
  O  O58  1  0.91014962  0.34616254  0.74341045  1
  O  O59  1  0.92734213  0.83254381  0.49197640  1
  O  O60  1  0.93477409  0.23522022  0.50218842  1
  O  O61  1  0.94867203  0.29604235  0.27373208  1
  O  O62  1  0.99197640  0.57265787  0.16745619  1
  O  O63  1  0.99781158  0.06522591  0.73522022  1
  P  P64  1  0.01463487  0.21371519  0.37828375  1
  P  P65  1  0.12171625  0.98536513  0.71371519  1
  P  P66  1  0.21371519  0.37828375  0.01463487  1
  P  P67  1  0.28628481  0.62171625  0.51463487  1
  P  P68  1  0.37828375  0.01463487  0.21371519  1
  P  P69  1  0.48536513  0.78628481  0.87828375  1
  P  P70  1  0.51463487  0.28628481  0.62171625  1
  P  P71  1  0.62171625  0.51463487  0.28628481  1
  P  P72  1  0.71371519  0.12171625  0.98536513  1
  P  P73  1  0.78628481  0.87828375  0.48536513  1
  P  P74  1  0.87828375  0.48536513  0.78628481  1
  P  P75  1  0.98536513  0.71371519  0.12171625  1
