# generated using pymatgen
data_EuCd(BO2)5
_symmetry_space_group_name_H-M   'P 1'
_cell_length_a   7.98597519
_cell_length_b   8.75818523
_cell_length_c   9.71595813
_cell_angle_alpha   91.35222053
_cell_angle_beta   90.00000000
_cell_angle_gamma   90.00000000
_symmetry_Int_Tables_number   1
_chemical_formula_structural   EuCd(BO2)5
_chemical_formula_sum   'Eu4 Cd4 B20 O40'
_cell_volume   679.37061226
_cell_formula_units_Z   4
loop_
 _symmetry_equiv_pos_site_id
 _symmetry_equiv_pos_as_xyz
  1  'x, y, z'
loop_
 _atom_site_type_symbol
 _atom_site_label
 _atom_site_symmetry_multiplicity
 _atom_site_fract_x
 _atom_site_fract_y
 _atom_site_fract_z
 _atom_site_occupancy
  Cd  Cd0  1  0.59596540  0.40128480  0.87268336  1
  Cd  Cd1  1  0.09596540  0.09871520  0.62731664  1
  Cd  Cd2  1  0.40403460  0.59871520  0.12731664  1
  Cd  Cd3  1  0.90403460  0.90128480  0.37268336  1
  Eu  Eu4  1  0.82381873  0.80379219  0.76235303  1
  Eu  Eu5  1  0.32381873  0.69620781  0.73764697  1
  Eu  Eu6  1  0.17618127  0.19620781  0.23764697  1
  Eu  Eu7  1  0.67618127  0.30379219  0.26235303  1
  B  B8  1  0.42696252  0.08699036  0.75442512  1
  B  B9  1  0.92696252  0.41300964  0.74557488  1
  B  B10  1  0.57303748  0.91300964  0.24557488  1
  B  B11  1  0.07303748  0.58699036  0.25442512  1
  B  B12  1  0.67795234  0.51586727  0.59331344  1
  B  B13  1  0.17795234  0.98413273  0.90668656  1
  B  B14  1  0.32204766  0.48413273  0.40668656  1
  B  B15  1  0.82204766  0.01586727  0.09331344  1
  B  B16  1  0.46972499  0.27968786  0.56009497  1
  B  B17  1  0.96972499  0.22031214  0.93990503  1
  B  B18  1  0.53027501  0.72031214  0.43990503  1
  B  B19  1  0.03027501  0.77968786  0.06009497  1
  B  B20  1  0.39263875  0.15774833  0.01036591  1
  B  B21  1  0.89263875  0.34225167  0.48963409  1
  B  B22  1  0.60736125  0.84225167  0.98963409  1
  B  B23  1  0.10736125  0.65774833  0.51036591  1
  B  B24  1  0.67352790  0.06542905  0.59691641  1
  B  B25  1  0.17352790  0.43457095  0.90308359  1
  B  B26  1  0.32647210  0.93457095  0.40308359  1
  B  B27  1  0.82647210  0.56542905  0.09691641  1
  O  O28  1  0.29499332  0.97052098  0.78470454  1
  O  O29  1  0.79499332  0.52947902  0.71529546  1
  O  O30  1  0.70500668  0.02947902  0.21529546  1
  O  O31  1  0.20500668  0.47052098  0.28470454  1
  O  O32  1  0.46753573  0.17417724  0.88406428  1
  O  O33  1  0.96753573  0.32582276  0.61593572  1
  O  O34  1  0.53246427  0.82582276  0.11593572  1
  O  O35  1  0.03246427  0.67417724  0.38406428  1
  O  O36  1  0.58068181  0.01211324  0.70538031  1
  O  O37  1  0.08068181  0.48788676  0.79461969  1
  O  O38  1  0.41931819  0.98788676  0.29461969  1
  O  O39  1  0.91931819  0.51211324  0.20538031  1
  O  O40  1  0.36143591  0.19291505  0.65169303  1
  O  O41  1  0.86143591  0.30708495  0.84830697  1
  O  O42  1  0.63856409  0.80708495  0.34830697  1
  O  O43  1  0.13856409  0.69291505  0.15169303  1
  O  O44  1  0.53604673  0.41755505  0.63774776  1
  O  O45  1  0.03604673  0.08244495  0.86225224  1
  O  O46  1  0.46395327  0.58244495  0.36225224  1
  O  O47  1  0.96395327  0.91755505  0.13774776  1
  O  O48  1  0.61484213  0.67216238  0.56940618  1
  O  O49  1  0.11484213  0.82783762  0.93059382  1
  O  O50  1  0.38515787  0.32783762  0.43059382  1
  O  O51  1  0.88515787  0.17216238  0.06940618  1
  O  O52  1  0.76671549  0.45018997  0.47361923  1
  O  O53  1  0.26671549  0.04981003  0.02638077  1
  O  O54  1  0.23328451  0.54981003  0.52638077  1
  O  O55  1  0.73328451  0.95018997  0.97361923  1
  O  O56  1  0.61527845  0.18014215  0.51465923  1
  O  O57  1  0.11527845  0.31985785  0.98534077  1
  O  O58  1  0.38472155  0.81985785  0.48534077  1
  O  O59  1  0.88472155  0.68014215  0.01465923  1
  O  O60  1  0.32733623  0.50581538  0.91992983  1
  O  O61  1  0.82733623  0.99418462  0.58007017  1
  O  O62  1  0.67266377  0.49418462  0.08007017  1
  O  O63  1  0.17266377  0.00581538  0.41992983  1
  O  O64  1  0.56411729  0.75236075  0.87861308  1
  O  O65  1  0.06411729  0.74763925  0.62138692  1
  O  O66  1  0.43588271  0.24763925  0.12138692  1
  O  O67  1  0.93588271  0.25236075  0.37861308  1
