# generated using pymatgen
data_V2HgO6
_symmetry_space_group_name_H-M   'P 1'
_cell_length_a   4.99744531
_cell_length_b   6.11182540
_cell_length_c   14.60950918
_cell_angle_alpha   90.00000000
_cell_angle_beta   90.00000000
_cell_angle_gamma   90.00000000
_symmetry_Int_Tables_number   1
_chemical_formula_structural   V2HgO6
_chemical_formula_sum   'V8 Hg4 O24'
_cell_volume   446.22573620
_cell_formula_units_Z   4
loop_
 _symmetry_equiv_pos_site_id
 _symmetry_equiv_pos_as_xyz
  1  'x, y, z'
loop_
 _atom_site_type_symbol
 _atom_site_label
 _atom_site_symmetry_multiplicity
 _atom_site_fract_x
 _atom_site_fract_y
 _atom_site_fract_z
 _atom_site_occupancy
  V  V0  1  0.03269697  0.43565834  0.17060938  1
  V  V1  1  0.53269697  0.06434166  0.17060938  1
  V  V2  1  0.96730303  0.56434166  0.82939062  1
  V  V3  1  0.46730303  0.43565834  0.67060938  1
  V  V4  1  0.53269697  0.56434166  0.32939062  1
  V  V5  1  0.03269697  0.93565834  0.32939062  1
  V  V6  1  0.96730303  0.06434166  0.67060938  1
  V  V7  1  0.46730303  0.93565834  0.82939062  1
  Hg  Hg8  1  0.50000000  0.00000000  0.50000000  1
  Hg  Hg9  1  0.00000000  0.00000000  0.00000000  1
  Hg  Hg10  1  0.50000000  0.50000000  0.00000000  1
  Hg  Hg11  1  0.00000000  0.50000000  0.50000000  1
  O  O12  1  0.93816281  0.62053576  0.09558493  1
  O  O13  1  0.66202714  0.17833545  0.60937308  1
  O  O14  1  0.43816281  0.87946424  0.09558493  1
  O  O15  1  0.27301620  0.59537206  0.75239077  1
  O  O16  1  0.33797286  0.32166455  0.10937208  1
  O  O17  1  0.33797286  0.82166455  0.39062792  1
  O  O18  1  0.72698380  0.90462794  0.25239077  1
  O  O19  1  0.56183719  0.12053576  0.90441507  1
  O  O20  1  0.16202714  0.82166455  0.89062692  1
  O  O21  1  0.77301620  0.90462794  0.75239077  1
  O  O22  1  0.22698380  0.59537206  0.25239077  1
  O  O23  1  0.66202714  0.67833545  0.89062692  1
  O  O24  1  0.06183719  0.37946424  0.90441507  1
  O  O25  1  0.56183719  0.62053576  0.59558493  1
  O  O26  1  0.22698380  0.09537206  0.24760923  1
  O  O27  1  0.16202714  0.32166455  0.60937308  1
  O  O28  1  0.93816281  0.12053576  0.40441507  1
  O  O29  1  0.83797286  0.17833545  0.10937208  1
  O  O30  1  0.06183719  0.87946424  0.59558493  1
  O  O31  1  0.72698380  0.40462794  0.24760923  1
  O  O32  1  0.43816281  0.37946424  0.40441507  1
  O  O33  1  0.83797286  0.67833545  0.39062792  1
  O  O34  1  0.27301620  0.09537206  0.74760923  1
  O  O35  1  0.77301620  0.40462794  0.74760923  1
