# generated using pymatgen
data_SrV3O7
_symmetry_space_group_name_H-M   'P 1'
_cell_length_a   5.65424774
_cell_length_b   5.37612787
_cell_length_c   10.59282037
_cell_angle_alpha   90.00000000
_cell_angle_beta   90.00000000
_cell_angle_gamma   90.00000000
_symmetry_Int_Tables_number   1
_chemical_formula_structural   SrV3O7
_chemical_formula_sum   'Sr2 V6 O14'
_cell_volume   322.00011781
_cell_formula_units_Z   2
loop_
 _symmetry_equiv_pos_site_id
 _symmetry_equiv_pos_as_xyz
  1  'x, y, z'
loop_
 _atom_site_type_symbol
 _atom_site_label
 _atom_site_symmetry_multiplicity
 _atom_site_fract_x
 _atom_site_fract_y
 _atom_site_fract_z
 _atom_site_occupancy
  O  O0  1  0.45371575  0.98647940  0.88054493  1
  O  O1  1  0.45371575  0.51352060  0.61945507  1
  O  O2  1  0.54628425  0.48647940  0.11945507  1
  O  O3  1  0.54628425  0.01352060  0.38054493  1
  O  O4  1  0.54628425  0.01352060  0.11945507  1
  O  O5  1  0.54628425  0.48647940  0.38054493  1
  O  O6  1  0.45371575  0.51352060  0.88054493  1
  O  O7  1  0.45371575  0.98647940  0.61945507  1
  O  O8  1  0.87353360  0.75000000  0.75000000  1
  O  O9  1  0.12646640  0.25000000  0.25000000  1
  O  O10  1  0.90205790  0.25000000  0.55904840  1
  O  O11  1  0.90205790  0.25000000  0.94095160  1
  O  O12  1  0.09794210  0.75000000  0.44095160  1
  O  O13  1  0.09794210  0.75000000  0.05904840  1
  V  V14  1  0.42015380  0.25000000  0.25000000  1
  V  V15  1  0.57984620  0.75000000  0.75000000  1
  V  V16  1  0.38169226  0.75000000  0.01964772  1
  V  V17  1  0.38169226  0.75000000  0.48035228  1
  V  V18  1  0.61830774  0.25000000  0.98035228  1
  V  V19  1  0.61830774  0.25000000  0.51964772  1
  Sr  Sr20  1  0.85314776  0.75000000  0.25000000  1
  Sr  Sr21  1  0.14685224  0.25000000  0.75000000  1
