# generated using pymatgen
data_SbSe9Cl7
_symmetry_space_group_name_H-M   'P 1'
_cell_length_a   12.54356623
_cell_length_b   13.07007677
_cell_length_c   15.18245824
_cell_angle_alpha   90.00000000
_cell_angle_beta   114.75766257
_cell_angle_gamma   90.00000000
_symmetry_Int_Tables_number   1
_chemical_formula_structural   SbSe9Cl7
_chemical_formula_sum   'Sb4 Se36 Cl28'
_cell_volume   2260.31414774
_cell_formula_units_Z   4
loop_
 _symmetry_equiv_pos_site_id
 _symmetry_equiv_pos_as_xyz
  1  'x, y, z'
loop_
 _atom_site_type_symbol
 _atom_site_label
 _atom_site_symmetry_multiplicity
 _atom_site_fract_x
 _atom_site_fract_y
 _atom_site_fract_z
 _atom_site_occupancy
  Sb  Sb0  1  0.69631933  0.16718811  0.41268696  1
  Sb  Sb1  1  0.69631933  0.33281189  0.91268696  1
  Sb  Sb2  1  0.30368067  0.83281189  0.58731304  1
  Sb  Sb3  1  0.30368067  0.66718811  0.08731304  1
  Se  Se4  1  0.61255216  0.74758689  0.42515162  1
  Se  Se5  1  0.23114582  0.23622536  0.64293327  1
  Se  Se6  1  0.95605766  0.67310580  0.75460996  1
  Se  Se7  1  0.69012999  0.96920214  0.11327205  1
  Se  Se8  1  0.23114582  0.26377464  0.14293327  1
  Se  Se9  1  0.38744784  0.24758689  0.07484838  1
  Se  Se10  1  0.95605766  0.82689420  0.25460996  1
  Se  Se11  1  0.87064123  0.61739510  0.40456572  1
  Se  Se12  1  0.91155604  0.69985623  0.13127324  1
  Se  Se13  1  0.04394234  0.32689420  0.24539004  1
  Se  Se14  1  0.37841639  0.05936450  0.05054010  1
  Se  Se15  1  0.76885418  0.76377464  0.35706673  1
  Se  Se16  1  0.10202081  0.48170198  0.33079936  1
  Se  Se17  1  0.89797919  0.51829802  0.66920064  1
  Se  Se18  1  0.28926459  0.17343022  0.41863795  1
  Se  Se19  1  0.08844396  0.19985623  0.36872676  1
  Se  Se20  1  0.30987001  0.46920214  0.38672795  1
  Se  Se21  1  0.69012999  0.53079786  0.61327205  1
  Se  Se22  1  0.08844396  0.30014377  0.86872676  1
  Se  Se23  1  0.28926459  0.32656978  0.91863795  1
  Se  Se24  1  0.91155604  0.80014377  0.63127324  1
  Se  Se25  1  0.71073541  0.82656978  0.58136205  1
  Se  Se26  1  0.71073541  0.67343022  0.08136205  1
  Se  Se27  1  0.12935877  0.38260490  0.59543428  1
  Se  Se28  1  0.89797919  0.98170198  0.16920064  1
  Se  Se29  1  0.38744784  0.25241311  0.57484838  1
  Se  Se30  1  0.30987001  0.03079786  0.88672795  1
  Se  Se31  1  0.62158361  0.94063550  0.94945990  1
  Se  Se32  1  0.62158361  0.55936450  0.44945990  1
  Se  Se33  1  0.61255216  0.75241311  0.92515162  1
  Se  Se34  1  0.76885418  0.73622536  0.85706673  1
  Se  Se35  1  0.10202081  0.01829802  0.83079936  1
  Se  Se36  1  0.12935877  0.11739510  0.09543428  1
  Se  Se37  1  0.87064123  0.88260490  0.90456572  1
  Se  Se38  1  0.37841639  0.44063550  0.55054010  1
  Se  Se39  1  0.04394234  0.17310580  0.74539004  1
  Cl  Cl40  1  0.53833596  0.20849306  0.85296141  1
  Cl  Cl41  1  0.46166404  0.70849306  0.64703859  1
  Cl  Cl42  1  0.82968581  0.20004480  0.00913590  1
  Cl  Cl43  1  0.14416267  0.95421743  0.52661572  1
  Cl  Cl44  1  0.35632456  0.87147700  0.45562678  1
  Cl  Cl45  1  0.25558441  0.79272488  0.72114670  1
  Cl  Cl46  1  0.14416267  0.54578257  0.02661572  1
  Cl  Cl47  1  0.78730155  0.50476975  0.28556896  1
  Cl  Cl48  1  0.78730155  0.99523025  0.78556896  1
  Cl  Cl49  1  0.25558441  0.70727512  0.22114670  1
  Cl  Cl50  1  0.53833596  0.29150694  0.35296141  1
  Cl  Cl51  1  0.35632456  0.62852300  0.95562678  1
  Cl  Cl52  1  0.17031419  0.70004480  0.49086410  1
  Cl  Cl53  1  0.43590793  0.53444994  0.18443346  1
  Cl  Cl54  1  0.56409207  0.46555006  0.81556654  1
  Cl  Cl55  1  0.85583733  0.45421743  0.97338428  1
  Cl  Cl56  1  0.21269845  0.00476975  0.21443104  1
  Cl  Cl57  1  0.64367544  0.37147700  0.04437322  1
  Cl  Cl58  1  0.82968581  0.29995520  0.50913590  1
  Cl  Cl59  1  0.46166404  0.79150694  0.14703859  1
  Cl  Cl60  1  0.74441559  0.20727512  0.27885330  1
  Cl  Cl61  1  0.64367544  0.12852300  0.54437322  1
  Cl  Cl62  1  0.85583733  0.04578257  0.47338428  1
  Cl  Cl63  1  0.21269845  0.49523025  0.71443104  1
  Cl  Cl64  1  0.74441559  0.29272488  0.77885330  1
  Cl  Cl65  1  0.56409207  0.03444994  0.31556654  1
  Cl  Cl66  1  0.43590793  0.96555006  0.68443346  1
  Cl  Cl67  1  0.17031419  0.79995520  0.99086410  1
