# generated using pymatgen
data_HgI3NO
_symmetry_space_group_name_H-M   'P 1'
_cell_length_a   7.60560591
_cell_length_b   7.60560591
_cell_length_c   8.41043637
_cell_angle_alpha   90.45892525
_cell_angle_beta   89.54107475
_cell_angle_gamma   101.21310942
_symmetry_Int_Tables_number   1
_chemical_formula_structural   HgI3NO
_chemical_formula_sum   'Hg2 I6 N2 O2'
_cell_volume   477.19106742
_cell_formula_units_Z   2
loop_
 _symmetry_equiv_pos_site_id
 _symmetry_equiv_pos_as_xyz
  1  'x, y, z'
loop_
 _atom_site_type_symbol
 _atom_site_label
 _atom_site_symmetry_multiplicity
 _atom_site_fract_x
 _atom_site_fract_y
 _atom_site_fract_z
 _atom_site_occupancy
  Hg  Hg0  1  0.34673469  0.51780682  0.62435001  1
  Hg  Hg1  1  0.48219318  0.65326531  0.12435001  1
  I  I2  1  0.57148770  0.42487166  0.87623488  1
  I  I3  1  0.57512834  0.42851230  0.37623488  1
  I  I4  1  0.02257398  0.26472145  0.62806465  1
  I  I5  1  0.73527855  0.97742602  0.12806465  1
  I  I6  1  0.35436568  0.89254160  0.64402345  1
  I  I7  1  0.10745840  0.64563432  0.14402345  1
  N  N8  1  0.00540032  0.89806997  0.65744411  1
  N  N9  1  0.10193003  0.99459968  0.15744411  1
  O  O10  1  0.18420857  0.07929845  0.05946390  1
  O  O11  1  0.92070155  0.81579143  0.55946390  1
