# generated using pymatgen
data_Ge3(Te3As)2
_symmetry_space_group_name_H-M   'P 1'
_cell_length_a   20.58598818
_cell_length_b   20.58598820
_cell_length_c   20.58598852
_cell_angle_alpha   11.65284483
_cell_angle_beta   11.65284464
_cell_angle_gamma   11.65284493
_symmetry_Int_Tables_number   1
_chemical_formula_structural   Ge3(Te3As)2
_chemical_formula_sum   'Ge3 Te6 As2'
_cell_volume   309.28763558
_cell_formula_units_Z   1
loop_
 _symmetry_equiv_pos_site_id
 _symmetry_equiv_pos_as_xyz
  1  'x, y, z'
loop_
 _atom_site_type_symbol
 _atom_site_label
 _atom_site_symmetry_multiplicity
 _atom_site_fract_x
 _atom_site_fract_y
 _atom_site_fract_z
 _atom_site_occupancy
  Ge  Ge0  1  0.00000000  0.00000000  0.00000000  1
  Te  Te1  1  0.08604861  0.08604861  0.08604861  1
  Te  Te2  1  0.91395139  0.91395139  0.91395139  1
  Te  Te3  1  0.19184175  0.19184175  0.19184175  1
  Te  Te4  1  0.80815825  0.80815825  0.80815825  1
  Ge  Ge5  1  0.27474879  0.27474879  0.27474879  1
  Ge  Ge6  1  0.72525121  0.72525121  0.72525121  1
  Te  Te7  1  0.36194469  0.36194469  0.36194469  1
  Te  Te8  1  0.63805531  0.63805531  0.63805531  1
  As  As9  1  0.45039939  0.45039939  0.45039939  1
  As  As10  1  0.54960061  0.54960061  0.54960061  1
