# generated using pymatgen
data_CoAgPO4
_symmetry_space_group_name_H-M   'P 1'
_cell_length_a   5.71207299
_cell_length_b   6.62821012
_cell_length_c   9.61339639
_cell_angle_alpha   74.81866716
_cell_angle_beta   79.41496912
_cell_angle_gamma   78.60587140
_symmetry_Int_Tables_number   1
_chemical_formula_structural   CoAgPO4
_chemical_formula_sum   'Co4 Ag4 P4 O16'
_cell_volume   340.98012265
_cell_formula_units_Z   4
loop_
 _symmetry_equiv_pos_site_id
 _symmetry_equiv_pos_as_xyz
  1  'x, y, z'
loop_
 _atom_site_type_symbol
 _atom_site_label
 _atom_site_symmetry_multiplicity
 _atom_site_fract_x
 _atom_site_fract_y
 _atom_site_fract_z
 _atom_site_occupancy
  Ag  Ag0  1  0.67603480  0.38377458  0.87401247  1
  Ag  Ag1  1  0.32396520  0.61622542  0.12598753  1
  Ag  Ag2  1  0.17248292  0.47577611  0.75892509  1
  Ag  Ag3  1  0.82751708  0.52422389  0.24107491  1
  Co  Co4  1  0.78518883  0.17294104  0.56451725  1
  Co  Co5  1  0.21481117  0.82705896  0.43548275  1
  Co  Co6  1  0.33283824  0.94111190  0.78925257  1
  Co  Co7  1  0.66716176  0.05888810  0.21074743  1
  P  P8  1  0.68046517  0.71715331  0.53155937  1
  P  P9  1  0.31953483  0.28284669  0.46844063  1
  P  P10  1  0.81336797  0.86192913  0.90145829  1
  P  P11  1  0.18663203  0.13807087  0.09854171  1
  O  O12  1  0.86856913  0.84291619  0.55386745  1
  O  O13  1  0.13143087  0.15708381  0.44613255  1
  O  O14  1  0.64924881  0.77599241  0.36483058  1
  O  O15  1  0.35075119  0.22400759  0.63516942  1
  O  O16  1  0.75693053  0.47853381  0.58615360  1
  O  O17  1  0.24306947  0.52146619  0.41384640  1
  O  O18  1  0.42210764  0.79236545  0.60776736  1
  O  O19  1  0.57789236  0.20763455  0.39223264  1
  O  O20  1  0.78886297  0.08038886  0.78888913  1
  O  O21  1  0.21113703  0.91961114  0.21111087  1
  O  O22  1  0.76492530  0.88666764  0.05905393  1
  O  O23  1  0.23507470  0.11333236  0.94094607  1
  O  O24  1  0.07663395  0.74248739  0.87112107  1
  O  O25  1  0.92336605  0.25751261  0.12887893  1
  O  O26  1  0.62381989  0.73511551  0.87837522  1
  O  O27  1  0.37618011  0.26488449  0.12162478  1
