# generated using pymatgen
data_BaYbCo4O7
_symmetry_space_group_name_H-M   'P 1'
_cell_length_a   6.33368441
_cell_length_b   10.30971298
_cell_length_c   11.12437928
_cell_angle_alpha   90.00000000
_cell_angle_beta   90.00000000
_cell_angle_gamma   90.00000000
_symmetry_Int_Tables_number   1
_chemical_formula_structural   BaYbCo4O7
_chemical_formula_sum   'Ba4 Yb4 Co16 O28'
_cell_volume   726.40492858
_cell_formula_units_Z   4
loop_
 _symmetry_equiv_pos_site_id
 _symmetry_equiv_pos_as_xyz
  1  'x, y, z'
loop_
 _atom_site_type_symbol
 _atom_site_label
 _atom_site_symmetry_multiplicity
 _atom_site_fract_x
 _atom_site_fract_y
 _atom_site_fract_z
 _atom_site_occupancy
  Ba  Ba0  1  0.49672949  0.00724038  0.17259473  1
  Ba  Ba1  1  0.00327051  0.00724038  0.67259473  1
  Ba  Ba2  1  0.99672949  0.50724038  0.32740527  1
  Ba  Ba3  1  0.50327051  0.50724038  0.82740527  1
  Yb  Yb4  1  0.98984372  0.37179916  0.67076577  1
  Yb  Yb5  1  0.51015628  0.37179916  0.17076577  1
  Yb  Yb6  1  0.48984372  0.87179916  0.82923423  1
  Yb  Yb7  1  0.01015628  0.87179916  0.32923423  1
  Co  Co8  1  0.99852162  0.18466829  0.17124336  1
  Co  Co9  1  0.26710684  0.19258897  0.91388825  1
  Co  Co10  1  0.99660502  0.94500624  0.00036163  1
  Co  Co11  1  0.76710684  0.69258897  0.58611175  1
  Co  Co12  1  0.23289316  0.19258897  0.41388825  1
  Co  Co13  1  0.49660502  0.44500624  0.49963837  1
  Co  Co14  1  0.50339498  0.94500624  0.50036163  1
  Co  Co15  1  0.74822846  0.18042316  0.41727840  1
  Co  Co16  1  0.00339498  0.44500624  -0.00036163  1
  Co  Co17  1  0.49852162  0.68466829  0.32875664  1
  Co  Co18  1  0.25177154  0.68042316  0.58272160  1
  Co  Co19  1  0.50147838  0.18466829  0.67124336  1
  Co  Co20  1  0.75177154  0.18042316  0.91727840  1
  Co  Co21  1  0.73289316  0.69258897  0.08611175  1
  Co  Co22  1  0.24822846  0.68042316  0.08272160  1
  Co  Co23  1  0.00147838  0.68466829  0.82875664  1
  O  O24  1  0.23001006  0.26657073  0.26474597  1
  O  O25  1  0.23226712  0.71685709  0.25195901  1
  O  O26  1  0.73001006  0.76657073  0.23525403  1
  O  O27  1  0.24569284  0.49145457  0.56945514  1
  O  O28  1  0.26773288  0.71685709  0.75195901  1
  O  O29  1  0.73226712  0.21685709  0.24804099  1
  O  O30  1  0.99700736  0.72874228  0.49015364  1
  O  O31  1  0.50299264  0.72874228  0.99015364  1
  O  O32  1  0.27921307  0.00744815  0.39973224  1
  O  O33  1  0.26998994  0.26657073  0.76474597  1
  O  O34  1  0.06260690  0.99768198  0.15425107  1
  O  O35  1  0.43739310  0.99768198  0.65425107  1
  O  O36  1  0.49103838  0.25511901  0.50067478  1
  O  O37  1  0.00896162  0.25511901  0.00067478  1
  O  O38  1  0.22078693  0.00744815  0.89973224  1
  O  O39  1  0.76998994  0.76657073  0.73525403  1
  O  O40  1  0.49700736  0.22874228  0.00984636  1
  O  O41  1  0.77921307  0.50744815  0.10026776  1
  O  O42  1  0.50896162  0.75511901  0.49932522  1
  O  O43  1  0.76773288  0.21685709  0.74804099  1
  O  O44  1  0.99103838  0.75511901  0.99932522  1
  O  O45  1  0.00299264  0.22874228  0.50984636  1
  O  O46  1  0.72078693  0.50744815  0.60026776  1
  O  O47  1  0.93739310  0.49768198  0.84574893  1
  O  O48  1  0.56260690  0.49768198  0.34574893  1
  O  O49  1  0.74569284  0.99145457  0.93054486  1
  O  O50  1  0.25430716  0.49145457  0.06945514  1
  O  O51  1  0.75430716  0.99145457  0.43054486  1
