# generated using pymatgen
data_Se
_symmetry_space_group_name_H-M   'P 1'
_cell_length_a   9.45037347
_cell_length_b   10.27310410
_cell_length_c   12.34138506
_cell_angle_alpha   90.00000000
_cell_angle_beta   90.82908955
_cell_angle_gamma   90.00000000
_symmetry_Int_Tables_number   1
_chemical_formula_structural   Se
_chemical_formula_sum   Se32
_cell_volume   1198.03386281
_cell_formula_units_Z   32
loop_
 _symmetry_equiv_pos_site_id
 _symmetry_equiv_pos_as_xyz
  1  'x, y, z'
loop_
 _atom_site_type_symbol
 _atom_site_label
 _atom_site_symmetry_multiplicity
 _atom_site_fract_x
 _atom_site_fract_y
 _atom_site_fract_z
 _atom_site_occupancy
  Se  Se0  1  0.31726830  0.49524907  0.24257903  1
  Se  Se1  1  0.18273170  0.99524907  0.25742097  1
  Se  Se2  1  0.68273170  0.50475093  0.75742097  1
  Se  Se3  1  0.81726830  0.00475093  0.74257903  1
  Se  Se4  1  0.41901701  0.65424119  0.35825705  1
  Se  Se5  1  0.08098299  0.15424119  0.14174295  1
  Se  Se6  1  0.58098299  0.34575881  0.64174295  1
  Se  Se7  1  0.91901701  0.84575881  0.85825705  1
  Se  Se8  1  0.31737418  0.63917407  0.53149647  1
  Se  Se9  1  0.18262582  0.13917407  0.96850353  1
  Se  Se10  1  0.68262582  0.36082593  0.46850353  1
  Se  Se11  1  0.81737418  0.86082593  0.03149647  1
  Se  Se12  1  0.13756640  0.79906006  0.54623137  1
  Se  Se13  1  0.36243360  0.29906006  0.95376863  1
  Se  Se14  1  0.86243360  0.20093994  0.45376863  1
  Se  Se15  1  0.63756640  0.70093994  0.04623137  1
  Se  Se16  1  0.91944475  0.69233514  0.51363202  1
  Se  Se17  1  0.58055525  0.19233514  0.98636798  1
  Se  Se18  1  0.08055525  0.30766486  0.48636798  1
  Se  Se19  1  0.41944475  0.80766486  0.01363202  1
  Se  Se20  1  0.85008609  0.72304026  0.33102436  1
  Se  Se21  1  0.64991391  0.22304026  0.16897564  1
  Se  Se22  1  0.14991391  0.27695974  0.66897564  1
  Se  Se23  1  0.35008609  0.77695974  0.83102436  1
  Se  Se24  1  0.92004698  0.53805084  0.23029804  1
  Se  Se25  1  0.57995302  0.03805084  0.26970196  1
  Se  Se26  1  0.07995302  0.46194916  0.76970196  1
  Se  Se27  1  0.42004698  0.96194916  0.73029804  1
  Se  Se28  1  0.13161875  0.59416165  0.14258828  1
  Se  Se29  1  0.36838125  0.09416165  0.35741172  1
  Se  Se30  1  0.86838125  0.40583835  0.85741172  1
  Se  Se31  1  0.63161875  0.90583835  0.64258828  1
