# generated using pymatgen
data_MnVH4O2F5
_symmetry_space_group_name_H-M   'P 1'
_cell_length_a   6.64392986
_cell_length_b   7.56184953
_cell_length_c   7.56184959
_cell_angle_alpha   61.93200301
_cell_angle_beta   63.94039541
_cell_angle_gamma   63.94039892
_symmetry_Int_Tables_number   1
_chemical_formula_structural   MnVH4O2F5
_chemical_formula_sum   'Mn2 V2 H8 O4 F10'
_cell_volume   287.89160168
_cell_formula_units_Z   2
loop_
 _symmetry_equiv_pos_site_id
 _symmetry_equiv_pos_as_xyz
  1  'x, y, z'
loop_
 _atom_site_type_symbol
 _atom_site_label
 _atom_site_symmetry_multiplicity
 _atom_site_fract_x
 _atom_site_fract_y
 _atom_site_fract_z
 _atom_site_occupancy
  Mn  Mn0  1  0.00000000  0.00000000  0.00000000  1
  Mn  Mn1  1  0.50000000  0.50000000  0.50000000  1
  V  V2  1  0.50000000  0.00000000  0.50000000  1
  V  V3  1  0.50000000  0.50000000  0.00000000  1
  F  F4  1  0.82868183  0.91166271  0.33725385  1
  F  F5  1  0.57759839  0.58833729  0.16274615  1
  F  F6  1  0.17131817  0.66274615  0.08833729  1
  F  F7  1  0.42240161  0.83725385  0.41166271  1
  F  F8  1  0.17131817  0.08833729  0.66274615  1
  F  F9  1  0.42240161  0.41166271  0.83725385  1
  F  F10  1  0.82868183  0.33725385  0.91166271  1
  F  F11  1  0.57759839  0.16274615  0.58833729  1
  F  F12  1  0.42875514  0.25000000  0.25000000  1
  F  F13  1  0.57124486  0.75000000  0.75000000  1
  O  O14  1  0.23237917  0.07056257  0.07056257  1
  O  O15  1  0.87350430  0.42943743  0.42943743  1
  O  O16  1  0.76762083  0.92943743  0.92943743  1
  O  O17  1  0.12649570  0.57056257  0.57056257  1
  H  H18  1  0.29182022  0.19335231  0.99076653  1
  H  H19  1  0.97593906  0.30664769  0.50923347  1
  H  H20  1  0.70817978  0.00923347  0.80664769  1
  H  H21  1  0.02406094  0.49076653  0.69335231  1
  H  H22  1  0.70817978  0.80664769  0.00923347  1
  H  H23  1  0.02406094  0.69335231  0.49076653  1
  H  H24  1  0.29182022  0.99076653  0.19335231  1
  H  H25  1  0.97593906  0.50923347  0.30664769  1
