# generated using pymatgen
data_FeP(H2O3)2
_symmetry_space_group_name_H-M   'P 1'
_cell_length_a   8.78468183
_cell_length_b   9.96134676
_cell_length_c   10.35889409
_cell_angle_alpha   90.00000000
_cell_angle_beta   90.00000000
_cell_angle_gamma   90.00000000
_symmetry_Int_Tables_number   1
_chemical_formula_structural   FeP(H2O3)2
_chemical_formula_sum   'Fe8 P8 H32 O48'
_cell_volume   906.47845797
_cell_formula_units_Z   8
loop_
 _symmetry_equiv_pos_site_id
 _symmetry_equiv_pos_as_xyz
  1  'x, y, z'
loop_
 _atom_site_type_symbol
 _atom_site_label
 _atom_site_symmetry_multiplicity
 _atom_site_fract_x
 _atom_site_fract_y
 _atom_site_fract_z
 _atom_site_occupancy
  Fe  Fe0  1  0.15192868  0.32825643  0.13274867  1
  Fe  Fe1  1  0.65192868  0.17174357  0.86725133  1
  Fe  Fe2  1  0.84807132  0.82825643  0.36725133  1
  Fe  Fe3  1  0.34807132  0.67174357  0.63274867  1
  Fe  Fe4  1  0.84807132  0.67174357  0.86725133  1
  Fe  Fe5  1  0.34807132  0.82825643  0.13274867  1
  Fe  Fe6  1  0.15192868  0.17174357  0.63274867  1
  Fe  Fe7  1  0.65192868  0.32825643  0.36725133  1
  P  P8  1  0.02848240  0.64438648  0.14752305  1
  P  P9  1  0.52848240  0.85561352  0.85247695  1
  P  P10  1  0.97151760  0.14438648  0.35247695  1
  P  P11  1  0.47151760  0.35561352  0.64752305  1
  P  P12  1  0.97151760  0.35561352  0.85247695  1
  P  P13  1  0.47151760  0.14438648  0.14752305  1
  P  P14  1  0.02848240  0.85561352  0.64752305  1
  P  P15  1  0.52848240  0.64438648  0.35247695  1
  O  O16  1  0.00799900  0.20367679  0.21820123  1
  O  O17  1  0.50799900  0.29632321  0.78179877  1
  O  O18  1  0.99200100  0.70367679  0.28179877  1
  O  O19  1  0.49200100  0.79632321  0.71820123  1
  O  O20  1  0.99200100  0.79632321  0.78179877  1
  O  O21  1  0.49200100  0.70367679  0.21820123  1
  O  O22  1  0.00799900  0.29632321  0.71820123  1
  O  O23  1  0.50799900  0.20367679  0.28179877  1
  O  O24  1  0.01011315  0.48919199  0.14641072  1
  O  O25  1  0.51011315  0.01080801  0.85358928  1
  O  O26  1  0.98988685  0.98919199  0.35358928  1
  O  O27  1  0.48988685  0.51080801  0.64641072  1
  O  O28  1  0.98988685  0.51080801  0.85358928  1
  O  O29  1  0.48988685  0.98919199  0.14641072  1
  O  O30  1  0.01011315  0.01080801  0.64641072  1
  O  O31  1  0.51011315  0.48919199  0.35358928  1
  O  O32  1  0.30338417  0.17619210  0.11054300  1
  O  O33  1  0.80338417  0.32380790  0.88945700  1
  O  O34  1  0.69661583  0.67619210  0.38945700  1
  O  O35  1  0.19661583  0.82380790  0.61054300  1
  O  O36  1  0.69661583  0.82380790  0.88945700  1
  O  O37  1  0.19661583  0.67619210  0.11054300  1
  O  O38  1  0.30338417  0.32380790  0.61054300  1
  O  O39  1  0.80338417  0.17619210  0.38945700  1
  O  O40  1  0.08339146  0.29197750  0.95220915  1
  O  O41  1  0.58339146  0.20802250  0.04779085  1
  O  O42  1  0.91660854  0.79197750  0.54779085  1
  O  O43  1  0.41660854  0.70802250  0.45220915  1
  O  O44  1  0.91660854  0.70802250  0.04779085  1
  O  O45  1  0.41660854  0.79197750  0.95220915  1
  O  O46  1  0.08339146  0.20802250  0.45220915  1
  O  O47  1  0.58339146  0.29197750  0.54779085  1
  O  O48  1  0.26794642  0.88893309  0.31093102  1
  O  O49  1  0.76794642  0.61106691  0.68906898  1
  O  O50  1  0.73205358  0.38893309  0.18906898  1
  O  O51  1  0.23205358  0.11106691  0.81093102  1
  O  O52  1  0.73205358  0.11106691  0.68906898  1
  O  O53  1  0.23205358  0.38893309  0.31093102  1
  O  O54  1  0.26794642  0.61106691  0.81093102  1
  O  O55  1  0.76794642  0.88893309  0.18906898  1
  O  O56  1  0.33042787  0.44918903  0.06237551  1
  O  O57  1  0.83042787  0.05081097  0.93762449  1
  O  O58  1  0.66957213  0.94918903  0.43762449  1
  O  O59  1  0.16957213  0.55081097  0.56237551  1
  O  O60  1  0.66957213  0.55081097  0.93762449  1
  O  O61  1  0.16957213  0.94918903  0.06237551  1
  O  O62  1  0.33042787  0.05081097  0.56237551  1
  O  O63  1  0.83042787  0.44918903  0.43762449  1
  H  H64  1  0.15955535  0.91705262  0.32418773  1
  H  H65  1  0.65955535  0.58294738  0.67581227  1
  H  H66  1  0.84044465  0.41705262  0.17581227  1
  H  H67  1  0.34044465  0.08294738  0.82418773  1
  H  H68  1  0.84044465  0.08294738  0.67581227  1
  H  H69  1  0.34044465  0.41705262  0.32418773  1
  H  H70  1  0.15955535  0.58294738  0.82418773  1
  H  H71  1  0.65955535  0.91705262  0.17581227  1
  H  H72  1  0.35717811  0.43621097  0.97161201  1
  H  H73  1  0.85717811  0.06378903  0.02838799  1
  H  H74  1  0.64282189  0.93621097  0.52838799  1
  H  H75  1  0.14282189  0.56378903  0.47161201  1
  H  H76  1  0.64282189  0.56378903  0.02838799  1
  H  H77  1  0.14282189  0.93621097  0.97161201  1
  H  H78  1  0.35717811  0.06378903  0.47161201  1
  H  H79  1  0.85717811  0.43621097  0.52838799  1
  H  H80  1  0.30069555  0.82217879  0.37727282  1
  H  H81  1  0.80069555  0.67782121  0.62272718  1
  H  H82  1  0.69930445  0.32217879  0.12272718  1
  H  H83  1  0.19930445  0.17782121  0.87727282  1
  H  H84  1  0.69930445  0.17782121  0.62272718  1
  H  H85  1  0.19930445  0.32217879  0.37727282  1
  H  H86  1  0.30069555  0.67782121  0.87727282  1
  H  H87  1  0.80069555  0.82217879  0.12272718  1
  H  H88  1  0.29378491  0.54458276  0.07321382  1
  H  H89  1  0.79378491  0.95541724  0.92678618  1
  H  H90  1  0.70621509  0.04458276  0.42678618  1
  H  H91  1  0.20621509  0.45541724  0.57321382  1
  H  H92  1  0.70621509  0.45541724  0.92678618  1
  H  H93  1  0.20621509  0.04458276  0.07321382  1
  H  H94  1  0.29378491  0.95541724  0.57321382  1
  H  H95  1  0.79378491  0.54458276  0.42678618  1
