# generated using pymatgen
data_Na2Si4NiO10
_symmetry_space_group_name_H-M   'P 1'
_cell_length_a   7.02664366
_cell_length_b   7.71818025
_cell_length_c   9.86779917
_cell_angle_alpha   101.39913251
_cell_angle_beta   102.74052172
_cell_angle_gamma   115.30118514
_symmetry_Int_Tables_number   1
_chemical_formula_structural   Na2Si4NiO10
_chemical_formula_sum   'Na4 Si8 Ni2 O20'
_cell_volume   445.30733524
_cell_formula_units_Z   2
loop_
 _symmetry_equiv_pos_site_id
 _symmetry_equiv_pos_as_xyz
  1  'x, y, z'
loop_
 _atom_site_type_symbol
 _atom_site_label
 _atom_site_symmetry_multiplicity
 _atom_site_fract_x
 _atom_site_fract_y
 _atom_site_fract_z
 _atom_site_occupancy
  Ni  Ni0  1  0.25554771  0.31473846  0.42283861  1
  Ni  Ni1  1  0.74445229  0.68526154  0.57716139  1
  Na  Na2  1  0.34232383  0.24404349  0.02320376  1
  Na  Na3  1  0.65767617  0.75595651  0.97679624  1
  Na  Na4  1  0.74151569  0.27403190  0.41939476  1
  Na  Na5  1  0.25848431  0.72596810  0.58060524  1
  Si  Si6  1  0.76091626  0.06126500  0.80478668  1
  Si  Si7  1  0.23908374  0.93873500  0.19521332  1
  Si  Si8  1  0.91621800  0.29056920  0.14116971  1
  Si  Si9  1  0.08378200  0.70943080  0.85883029  1
  Si  Si10  1  0.60329343  0.35926486  0.74009937  1
  Si  Si11  1  0.39670657  0.64073514  0.25990063  1
  Si  Si12  1  0.18633654  0.37971980  0.74957548  1
  Si  Si13  1  0.81366346  0.62028020  0.25042452  1
  O  O14  1  0.79441385  0.10242806  0.98264104  1
  O  O15  1  0.20558615  0.89757194  0.01735896  1
  O  O16  1  0.58866104  0.13835392  0.73119099  1
  O  O17  1  0.41133896  0.86164608  0.26880901  1
  O  O18  1  0.34584795  0.17750662  0.27041035  1
  O  O19  1  0.65415205  0.82249338  0.72958965  1
  O  O20  1  0.94832701  0.21552680  0.27877514  1
  O  O21  1  0.05167299  0.78447320  0.72122486  1
  O  O22  1  0.56499305  0.38949987  0.58102236  1
  O  O23  1  0.43500695  0.61050013  0.41897764  1
  O  O24  1  0.11723638  0.36028551  0.58017208  1
  O  O25  1  0.88276362  0.63971449  0.41982792  1
  O  O26  1  0.75389179  0.39676203  0.14025102  1
  O  O27  1  0.24610821  0.60323797  0.85974898  1
  O  O28  1  0.41997396  0.37158276  0.81632666  1
  O  O29  1  0.58002604  0.62841724  0.18367334  1
  O  O30  1  0.15645264  0.45914361  0.13510520  1
  O  O31  1  0.84354736  0.54085639  0.86489480  1
  O  O32  1  0.00770360  0.20171097  0.79574727  1
  O  O33  1  0.99229640  0.79828903  0.20425273  1
