# generated using pymatgen
data_Se
_symmetry_space_group_name_H-M   'P 1'
_cell_length_a   8.48587136
_cell_length_b   10.23632433
_cell_length_c   13.64031135
_cell_angle_alpha   95.18938524
_cell_angle_beta   90.00000000
_cell_angle_gamma   90.00000000
_symmetry_Int_Tables_number   1
_chemical_formula_structural   Se
_chemical_formula_sum   Se32
_cell_volume   1179.99728622
_cell_formula_units_Z   32
loop_
 _symmetry_equiv_pos_site_id
 _symmetry_equiv_pos_as_xyz
  1  'x, y, z'
loop_
 _atom_site_type_symbol
 _atom_site_label
 _atom_site_symmetry_multiplicity
 _atom_site_fract_x
 _atom_site_fract_y
 _atom_site_fract_z
 _atom_site_occupancy
  Se  Se0  1  0.67957870  0.57612094  0.41465022  1
  Se  Se1  1  0.17957870  0.42387906  0.08534978  1
  Se  Se2  1  0.32042130  0.42387906  0.58534978  1
  Se  Se3  1  0.82042130  0.57612094  0.91465022  1
  Se  Se4  1  0.76598760  0.75345148  0.52416296  1
  Se  Se5  1  0.26598760  0.24654852  0.97583704  1
  Se  Se6  1  0.23401240  0.24654852  0.47583704  1
  Se  Se7  1  0.73401240  0.75345148  0.02416296  1
  Se  Se8  1  0.59769226  0.76738989  0.66345881  1
  Se  Se9  1  0.09769226  0.23261011  0.83654119  1
  Se  Se10  1  0.40230774  0.23261011  0.33654119  1
  Se  Se11  1  0.90230774  0.76738989  0.16345881  1
  Se  Se12  1  0.41473008  0.93721396  0.64491394  1
  Se  Se13  1  0.91473008  0.06278604  0.85508606  1
  Se  Se14  1  0.58526992  0.06278604  0.35508606  1
  Se  Se15  1  0.08526992  0.93721396  0.14491394  1
  Se  Se16  1  0.17649987  0.83866746  0.58670129  1
  Se  Se17  1  0.67649987  0.16133254  0.91329871  1
  Se  Se18  1  0.82350013  0.16133254  0.41329871  1
  Se  Se19  1  0.32350013  0.83866746  0.08670129  1
  Se  Se20  1  0.16678708  0.84699994  0.41353166  1
  Se  Se21  1  0.66678708  0.15300006  0.08646834  1
  Se  Se22  1  0.83321292  0.15300006  0.58646834  1
  Se  Se23  1  0.33321292  0.84699994  0.91353166  1
  Se  Se24  1  0.25273503  0.64149610  0.34006030  1
  Se  Se25  1  0.75273503  0.35850390  0.15993970  1
  Se  Se26  1  0.74726497  0.35850390  0.65993970  1
  Se  Se27  1  0.24726497  0.64149610  0.84006030  1
  Se  Se28  1  0.52022037  0.66313699  0.29435667  1
  Se  Se29  1  0.02022037  0.33686301  0.20564333  1
  Se  Se30  1  0.47977963  0.33686301  0.70564333  1
  Se  Se31  1  0.97977963  0.66313699  0.79435667  1
