# generated using pymatgen
data_Mn3BO5
_symmetry_space_group_name_H-M   'P 1'
_cell_length_a   3.17531625
_cell_length_b   9.57503552
_cell_length_c   12.85941744
_cell_angle_alpha   90.00000000
_cell_angle_beta   90.00000000
_cell_angle_gamma   90.00000000
_symmetry_Int_Tables_number   1
_chemical_formula_structural   Mn3BO5
_chemical_formula_sum   'Mn12 B4 O20'
_cell_volume   390.97471721
_cell_formula_units_Z   4
loop_
 _symmetry_equiv_pos_site_id
 _symmetry_equiv_pos_as_xyz
  1  'x, y, z'
loop_
 _atom_site_type_symbol
 _atom_site_label
 _atom_site_symmetry_multiplicity
 _atom_site_fract_x
 _atom_site_fract_y
 _atom_site_fract_z
 _atom_site_occupancy
  Mn  Mn0  1  0.50000000  0.00582137  0.27842394  1
  Mn  Mn1  1  0.50000000  0.99417863  0.72157606  1
  Mn  Mn2  1  0.50000000  0.50582137  0.22157606  1
  Mn  Mn3  1  0.50000000  0.49417863  0.77842394  1
  Mn  Mn4  1  0.50000000  0.00000000  0.00000000  1
  Mn  Mn5  1  0.50000000  0.50000000  0.50000000  1
  Mn  Mn6  1  0.00000000  0.50000000  0.00000000  1
  Mn  Mn7  1  0.00000000  0.00000000  0.50000000  1
  Mn  Mn8  1  0.00000000  0.24054637  0.11743233  1
  Mn  Mn9  1  0.00000000  0.75945363  0.88256767  1
  Mn  Mn10  1  0.00000000  0.74054637  0.38256767  1
  Mn  Mn11  1  0.00000000  0.25945363  0.61743233  1
  B  B12  1  0.00000000  0.27986501  0.35954495  1
  B  B13  1  0.00000000  0.72013499  0.64045505  1
  B  B14  1  0.00000000  0.77986501  0.14045505  1
  B  B15  1  0.00000000  0.22013499  0.85954495  1
  O  O16  1  0.00000000  0.14908032  0.95426809  1
  O  O17  1  0.00000000  0.85091968  0.04573191  1
  O  O18  1  0.00000000  0.64908032  0.54573191  1
  O  O19  1  0.00000000  0.35091968  0.45426809  1
  O  O20  1  0.50000000  0.10409486  0.13841686  1
  O  O21  1  0.50000000  0.89590514  0.86158314  1
  O  O22  1  0.50000000  0.60409486  0.36158314  1
  O  O23  1  0.50000000  0.39590514  0.63841686  1
  O  O24  1  0.00000000  0.13419594  0.35599685  1
  O  O25  1  0.00000000  0.86580406  0.64400315  1
  O  O26  1  0.00000000  0.63419594  0.14400315  1
  O  O27  1  0.00000000  0.36580406  0.85599685  1
  O  O28  1  0.50000000  0.38915938  0.08065479  1
  O  O29  1  0.50000000  0.61084062  0.91934521  1
  O  O30  1  0.50000000  0.88915938  0.41934521  1
  O  O31  1  0.50000000  0.11084062  0.58065479  1
  O  O32  1  0.00000000  0.35448132  0.26663829  1
  O  O33  1  0.00000000  0.64551868  0.73336171  1
  O  O34  1  0.00000000  0.85448132  0.23336171  1
  O  O35  1  0.00000000  0.14551868  0.76663829  1
