# generated using pymatgen
data_KTi3Si2P6O25
_symmetry_space_group_name_H-M   'P 1'
_cell_length_a   8.40745377
_cell_length_b   8.40745399
_cell_length_c   17.31264707
_cell_angle_alpha   90.00000000
_cell_angle_beta   90.00000000
_cell_angle_gamma   119.99999910
_symmetry_Int_Tables_number   1
_chemical_formula_structural   KTi3Si2P6O25
_chemical_formula_sum   'K2 Ti6 Si4 P12 O50'
_cell_volume   1059.79800699
_cell_formula_units_Z   2
loop_
 _symmetry_equiv_pos_site_id
 _symmetry_equiv_pos_as_xyz
  1  'x, y, z'
loop_
 _atom_site_type_symbol
 _atom_site_label
 _atom_site_symmetry_multiplicity
 _atom_site_fract_x
 _atom_site_fract_y
 _atom_site_fract_z
 _atom_site_occupancy
  K  K0  1  0.33333300  0.66666700  0.25000000  1
  K  K1  1  0.66666700  0.33333300  0.75000000  1
  Ti  Ti2  1  0.33333300  0.66666700  0.02426912  1
  Ti  Ti3  1  0.33333300  0.66666700  0.47573088  1
  Ti  Ti4  1  0.66666700  0.33333300  0.97573088  1
  Ti  Ti5  1  0.66666700  0.33333300  0.52426912  1
  Ti  Ti6  1  0.66666700  0.33333300  0.25000000  1
  Ti  Ti7  1  0.33333300  0.66666700  0.75000000  1
  P  P8  1  0.38263773  0.33242837  0.10971533  1
  P  P9  1  0.66757163  0.05020936  0.10971533  1
  P  P10  1  0.94979064  0.61736227  0.10971533  1
  P  P11  1  0.66757163  0.61736227  0.39028467  1
  P  P12  1  0.94979064  0.33242837  0.39028467  1
  P  P13  1  0.38263773  0.05020936  0.39028467  1
  P  P14  1  0.61736227  0.66757163  0.89028467  1
  P  P15  1  0.33242837  0.94979064  0.89028467  1
  P  P16  1  0.05020936  0.38263773  0.89028467  1
  P  P17  1  0.33242837  0.38263773  0.60971533  1
  P  P18  1  0.05020936  0.66757163  0.60971533  1
  P  P19  1  0.61736227  0.94979064  0.60971533  1
  Si  Si20  1  0.00000000  0.00000000  0.09230863  1
  Si  Si21  1  0.00000000  0.00000000  0.40769137  1
  Si  Si22  1  0.00000000  0.00000000  0.90769137  1
  Si  Si23  1  0.00000000  0.00000000  0.59230863  1
  O  O24  1  0.12204322  0.60428190  0.09396613  1
  O  O25  1  0.39571810  0.51776132  0.09396613  1
  O  O26  1  0.48223868  0.87795678  0.09396613  1
  O  O27  1  0.39571810  0.87795678  0.40603387  1
  O  O28  1  0.48223868  0.60428190  0.40603387  1
  O  O29  1  0.12204322  0.51776132  0.40603387  1
  O  O30  1  0.87795678  0.39571810  0.90603387  1
  O  O31  1  0.60428190  0.48223868  0.90603387  1
  O  O32  1  0.51776132  0.12204322  0.90603387  1
  O  O33  1  0.60428190  0.12204322  0.59396613  1
  O  O34  1  0.51776132  0.39571810  0.59396613  1
  O  O35  1  0.87795678  0.48223868  0.59396613  1
  O  O36  1  0.81492739  0.26107982  0.45819571  1
  O  O37  1  0.73892018  0.55384757  0.45819571  1
  O  O38  1  0.44615243  0.18507261  0.45819571  1
  O  O39  1  0.73892018  0.18507261  0.04180429  1
  O  O40  1  0.44615243  0.26107982  0.04180429  1
  O  O41  1  0.81492739  0.55384757  0.04180429  1
  O  O42  1  0.18507261  0.73892018  0.54180429  1
  O  O43  1  0.26107982  0.44615243  0.54180429  1
  O  O44  1  0.55384757  0.81492739  0.54180429  1
  O  O45  1  0.26107982  0.81492739  0.95819571  1
  O  O46  1  0.55384757  0.73892018  0.95819571  1
  O  O47  1  0.18507261  0.44615243  0.95819571  1
  O  O48  1  0.47834206  0.34183766  0.18577913  1
  O  O49  1  0.65816234  0.13650439  0.18577913  1
  O  O50  1  0.86349561  0.52165794  0.18577913  1
  O  O51  1  0.65816234  0.52165794  0.31422087  1
  O  O52  1  0.86349561  0.34183766  0.31422087  1
  O  O53  1  0.47834206  0.13650439  0.31422087  1
  O  O54  1  0.52165794  0.65816234  0.81422087  1
  O  O55  1  0.34183766  0.86349561  0.81422087  1
  O  O56  1  0.13650439  0.47834206  0.81422087  1
  O  O57  1  0.34183766  0.47834206  0.68577913  1
  O  O58  1  0.13650439  0.65816234  0.68577913  1
  O  O59  1  0.52165794  0.86349561  0.68577913  1
  O  O60  1  0.00000000  0.00000000  0.00000000  1
  O  O61  1  0.00000000  0.00000000  0.50000000  1
  O  O62  1  0.01948800  0.82927226  0.12561922  1
  O  O63  1  0.17072774  0.19021575  0.12561922  1
  O  O64  1  0.80978425  0.98051200  0.12561922  1
  O  O65  1  0.17072774  0.98051200  0.37438078  1
  O  O66  1  0.80978425  0.82927226  0.37438078  1
  O  O67  1  0.01948800  0.19021575  0.37438078  1
  O  O68  1  0.98051200  0.17072774  0.87438078  1
  O  O69  1  0.82927226  0.80978425  0.87438078  1
  O  O70  1  0.19021575  0.01948800  0.87438078  1
  O  O71  1  0.82927226  0.01948800  0.62561922  1
  O  O72  1  0.19021575  0.17072774  0.62561922  1
  O  O73  1  0.98051200  0.80978425  0.62561922  1
