# generated using pymatgen
data_TbTaO4
_symmetry_space_group_name_H-M   'P 1'
_cell_length_a   5.12329746
_cell_length_b   5.38118156
_cell_length_c   6.58881791
_cell_angle_alpha   111.95798684
_cell_angle_beta   110.64547513
_cell_angle_gamma   95.08603519
_symmetry_Int_Tables_number   1
_chemical_formula_structural   TbTaO4
_chemical_formula_sum   'Tb2 Ta2 O8'
_cell_volume   152.48065076
_cell_formula_units_Z   2
loop_
 _symmetry_equiv_pos_site_id
 _symmetry_equiv_pos_as_xyz
  1  'x, y, z'
loop_
 _atom_site_type_symbol
 _atom_site_label
 _atom_site_symmetry_multiplicity
 _atom_site_fract_x
 _atom_site_fract_y
 _atom_site_fract_z
 _atom_site_occupancy
  Tb  Tb0  1  0.38038236  0.63038649  0.76073412  1
  Tb  Tb1  1  0.61961764  0.36961351  0.23926588  1
  Ta  Ta2  1  0.14637305  0.89634446  0.29275680  1
  Ta  Ta3  1  0.85362695  0.10365554  0.70724320  1
  O  O4  1  0.56976950  0.27629823  0.56361013  1
  O  O5  1  0.79310919  0.63199472  0.08050765  1
  O  O6  1  0.43023050  0.72370177  0.43638987  1
  O  O7  1  0.71264163  0.05153404  0.91949059  1
  O  O8  1  0.99381930  0.78733024  0.56363801  1
  O  O9  1  0.28735837  0.94846596  0.08050941  1
  O  O10  1  0.20689081  0.36800528  0.91949235  1
  O  O11  1  0.00618070  0.21266976  0.43636199  1
