# generated using pymatgen
data_CaZnSi3O8
_symmetry_space_group_name_H-M   'P 1'
_cell_length_a   7.30417025
_cell_length_b   8.22803856
_cell_length_c   13.08313912
_cell_angle_alpha   84.14961852
_cell_angle_beta   85.87394642
_cell_angle_gamma   63.80253292
_symmetry_Int_Tables_number   1
_chemical_formula_structural   CaZnSi3O8
_chemical_formula_sum   'Ca4 Zn4 Si12 O32'
_cell_volume   701.52009041
_cell_formula_units_Z   4
loop_
 _symmetry_equiv_pos_site_id
 _symmetry_equiv_pos_as_xyz
  1  'x, y, z'
loop_
 _atom_site_type_symbol
 _atom_site_label
 _atom_site_symmetry_multiplicity
 _atom_site_fract_x
 _atom_site_fract_y
 _atom_site_fract_z
 _atom_site_occupancy
  Ca  Ca0  1  0.14617057  0.74564696  0.52259972  1
  Ca  Ca1  1  0.85369601  0.75354649  0.97707079  1
  Ca  Ca2  1  0.85382943  0.25435304  0.47740028  1
  Ca  Ca3  1  0.14630399  0.24645351  0.02292921  1
  Zn  Zn4  1  0.20640080  0.99422450  0.31740595  1
  Zn  Zn5  1  0.79328470  0.50750753  0.18248202  1
  Zn  Zn6  1  0.20671530  0.49249247  0.81751798  1
  Zn  Zn7  1  0.79359920  0.00577550  0.68259405  1
  Si  Si8  1  0.36985266  0.33193019  0.60902540  1
  Si  Si9  1  0.69217845  0.69151623  0.61283454  1
  Si  Si10  1  0.30960079  0.80587731  0.88761751  1
  Si  Si11  1  0.69039921  0.19412269  0.11238249  1
  Si  Si12  1  0.25077787  0.00089516  0.66949662  1
  Si  Si13  1  0.74922213  0.99910484  0.33050338  1
  Si  Si14  1  0.30782155  0.30848377  0.38716546  1
  Si  Si15  1  0.63014734  0.66806981  0.39097460  1
  Si  Si16  1  0.24921385  0.50420775  0.16935452  1
  Si  Si17  1  0.75078615  0.49579225  0.83064548  1
  Si  Si18  1  0.63007145  0.16610063  0.89093272  1
  Si  Si19  1  0.36992855  0.83389937  0.10906728  1
  O  O20  1  0.17222694  0.19760626  0.39928939  1
  O  O21  1  0.71635407  0.08056049  0.01003447  1
  O  O22  1  0.23617081  0.96531850  0.79394981  1
  O  O23  1  0.55328409  0.17492097  0.37508724  1
  O  O24  1  0.44671591  0.82507903  0.62491276  1
  O  O25  1  0.05074513  0.51673011  0.11350005  1
  O  O26  1  0.73371425  0.98418228  0.82842066  1
  O  O27  1  0.73311930  0.48680024  0.32806761  1
  O  O28  1  0.26688070  0.51319976  0.67193239  1
  O  O29  1  0.94925487  0.48326989  0.88649995  1
  O  O30  1  0.72615101  0.30894366  0.85255459  1
  O  O31  1  0.94798368  0.98633204  0.38621072  1
  O  O32  1  0.27384899  0.69105634  0.14744541  1
  O  O33  1  0.38364403  0.76785376  0.39775884  1
  O  O34  1  0.76630628  0.53124801  0.70610972  1
  O  O35  1  0.27492332  0.18799879  0.64666310  1
  O  O36  1  0.17361979  0.69520576  0.90000974  1
  O  O37  1  0.28224496  0.42007639  0.49029146  1
  O  O38  1  0.82638021  0.30479424  0.09999026  1
  O  O39  1  0.82777306  0.80239374  0.60071061  1
  O  O40  1  0.71775504  0.57992361  0.50970854  1
  O  O41  1  0.61617752  0.73439846  0.10272182  1
  O  O42  1  0.05201632  0.01366796  0.61378928  1
  O  O43  1  0.38382248  0.26560154  0.89727818  1
  O  O44  1  0.26628575  0.01581772  0.17157934  1
  O  O45  1  0.61635597  0.23214624  0.60224116  1
  O  O46  1  0.44499268  0.32880095  0.12425191  1
  O  O47  1  0.28364593  0.91943951  0.98996553  1
  O  O48  1  0.55500732  0.67119905  0.87574809  1
  O  O49  1  0.76382919  0.03468150  0.20605019  1
  O  O50  1  0.72507668  0.81200121  0.35333690  1
  O  O51  1  0.23369372  0.46875199  0.29389028  1
