# generated using pymatgen
data_Ba3Nb2(P2O9)2
_symmetry_space_group_name_H-M   'P 1'
_cell_length_a   4.97169400
_cell_length_b   9.19303955
_cell_length_c   9.68435095
_cell_angle_alpha   88.41670276
_cell_angle_beta   78.80289865
_cell_angle_gamma   78.37515924
_symmetry_Int_Tables_number   1
_chemical_formula_structural   Ba3Nb2(P2O9)2
_chemical_formula_sum   'Ba3 Nb2 P4 O18'
_cell_volume   425.26099644
_cell_formula_units_Z   1
loop_
 _symmetry_equiv_pos_site_id
 _symmetry_equiv_pos_as_xyz
  1  'x, y, z'
loop_
 _atom_site_type_symbol
 _atom_site_label
 _atom_site_symmetry_multiplicity
 _atom_site_fract_x
 _atom_site_fract_y
 _atom_site_fract_z
 _atom_site_occupancy
  Ba  Ba0  1  0.04782964  0.71718891  0.08945811  1
  Ba  Ba1  1  0.50000000  0.50000000  0.50000000  1
  Ba  Ba2  1  0.95217036  0.28281109  0.91054189  1
  Nb  Nb3  1  0.74357209  0.10834527  0.27146677  1
  Nb  Nb4  1  0.25642791  0.89165473  0.72853323  1
  P  P5  1  0.80825151  0.63370614  0.78254294  1
  P  P6  1  0.69059872  0.13456447  0.64051788  1
  P  P7  1  0.30940128  0.86543553  0.35948212  1
  P  P8  1  0.19174849  0.36629386  0.21745706  1
  O  O9  1  0.55763667  0.99528567  0.63719376  1
  O  O10  1  0.01107761  0.49372689  0.31282290  1
  O  O11  1  0.73765336  0.06212429  0.09483356  1
  O  O12  1  0.24229273  0.80816014  0.51045128  1
  O  O13  1  0.96164551  0.76656083  0.78928637  1
  O  O14  1  0.97042908  0.07755080  0.69685290  1
  O  O15  1  0.45635555  0.30533380  0.28493482  1
  O  O16  1  0.27775554  0.41362376  0.06493899  1
  O  O17  1  0.26234664  0.93787571  0.90516644  1
  O  O18  1  0.44236333  0.00471433  0.36280624  1
  O  O19  1  0.49010032  0.74316516  0.25881880  1
  O  O20  1  0.75770727  0.19183986  0.48954872  1
  O  O21  1  0.03835449  0.23343917  0.21071363  1
  O  O22  1  0.02957092  0.92244920  0.30314710  1
  O  O23  1  0.72224446  0.58637624  0.93506101  1
  O  O24  1  0.98892239  0.50627311  0.68717710  1
  O  O25  1  0.50989968  0.25683484  0.74118120  1
  O  O26  1  0.54364445  0.69466620  0.71506518  1
