# generated using pymatgen
data_SnS2(O3F)2
_symmetry_space_group_name_H-M   'P 1'
_cell_length_a   5.40238100
_cell_length_b   9.86739905
_cell_length_c   13.29053140
_cell_angle_alpha   90.00000000
_cell_angle_beta   92.13980045
_cell_angle_gamma   90.00000000
_symmetry_Int_Tables_number   1
_chemical_formula_structural   SnS2(O3F)2
_chemical_formula_sum   'Sn4 S8 O24 F8'
_cell_volume   707.99029882
_cell_formula_units_Z   4
loop_
 _symmetry_equiv_pos_site_id
 _symmetry_equiv_pos_as_xyz
  1  'x, y, z'
loop_
 _atom_site_type_symbol
 _atom_site_label
 _atom_site_symmetry_multiplicity
 _atom_site_fract_x
 _atom_site_fract_y
 _atom_site_fract_z
 _atom_site_occupancy
  Sn  Sn0  1  0.34953205  0.69371857  0.32117239  1
  Sn  Sn1  1  0.65046795  0.30628143  0.67882761  1
  Sn  Sn2  1  0.84953205  0.80628143  0.82117239  1
  Sn  Sn3  1  0.15046795  0.19371857  0.17882761  1
  S  S4  1  0.26744726  0.31653845  0.43850195  1
  S  S5  1  0.27511061  0.52302021  0.80896634  1
  S  S6  1  0.77511061  0.97697979  0.30896634  1
  S  S7  1  0.22488939  0.02302021  0.69103366  1
  S  S8  1  0.73255274  0.68346155  0.56149805  1
  S  S9  1  0.23255274  0.81653845  0.06149805  1
  S  S10  1  0.76744726  0.18346155  0.93850195  1
  S  S11  1  0.72488939  0.47697979  0.19103366  1
  O  O12  1  0.62612178  0.73409006  0.46613303  1
  O  O13  1  0.36260862  0.44461513  0.40465078  1
  O  O14  1  0.26011775  0.71059866  0.13765729  1
  O  O15  1  0.23988225  0.21059866  0.36234271  1
  O  O16  1  0.44695326  0.10210003  0.71822648  1
  O  O17  1  0.37387822  0.26590994  0.53386697  1
  O  O18  1  0.71027862  0.59746846  0.25617238  1
  O  O19  1  0.13739138  0.94461513  0.09534922  1
  O  O20  1  0.21027862  0.90253154  0.75617238  1
  O  O21  1  0.28972138  0.40253154  0.74382762  1
  O  O22  1  0.87387822  0.23409006  0.03386697  1
  O  O23  1  0.63739138  0.55538487  0.59534922  1
  O  O24  1  0.05304674  0.60210003  0.78177352  1
  O  O25  1  0.49745273  0.40334009  0.17434298  1
  O  O26  1  0.73988225  0.28940134  0.86234271  1
  O  O27  1  0.50254727  0.59665991  0.82565702  1
  O  O28  1  0.99745273  0.09665991  0.67434298  1
  O  O29  1  0.12612178  0.76590994  0.96613303  1
  O  O30  1  0.78972138  0.09746846  0.24382762  1
  O  O31  1  0.00254727  0.90334009  0.32565702  1
  O  O32  1  0.94695326  0.39789997  0.21822648  1
  O  O33  1  0.55304674  0.89789997  0.28177352  1
  O  O34  1  0.76011775  0.78940134  0.63765729  1
  O  O35  1  0.86260862  0.05538487  0.90465078  1
  F  F36  1  0.51540412  0.84888559  0.03393614  1
  F  F37  1  0.28460732  0.96005322  0.58447661  1
  F  F38  1  0.98459588  0.34888559  0.46606386  1
  F  F39  1  0.78460732  0.53994678  0.08447661  1
  F  F40  1  0.48459588  0.15111441  0.96606386  1
  F  F41  1  0.01540412  0.65111441  0.53393614  1
  F  F42  1  0.21539268  0.46005322  0.91552339  1
  F  F43  1  0.71539268  0.03994678  0.41552339  1
