# generated using pymatgen
data_Ag2Ge2O5
_symmetry_space_group_name_H-M   'P 1'
_cell_length_a   10.29524494
_cell_length_b   11.22981647
_cell_length_c   12.47190712
_cell_angle_alpha   94.50471246
_cell_angle_beta   90.00000000
_cell_angle_gamma   90.00000000
_symmetry_Int_Tables_number   1
_chemical_formula_structural   Ag2Ge2O5
_chemical_formula_sum   'Ag24 Ge24 O60'
_cell_volume   1437.46918870
_cell_formula_units_Z   12
loop_
 _symmetry_equiv_pos_site_id
 _symmetry_equiv_pos_as_xyz
  1  'x, y, z'
loop_
 _atom_site_type_symbol
 _atom_site_label
 _atom_site_symmetry_multiplicity
 _atom_site_fract_x
 _atom_site_fract_y
 _atom_site_fract_z
 _atom_site_occupancy
  Ag  Ag0  1  0.65762842  0.82122907  0.48581446  1
  Ag  Ag1  1  0.86329234  0.11860048  0.09482407  1
  Ag  Ag2  1  0.82536756  0.85035715  0.68387126  1
  Ag  Ag3  1  0.17463244  0.14964285  0.31612874  1
  Ag  Ag4  1  0.71678056  0.61474236  0.64884494  1
  Ag  Ag5  1  0.63670766  0.11860048  0.59482407  1
  Ag  Ag6  1  0.66686934  0.60243337  0.91909088  1
  Ag  Ag7  1  0.79557133  0.36382104  0.67248776  1
  Ag  Ag8  1  0.20442867  0.63617896  0.32751224  1
  Ag  Ag9  1  0.21678056  0.38525764  0.85115506  1
  Ag  Ag10  1  0.16686934  0.39756663  0.58090912  1
  Ag  Ag11  1  0.34237158  0.17877093  0.51418554  1
  Ag  Ag12  1  0.15762842  0.17877093  0.01418554  1
  Ag  Ag13  1  0.32536756  0.14964285  0.81612874  1
  Ag  Ag14  1  0.70442867  0.36382104  0.17248776  1
  Ag  Ag15  1  0.67463244  0.85035715  0.18387126  1
  Ag  Ag16  1  0.36329234  0.88139952  0.40517593  1
  Ag  Ag17  1  0.84237158  0.82122907  0.98581446  1
  Ag  Ag18  1  0.28321944  0.38525764  0.35115506  1
  Ag  Ag19  1  0.33313066  0.39756663  0.08090912  1
  Ag  Ag20  1  0.13670766  0.88139952  0.90517593  1
  Ag  Ag21  1  0.78321944  0.61474236  0.14884494  1
  Ag  Ag22  1  0.83313066  0.60243337  0.41909088  1
  Ag  Ag23  1  0.29557133  0.63617896  0.82751224  1
  Ge  Ge24  1  0.07700817  0.60732699  0.03671251  1
  Ge  Ge25  1  0.53286317  0.58799345  0.29664032  1
  Ge  Ge26  1  0.03286317  0.41200655  0.20335968  1
  Ge  Ge27  1  0.46713683  0.41200655  0.70335968  1
  Ge  Ge28  1  0.57700817  0.39267301  0.46328749  1
  Ge  Ge29  1  0.49021766  0.87265383  0.95244195  1
  Ge  Ge30  1  0.00978234  0.87265383  0.45244195  1
  Ge  Ge31  1  0.66563797  0.03703214  0.85459332  1
  Ge  Ge32  1  0.99021766  0.12734617  0.54755805  1
  Ge  Ge33  1  0.61644710  0.29891792  0.89940704  1
  Ge  Ge34  1  0.16563797  0.96296786  0.64540668  1
  Ge  Ge35  1  0.50978234  0.12734617  0.04755805  1
  Ge  Ge36  1  0.83436203  0.03703214  0.35459332  1
  Ge  Ge37  1  0.33436203  0.96296786  0.14540668  1
  Ge  Ge38  1  0.96713683  0.58799345  0.79664032  1
  Ge  Ge39  1  0.38355290  0.70108208  0.10059296  1
  Ge  Ge40  1  0.46436505  0.87509403  0.69982344  1
  Ge  Ge41  1  0.92299183  0.39267301  0.96328749  1
  Ge  Ge42  1  0.03563495  0.87509403  0.19982344  1
  Ge  Ge43  1  0.88355290  0.29891792  0.39940704  1
  Ge  Ge44  1  0.11644710  0.70108208  0.60059296  1
  Ge  Ge45  1  0.96436505  0.12490597  0.80017656  1
  Ge  Ge46  1  0.42299183  0.60732699  0.53671251  1
  Ge  Ge47  1  0.53563495  0.12490597  0.30017656  1
  O  O48  1  0.97817626  0.22741718  0.91839890  1
  O  O49  1  0.60009992  0.56184463  0.51297403  1
  O  O50  1  0.44764777  0.57554753  0.17080426  1
  O  O51  1  0.05235223  0.57554753  0.67080426  1
  O  O52  1  0.48028549  0.27402300  0.98567108  1
  O  O53  1  0.10009992  0.43815537  0.98702597  1
  O  O54  1  0.07140957  0.56387192  0.18264314  1
  O  O55  1  0.94764777  0.42445247  0.32919574  1
  O  O56  1  0.93895360  0.19996736  0.68258256  1
  O  O57  1  0.75817551  0.38149494  0.46775604  1
  O  O58  1  0.42042785  0.65692010  0.39169108  1
  O  O59  1  0.06104640  0.80003264  0.31741744  1
  O  O60  1  0.01971451  0.27402300  0.48567108  1
  O  O61  1  0.24182449  0.61850506  0.53224396  1
  O  O62  1  0.82448683  0.67554533  0.78872638  1
  O  O63  1  0.92042785  0.34307990  0.10830892  1
  O  O64  1  0.84328364  0.01820836  0.82647149  1
  O  O65  1  0.25817551  0.61850506  0.03224396  1
  O  O66  1  0.38647040  0.04057249  0.28854815  1
  O  O67  1  0.74182449  0.38149494  0.96775604  1
  O  O68  1  0.57140957  0.43612808  0.31735686  1
  O  O69  1  0.18073161  0.86717819  0.51082049  1
  O  O70  1  0.11352960  0.04057249  0.78854815  1
  O  O71  1  0.67551317  0.67554533  0.28872638  1
  O  O72  1  0.61352960  0.95942751  0.71145185  1
  O  O73  1  0.15671636  0.98179164  0.17352851  1
  O  O74  1  0.02034089  0.03369138  0.40337958  1
  O  O75  1  0.52034089  0.96630862  0.09662042  1
  O  O76  1  0.56104640  0.19996736  0.18258256  1
  O  O77  1  0.57957215  0.34307990  0.60830892  1
  O  O78  1  0.83420594  0.88800608  0.41473662  1
  O  O79  1  0.33420594  0.11199392  0.08526338  1
  O  O80  1  0.65671636  0.01820836  0.32647149  1
  O  O81  1  0.02182374  0.77258282  0.08160110  1
  O  O82  1  0.52182374  0.22741718  0.41839890  1
  O  O83  1  0.34328364  0.98179164  0.67352851  1
  O  O84  1  0.07957215  0.65692010  0.89169108  1
  O  O85  1  0.89990008  0.56184463  0.01297403  1
  O  O86  1  0.88647040  0.95942751  0.21145185  1
  O  O87  1  0.97965911  0.96630862  0.59662042  1
  O  O88  1  0.51971451  0.72597700  0.01432892  1
  O  O89  1  0.35423114  0.81372501  0.20690285  1
  O  O90  1  0.42859043  0.56387192  0.68264314  1
  O  O91  1  0.39990008  0.43815537  0.48702597  1
  O  O92  1  0.55235223  0.42445247  0.82919574  1
  O  O93  1  0.17551317  0.32445467  0.21127362  1
  O  O94  1  0.47817626  0.77258282  0.58160110  1
  O  O95  1  0.68073161  0.13282181  0.98917951  1
  O  O96  1  0.64576886  0.18627499  0.79309715  1
  O  O97  1  0.98028549  0.72597700  0.51432892  1
  O  O98  1  0.16579406  0.11199392  0.58526338  1
  O  O99  1  0.47965911  0.03369138  0.90337958  1
  O  O100  1  0.32448683  0.32445467  0.71127362  1
  O  O101  1  0.85423114  0.18627499  0.29309715  1
  O  O102  1  0.66579406  0.88800608  0.91473662  1
  O  O103  1  0.14576886  0.81372501  0.70690285  1
  O  O104  1  0.81926839  0.13282181  0.48917951  1
  O  O105  1  0.92859043  0.43612808  0.81735686  1
  O  O106  1  0.31926839  0.86717819  0.01082049  1
  O  O107  1  0.43895360  0.80003264  0.81741744  1
