# generated using pymatgen
data_Sr3SiO5
_symmetry_space_group_name_H-M   'P 1'
_cell_length_a   7.12717128
_cell_length_b   7.12717128
_cell_length_c   10.83814319
_cell_angle_alpha   90.00000000
_cell_angle_beta   90.00000000
_cell_angle_gamma   90.00000000
_symmetry_Int_Tables_number   1
_chemical_formula_structural   Sr3SiO5
_chemical_formula_sum   'Sr12 Si4 O20'
_cell_volume   550.54050415
_cell_formula_units_Z   4
loop_
 _symmetry_equiv_pos_site_id
 _symmetry_equiv_pos_as_xyz
  1  'x, y, z'
loop_
 _atom_site_type_symbol
 _atom_site_label
 _atom_site_symmetry_multiplicity
 _atom_site_fract_x
 _atom_site_fract_y
 _atom_site_fract_z
 _atom_site_occupancy
  O  O0  1  0.25000000  0.25000000  0.71269603  1
  O  O1  1  0.75000000  0.75000000  0.78730397  1
  O  O2  1  0.75000000  0.75000000  0.28730397  1
  O  O3  1  0.25000000  0.25000000  0.21269603  1
  O  O4  1  0.66929112  0.41627395  0.09225741  1
  O  O5  1  0.83070888  0.08372605  0.09225741  1
  O  O6  1  0.91627395  0.16929112  0.40774259  1
  O  O7  1  0.41627395  0.83070888  0.09225741  1
  O  O8  1  0.08372605  0.66929112  0.09225741  1
  O  O9  1  0.33070888  0.91627395  0.40774259  1
  O  O10  1  0.16929112  0.58372605  0.40774259  1
  O  O11  1  0.58372605  0.33070888  0.40774259  1
  O  O12  1  0.33070888  0.58372605  0.90774259  1
  O  O13  1  0.16929112  0.91627395  0.90774259  1
  O  O14  1  0.08372605  0.83070888  0.59225741  1
  O  O15  1  0.58372605  0.16929112  0.90774259  1
  O  O16  1  0.41627395  0.66929112  0.59225741  1
  O  O17  1  0.83070888  0.41627395  0.59225741  1
  O  O18  1  0.66929112  0.08372605  0.59225741  1
  O  O19  1  0.91627395  0.33070888  0.90774259  1
  Si  Si20  1  0.25000000  0.75000000  0.50000000  1
  Si  Si21  1  0.75000000  0.25000000  0.50000000  1
  Si  Si22  1  0.75000000  0.25000000  0.00000000  1
  Si  Si23  1  0.25000000  0.75000000  0.00000000  1
  Sr  Sr24  1  0.25000000  0.25000000  0.48658415  1
  Sr  Sr25  1  0.75000000  0.75000000  0.01341585  1
  Sr  Sr26  1  0.75000000  0.75000000  0.51341585  1
  Sr  Sr27  1  0.25000000  0.25000000  0.98658415  1
  Sr  Sr28  1  0.94732898  0.44732898  0.25000000  1
  Sr  Sr29  1  0.05267102  0.94732898  0.25000000  1
  Sr  Sr30  1  0.44732898  0.55267102  0.25000000  1
  Sr  Sr31  1  0.55267102  0.05267102  0.25000000  1
  Sr  Sr32  1  0.05267102  0.55267102  0.75000000  1
  Sr  Sr33  1  0.94732898  0.05267102  0.75000000  1
  Sr  Sr34  1  0.55267102  0.44732898  0.75000000  1
  Sr  Sr35  1  0.44732898  0.94732898  0.75000000  1
