# generated using pymatgen
data_TiMn2O4
_symmetry_space_group_name_H-M   'P 1'
_cell_length_a   6.24030861
_cell_length_b   6.24030861
_cell_length_c   8.71863594
_cell_angle_alpha   90.00000000
_cell_angle_beta   90.00000000
_cell_angle_gamma   90.00000000
_symmetry_Int_Tables_number   1
_chemical_formula_structural   TiMn2O4
_chemical_formula_sum   'Ti4 Mn8 O16'
_cell_volume   339.51633902
_cell_formula_units_Z   4
loop_
 _symmetry_equiv_pos_site_id
 _symmetry_equiv_pos_as_xyz
  1  'x, y, z'
loop_
 _atom_site_type_symbol
 _atom_site_label
 _atom_site_symmetry_multiplicity
 _atom_site_fract_x
 _atom_site_fract_y
 _atom_site_fract_z
 _atom_site_occupancy
  Ti  Ti0  1  0.50000000  0.24472535  0.00000000  1
  Ti  Ti1  1  0.75527465  0.50000000  0.75000000  1
  Ti  Ti2  1  0.24472535  0.50000000  0.25000000  1
  Ti  Ti3  1  0.50000000  0.75527465  0.50000000  1
  Mn  Mn4  1  0.00000000  0.25516939  0.00000000  1
  Mn  Mn5  1  0.74483061  0.00000000  0.75000000  1
  Mn  Mn6  1  0.25516939  0.00000000  0.25000000  1
  Mn  Mn7  1  0.00000000  0.74483061  0.50000000  1
  Mn  Mn8  1  0.25208117  0.25208117  0.62500000  1
  Mn  Mn9  1  0.74791883  0.25208117  0.37500000  1
  Mn  Mn10  1  0.25208117  0.74791883  0.87500000  1
  Mn  Mn11  1  0.74791883  0.74791883  0.12500000  1
  O  O12  1  0.27212483  0.03686377  0.99656293  1
  O  O13  1  0.96313623  0.27212483  0.74656293  1
  O  O14  1  0.03686377  0.72787517  0.24656293  1
  O  O15  1  0.27212483  0.96313623  0.50343707  1
  O  O16  1  0.72787517  0.03686377  0.00343707  1
  O  O17  1  0.72787517  0.96313623  0.49656293  1
  O  O18  1  0.03686377  0.27212483  0.25343707  1
  O  O19  1  0.96313623  0.72787517  0.75343707  1
  O  O20  1  0.27076697  0.48584057  0.02258257  1
  O  O21  1  0.51415943  0.27076697  0.77258257  1
  O  O22  1  0.48584057  0.72923303  0.27258257  1
  O  O23  1  0.27076697  0.51415943  0.47741743  1
  O  O24  1  0.72923303  0.48584057  0.97741743  1
  O  O25  1  0.72923303  0.51415943  0.52258257  1
  O  O26  1  0.48584057  0.27076697  0.22741743  1
  O  O27  1  0.51415943  0.72923303  0.72741743  1
