# generated using pymatgen
data_KGaCuF6
_symmetry_space_group_name_H-M   'P 1'
_cell_length_a   6.83186501
_cell_length_b   7.43523158
_cell_length_c   10.11537270
_cell_angle_alpha   90.00000000
_cell_angle_beta   90.00000000
_cell_angle_gamma   94.37986756
_symmetry_Int_Tables_number   1
_chemical_formula_structural   KGaCuF6
_chemical_formula_sum   'K4 Ga4 Cu4 F24'
_cell_volume   512.32496260
_cell_formula_units_Z   4
loop_
 _symmetry_equiv_pos_site_id
 _symmetry_equiv_pos_as_xyz
  1  'x, y, z'
loop_
 _atom_site_type_symbol
 _atom_site_label
 _atom_site_symmetry_multiplicity
 _atom_site_fract_x
 _atom_site_fract_y
 _atom_site_fract_z
 _atom_site_occupancy
  K  K0  1  0.49977516  0.24101966  0.88413362  1
  K  K1  1  0.50022484  0.75898034  0.11586638  1
  K  K2  1  0.00022484  0.75898034  0.38413362  1
  K  K3  1  0.99977516  0.24101966  0.61586638  1
  Ga  Ga4  1  0.00000000  0.50000000  0.00000000  1
  Ga  Ga5  1  0.50000000  0.00000000  0.50000000  1
  Ga  Ga6  1  0.00000000  0.00000000  0.00000000  1
  Ga  Ga7  1  0.50000000  0.50000000  0.50000000  1
  Cu  Cu8  1  0.81601403  0.25744380  0.26700299  1
  Cu  Cu9  1  0.68398597  0.74255620  0.76700299  1
  Cu  Cu10  1  0.18398597  0.74255620  0.73299701  1
  Cu  Cu11  1  0.31601403  0.25744380  0.23299701  1
  F  F12  1  0.25085994  0.44884537  0.05748823  1
  F  F13  1  0.08472768  0.75489815  0.02077008  1
  F  F14  1  0.90177010  0.48976812  0.18045913  1
  F  F15  1  0.13562993  0.02810757  0.83977808  1
  F  F16  1  0.86437007  0.97189243  0.16022192  1
  F  F17  1  0.92286788  0.75487889  0.66803375  1
  F  F18  1  0.41527232  0.24510185  0.52077008  1
  F  F19  1  0.58472768  0.75489815  0.47922992  1
  F  F20  1  0.75085994  0.44884537  0.44251177  1
  F  F21  1  0.74914006  0.55115463  0.94251177  1
  F  F22  1  0.63562993  0.02810757  0.66022192  1
  F  F23  1  0.59822990  0.51023188  0.68045913  1
  F  F24  1  0.42286788  0.75487889  0.83196625  1
  F  F25  1  0.36437007  0.97189243  0.33977808  1
  F  F26  1  0.25892945  0.92344880  0.59211934  1
  F  F27  1  0.91527232  0.24510185  0.97922992  1
  F  F28  1  0.09822990  0.51023188  0.81954087  1
  F  F29  1  0.40177010  0.48976812  0.31954087  1
  F  F30  1  0.57713212  0.24512111  0.16803375  1
  F  F31  1  0.75892945  0.92344880  0.90788066  1
  F  F32  1  0.07713212  0.24512111  0.33196625  1
  F  F33  1  0.74107055  0.07655120  0.40788066  1
  F  F34  1  0.24107055  0.07655120  0.09211934  1
  F  F35  1  0.24914006  0.55115463  0.55748823  1
