# generated using pymatgen
data_RbH4SNO4
_symmetry_space_group_name_H-M   'P 1'
_cell_length_a   6.22972211
_cell_length_b   7.75987515
_cell_length_c   10.85850885
_cell_angle_alpha   90.00000000
_cell_angle_beta   90.00000000
_cell_angle_gamma   90.00000000
_symmetry_Int_Tables_number   1
_chemical_formula_structural   RbH4SNO4
_chemical_formula_sum   'Rb4 H16 S4 N4 O16'
_cell_volume   524.92057754
_cell_formula_units_Z   4
loop_
 _symmetry_equiv_pos_site_id
 _symmetry_equiv_pos_as_xyz
  1  'x, y, z'
loop_
 _atom_site_type_symbol
 _atom_site_label
 _atom_site_symmetry_multiplicity
 _atom_site_fract_x
 _atom_site_fract_y
 _atom_site_fract_z
 _atom_site_occupancy
  Rb  Rb0  1  0.75000000  0.82326129  0.60482813  1
  Rb  Rb1  1  0.25000000  0.67673871  0.10482813  1
  Rb  Rb2  1  0.75000000  0.32326129  0.89517187  1
  Rb  Rb3  1  0.25000000  0.17673871  0.39517187  1
  H  H4  1  0.75000000  0.03361847  0.29149015  1
  H  H5  1  0.38369111  0.87838604  0.82814527  1
  H  H6  1  0.25000000  0.96638153  0.70850985  1
  H  H7  1  0.25000000  0.06999368  0.84836603  1
  H  H8  1  0.88369111  0.12161396  0.17185473  1
  H  H9  1  0.88369111  0.62161396  0.32814527  1
  H  H10  1  0.61630889  0.62161396  0.32814527  1
  H  H11  1  0.38369111  0.37838604  0.67185473  1
  H  H12  1  0.75000000  0.43000632  0.34836603  1
  H  H13  1  0.11630889  0.87838604  0.82814527  1
  H  H14  1  0.75000000  0.93000632  0.15163397  1
  H  H15  1  0.25000000  0.46638153  0.79149015  1
  H  H16  1  0.61630889  0.12161396  0.17185473  1
  H  H17  1  0.11630889  0.37838604  0.67185473  1
  H  H18  1  0.75000000  0.53361847  0.20850985  1
  H  H19  1  0.25000000  0.56999368  0.65163397  1
  S  S20  1  0.25000000  0.22631614  0.06829641  1
  S  S21  1  0.75000000  0.27368386  0.56829641  1
  S  S22  1  0.25000000  0.72631614  0.43170359  1
  S  S23  1  0.75000000  0.77368386  0.93170359  1
  N  N24  1  0.25000000  0.95096291  0.80242860  1
  N  N25  1  0.75000000  0.54903709  0.30242860  1
  N  N26  1  0.75000000  0.04903709  0.19757140  1
  N  N27  1  0.25000000  0.45096291  0.69757140  1
  O  O28  1  0.75000000  0.23737044  0.43193173  1
  O  O29  1  0.94662576  0.69368981  0.87569264  1
  O  O30  1  0.25000000  0.53851480  0.40802847  1
  O  O31  1  0.94662576  0.19368981  0.62430736  1
  O  O32  1  0.55337424  0.69368981  0.87569264  1
  O  O33  1  0.44662576  0.80631019  0.37569264  1
  O  O34  1  0.25000000  0.03851480  0.09197153  1
  O  O35  1  0.55337424  0.19368981  0.62430736  1
  O  O36  1  0.75000000  0.73737044  0.06806827  1
  O  O37  1  0.75000000  0.46148520  0.59197153  1
  O  O38  1  0.05337424  0.30631019  0.12430736  1
  O  O39  1  0.25000000  0.26262956  0.93193173  1
  O  O40  1  0.75000000  0.96148520  0.90802847  1
  O  O41  1  0.44662576  0.30631019  0.12430736  1
  O  O42  1  0.25000000  0.76262956  0.56806827  1
  O  O43  1  0.05337424  0.80631019  0.37569264  1
