# generated using pymatgen
data_BaNb7(P2O11)3
_symmetry_space_group_name_H-M   'P 1'
_cell_length_a   10.20576175
_cell_length_b   10.20576191
_cell_length_c   14.91258681
_cell_angle_alpha   90.00000000
_cell_angle_beta   90.00000000
_cell_angle_gamma   119.99999952
_symmetry_Int_Tables_number   1
_chemical_formula_structural   BaNb7(P2O11)3
_chemical_formula_sum   'Ba2 Nb14 P12 O66'
_cell_volume   1345.16164813
_cell_formula_units_Z   2
loop_
 _symmetry_equiv_pos_site_id
 _symmetry_equiv_pos_as_xyz
  1  'x, y, z'
loop_
 _atom_site_type_symbol
 _atom_site_label
 _atom_site_symmetry_multiplicity
 _atom_site_fract_x
 _atom_site_fract_y
 _atom_site_fract_z
 _atom_site_occupancy
  Ba  Ba0  1  0.00000000  0.00000000  0.75000000  1
  Ba  Ba1  1  0.00000000  0.00000000  0.25000000  1
  Nb  Nb2  1  0.23608724  0.42805858  0.62253085  1
  Nb  Nb3  1  0.42805858  0.23608724  0.12253085  1
  Nb  Nb4  1  0.33333300  0.66666700  0.25000000  1
  Nb  Nb5  1  0.80802866  0.57194142  0.12253085  1
  Nb  Nb6  1  0.80802866  0.23608724  0.37746915  1
  Nb  Nb7  1  0.19197134  0.42805858  0.87746915  1
  Nb  Nb8  1  0.57194142  0.80802866  0.62253085  1
  Nb  Nb9  1  0.76391276  0.19197134  0.12253085  1
  Nb  Nb10  1  0.57194142  0.76391276  0.87746915  1
  Nb  Nb11  1  0.66666700  0.33333300  0.75000000  1
  Nb  Nb12  1  0.42805858  0.19197134  0.37746915  1
  Nb  Nb13  1  0.19197134  0.76391276  0.62253085  1
  Nb  Nb14  1  0.76391276  0.57194142  0.37746915  1
  Nb  Nb15  1  0.23608724  0.80802866  0.87746915  1
  P  P16  1  0.35084890  0.19685173  0.88605726  1
  P  P17  1  0.15399717  0.35084890  0.11394274  1
  P  P18  1  0.80314827  0.15399717  0.88605726  1
  P  P19  1  0.64915110  0.80314827  0.11394274  1
  P  P20  1  0.19685173  0.35084890  0.38605726  1
  P  P21  1  0.84600283  0.64915110  0.88605726  1
  P  P22  1  0.35084890  0.15399717  0.61394274  1
  P  P23  1  0.80314827  0.64915110  0.61394274  1
  P  P24  1  0.64915110  0.84600283  0.38605726  1
  P  P25  1  0.84600283  0.19685173  0.61394274  1
  P  P26  1  0.15399717  0.80314827  0.38605726  1
  P  P27  1  0.19685173  0.84600283  0.11394274  1
  O  O28  1  0.84663311  0.41030247  0.10595808  1
  O  O29  1  0.50240662  0.69601539  0.16812762  1
  O  O30  1  0.29269455  0.26074389  0.64438491  1
  O  O31  1  0.70730545  0.96804934  0.14438491  1
  O  O32  1  0.69601539  0.50240662  0.66812762  1
  O  O33  1  0.99173105  0.22571857  0.13735225  1
  O  O34  1  0.29269455  0.03195066  0.85561509  1
  O  O35  1  0.96804934  0.26074389  0.85561509  1
  O  O36  1  0.83175779  0.61569545  0.98632732  1
  O  O37  1  0.03195066  0.29269455  0.35561509  1
  O  O38  1  0.77428143  0.00826895  0.36264775  1
  O  O39  1  0.16824221  0.78393766  0.48632732  1
  O  O40  1  0.55358232  0.77679116  0.75000000  1
  O  O41  1  0.49759338  0.30398461  0.83187238  1
  O  O42  1  0.22571857  0.99173105  0.63735225  1
  O  O43  1  0.76601248  0.77428143  0.63735225  1
  O  O44  1  0.22571857  0.23398752  0.86264775  1
  O  O45  1  0.23398752  0.22571857  0.36264775  1
  O  O46  1  0.58969753  0.15336689  0.39404192  1
  O  O47  1  0.49759338  0.19360876  0.66812762  1
  O  O48  1  0.23398752  0.00826895  0.13735225  1
  O  O49  1  0.00826895  0.77428143  0.86264775  1
  O  O50  1  0.77428143  0.76601248  0.13735225  1
  O  O51  1  0.96804934  0.70730545  0.64438491  1
  O  O52  1  0.30398461  0.49759338  0.33187238  1
  O  O53  1  0.61569545  0.83175779  0.48632732  1
  O  O54  1  0.99173105  0.76601248  0.36264775  1
  O  O55  1  0.69601539  0.19360876  0.83187238  1
  O  O56  1  0.43633065  0.84663311  0.89404192  1
  O  O57  1  0.16824221  0.38430455  0.01367268  1
  O  O58  1  0.56366935  0.41030247  0.39404192  1
  O  O59  1  0.80639124  0.50240662  0.83187238  1
  O  O60  1  0.41030247  0.84663311  0.60595808  1
  O  O61  1  0.43633065  0.58969753  0.60595808  1
  O  O62  1  0.26074389  0.96804934  0.35561509  1
  O  O63  1  0.22320884  0.77679116  0.75000000  1
  O  O64  1  0.15336689  0.58969753  0.89404192  1
  O  O65  1  0.21606234  0.83175779  0.01367268  1
  O  O66  1  0.41030247  0.56366935  0.89404192  1
  O  O67  1  0.38430455  0.16824221  0.51367268  1
  O  O68  1  0.22320884  0.44641768  0.75000000  1
  O  O69  1  0.73925611  0.03195066  0.64438491  1
  O  O70  1  0.76601248  0.99173105  0.86264775  1
  O  O71  1  0.58969753  0.43633065  0.10595808  1
  O  O72  1  0.03195066  0.73925611  0.14438491  1
  O  O73  1  0.84663311  0.43633065  0.39404192  1
  O  O74  1  0.30398461  0.80639124  0.16812762  1
  O  O75  1  0.38430455  0.21606234  0.98632732  1
  O  O76  1  0.50240662  0.80639124  0.33187238  1
  O  O77  1  0.21606234  0.38430455  0.48632732  1
  O  O78  1  0.78393766  0.61569545  0.51367268  1
  O  O79  1  0.61569545  0.78393766  0.01367268  1
  O  O80  1  0.15336689  0.56366935  0.60595808  1
  O  O81  1  0.19360876  0.69601539  0.33187238  1
  O  O82  1  0.77679116  0.22320884  0.25000000  1
  O  O83  1  0.73925611  0.70730545  0.85561509  1
  O  O84  1  0.70730545  0.73925611  0.35561509  1
  O  O85  1  0.80639124  0.30398461  0.66812762  1
  O  O86  1  0.26074389  0.29269455  0.14438491  1
  O  O87  1  0.77679116  0.55358232  0.25000000  1
  O  O88  1  0.56366935  0.15336689  0.10595808  1
  O  O89  1  0.78393766  0.16824221  0.98632732  1
  O  O90  1  0.19360876  0.49759338  0.16812762  1
  O  O91  1  0.44641768  0.22320884  0.25000000  1
  O  O92  1  0.83175779  0.21606234  0.51367268  1
  O  O93  1  0.00826895  0.23398752  0.63735225  1
