# generated using pymatgen
data_MnCrF5
_symmetry_space_group_name_H-M   'P 1'
_cell_length_a   5.43416124
_cell_length_b   5.43416175
_cell_length_c   7.51948568
_cell_angle_alpha   69.70123157
_cell_angle_beta   69.70122956
_cell_angle_gamma   72.35507523
_symmetry_Int_Tables_number   1
_chemical_formula_structural   MnCrF5
_chemical_formula_sum   'Mn2 Cr2 F10'
_cell_volume   191.06471423
_cell_formula_units_Z   2
loop_
 _symmetry_equiv_pos_site_id
 _symmetry_equiv_pos_as_xyz
  1  'x, y, z'
loop_
 _atom_site_type_symbol
 _atom_site_label
 _atom_site_symmetry_multiplicity
 _atom_site_fract_x
 _atom_site_fract_y
 _atom_site_fract_z
 _atom_site_occupancy
  Mn  Mn0  1  0.53315210  0.46684790  0.75000000  1
  Mn  Mn1  1  0.46684790  0.53315210  0.25000000  1
  Cr  Cr2  1  0.00000000  0.00000000  0.00000000  1
  Cr  Cr3  1  0.00000000  0.00000000  0.50000000  1
  F  F4  1  0.20902665  0.27402087  0.37167411  1
  F  F5  1  0.72597913  0.79097335  0.12832589  1
  F  F6  1  0.79097335  0.72597913  0.62832589  1
  F  F7  1  0.27402087  0.20902665  0.87167411  1
  F  F8  1  0.90530750  0.09469250  0.75000000  1
  F  F9  1  0.09469250  0.90530750  0.25000000  1
  F  F10  1  0.71913667  0.31637515  0.03502977  1
  F  F11  1  0.68362485  0.28086333  0.46497023  1
  F  F12  1  0.28086333  0.68362485  0.96497023  1
  F  F13  1  0.31637515  0.71913667  0.53502977  1
