# generated using pymatgen
data_LiBS4(ClO3)4
_symmetry_space_group_name_H-M   'P 1'
_cell_length_a   8.63371464
_cell_length_b   9.05573324
_cell_length_c   21.29179952
_cell_angle_alpha   91.57593459
_cell_angle_beta   90.00000000
_cell_angle_gamma   90.00000000
_symmetry_Int_Tables_number   1
_chemical_formula_structural   LiBS4(ClO3)4
_chemical_formula_sum   'Li4 B4 S16 Cl16 O48'
_cell_volume   1664.06152225
_cell_formula_units_Z   4
loop_
 _symmetry_equiv_pos_site_id
 _symmetry_equiv_pos_as_xyz
  1  'x, y, z'
loop_
 _atom_site_type_symbol
 _atom_site_label
 _atom_site_symmetry_multiplicity
 _atom_site_fract_x
 _atom_site_fract_y
 _atom_site_fract_z
 _atom_site_occupancy
  Li  Li0  1  0.24967796  0.91125638  0.43845705  1
  Li  Li1  1  0.75032204  0.08874362  0.56154295  1
  Li  Li2  1  0.74967796  0.08874362  0.06154295  1
  Li  Li3  1  0.25032204  0.91125638  0.93845705  1
  B  B4  1  0.74490383  0.65082292  0.08841314  1
  B  B5  1  0.25509617  0.34917708  0.91158686  1
  B  B6  1  0.75509617  0.65082292  0.58841314  1
  B  B7  1  0.24490383  0.34917708  0.41158686  1
  S  S8  1  0.98126415  0.18893956  0.43871537  1
  S  S9  1  0.17869232  0.60222764  0.35048607  1
  S  S10  1  0.89354993  0.77464216  0.98673829  1
  S  S11  1  0.01873585  0.81106044  0.56128463  1
  S  S12  1  0.32130768  0.60222764  0.85048607  1
  S  S13  1  0.37442938  0.14743789  0.32796849  1
  S  S14  1  0.39354993  0.22535784  0.51326171  1
  S  S15  1  0.10645007  0.22535784  0.01326171  1
  S  S16  1  0.60645007  0.77464216  0.48673829  1
  S  S17  1  0.82130768  0.39777236  0.64951393  1
  S  S18  1  0.12557062  0.14743789  0.82796849  1
  S  S19  1  0.62557062  0.85256211  0.67203151  1
  S  S20  1  0.87442938  0.85256211  0.17203151  1
  S  S21  1  0.51873585  0.18893956  0.93871537  1
  S  S22  1  0.67869232  0.39777236  0.14951393  1
  S  S23  1  0.48126415  0.81106044  0.06128463  1
  Cl  Cl24  1  0.67168474  0.24682737  0.87213082  1
  Cl  Cl25  1  0.82831526  0.24682737  0.37213082  1
  Cl  Cl26  1  0.20052983  0.35834905  0.08108303  1
  Cl  Cl27  1  0.74903690  0.93893467  0.74490057  1
  Cl  Cl28  1  0.25096310  0.06106533  0.25509943  1
  Cl  Cl29  1  0.75096310  0.93893467  0.24490057  1
  Cl  Cl30  1  0.70052983  0.64165095  0.41891697  1
  Cl  Cl31  1  0.17601988  0.57150394  0.77628262  1
  Cl  Cl32  1  0.24903690  0.06106533  0.75509943  1
  Cl  Cl33  1  0.82398012  0.42849606  0.22371738  1
  Cl  Cl34  1  0.17168474  0.75317263  0.62786918  1
  Cl  Cl35  1  0.67601988  0.42849606  0.72371738  1
  Cl  Cl36  1  0.29947017  0.35834905  0.58108303  1
  Cl  Cl37  1  0.32831526  0.75317263  0.12786918  1
  Cl  Cl38  1  0.32398012  0.57150394  0.27628262  1
  Cl  Cl39  1  0.79947017  0.64165095  0.91891697  1
  O  O40  1  0.40623096  0.32274848  0.94281411  1
  O  O41  1  0.24501364  0.26616581  0.85109837  1
  O  O42  1  0.19294302  0.75443543  0.37002907  1
  O  O43  1  0.09376904  0.32274848  0.44281411  1
  O  O44  1  0.55614981  0.94318029  0.08457780  1
  O  O45  1  0.03073367  0.54272615  0.33314590  1
  O  O46  1  0.29899962  0.09467485  0.50931376  1
  O  O47  1  0.79899962  0.90532515  0.99068624  1
  O  O48  1  0.20100038  0.09467485  0.00931376  1
  O  O49  1  0.60134471  0.18970401  0.99705182  1
  O  O50  1  0.94442738  0.21301023  0.02648872  1
  O  O51  1  0.74501364  0.73383419  0.64890163  1
  O  O52  1  0.69294302  0.24556457  0.12997093  1
  O  O53  1  0.48992974  0.78494345  0.69694805  1
  O  O54  1  0.98992974  0.21505655  0.80305195  1
  O  O55  1  0.75893247  0.49023753  0.09796126  1
  O  O56  1  0.30705698  0.75443543  0.87002907  1
  O  O57  1  0.25893247  0.50976247  0.40203874  1
  O  O58  1  0.05614981  0.05681971  0.41542220  1
  O  O59  1  0.70100038  0.90532515  0.49068624  1
  O  O60  1  0.51007026  0.21505655  0.30305195  1
  O  O61  1  0.53073367  0.45727385  0.16685410  1
  O  O62  1  0.80705698  0.24556457  0.62997093  1
  O  O63  1  0.55557262  0.21301023  0.52648872  1
  O  O64  1  0.10134471  0.81029599  0.50294818  1
  O  O65  1  0.46926633  0.54272615  0.83314590  1
  O  O66  1  0.74106753  0.49023753  0.59796126  1
  O  O67  1  0.94385019  0.94318029  0.58457780  1
  O  O68  1  0.25498636  0.26616581  0.35109837  1
  O  O69  1  0.39169266  0.03394561  0.37370903  1
  O  O70  1  0.96926633  0.45727385  0.66685410  1
  O  O71  1  0.62082729  0.68143721  0.54646326  1
  O  O72  1  0.89169266  0.96605439  0.12629097  1
  O  O73  1  0.90623096  0.67725152  0.55718589  1
  O  O74  1  0.39865529  0.81029599  0.00294818  1
  O  O75  1  0.60830734  0.96605439  0.62629097  1
  O  O76  1  0.87917271  0.68143721  0.04646326  1
  O  O77  1  0.24106753  0.50976247  0.90203874  1
  O  O78  1  0.37917271  0.31856279  0.45353674  1
  O  O79  1  0.75498636  0.73383419  0.14890163  1
  O  O80  1  0.10830734  0.03394561  0.87370903  1
  O  O81  1  0.44442738  0.78698977  0.47351128  1
  O  O82  1  0.01007026  0.78494345  0.19694805  1
  O  O83  1  0.44385019  0.05681971  0.91542220  1
  O  O84  1  0.89865529  0.18970401  0.49705182  1
  O  O85  1  0.59376904  0.67725152  0.05718589  1
  O  O86  1  0.12082729  0.31856279  0.95353674  1
  O  O87  1  0.05557262  0.78698977  0.97351128  1
