# generated using pymatgen
data_UCO5
_symmetry_space_group_name_H-M   'P 1'
_cell_length_a   4.34858985
_cell_length_b   4.89102579
_cell_length_c   9.66548348
_cell_angle_alpha   90.00000000
_cell_angle_beta   90.00000000
_cell_angle_gamma   90.00000000
_symmetry_Int_Tables_number   1
_chemical_formula_structural   UCO5
_chemical_formula_sum   'U2 C2 O10'
_cell_volume   205.57579742
_cell_formula_units_Z   2
loop_
 _symmetry_equiv_pos_site_id
 _symmetry_equiv_pos_as_xyz
  1  'x, y, z'
loop_
 _atom_site_type_symbol
 _atom_site_label
 _atom_site_symmetry_multiplicity
 _atom_site_fract_x
 _atom_site_fract_y
 _atom_site_fract_z
 _atom_site_occupancy
  U  U0  1  0.76163917  0.25000000  0.75000000  1
  U  U1  1  0.23836083  0.75000000  0.25000000  1
  C  C2  1  0.62450023  0.25000000  0.25000000  1
  C  C3  1  0.37549977  0.75000000  0.75000000  1
  O  O4  1  0.24623612  0.98569799  0.75000000  1
  O  O5  1  0.75623743  0.25000000  0.93506642  1
  O  O6  1  0.24376257  0.75000000  0.06493358  1
  O  O7  1  0.75623743  0.25000000  0.56493358  1
  O  O8  1  0.32416306  0.25000000  0.25000000  1
  O  O9  1  0.75376388  0.48569799  0.25000000  1
  O  O10  1  0.67583694  0.75000000  0.75000000  1
  O  O11  1  0.75376388  0.01430201  0.25000000  1
  O  O12  1  0.24623612  0.51430201  0.75000000  1
  O  O13  1  0.24376257  0.75000000  0.43506642  1
