# generated using pymatgen
data_Tl3CO3F
_symmetry_space_group_name_H-M   'P 1'
_cell_length_a   6.24972833
_cell_length_b   7.62867139
_cell_length_c   7.64527257
_cell_angle_alpha   119.89191012
_cell_angle_beta   90.00000000
_cell_angle_gamma   90.00000000
_symmetry_Int_Tables_number   1
_chemical_formula_structural   Tl3CO3F
_chemical_formula_sum   'Tl6 C2 O6 F2'
_cell_volume   316.01351018
_cell_formula_units_Z   2
loop_
 _symmetry_equiv_pos_site_id
 _symmetry_equiv_pos_as_xyz
  1  'x, y, z'
loop_
 _atom_site_type_symbol
 _atom_site_label
 _atom_site_symmetry_multiplicity
 _atom_site_fract_x
 _atom_site_fract_y
 _atom_site_fract_z
 _atom_site_occupancy
  Tl  Tl0  1  0.25000000  0.66568276  0.41693375  1
  Tl  Tl1  1  0.75000000  0.91545871  0.75072527  1
  Tl  Tl2  1  0.75000000  0.33431724  0.58306625  1
  Tl  Tl3  1  0.25000000  0.08454129  0.24927473  1
  Tl  Tl4  1  0.25000000  0.25336437  0.83358733  1
  Tl  Tl5  1  0.75000000  0.74663563  0.16641267  1
  C  C6  1  0.25000000  0.67122167  0.83309872  1
  C  C7  1  0.75000000  0.32877833  0.16690128  1
  O  O8  1  0.25000000  0.69371808  0.01383080  1
  O  O9  1  0.25000000  0.82970710  0.81014512  1
  O  O10  1  0.25000000  0.49030822  0.67516362  1
  O  O11  1  0.75000000  0.30628192  0.98616920  1
  O  O12  1  0.75000000  0.17029290  0.18985488  1
  O  O13  1  0.75000000  0.50969178  0.32483638  1
  F  F14  1  0.00000000  0.00000000  0.50000000  1
  F  F15  1  0.50000000  0.00000000  0.50000000  1
