# generated using pymatgen
data_BaAlF5
_symmetry_space_group_name_H-M   'P 1'
_cell_length_a   5.24880130
_cell_length_b   7.70755659
_cell_length_c   19.85039227
_cell_angle_alpha   90.00000000
_cell_angle_beta   90.00000000
_cell_angle_gamma   92.59949877
_symmetry_Int_Tables_number   1
_chemical_formula_structural   BaAlF5
_chemical_formula_sum   'Ba8 Al8 F40'
_cell_volume   802.22984406
_cell_formula_units_Z   8
loop_
 _symmetry_equiv_pos_site_id
 _symmetry_equiv_pos_as_xyz
  1  'x, y, z'
loop_
 _atom_site_type_symbol
 _atom_site_label
 _atom_site_symmetry_multiplicity
 _atom_site_fract_x
 _atom_site_fract_y
 _atom_site_fract_z
 _atom_site_occupancy
  Ba  Ba0  1  0.21343760  0.75910227  0.54064427  1
  Ba  Ba1  1  0.73905216  0.52127438  0.73023581  1
  Ba  Ba2  1  0.78656240  0.24089773  0.45935573  1
  Ba  Ba3  1  0.76094784  0.97872562  0.23023581  1
  Ba  Ba4  1  0.28656240  0.74089773  0.04064427  1
  Ba  Ba5  1  0.26094784  0.47872562  0.26976419  1
  Ba  Ba6  1  0.23905216  0.02127438  0.76976419  1
  Ba  Ba7  1  0.71343760  0.25910227  0.95935573  1
  Al  Al8  1  0.24821119  0.53057240  0.86870606  1
  Al  Al9  1  0.73177070  0.65008569  0.39192249  1
  Al  Al10  1  0.26822930  0.34991431  0.60807751  1
  Al  Al11  1  0.75178881  0.46942760  0.13129394  1
  Al  Al12  1  0.23177070  0.15008569  0.10807751  1
  Al  Al13  1  0.76822930  0.84991431  0.89192249  1
  Al  Al14  1  0.74821119  0.03057240  0.63129394  1
  Al  Al15  1  0.25178881  0.96942760  0.36870606  1
  F  F16  1  0.95957553  0.41485782  0.84530261  1
  F  F17  1  0.44231944  0.35737008  0.84045179  1
  F  F18  1  0.22474534  0.85652860  0.28886793  1
  F  F19  1  0.94231944  0.85737008  0.65954821  1
  F  F20  1  0.73313782  0.94493101  0.54591398  1
  F  F21  1  0.47512068  0.54272758  0.61654340  1
  F  F22  1  0.74859308  0.88178607  0.98146546  1
  F  F23  1  0.45120973  0.34763435  0.10014077  1
  F  F24  1  0.25140692  0.11821393  0.01853454  1
  F  F25  1  0.04042447  0.58514218  0.15469739  1
  F  F26  1  0.77525466  0.14347140  0.71113207  1
  F  F27  1  0.99908638  0.48481945  0.61832421  1
  F  F28  1  0.04879027  0.15236565  0.60014077  1
  F  F29  1  0.55537798  0.21441217  0.59583616  1
  F  F30  1  0.45957553  0.91485782  0.65469739  1
  F  F31  1  0.28989776  0.31432492  0.69792482  1
  F  F32  1  0.72474534  0.35652860  0.21113207  1
  F  F33  1  0.24859308  0.38178607  0.51853454  1
  F  F34  1  0.50091362  0.01518055  0.11832421  1
  F  F35  1  0.05768056  0.14262992  0.34045179  1
  F  F36  1  0.94462202  0.28558783  0.09583616  1
  F  F37  1  0.05537798  0.71441217  0.90416384  1
  F  F38  1  0.78989776  0.81432492  0.80207518  1
  F  F39  1  0.21010224  0.18567508  0.19792482  1
  F  F40  1  0.76686218  0.55506899  0.04591398  1
  F  F41  1  0.00091362  0.51518055  0.38167579  1
  F  F42  1  0.23313782  0.44493101  0.95408602  1
  F  F43  1  0.75140692  0.61821393  0.48146546  1
  F  F44  1  0.49908638  0.98481945  0.88167579  1
  F  F45  1  0.95120973  0.84763435  0.39985923  1
  F  F46  1  0.52487932  0.45727242  0.38345660  1
  F  F47  1  0.55768056  0.64262992  0.15954821  1
  F  F48  1  0.27525466  0.64347140  0.78886793  1
  F  F49  1  0.97512068  0.04272758  0.88345660  1
  F  F50  1  0.26686218  0.05506899  0.45408602  1
  F  F51  1  0.02487932  0.95727242  0.11654340  1
  F  F52  1  0.44462202  0.78558783  0.40416384  1
  F  F53  1  0.71010224  0.68567508  0.30207518  1
  F  F54  1  0.54879027  0.65236565  0.89985923  1
  F  F55  1  0.54042447  0.08514218  0.34530261  1
