# generated using pymatgen
data_AlF3
_symmetry_space_group_name_H-M   'P 1'
_cell_length_a   3.64072972
_cell_length_b   11.63012387
_cell_length_c   11.63012387
_cell_angle_alpha   90.00000000
_cell_angle_beta   90.00000000
_cell_angle_gamma   90.00000000
_symmetry_Int_Tables_number   1
_chemical_formula_structural   AlF3
_chemical_formula_sum   'Al10 F30'
_cell_volume   492.44430545
_cell_formula_units_Z   10
loop_
 _symmetry_equiv_pos_site_id
 _symmetry_equiv_pos_as_xyz
  1  'x, y, z'
loop_
 _atom_site_type_symbol
 _atom_site_label
 _atom_site_symmetry_multiplicity
 _atom_site_fract_x
 _atom_site_fract_y
 _atom_site_fract_z
 _atom_site_occupancy
  Al  Al0  1  0.00000000  0.70799328  0.42435325  1
  Al  Al1  1  0.00000000  0.57564675  0.70799328  1
  Al  Al2  1  0.00000000  0.92435325  0.20799328  1
  Al  Al3  1  0.00000000  0.42435325  0.29200672  1
  Al  Al4  1  0.00000000  0.07564675  0.79200672  1
  Al  Al5  1  0.00000000  0.79200672  0.92435325  1
  Al  Al6  1  0.00000000  0.20799328  0.07564675  1
  Al  Al7  1  0.00000000  0.29200672  0.57564675  1
  Al  Al8  1  0.00000000  0.50000000  0.00000000  1
  Al  Al9  1  0.00000000  0.00000000  0.50000000  1
  F  F10  1  0.00000000  0.34455760  0.00004720  1
  F  F11  1  0.00000000  0.56741907  0.35877223  1
  F  F12  1  0.50000000  0.79210575  0.92328959  1
  F  F13  1  0.00000000  0.21516900  0.71516900  1
  F  F14  1  0.50000000  0.42328959  0.29210575  1
  F  F15  1  0.00000000  0.85877223  0.06741907  1
  F  F16  1  0.00000000  0.35877223  0.43258093  1
  F  F17  1  0.00000000  0.78483100  0.28483100  1
  F  F18  1  0.00000000  0.71516900  0.78483100  1
  F  F19  1  0.00000000  0.50004720  0.84455760  1
  F  F20  1  0.50000000  0.57671041  0.70789425  1
  F  F21  1  0.50000000  0.20789425  0.07671041  1
  F  F22  1  0.00000000  0.64122777  0.56741907  1
  F  F23  1  0.00000000  0.49995280  0.15544240  1
  F  F24  1  0.00000000  0.43258093  0.64122777  1
  F  F25  1  0.00000000  0.84455760  0.49995280  1
  F  F26  1  0.50000000  0.29210575  0.57671041  1
  F  F27  1  0.00000000  0.06741907  0.14122777  1
  F  F28  1  0.00000000  0.14122777  0.93258093  1
  F  F29  1  0.50000000  0.70789425  0.42328959  1
  F  F30  1  0.50000000  0.00000000  0.50000000  1
  F  F31  1  0.00000000  0.00004720  0.65544240  1
  F  F32  1  0.00000000  0.15544240  0.50004720  1
  F  F33  1  0.50000000  0.07671041  0.79210575  1
  F  F34  1  0.00000000  0.93258093  0.85877223  1
  F  F35  1  0.00000000  0.99995280  0.34455760  1
  F  F36  1  0.50000000  0.92328959  0.20789425  1
  F  F37  1  0.00000000  0.65544240  0.99995280  1
  F  F38  1  0.00000000  0.28483100  0.21516900  1
  F  F39  1  0.50000000  0.50000000  0.00000000  1
