# generated using pymatgen
data_Rb6Si10O23
_symmetry_space_group_name_H-M   'P 1'
_cell_length_a   8.24638367
_cell_length_b   9.48810942
_cell_length_c   9.60390248
_cell_angle_alpha   119.60195611
_cell_angle_beta   90.00000000
_cell_angle_gamma   90.00000000
_symmetry_Int_Tables_number   1
_chemical_formula_structural   Rb6Si10O23
_chemical_formula_sum   'Rb6 Si10 O23'
_cell_volume   653.35556282
_cell_formula_units_Z   1
loop_
 _symmetry_equiv_pos_site_id
 _symmetry_equiv_pos_as_xyz
  1  'x, y, z'
loop_
 _atom_site_type_symbol
 _atom_site_label
 _atom_site_symmetry_multiplicity
 _atom_site_fract_x
 _atom_site_fract_y
 _atom_site_fract_z
 _atom_site_occupancy
  Rb  Rb0  1  0.50000000  0.26174746  0.24483070  1
  Rb  Rb1  1  0.50000000  0.78149726  0.00000000  1
  Rb  Rb2  1  0.50000000  0.01691676  0.75516930  1
  Rb  Rb3  1  0.00000000  0.77410609  0.00000000  1
  Rb  Rb4  1  0.00000000  0.25608386  0.23733663  1
  Rb  Rb5  1  0.00000000  0.01874723  0.76266337  1
  Si  Si6  1  0.30410085  0.41704124  1.00000000  1
  Si  Si7  1  0.81169741  0.35907675  0.66002371  1
  Si  Si8  1  0.30881725  0.02765562  0.40006120  1
  Si  Si9  1  0.30881725  0.62759443  0.59993880  1
  Si  Si10  1  0.18830259  0.69905304  0.33997629  1
  Si  Si11  1  0.69589915  0.41704124  1.00000000  1
  Si  Si12  1  0.18830259  0.35907675  0.66002371  1
  Si  Si13  1  0.69118275  0.62759443  0.59993880  1
  Si  Si14  1  0.69118275  0.02765562  0.40006120  1
  Si  Si15  1  0.81169741  0.69905304  0.33997629  1
  O  O16  1  0.70022545  0.86179396  0.41882281  1
  O  O17  1  0.77285618  0.58480257  0.15136917  1
  O  O18  1  0.22714382  0.58480257  0.15136917  1
  O  O19  1  0.78822370  0.16304345  0.56544688  1
  O  O20  1  0.21177630  0.16304345  0.56544688  1
  O  O21  1  0.26462028  0.25368283  1.00000000  1
  O  O22  1  0.24716807  0.01043340  0.23617254  1
  O  O23  1  0.29977455  0.86179396  0.41882281  1
  O  O24  1  0.22714382  0.43343341  0.84863083  1
  O  O25  1  0.21177630  0.59759657  0.43455312  1
  O  O26  1  0.50000000  0.08559994  0.44139579  1
  O  O27  1  0.50000000  0.45774942  0.00000000  1
  O  O28  1  0.77285618  0.43343341  0.84863083  1
  O  O29  1  0.70022545  0.44297114  0.58117719  1
  O  O30  1  0.73537972  0.25368283  1.00000000  1
  O  O31  1  0.24716807  0.77426086  0.76382746  1
  O  O32  1  0.75283193  0.77426086  0.76382746  1
  O  O33  1  0.00000000  0.76056623  0.35916318  1
  O  O34  1  0.29977455  0.44297114  0.58117719  1
  O  O35  1  0.75283193  0.01043340  0.23617254  1
  O  O36  1  0.50000000  0.64420415  0.55860421  1
  O  O37  1  0.00000000  0.40140305  0.64083682  1
  O  O38  1  0.78822370  0.59759657  0.43455312  1
