# generated using pymatgen
data_Sr2Be2B2O7
_symmetry_space_group_name_H-M   'P 1'
_cell_length_a   4.73032694
_cell_length_b   4.73032697
_cell_length_c   15.59167627
_cell_angle_alpha   90.00000000
_cell_angle_beta   90.00000000
_cell_angle_gamma   119.99999981
_symmetry_Int_Tables_number   1
_chemical_formula_structural   Sr2Be2B2O7
_chemical_formula_sum   'Sr4 Be4 B4 O14'
_cell_volume   302.13828568
_cell_formula_units_Z   2
loop_
 _symmetry_equiv_pos_site_id
 _symmetry_equiv_pos_as_xyz
  1  'x, y, z'
loop_
 _atom_site_type_symbol
 _atom_site_label
 _atom_site_symmetry_multiplicity
 _atom_site_fract_x
 _atom_site_fract_y
 _atom_site_fract_z
 _atom_site_occupancy
  Sr  Sr0  1  0.00000000  0.00000000  0.25000000  1
  Sr  Sr1  1  0.00000000  0.00000000  0.50000000  1
  Sr  Sr2  1  0.00000000  0.00000000  0.00000000  1
  Sr  Sr3  1  0.00000000  0.00000000  0.75000000  1
  Be  Be4  1  0.33333300  0.66666700  0.60138115  1
  Be  Be5  1  0.33333300  0.66666700  0.39861885  1
  Be  Be6  1  0.33333300  0.66666700  0.10138115  1
  Be  Be7  1  0.33333300  0.66666700  0.89861885  1
  B  B8  1  0.66666700  0.33333300  0.13551564  1
  B  B9  1  0.66666700  0.33333300  0.36448436  1
  B  B10  1  0.66666700  0.33333300  0.86448436  1
  B  B11  1  0.66666700  0.33333300  0.63551564  1
  O  O12  1  0.97553456  0.36880980  0.63658716  1
  O  O13  1  0.39327524  0.02446544  0.63658716  1
  O  O14  1  0.63119020  0.60672476  0.63658716  1
  O  O15  1  0.97553456  0.60672476  0.36341284  1
  O  O16  1  0.39327524  0.36880980  0.36341284  1
  O  O17  1  0.63119020  0.60672476  0.86341284  1
  O  O18  1  0.63119020  0.02446544  0.13658716  1
  O  O19  1  0.39327524  0.02446544  0.86341284  1
  O  O20  1  0.63119020  0.02446544  0.36341284  1
  O  O21  1  0.33333300  0.66666700  0.50000000  1
  O  O22  1  0.39327524  0.36880980  0.13658716  1
  O  O23  1  0.97553456  0.60672476  0.13658716  1
  O  O24  1  0.97553456  0.36880980  0.86341284  1
  O  O25  1  0.33333300  0.66666700  0.00000000  1
