# generated using pymatgen
data_V6Zn3(FeO6)4
_symmetry_space_group_name_H-M   'P 1'
_cell_length_a   6.76784050
_cell_length_b   8.14257622
_cell_length_c   9.94658285
_cell_angle_alpha   105.47727901
_cell_angle_beta   104.98154527
_cell_angle_gamma   102.29179173
_symmetry_Int_Tables_number   1
_chemical_formula_structural   V6Zn3(FeO6)4
_chemical_formula_sum   'V6 Zn3 Fe4 O24'
_cell_volume   486.34765979
_cell_formula_units_Z   1
loop_
 _symmetry_equiv_pos_site_id
 _symmetry_equiv_pos_as_xyz
  1  'x, y, z'
loop_
 _atom_site_type_symbol
 _atom_site_label
 _atom_site_symmetry_multiplicity
 _atom_site_fract_x
 _atom_site_fract_y
 _atom_site_fract_z
 _atom_site_occupancy
  V  V0  1  0.89528941  0.90203073  0.66615096  1
  V  V1  1  0.10471059  0.09796927  0.33384904  1
  V  V2  1  0.22247350  0.65932332  0.27087406  1
  V  V3  1  0.77752650  0.34067668  0.72912594  1
  V  V4  1  0.59528921  0.27293052  0.12789165  1
  V  V5  1  0.40471079  0.72706948  0.87210835  1
  Zn  Zn6  1  0.00000000  0.50000000  0.50000000  1
  Zn  Zn7  1  0.71502707  0.70832251  0.20365947  1
  Zn  Zn8  1  0.28497293  0.29167749  0.79634053  1
  Fe  Fe9  1  0.38003094  0.95141642  0.60756015  1
  Fe  Fe10  1  0.61996906  0.04858358  0.39243985  1
  Fe  Fe11  1  0.04252484  0.20914933  0.01513833  1
  Fe  Fe12  1  0.95747516  0.79085067  0.98486167  1
  O  O13  1  0.07410895  0.05622676  0.14388005  1
  O  O14  1  0.92589105  0.94377324  0.85611995  1
  O  O15  1  0.55742358  0.13648493  0.23144907  1
  O  O16  1  0.44257642  0.86351507  0.76855093  1
  O  O17  1  0.18017979  0.44029059  0.18325951  1
  O  O18  1  0.81982021  0.55970941  0.81674049  1
  O  O19  1  0.98292140  0.27725344  0.83311212  1
  O  O20  1  0.01707860  0.72274656  0.16688788  1
  O  O21  1  0.23584979  0.78350539  0.96635095  1
  O  O22  1  0.76415021  0.21649461  0.03364905  1
  O  O23  1  0.86982066  0.97315965  0.34817445  1
  O  O24  1  0.13017934  0.02684035  0.65182555  1
  O  O25  1  0.52699395  0.22371538  0.72917792  1
  O  O26  1  0.47300605  0.77628462  0.27082208  1
  O  O27  1  0.34628051  0.25380009  0.99552213  1
  O  O28  1  0.65371949  0.74619991  0.00447787  1
  O  O29  1  0.33249413  0.04039377  0.42586426  1
  O  O30  1  0.66750587  0.95960623  0.57413574  1
  O  O31  1  0.21377327  0.69850829  0.45496384  1
  O  O32  1  0.78622673  0.30149171  0.54503616  1
  O  O33  1  0.72049523  0.48999521  0.25283780  1
  O  O34  1  0.27950477  0.51000479  0.74716220  1
  O  O35  1  0.12441150  0.31247778  0.41593658  1
  O  O36  1  0.87558850  0.68752222  0.58406342  1
