# generated using pymatgen
data_Te3MoWS
_symmetry_space_group_name_H-M   'P 1'
_cell_length_a   3.45610294
_cell_length_b   3.45610941
_cell_length_c   39.33774389
_cell_angle_alpha   90.00003078
_cell_angle_beta   90.00000000
_cell_angle_gamma   119.99993812
_symmetry_Int_Tables_number   1
_chemical_formula_structural   Te3MoWS
_chemical_formula_sum   'Te6 Mo2 W2 S2'
_cell_volume   406.92512205
_cell_formula_units_Z   2
loop_
 _symmetry_equiv_pos_site_id
 _symmetry_equiv_pos_as_xyz
  1  'x, y, z'
loop_
 _atom_site_type_symbol
 _atom_site_label
 _atom_site_symmetry_multiplicity
 _atom_site_fract_x
 _atom_site_fract_y
 _atom_site_fract_z
 _atom_site_occupancy
  Te  Te0  1  0.33335840  0.66671779  0.32894119  1
  Te  Te1  1  0.33335866  0.66671831  0.70456321  1
  Te  Te2  1  0.66664904  0.33329708  0.42244799  1
  Te  Te3  1  0.66664231  0.33328363  0.51685530  1
  Te  Te4  1  0.33334901  0.66669902  0.23448353  1
  Te  Te5  1  0.33334958  0.66670016  0.61060784  1
  Mo  Mo6  1  0.33331286  0.66662573  0.09395966  1
  Mo  Mo7  1  0.66668894  0.33337788  0.65760262  1
  W  W8  1  0.33330999  0.66661997  0.46965590  1
  W  W9  1  0.66669056  0.33338112  0.28171798  1
  S  S10  1  0.66664499  0.33328898  0.05611142  1
  S  S11  1  0.66664567  0.33329034  0.13180135  1
