# generated using pymatgen
data_Ba2YbB2ClO6
_symmetry_space_group_name_H-M   'P 1'
_cell_length_a   5.44103917
_cell_length_b   6.53145645
_cell_length_c   11.44260363
_cell_angle_alpha   94.95434878
_cell_angle_beta   90.00000000
_cell_angle_gamma   90.00000000
_symmetry_Int_Tables_number   1
_chemical_formula_structural   Ba2YbB2ClO6
_chemical_formula_sum   'Ba4 Yb2 B4 Cl2 O12'
_cell_volume   405.12692080
_cell_formula_units_Z   2
loop_
 _symmetry_equiv_pos_site_id
 _symmetry_equiv_pos_as_xyz
  1  'x, y, z'
loop_
 _atom_site_type_symbol
 _atom_site_label
 _atom_site_symmetry_multiplicity
 _atom_site_fract_x
 _atom_site_fract_y
 _atom_site_fract_z
 _atom_site_occupancy
  Yb  Yb0  1  0.25000000  0.34935398  0.41414979  1
  Yb  Yb1  1  0.75000000  0.65064602  0.58585021  1
  Ba  Ba2  1  0.75000000  0.90702266  0.29764526  1
  Ba  Ba3  1  0.75000000  0.66632340  0.92414076  1
  Ba  Ba4  1  0.25000000  0.33367660  0.07585924  1
  Ba  Ba5  1  0.25000000  0.09297734  0.70235474  1
  B  B6  1  0.75000000  0.37581446  0.22503649  1
  B  B7  1  0.75000000  0.21242109  0.57202294  1
  B  B8  1  0.25000000  0.62418554  0.77496351  1
  B  B9  1  0.25000000  0.78757891  0.42797706  1
  Cl  Cl10  1  0.25000000  0.84464896  0.08246455  1
  Cl  Cl11  1  0.75000000  0.15535104  0.91753545  1
  O  O12  1  0.46841689  0.70874520  0.74071409  1
  O  O13  1  0.03214940  0.68234099  0.43484939  1
  O  O14  1  0.25000000  0.46938063  0.85104517  1
  O  O15  1  0.03158311  0.70874520  0.74071409  1
  O  O16  1  0.96785060  0.31765901  0.56515061  1
  O  O17  1  0.75000000  0.53061937  0.14895483  1
  O  O18  1  0.53158311  0.29125480  0.25928591  1
  O  O19  1  0.75000000  0.00833826  0.59150949  1
  O  O20  1  0.53214940  0.31765901  0.56515061  1
  O  O21  1  0.46785060  0.68234099  0.43484939  1
  O  O22  1  0.96841689  0.29125480  0.25928591  1
  O  O23  1  0.25000000  0.99166174  0.40849051  1
