# generated using pymatgen
data_LiY(PO3)4
_symmetry_space_group_name_H-M   'P 1'
_cell_length_a   7.13210052
_cell_length_b   8.96866383
_cell_length_c   8.96399892
_cell_angle_alpha   65.41979709
_cell_angle_beta   66.55808674
_cell_angle_gamma   66.57100685
_symmetry_Int_Tables_number   1
_chemical_formula_structural   LiY(PO3)4
_chemical_formula_sum   'Li2 Y2 P8 O24'
_cell_volume   459.49985186
_cell_formula_units_Z   2
loop_
 _symmetry_equiv_pos_site_id
 _symmetry_equiv_pos_as_xyz
  1  'x, y, z'
loop_
 _atom_site_type_symbol
 _atom_site_label
 _atom_site_symmetry_multiplicity
 _atom_site_fract_x
 _atom_site_fract_y
 _atom_site_fract_z
 _atom_site_occupancy
  Li  Li0  1  0.20580644  0.75000000  0.25000000  1
  Li  Li1  1  0.79419356  0.25000000  0.75000000  1
  Y  Y2  1  0.70312967  0.75000000  0.25000000  1
  Y  Y3  1  0.29687033  0.25000000  0.75000000  1
  P  P4  1  0.20324294  0.69445881  0.59758672  1
  P  P5  1  0.91404977  0.11589960  0.15862671  1
  P  P6  1  0.08595023  0.88410040  0.84137329  1
  P  P7  1  0.79675706  0.30554119  0.40241328  1
  P  P8  1  0.18857609  0.38410040  0.34137329  1
  P  P9  1  0.50471153  0.19445881  0.09758672  1
  P  P10  1  0.49528847  0.80554119  0.90241328  1
  P  P11  1  0.81142391  0.61589960  0.65862671  1
  O  O12  1  0.93059542  0.42855011  0.70365658  1
  O  O13  1  0.67575926  0.65037979  0.83978702  1
  O  O14  1  0.48737072  0.77396702  0.08281429  1
  O  O15  1  0.16592608  0.84962021  0.66021298  1
  O  O16  1  0.51262928  0.22603298  0.91718571  1
  O  O17  1  0.06940458  0.57144989  0.29634342  1
  O  O18  1  0.71711244  0.23361595  0.07959998  1
  O  O19  1  0.06280211  0.07144989  0.79634342  1
  O  O20  1  0.74338300  0.47526581  0.27175246  1
  O  O21  1  0.49040127  0.02473419  0.22824754  1
  O  O22  1  0.10067840  0.18375583  0.04062541  1
  O  O23  1  0.28288756  0.76638405  0.92040002  1
  O  O24  1  0.32505964  0.31624417  0.45937459  1
  O  O25  1  0.96967163  0.73361595  0.57959998  1
  O  O26  1  0.50959873  0.97526581  0.77175246  1
  O  O27  1  0.32424074  0.34962021  0.16021298  1
  O  O28  1  0.93719789  0.92855011  0.20365658  1
  O  O29  1  0.03032837  0.26638405  0.42040002  1
  O  O30  1  0.34415203  0.72603298  0.41718571  1
  O  O31  1  0.67494036  0.68375583  0.54062541  1
  O  O32  1  0.25661700  0.52473419  0.72824754  1
  O  O33  1  0.89932160  0.81624417  0.95937459  1
  O  O34  1  0.83407392  0.15037979  0.33978702  1
  O  O35  1  0.65584797  0.27396702  0.58281429  1
