# generated using pymatgen
data_PrAl3(BO3)4
_symmetry_space_group_name_H-M   'P 1'
_cell_length_a   5.98336372
_cell_length_b   5.98336390
_cell_length_c   11.27052379
_cell_angle_alpha   98.35447337
_cell_angle_beta   98.35447366
_cell_angle_gamma   104.24511171
_symmetry_Int_Tables_number   1
_chemical_formula_structural   PrAl3(BO3)4
_chemical_formula_sum   'Pr2 Al6 B8 O24'
_cell_volume   379.97661311
_cell_formula_units_Z   2
loop_
 _symmetry_equiv_pos_site_id
 _symmetry_equiv_pos_as_xyz
  1  'x, y, z'
loop_
 _atom_site_type_symbol
 _atom_site_label
 _atom_site_symmetry_multiplicity
 _atom_site_fract_x
 _atom_site_fract_y
 _atom_site_fract_z
 _atom_site_occupancy
  Pr  Pr0  1  0.03765137  0.96234863  0.25000000  1
  Pr  Pr1  1  0.96234863  0.03765137  0.75000000  1
  Al  Al2  1  0.30600201  0.80454128  0.52844907  1
  Al  Al3  1  0.58925509  0.41074491  0.25000000  1
  Al  Al4  1  0.69399799  0.19545872  0.47155093  1
  Al  Al5  1  0.41074491  0.58925509  0.75000000  1
  Al  Al6  1  0.19545872  0.69399799  0.97155093  1
  Al  Al7  1  0.80454128  0.30600201  0.02844907  1
  B  B8  1  0.50826911  0.87740315  0.22208844  1
  B  B9  1  0.22280408  0.28090124  0.50592932  1
  B  B10  1  0.12259685  0.49173089  0.27791156  1
  B  B11  1  0.77719592  0.71909876  0.49407068  1
  B  B12  1  0.87740315  0.50826911  0.72208844  1
  B  B13  1  0.28090124  0.22280408  0.00592932  1
  B  B14  1  0.49173089  0.12259685  0.77791156  1
  B  B15  1  0.71909876  0.77719592  0.99407068  1
  O  O16  1  0.72882477  0.64515782  0.74286399  1
  O  O17  1  0.80504740  0.00327412  0.06041792  1
  O  O18  1  0.81754872  0.30578487  0.63681098  1
  O  O19  1  0.57746445  0.10243314  0.29463184  1
  O  O20  1  0.30337679  0.50716329  0.57461583  1
  O  O21  1  0.19495260  0.99672588  0.93958208  1
  O  O22  1  0.35484218  0.27117523  0.75713601  1
  O  O23  1  0.30578487  0.81754872  0.13681098  1
  O  O24  1  0.99672588  0.19495260  0.43958208  1
  O  O25  1  0.10243314  0.57746445  0.79463184  1
  O  O26  1  0.69662321  0.49283671  0.42538417  1
  O  O27  1  0.27117523  0.35484218  0.25713601  1
  O  O28  1  0.18245128  0.69421513  0.36318902  1
  O  O29  1  0.36815006  0.13014843  0.49565534  1
  O  O30  1  0.89756686  0.42253555  0.20536816  1
  O  O31  1  0.49283671  0.69662321  0.92538417  1
  O  O32  1  0.86985157  0.63184994  0.00434466  1
  O  O33  1  0.64515782  0.72882477  0.24286399  1
  O  O34  1  0.63184994  0.86985157  0.50434466  1
  O  O35  1  0.50716329  0.30337679  0.07461583  1
  O  O36  1  0.42253555  0.89756686  0.70536816  1
  O  O37  1  0.00327412  0.80504740  0.56041792  1
  O  O38  1  0.69421513  0.18245128  0.86318902  1
  O  O39  1  0.13014843  0.36815006  0.99565534  1
