# generated using pymatgen
data_Ag2S
_symmetry_space_group_name_H-M   'P 1'
_cell_length_a   4.22303471
_cell_length_b   7.54948096
_cell_length_c   4.23862709
_cell_angle_alpha   90.00000000
_cell_angle_beta   69.45002084
_cell_angle_gamma   90.00000000
_symmetry_Int_Tables_number   1
_chemical_formula_structural   Ag2S
_chemical_formula_sum   'Ag4 S2'
_cell_volume   126.53560662
_cell_formula_units_Z   2
loop_
 _symmetry_equiv_pos_site_id
 _symmetry_equiv_pos_as_xyz
  1  'x, y, z'
loop_
 _atom_site_type_symbol
 _atom_site_label
 _atom_site_symmetry_multiplicity
 _atom_site_fract_x
 _atom_site_fract_y
 _atom_site_fract_z
 _atom_site_occupancy
  Ag  Ag0  1  0.13056967  0.75000000  0.10810966  1
  Ag  Ag1  1  0.86943033  0.25000000  0.89189034  1
  Ag  Ag2  1  0.50000000  0.00000000  0.50000000  1
  Ag  Ag3  1  0.50000000  0.50000000  0.50000000  1
  S  S4  1  0.73642963  0.75000000  0.71019907  1
  S  S5  1  0.26357037  0.25000000  0.28980093  1
