# generated using pymatgen
data_Ba7Ru4Br2O15
_symmetry_space_group_name_H-M   'P 1'
_cell_length_a   18.13759426
_cell_length_b   18.13759434
_cell_length_c   18.13759490
_cell_angle_alpha   18.71407448
_cell_angle_beta   18.71407366
_cell_angle_gamma   18.71407484
_symmetry_Int_Tables_number   1
_chemical_formula_structural   Ba7Ru4Br2O15
_chemical_formula_sum   'Ba7 Ru4 Br2 O15'
_cell_volume   536.66726821
_cell_formula_units_Z   1
loop_
 _symmetry_equiv_pos_site_id
 _symmetry_equiv_pos_as_xyz
  1  'x, y, z'
loop_
 _atom_site_type_symbol
 _atom_site_label
 _atom_site_symmetry_multiplicity
 _atom_site_fract_x
 _atom_site_fract_y
 _atom_site_fract_z
 _atom_site_occupancy
  Ba  Ba0  1  0.08141239  0.08141239  0.08141239  1
  Ba  Ba1  1  0.20852770  0.20852770  0.20852770  1
  Ba  Ba2  1  0.79147230  0.79147230  0.79147230  1
  Ba  Ba3  1  0.91858761  0.91858761  0.91858761  1
  Ba  Ba4  1  0.71274830  0.71274830  0.71274830  1
  Ba  Ba5  1  0.28725170  0.28725170  0.28725170  1
  Ba  Ba6  1  0.00000000  0.00000000  0.00000000  1
  Ru  Ru7  1  0.40509797  0.40509797  0.40509797  1
  Ru  Ru8  1  0.64676415  0.64676415  0.64676415  1
  Ru  Ru9  1  0.59490203  0.59490203  0.59490203  1
  Ru  Ru10  1  0.35323585  0.35323585  0.35323585  1
  Br  Br11  1  0.85628616  0.85628616  0.85628616  1
  Br  Br12  1  0.14371384  0.14371384  0.14371384  1
  O  O13  1  0.77284277  0.32068233  0.77284277  1
  O  O14  1  0.32068233  0.77284277  0.77284277  1
  O  O15  1  0.41591708  0.89921036  0.41591708  1
  O  O16  1  0.67931767  0.22715723  0.22715723  1
  O  O17  1  0.89921036  0.41591708  0.41591708  1
  O  O18  1  0.10078964  0.58408292  0.58408292  1
  O  O19  1  0.77284277  0.77284277  0.32068233  1
  O  O20  1  0.50000000  0.00000000  0.50000000  1
  O  O21  1  0.58408292  0.10078964  0.58408292  1
  O  O22  1  0.22715723  0.67931767  0.22715723  1
  O  O23  1  0.58408292  0.58408292  0.10078964  1
  O  O24  1  0.22715723  0.22715723  0.67931767  1
  O  O25  1  0.41591708  0.41591708  0.89921036  1
  O  O26  1  0.00000000  0.50000000  0.50000000  1
  O  O27  1  0.50000000  0.50000000  0.00000000  1
