# generated using pymatgen
data_TeMoWSeS2
_symmetry_space_group_name_H-M   'P 1'
_cell_length_a   3.31043457
_cell_length_b   3.31032493
_cell_length_c   37.65767613
_cell_angle_alpha   89.99984702
_cell_angle_beta   90.00000384
_cell_angle_gamma   120.00143354
_symmetry_Int_Tables_number   1
_chemical_formula_structural   TeMoWSeS2
_chemical_formula_sum   'Te2 Mo2 W2 Se2 S4'
_cell_volume   357.38268482
_cell_formula_units_Z   2
loop_
 _symmetry_equiv_pos_site_id
 _symmetry_equiv_pos_as_xyz
  1  'x, y, z'
loop_
 _atom_site_type_symbol
 _atom_site_label
 _atom_site_symmetry_multiplicity
 _atom_site_fract_x
 _atom_site_fract_y
 _atom_site_fract_z
 _atom_site_occupancy
  Te  Te0  1  0.33335151  0.66670346  0.33290933  1
  Te  Te1  1  0.33335616  0.66671278  0.23068744  1
  Mo  Mo2  1  0.33330399  0.66660661  0.09389680  1
  Mo  Mo3  1  0.33331203  0.66662587  0.46969271  1
  W  W4  1  0.66669444  0.33339033  0.28180028  1
  W  W5  1  0.66669104  0.33338361  0.65753056  1
  Se  Se6  1  0.33334765  0.66669536  0.70237322  1
  Se  Se7  1  0.33336483  0.66673003  0.61268376  1
  S  S8  1  0.66665050  0.33330075  0.05334799  1
  S  S9  1  0.66663951  0.33327715  0.42911838  1
  S  S10  1  0.66664996  0.33329959  0.13446024  1
  S  S11  1  0.66663837  0.33327447  0.51024731  1
