# generated using pymatgen
data_SiO2
_symmetry_space_group_name_H-M   'P 1'
_cell_length_a   8.54871744
_cell_length_b   8.89600025
_cell_length_c   10.42428537
_cell_angle_alpha   89.99964440
_cell_angle_beta   90.00000000
_cell_angle_gamma   90.00000000
_symmetry_Int_Tables_number   1
_chemical_formula_structural   SiO2
_chemical_formula_sum   'Si16 O32'
_cell_volume   792.76056945
_cell_formula_units_Z   16
loop_
 _symmetry_equiv_pos_site_id
 _symmetry_equiv_pos_as_xyz
  1  'x, y, z'
loop_
 _atom_site_type_symbol
 _atom_site_label
 _atom_site_symmetry_multiplicity
 _atom_site_fract_x
 _atom_site_fract_y
 _atom_site_fract_z
 _atom_site_occupancy
  Si  Si0  1  0.56626043  0.58121363  0.62630048  1
  Si  Si1  1  0.93307720  0.58153672  0.62653580  1
  Si  Si2  1  0.56706965  0.08150764  0.89972479  1
  Si  Si3  1  0.06692280  0.58153672  0.12653580  1
  Si  Si4  1  0.43373957  0.58121363  0.12630048  1
  Si  Si5  1  0.43304928  0.90894518  0.66151840  1
  Si  Si6  1  0.06703281  0.40907058  0.86472975  1
  Si  Si7  1  0.93361235  0.90935074  0.16198615  1
  Si  Si8  1  0.93377749  0.08140992  0.90026055  1
  Si  Si9  1  0.43293035  0.08150764  0.39972479  1
  Si  Si10  1  0.93296719  0.40907058  0.36472975  1
  Si  Si11  1  0.43371080  0.40926482  0.86451928  1
  Si  Si12  1  0.56695072  0.90894518  0.16151840  1
  Si  Si13  1  0.06638765  0.90935074  0.66198615  1
  Si  Si14  1  0.56628920  0.40926482  0.36451928  1
  Si  Si15  1  0.06622251  0.08140992  0.40026055  1
  O  O16  1  0.25030929  0.44095719  0.83266803  1
  O  O17  1  0.95856011  0.22956654  0.38152067  1
  O  O18  1  0.95924861  0.73026174  0.14202179  1
  O  O19  1  0.48560003  0.49961956  0.99332853  1
  O  O20  1  0.48402823  0.99438373  0.53021495  1
  O  O21  1  0.04075139  0.73026174  0.64202179  1
  O  O22  1  0.01447884  0.99906721  0.53290771  1
  O  O23  1  0.45920047  0.97002707  0.27836092  1
  O  O24  1  0.01578330  0.49567159  0.99544154  1
  O  O25  1  0.24958230  0.13013010  0.40656889  1
  O  O26  1  0.45978321  0.46538825  0.24491846  1
  O  O27  1  0.95961295  0.46910423  0.74725185  1
  O  O28  1  0.54074779  0.23029230  0.38515519  1
  O  O29  1  0.24983874  0.94107118  0.69370129  1
  O  O30  1  0.75016126  0.94107118  0.19370129  1
  O  O31  1  0.51439997  0.49961956  0.49332853  1
  O  O32  1  0.45925221  0.23029230  0.88515519  1
  O  O33  1  0.98421670  0.49567159  0.49544154  1
  O  O34  1  0.25037008  0.62991911  0.12004149  1
  O  O35  1  0.54021679  0.46538825  0.74491846  1
  O  O36  1  0.74962992  0.62991911  0.62004149  1
  O  O37  1  0.95987815  0.96612702  0.78129569  1
  O  O38  1  0.54079953  0.97002707  0.77836092  1
  O  O39  1  0.04012185  0.96612702  0.28129569  1
  O  O40  1  0.98552116  0.99906721  0.03290771  1
  O  O41  1  0.54136594  0.72927393  0.14575780  1
  O  O42  1  0.75041770  0.13013010  0.90656889  1
  O  O43  1  0.74969071  0.44095719  0.33266803  1
  O  O44  1  0.04038705  0.46910423  0.24725185  1
  O  O45  1  0.45863406  0.72927393  0.64575780  1
  O  O46  1  0.51597177  0.99438373  0.03021495  1
  O  O47  1  0.04143989  0.22956654  0.88152067  1
