# generated using pymatgen
data_NaPO3
_symmetry_space_group_name_H-M   'P 1'
_cell_length_a   6.10052453
_cell_length_b   7.75078954
_cell_length_c   11.50331819
_cell_angle_alpha   94.19096793
_cell_angle_beta   90.00000000
_cell_angle_gamma   90.00000000
_symmetry_Int_Tables_number   1
_chemical_formula_structural   NaPO3
_chemical_formula_sum   'Na8 P8 O24'
_cell_volume   542.46709629
_cell_formula_units_Z   8
loop_
 _symmetry_equiv_pos_site_id
 _symmetry_equiv_pos_as_xyz
  1  'x, y, z'
loop_
 _atom_site_type_symbol
 _atom_site_label
 _atom_site_symmetry_multiplicity
 _atom_site_fract_x
 _atom_site_fract_y
 _atom_site_fract_z
 _atom_site_occupancy
  Na  Na0  1  0.32926647  0.19089697  0.99925785  1
  Na  Na1  1  0.82926647  0.30910303  0.50074215  1
  Na  Na2  1  0.42572887  0.11222340  0.30541395  1
  Na  Na3  1  0.57427113  0.88777660  0.69458605  1
  Na  Na4  1  0.67073353  0.80910303  0.00074215  1
  Na  Na5  1  0.92572887  0.38777660  0.19458605  1
  Na  Na6  1  0.07427113  0.61222340  0.80541395  1
  Na  Na7  1  0.17073353  0.69089697  0.49925785  1
  P  P8  1  0.92148644  0.96609337  0.30979740  1
  P  P9  1  0.42148644  0.53390663  0.19020260  1
  P  P10  1  0.15508543  0.82082723  0.09728402  1
  P  P11  1  0.57851356  0.46609337  0.80979740  1
  P  P12  1  0.07851356  0.03390663  0.69020260  1
  P  P13  1  0.34491457  0.32082723  0.59728402  1
  P  P14  1  0.65508543  0.67917277  0.40271598  1
  P  P15  1  0.84491457  0.17917277  0.90271598  1
  O  O16  1  0.37847817  0.42331341  0.87707893  1
  O  O17  1  0.44593876  0.61036662  0.32542624  1
  O  O18  1  0.43648907  0.28163213  0.47785772  1
  O  O19  1  0.84961781  0.56043079  0.38488660  1
  O  O20  1  0.65527592  0.65068078  0.80978236  1
  O  O21  1  0.87847817  0.07668659  0.62292107  1
  O  O22  1  0.15038219  0.43956921  0.61511340  1
  O  O23  1  0.20354911  0.63777623  0.15394179  1
  O  O24  1  0.94593876  0.88963338  0.17457376  1
  O  O25  1  0.84472408  0.15068078  0.30978236  1
  O  O26  1  0.79645089  0.36222377  0.84605821  1
  O  O27  1  0.34472408  0.34931922  0.19021764  1
  O  O28  1  0.15527592  0.84931922  0.69021764  1
  O  O29  1  0.05406124  0.11036662  0.82542624  1
  O  O30  1  0.56351093  0.71836787  0.52214228  1
  O  O31  1  0.70354911  0.86222377  0.34605821  1
  O  O32  1  0.55406124  0.38963338  0.67457376  1
  O  O33  1  0.29645089  0.13777623  0.65394179  1
  O  O34  1  0.93648907  0.21836787  0.02214228  1
  O  O35  1  0.06351093  0.78163213  0.97785772  1
  O  O36  1  0.34961781  0.93956921  0.11511340  1
  O  O37  1  0.62152183  0.57668659  0.12292107  1
  O  O38  1  0.12152183  0.92331341  0.37707893  1
  O  O39  1  0.65038219  0.06043079  0.88488660  1
