# generated using pymatgen
data_Lu(PO3)3
_symmetry_space_group_name_H-M   'P 1'
_cell_length_a   10.08039343
_cell_length_b   11.33929508
_cell_length_c   12.32931915
_cell_angle_alpha   113.87036064
_cell_angle_beta   110.28706696
_cell_angle_gamma   97.75784924
_symmetry_Int_Tables_number   1
_chemical_formula_structural   Lu(PO3)3
_chemical_formula_sum   'Lu6 P18 O54'
_cell_volume   1144.85347703
_cell_formula_units_Z   6
loop_
 _symmetry_equiv_pos_site_id
 _symmetry_equiv_pos_as_xyz
  1  'x, y, z'
loop_
 _atom_site_type_symbol
 _atom_site_label
 _atom_site_symmetry_multiplicity
 _atom_site_fract_x
 _atom_site_fract_y
 _atom_site_fract_z
 _atom_site_occupancy
  Lu  Lu0  1  0.57681589  0.09350188  0.82319023  1
  Lu  Lu1  1  0.90197456  0.45348539  0.51033848  1
  Lu  Lu2  1  0.58901730  0.60392199  0.84358029  1
  Lu  Lu3  1  0.25362566  0.27031165  0.17680977  1
  Lu  Lu4  1  0.24543701  0.76034170  0.15641971  1
  Lu  Lu5  1  0.89163608  0.94314691  0.48966152  1
  P  P6  1  0.21345848  0.40609340  0.72828889  1
  P  P7  1  0.53426939  0.74162559  0.39753653  1
  P  P8  1  0.16699179  0.53805584  0.40016762  1
  P  P9  1  0.15089341  0.39354052  0.94398501  1
  P  P10  1  0.61096237  0.48367284  0.27269920  1
  P  P11  1  0.26682417  0.13788823  0.59983238  1
  P  P12  1  0.35987194  0.12039450  0.38345201  1
  P  P13  1  0.94638510  0.79830386  0.93476807  1
  P  P14  1  0.98516958  0.67780451  0.27171111  1
  P  P15  1  0.00620540  0.81509939  0.72157480  1
  P  P16  1  0.70690839  0.44955551  0.05601499  1
  P  P17  1  0.47641993  0.73694248  0.61654799  1
  P  P18  1  0.63673286  0.34408905  0.60246347  1
  P  P19  1  0.88190455  0.05975025  0.05931935  1
  P  P20  1  0.78463060  0.09352459  0.27842520  1
  P  P21  1  0.32258519  1.00043089  0.94068065  1
  P  P22  1  0.51161703  0.86353580  0.06523193  1
  P  P23  1  0.83826317  0.21097364  0.72730080  1
  O  O24  1  0.76730082  0.32024722  0.70130281  1
  O  O25  1  0.27156397  0.09364397  0.46121812  1
  O  O26  1  0.48844908  0.37642514  0.25446826  1
  O  O27  1  0.30927018  0.21751549  0.33715626  1
  O  O28  1  0.73497029  0.03499666  0.95250159  1
  O  O29  1  0.44485578  0.79570117  0.12477901  1
  O  O30  1  0.06729711  0.42237884  0.66058042  1
  O  O31  1  0.13262024  0.03581705  0.57366157  1
  O  O32  1  0.66391327  0.53164018  0.98800160  1
  O  O33  1  0.60649932  0.44629458  0.13150435  1
  O  O34  1  0.69532496  0.30539745  0.97428147  1
  O  O35  1  0.28246870  0.08249506  0.04749841  1
  O  O36  1  0.21128259  0.45614261  0.29617143  1
  O  O37  1  0.01705253  0.16085644  0.08582366  1
  O  O38  1  0.34117755  0.98195777  0.28230667  1
  O  O39  1  0.37846807  0.88201122  0.96246226  1
  O  O40  1  0.05895867  0.46215548  0.42633843  1
  O  O41  1  0.91600581  0.91954896  0.03753774  1
  O  O42  1  0.61150893  0.02066536  0.17138072  1
  O  O43  1  0.17591166  0.54363858  0.01199840  1
  O  O44  1  0.73398082  0.12195688  0.74553174  1
  O  O45  1  0.31034585  0.63242585  0.53878188  1
  O  O46  1  0.47211391  0.88035923  0.66284374  1
  O  O47  1  0.76584431  0.51482092  0.37280462  1
  O  O48  1  0.94012820  0.84928463  0.82861928  1
  O  O49  1  0.05714073  0.72900731  0.20416150  1
  O  O50  1  0.41511115  0.15997118  0.70382857  1
  O  O51  1  0.65910392  0.86811653  0.45174486  1
  O  O52  1  0.43122886  0.07503278  0.91417634  1
  O  O53  1  0.20592999  0.35299151  0.82996796  1
  O  O54  1  0.10092677  0.79568141  0.00153572  1
  O  O55  1  0.89303970  0.14201631  0.62719538  1
  O  O56  1  0.53355779  0.18931052  0.49033338  1
  O  O57  1  0.87441612  0.10559175  0.19702213  1
  O  O58  1  0.83509205  0.00550262  0.33718030  1
  O  O59  1  0.82007678  0.67092216  0.87522099  1
  O  O60  1  0.23263591  0.27813703  0.62295510  1
  O  O61  1  0.54322441  0.69897714  0.50966662  1
  O  O62  1  0.93060103  0.86659353  0.63075744  1
  O  O63  1  0.22104349  0.33111597  0.02571853  1
  O  O64  1  0.55154169  0.41182545  0.67360663  1
  O  O65  1  0.90671669  0.76179842  0.33941958  1
  O  O66  1  0.99791175  0.66832232  0.66281970  1
  O  O67  1  0.17739399  0.90856962  0.80297787  1
  O  O68  1  0.59939105  0.79414569  0.99846428  1
  O  O69  1  0.70735907  0.41637167  0.54825514  1
  O  O70  1  0.87596203  0.52302355  0.17003204  1
  O  O71  1  0.79984359  0.23583609  0.36924256  1
  O  O72  1  0.10968081  0.65518193  0.37704490  1
  O  O73  1  0.56599802  0.61894441  0.29869719  1
  O  O74  1  0.35297923  0.52484581  0.79583850  1
  O  O75  1  0.55887087  0.69965110  0.71769333  1
  O  O76  1  0.37793506  0.73821882  0.32639337  1
  O  O77  1  0.97499497  0.31479024  0.86849565  1
