# generated using pymatgen
data_Cs2As2OF10
_symmetry_space_group_name_H-M   'P 1'
_cell_length_a   5.70519715
_cell_length_b   9.39125755
_cell_length_c   10.92705010
_cell_angle_alpha   90.00000000
_cell_angle_beta   90.00000000
_cell_angle_gamma   105.28714485
_symmetry_Int_Tables_number   1
_chemical_formula_structural   Cs2As2OF10
_chemical_formula_sum   'Cs4 As4 O2 F20'
_cell_volume   564.74458087
_cell_formula_units_Z   2
loop_
 _symmetry_equiv_pos_site_id
 _symmetry_equiv_pos_as_xyz
  1  'x, y, z'
loop_
 _atom_site_type_symbol
 _atom_site_label
 _atom_site_symmetry_multiplicity
 _atom_site_fract_x
 _atom_site_fract_y
 _atom_site_fract_z
 _atom_site_occupancy
  Cs  Cs0  1  0.17593349  0.75269809  0.98433794  1
  Cs  Cs1  1  0.82406651  0.24730191  0.01566206  1
  Cs  Cs2  1  0.82406651  0.24730191  0.48433794  1
  Cs  Cs3  1  0.17593349  0.75269809  0.51566206  1
  As  As4  1  0.50561594  0.52260077  0.25000000  1
  As  As5  1  0.72508239  0.88639254  0.25000000  1
  As  As6  1  0.27491761  0.11360746  0.75000000  1
  As  As7  1  0.49438406  0.47739923  0.75000000  1
  O  O8  1  0.49272313  0.71355243  0.25000000  1
  O  O9  1  0.50727687  0.28644757  0.75000000  1
  F  F10  1  0.73171733  0.54856008  0.13316057  1
  F  F11  1  0.26721410  0.10636122  0.91513141  1
  F  F12  1  0.27291816  0.48337983  0.36430822  1
  F  F13  1  0.73278590  0.89363878  0.08486859  1
  F  F14  1  0.97870230  0.81031172  0.25000000  1
  F  F15  1  0.51190865  0.02322432  0.75000000  1
  F  F16  1  0.02129770  0.18968828  0.75000000  1
  F  F17  1  0.72708184  0.51662017  0.86430822  1
  F  F18  1  0.06474114  0.93368654  0.75000000  1
  F  F19  1  0.93525886  0.06631346  0.25000000  1
  F  F20  1  0.26828267  0.45143992  0.63316057  1
  F  F21  1  0.49890669  0.33092390  0.25000000  1
  F  F22  1  0.48809135  0.97677568  0.25000000  1
  F  F23  1  0.27291816  0.48337983  0.13569178  1
  F  F24  1  0.26828267  0.45143992  0.86683943  1
  F  F25  1  0.73278590  0.89363878  0.41513141  1
  F  F26  1  0.72708184  0.51662017  0.63569178  1
  F  F27  1  0.73171733  0.54856008  0.36683943  1
  F  F28  1  0.50109331  0.66907610  0.75000000  1
  F  F29  1  0.26721410  0.10636122  0.58486859  1
