# generated using pymatgen
data_Na2PtO3
_symmetry_space_group_name_H-M   'P 1'
_cell_length_a   5.52532392
_cell_length_b   5.52532366
_cell_length_c   10.84714004
_cell_angle_alpha   94.99120644
_cell_angle_beta   94.99120626
_cell_angle_gamma   120.01485343
_symmetry_Int_Tables_number   1
_chemical_formula_structural   Na2PtO3
_chemical_formula_sum   'Na8 Pt4 O12'
_cell_volume   282.36892843
_cell_formula_units_Z   4
loop_
 _symmetry_equiv_pos_site_id
 _symmetry_equiv_pos_as_xyz
  1  'x, y, z'
loop_
 _atom_site_type_symbol
 _atom_site_label
 _atom_site_symmetry_multiplicity
 _atom_site_fract_x
 _atom_site_fract_y
 _atom_site_fract_z
 _atom_site_occupancy
  Na  Na0  1  0.08326272  0.91673728  0.75000000  1
  Na  Na1  1  0.16066097  0.31982893  0.99905567  1
  Na  Na2  1  0.91673728  0.08326272  0.25000000  1
  Na  Na3  1  0.68017107  0.83933903  0.50094433  1
  Na  Na4  1  0.83933903  0.68017107  0.00094433  1
  Na  Na5  1  0.50000000  0.00000000  0.00000000  1
  Na  Na6  1  0.31982893  0.16066097  0.49905567  1
  Na  Na7  1  0.00000000  0.50000000  0.50000000  1
  Pt  Pt8  1  0.25038395  0.74961605  0.25000000  1
  Pt  Pt9  1  0.58330991  0.41669009  0.25000000  1
  Pt  Pt10  1  0.74961605  0.25038395  0.75000000  1
  Pt  Pt11  1  0.41669009  0.58330991  0.75000000  1
  O  O12  1  0.31455647  0.48138736  0.35390817  1
  O  O13  1  0.59031274  0.11872538  0.35382896  1
  O  O14  1  0.48138736  0.31455647  0.85390817  1
  O  O15  1  0.68544353  0.51861264  0.64609183  1
  O  O16  1  0.11872538  0.59031274  0.85382896  1
  O  O17  1  0.88127462  0.40968726  0.14617104  1
  O  O18  1  0.75732081  0.95197967  0.85421398  1
  O  O19  1  0.40968726  0.88127462  0.64617104  1
  O  O20  1  0.95197967  0.75732081  0.35421398  1
  O  O21  1  0.24267919  0.04802033  0.14578602  1
  O  O22  1  0.04802033  0.24267919  0.64578602  1
  O  O23  1  0.51861264  0.68544353  0.14609183  1
