# generated using pymatgen
data_Ta6S
_symmetry_space_group_name_H-M   'P 1'
_cell_length_a   5.28159298
_cell_length_b   7.57393023
_cell_length_c   7.57901113
_cell_angle_alpha   113.81048040
_cell_angle_beta   98.40741365
_cell_angle_gamma   109.04375287
_symmetry_Int_Tables_number   1
_chemical_formula_structural   Ta6S
_chemical_formula_sum   'Ta12 S2'
_cell_volume   248.28345212
_cell_formula_units_Z   2
loop_
 _symmetry_equiv_pos_site_id
 _symmetry_equiv_pos_as_xyz
  1  'x, y, z'
loop_
 _atom_site_type_symbol
 _atom_site_label
 _atom_site_symmetry_multiplicity
 _atom_site_fract_x
 _atom_site_fract_y
 _atom_site_fract_z
 _atom_site_occupancy
  Ta  Ta0  1  0.55807643  0.77510518  0.59043435  1
  Ta  Ta1  1  0.44192357  0.22489482  0.40956565  1
  Ta  Ta2  1  0.00274687  0.37168292  0.29520771  1
  Ta  Ta3  1  0.50000000  0.00000000  0.00000000  1
  Ta  Ta4  1  0.14941649  0.72103403  0.15031461  1
  Ta  Ta5  1  0.22877911  0.06436240  0.69192386  1
  Ta  Ta6  1  0.52779884  0.57515230  0.86320266  1
  Ta  Ta7  1  0.77122089  0.93563760  0.30807614  1
  Ta  Ta8  1  0.85058351  0.27896597  0.84968539  1
  Ta  Ta9  1  0.99725313  0.62831708  0.70479229  1
  Ta  Ta10  1  0.00000000  0.00000000  0.00000000  1
  Ta  Ta11  1  0.47220116  0.42484770  0.13679734  1
  S  S12  1  0.07487860  0.29962278  0.58459317  1
  S  S13  1  0.92512140  0.70037722  0.41540683  1
