# generated using pymatgen
data_BaSbSe2F
_symmetry_space_group_name_H-M   'P 1'
_cell_length_a   6.31479953
_cell_length_b   6.45053078
_cell_length_c   14.27395635
_cell_angle_alpha   85.42241996
_cell_angle_beta   86.09964798
_cell_angle_gamma   89.89508790
_symmetry_Int_Tables_number   1
_chemical_formula_structural   BaSbSe2F
_chemical_formula_sum   'Ba4 Sb4 Se8 F4'
_cell_volume   578.23177813
_cell_formula_units_Z   4
loop_
 _symmetry_equiv_pos_site_id
 _symmetry_equiv_pos_as_xyz
  1  'x, y, z'
loop_
 _atom_site_type_symbol
 _atom_site_label
 _atom_site_symmetry_multiplicity
 _atom_site_fract_x
 _atom_site_fract_y
 _atom_site_fract_z
 _atom_site_occupancy
  Ba  Ba0  1  0.73000809  0.47736714  0.60717046  1
  Ba  Ba1  1  0.77019999  0.01564322  0.39334518  1
  Ba  Ba2  1  0.26999191  0.52263286  0.39282954  1
  Ba  Ba3  1  0.22980001  0.98435678  0.60665482  1
  Sb  Sb4  1  0.26366709  0.02887942  0.12723809  1
  Sb  Sb5  1  0.76783590  0.62103085  0.12772342  1
  Sb  Sb6  1  0.73633291  0.97112058  0.87276191  1
  Sb  Sb7  1  0.23216410  0.37896915  0.87227658  1
  Se  Se8  1  0.65413387  0.37021617  0.88478527  1
  Se  Se9  1  0.71456422  0.96014787  0.69578235  1
  Se  Se10  1  0.78363719  0.53042371  0.30349682  1
  Se  Se11  1  0.34586613  0.62978383  0.11521473  1
  Se  Se12  1  0.21636281  0.46957629  0.69650318  1
  Se  Se13  1  0.16200650  0.97473736  0.87261375  1
  Se  Se14  1  0.83799350  0.02526264  0.12738625  1
  Se  Se15  1  0.28543578  0.03985213  0.30421765  1
  F  F16  1  1.00026567  0.74691055  0.50166835  1
  F  F17  1  0.49995787  0.75091370  0.50156683  1
  F  F18  1  0.50004213  0.24908630  0.49843317  1
  F  F19  1  -0.00026567  0.25308945  0.49833165  1
