# generated using pymatgen
data_Ti4Bi2O11
_symmetry_space_group_name_H-M   'P 1'
_cell_length_a   3.81737752
_cell_length_b   7.68712239
_cell_length_c   15.17679526
_cell_angle_alpha   92.93673827
_cell_angle_beta   90.00000000
_cell_angle_gamma   104.37675514
_symmetry_Int_Tables_number   1
_chemical_formula_structural   Ti4Bi2O11
_chemical_formula_sum   'Ti8 Bi4 O22'
_cell_volume   430.80706638
_cell_formula_units_Z   2
loop_
 _symmetry_equiv_pos_site_id
 _symmetry_equiv_pos_as_xyz
  1  'x, y, z'
loop_
 _atom_site_type_symbol
 _atom_site_label
 _atom_site_symmetry_multiplicity
 _atom_site_fract_x
 _atom_site_fract_y
 _atom_site_fract_z
 _atom_site_occupancy
  Ti  Ti0  1  0.11428318  0.70661932  0.48320636  1
  Ti  Ti1  1  0.30045538  0.10195687  0.64036760  1
  Ti  Ti2  1  0.80150149  0.10195687  0.14036760  1
  Ti  Ti3  1  0.88571682  0.29338068  0.51679364  1
  Ti  Ti4  1  0.69954462  0.89804313  0.35963240  1
  Ti  Ti5  1  0.40766386  0.29338068  0.01679364  1
  Ti  Ti6  1  0.59233614  0.70661932  0.98320636  1
  Ti  Ti7  1  0.19849851  0.89804313  0.85963240  1
  Bi  Bi8  1  1.00465717  0.63930918  0.17977001  1
  Bi  Bi9  1  0.36534799  0.36069082  0.32022999  1
  Bi  Bi10  1  0.63465201  0.63930918  0.67977001  1
  Bi  Bi11  1  -0.00465717  0.36069082  0.82022999  1
  O  O12  1  0.99222692  0.46184355  0.41757123  1
  O  O13  1  0.00777308  0.53815645  0.58242877  1
  O  O14  1  0.82692344  0.15716080  0.62816442  1
  O  O15  1  0.38453916  0.27448501  0.53468797  1
  O  O16  1  0.69614795  0.89055260  0.07524995  1
  O  O17  1  0.08027386  0.63445658  0.77566925  1
  O  O18  1  0.22957410  0.00000000  0.75000000  1
  O  O19  1  0.44581728  0.36554342  0.72433075  1
  O  O20  1  0.11005415  0.72551499  0.96531203  1
  O  O21  1  0.19440464  0.89055260  0.57524995  1
  O  O22  1  0.17307656  0.84283920  0.37183558  1
  O  O23  1  0.55418272  0.63445658  0.27566925  1
  O  O24  1  0.66976264  0.84283920  0.87183558  1
  O  O25  1  0.46961663  0.46184355  0.91757123  1
  O  O26  1  0.91972614  0.36554342  0.22433075  1
  O  O27  1  0.30385205  0.10944740  0.92475005  1
  O  O28  1  0.80559536  0.10944740  0.42475005  1
  O  O29  1  0.53038337  0.53815645  0.08242877  1
  O  O30  1  0.77042590  0.00000000  0.25000000  1
  O  O31  1  0.33023736  0.15716080  0.12816442  1
  O  O32  1  0.88994585  0.27448501  0.03468797  1
  O  O33  1  0.61546084  0.72551499  0.46531203  1
