# generated using pymatgen
data_Te3MoWS
_symmetry_space_group_name_H-M   'P 1'
_cell_length_a   3.45552167
_cell_length_b   3.45552044
_cell_length_c   39.43171940
_cell_angle_alpha   89.99998668
_cell_angle_beta   90.00000000
_cell_angle_gamma   120.00001184
_symmetry_Int_Tables_number   1
_chemical_formula_structural   Te3MoWS
_chemical_formula_sum   'Te6 Mo2 W2 S2'
_cell_volume   407.75883711
_cell_formula_units_Z   2
loop_
 _symmetry_equiv_pos_site_id
 _symmetry_equiv_pos_as_xyz
  1  'x, y, z'
loop_
 _atom_site_type_symbol
 _atom_site_label
 _atom_site_symmetry_multiplicity
 _atom_site_fract_x
 _atom_site_fract_y
 _atom_site_fract_z
 _atom_site_occupancy
  Te  Te0  1  0.33334999  0.66670097  0.32892554  1
  Te  Te1  1  0.33334952  0.66670005  0.70475739  1
  Te  Te2  1  0.66664212  0.33328324  0.42269192  1
  Te  Te3  1  0.66665183  0.33330266  0.51658926  1
  Te  Te4  1  0.33335184  0.66670468  0.23451656  1
  Te  Te5  1  0.33335428  0.66670956  0.61039871  1
  Mo  Mo6  1  0.33331142  0.66662285  0.09395620  1
  Mo  Mo7  1  0.33331359  0.66662719  0.46967368  1
  W  W8  1  0.66669015  0.33338031  0.28174482  1
  W  W9  1  0.66668790  0.33337581  0.65760110  1
  S  S10  1  0.66664868  0.33329637  0.05616332  1
  S  S11  1  0.66664866  0.33329632  0.13172952  1
