# generated using pymatgen
data_V2Co(PO5)2
_symmetry_space_group_name_H-M   'P 1'
_cell_length_a   7.36663171
_cell_length_b   7.45032885
_cell_length_c   7.42749953
_cell_angle_alpha   89.99776516
_cell_angle_beta   119.90834415
_cell_angle_gamma   90.00107675
_symmetry_Int_Tables_number   1
_chemical_formula_structural   V2Co(PO5)2
_chemical_formula_sum   'V4 Co2 P4 O20'
_cell_volume   353.36052605
_cell_formula_units_Z   2
loop_
 _symmetry_equiv_pos_site_id
 _symmetry_equiv_pos_as_xyz
  1  'x, y, z'
loop_
 _atom_site_type_symbol
 _atom_site_label
 _atom_site_symmetry_multiplicity
 _atom_site_fract_x
 _atom_site_fract_y
 _atom_site_fract_z
 _atom_site_occupancy
  V  V0  1  0.20427193  0.77468034  0.46428891  1
  V  V1  1  0.70410786  0.72523272  0.96409825  1
  O  O2  1  0.49729203  0.66184273  0.72911543  1
  O  O3  1  0.42411080  0.24394723  0.86576066  1
  O  O4  1  0.00260100  0.16196840  0.77089341  1
  O  O5  1  0.81793697  0.49395167  0.08923112  1
  O  O6  1  0.41390676  0.75260462  0.35646077  1
  O  O7  1  0.07588429  0.74433996  0.63434465  1
  O  O8  1  0.31778711  0.00377125  0.09850224  1
  O  O9  1  0.18200471  0.50606576  0.91060486  1
  O  O10  1  0.57600727  0.75601641  0.13439629  1
  P  P11  1  0.49752932  0.12125821  0.74952769  1
  O  O12  1  0.91358189  0.74724574  0.85618988  1
  V  V13  1  0.29573202  0.27473023  0.03579863  1
  O  O14  1  0.31821497  0.00604191  0.58913270  1
  O  O15  1  0.68224043  0.99614947  0.90159009  1
  O  O16  1  0.92394102  0.25580250  0.36554526  1
  O  O17  1  0.68192656  0.99410275  0.41078415  1
  V  V18  1  0.79589180  0.22535067  0.53586445  1
  Co  Co19  1  0.00003307  0.99991640  0.00003786  1
  P  P20  1  0.50263386  0.87875250  0.25059231  1
  O  O21  1  0.58646904  0.24746429  0.64391054  1
  O  O22  1  0.08616946  0.25270082  0.14361189  1
  O  O23  1  0.81788938  0.49622200  0.59821195  1
  O  O24  1  0.99759292  0.83792475  0.22914755  1
  P  P25  1  0.00254930  0.62133097  0.75042911  1
  P  P26  1  0.99731924  0.37871837  0.24941865  1
  Co  Co27  1  0.49996817  0.49996140  0.50000565  1
  O  O28  1  0.18205230  0.50376443  0.40164436  1
  O  O29  1  0.50235453  0.33814150  0.27086068  1
