# generated using pymatgen
data_Li2Hg(PO3)4
_symmetry_space_group_name_H-M   'P 1'
_cell_length_a   9.58965116
_cell_length_b   9.71719745
_cell_length_c   10.28657354
_cell_angle_alpha   90.00000000
_cell_angle_beta   90.00000000
_cell_angle_gamma   91.61064649
_symmetry_Int_Tables_number   1
_chemical_formula_structural   Li2Hg(PO3)4
_chemical_formula_sum   'Li8 Hg4 P16 O48'
_cell_volume   958.17084662
_cell_formula_units_Z   4
loop_
 _symmetry_equiv_pos_site_id
 _symmetry_equiv_pos_as_xyz
  1  'x, y, z'
loop_
 _atom_site_type_symbol
 _atom_site_label
 _atom_site_symmetry_multiplicity
 _atom_site_fract_x
 _atom_site_fract_y
 _atom_site_fract_z
 _atom_site_occupancy
  Li  Li0  1  0.10873790  0.00235928  0.81781049  1
  Li  Li1  1  0.39368634  0.50027014  0.68205522  1
  Li  Li2  1  0.89126210  0.49764072  0.31781049  1
  Li  Li3  1  0.39368634  0.00027014  0.81794478  1
  Li  Li4  1  0.89126210  0.99764072  0.18218951  1
  Li  Li5  1  0.60631366  0.99972986  0.18205522  1
  Li  Li6  1  0.10873790  0.50235928  0.68218951  1
  Li  Li7  1  0.60631366  0.49972986  0.31794478  1
  Hg  Hg8  1  0.74841753  0.98885316  0.80615404  1
  Hg  Hg9  1  0.74841753  0.48885316  0.69384596  1
  Hg  Hg10  1  0.25158247  0.01114684  0.19384596  1
  Hg  Hg11  1  0.25158247  0.51114684  0.30615404  1
  P  P12  1  0.03454186  0.29285696  0.10519351  1
  P  P13  1  0.50668698  0.20318278  0.60002634  1
  P  P14  1  0.50668698  0.70318278  0.89997366  1
  P  P15  1  0.96545814  0.20714304  0.60519351  1
  P  P16  1  0.23791406  0.72941323  0.03590355  1
  P  P17  1  0.73324596  0.70037599  0.09768270  1
  P  P18  1  0.76208594  0.77058677  0.53590355  1
  P  P19  1  0.76208594  0.27058677  0.96409645  1
  P  P20  1  0.26675404  0.29962401  0.90231730  1
  P  P21  1  0.49331302  0.29681722  0.10002634  1
  P  P22  1  0.73324596  0.20037599  0.40231730  1
  P  P23  1  0.03454186  0.79285696  0.39480649  1
  P  P24  1  0.49331302  0.79681722  0.39997366  1
  P  P25  1  0.26675404  0.79962401  0.59768270  1
  P  P26  1  0.96545814  0.70714304  0.89480649  1
  P  P27  1  0.23791406  0.22941323  0.46409645  1
  O  O28  1  0.96683994  0.86098462  0.88161933  1
  O  O29  1  0.96683994  0.36098462  0.61838067  1
  O  O30  1  0.24191443  0.88497715  0.01747620  1
  O  O31  1  0.65427337  0.33679242  0.06264432  1
  O  O32  1  0.58473050  0.65694485  0.03182641  1
  O  O33  1  0.41526950  0.34305515  0.96817359  1
  O  O34  1  0.75808557  0.11502285  0.98252380  1
  O  O35  1  0.58473050  0.15694485  0.46817359  1
  O  O36  1  0.74454741  0.35326220  0.38193535  1
  O  O37  1  0.53813761  0.60587757  0.79093796  1
  O  O38  1  0.52357171  0.35646810  0.61707811  1
  O  O39  1  0.25545259  0.14673780  0.88193535  1
  O  O40  1  0.90528181  0.83804852  0.48663967  1
  O  O41  1  0.47642829  0.14353190  0.11707811  1
  O  O42  1  0.24848164  0.39502660  0.78947704  1
  O  O43  1  0.47642829  0.64353190  0.38292189  1
  O  O44  1  0.75151836  0.60497340  0.21052296  1
  O  O45  1  0.03316006  0.63901538  0.38161933  1
  O  O46  1  0.90528181  0.33804852  0.01336033  1
  O  O47  1  0.03244284  0.38415054  0.22331181  1
  O  O48  1  0.83590841  0.65255683  0.98103741  1
  O  O49  1  0.75151836  0.10497340  0.28947704  1
  O  O50  1  0.73586518  0.81710246  0.67237682  1
  O  O51  1  0.03244284  0.88415054  0.27668819  1
  O  O52  1  0.03316006  0.13901538  0.11838067  1
  O  O53  1  0.09471819  0.16195148  0.51336033  1
  O  O54  1  0.73586518  0.31710246  0.82762318  1
  O  O55  1  0.74454741  0.85326220  0.11806465  1
  O  O56  1  0.26413482  0.68289754  0.17237682  1
  O  O57  1  0.96755716  0.11584946  0.72331181  1
  O  O58  1  0.96755716  0.61584946  0.77668819  1
  O  O59  1  0.46186239  0.89412243  0.29093796  1
  O  O60  1  0.24848164  0.89502660  0.71052296  1
  O  O61  1  0.34572663  0.66320758  0.93735568  1
  O  O62  1  0.16409159  0.34744317  0.01896259  1
  O  O63  1  0.41526950  0.84305515  0.53182641  1
  O  O64  1  0.25545259  0.64673780  0.61806465  1
  O  O65  1  0.53813761  0.10587757  0.70906204  1
  O  O66  1  0.34572663  0.16320758  0.56264432  1
  O  O67  1  0.16409159  0.84744317  0.48103741  1
  O  O68  1  0.75808557  0.61502285  0.51747620  1
  O  O69  1  0.83590841  0.15255683  0.51896259  1
  O  O70  1  0.46186239  0.39412243  0.20906204  1
  O  O71  1  0.52357171  0.85646810  0.88292189  1
  O  O72  1  0.24191443  0.38497715  0.48252380  1
  O  O73  1  0.65427337  0.83679242  0.43735568  1
  O  O74  1  0.09471819  0.66195148  0.98663967  1
  O  O75  1  0.26413482  0.18289754  0.32762318  1
