# generated using pymatgen
data_YTaO4
_symmetry_space_group_name_H-M   'P 1'
_cell_length_a   5.11944503
_cell_length_b   5.37056963
_cell_length_c   6.57945023
_cell_angle_alpha   111.93207115
_cell_angle_beta   110.65406145
_cell_angle_gamma   95.10603156
_symmetry_Int_Tables_number   1
_chemical_formula_structural   YTaO4
_chemical_formula_sum   'Y2 Ta2 O8'
_cell_volume   151.85775428
_cell_formula_units_Z   2
loop_
 _symmetry_equiv_pos_site_id
 _symmetry_equiv_pos_as_xyz
  1  'x, y, z'
loop_
 _atom_site_type_symbol
 _atom_site_label
 _atom_site_symmetry_multiplicity
 _atom_site_fract_x
 _atom_site_fract_y
 _atom_site_fract_z
 _atom_site_occupancy
  Y  Y0  1  0.38040075  0.63040075  0.76080149  1
  Y  Y1  1  0.61959925  0.36959925  0.23919851  1
  Ta  Ta2  1  0.85377806  0.10377806  0.70755613  1
  Ta  Ta3  1  0.14622194  0.89622194  0.29244387  1
  O  O4  1  0.56940071  0.27656595  0.56353891  1
  O  O5  1  0.79264460  0.63119737  0.08007805  1
  O  O6  1  0.43059929  0.72343405  0.43646109  1
  O  O7  1  0.71256655  0.05111932  0.91992195  1
  O  O8  1  0.99413819  0.78697295  0.56353891  1
  O  O9  1  0.28743345  0.94888068  0.08007805  1
  O  O10  1  0.20735540  0.36880263  0.91992195  1
  O  O11  1  0.00586181  0.21302705  0.43646109  1
