# generated using pymatgen
data_K2Cu(Si2O5)2
_symmetry_space_group_name_H-M   'P 1'
_cell_length_a   8.37253352
_cell_length_b   11.19871033
_cell_length_c   11.42273757
_cell_angle_alpha   111.00708309
_cell_angle_beta   89.99993066
_cell_angle_gamma   90.00003113
_symmetry_Int_Tables_number   1
_chemical_formula_structural   K2Cu(Si2O5)2
_chemical_formula_sum   'K8 Si16 Cu4 O40'
_cell_volume   999.83015312
_cell_formula_units_Z   4
loop_
 _symmetry_equiv_pos_site_id
 _symmetry_equiv_pos_as_xyz
  1  'x, y, z'
loop_
 _atom_site_type_symbol
 _atom_site_label
 _atom_site_symmetry_multiplicity
 _atom_site_fract_x
 _atom_site_fract_y
 _atom_site_fract_z
 _atom_site_occupancy
  K  K0  1  0.25000018  0.91736281  0.41379187  1
  K  K1  1  0.74999999  0.55826856  0.94287234  1
  K  K2  1  0.75000044  0.47704866  0.54448900  1
  K  K3  1  0.25000058  0.52294788  0.45551279  1
  K  K4  1  0.75000005  0.08263866  0.58620975  1
  K  K5  1  0.25000004  0.03333011  0.02920581  1
  K  K6  1  0.24999947  0.44173817  0.05713431  1
  K  K7  1  0.75000009  0.96666792  0.97080009  1
  Si  Si8  1  0.93434175  0.01532750  0.25062219  1
  Si  Si9  1  0.44317645  0.40365726  0.73895121  1
  Si  Si10  1  0.44060648  0.74905545  0.08935243  1
  Cu  Cu11  1  0.49732427  0.28852063  0.21246876  1
  Cu  Cu12  1  0.50269208  0.71147149  0.78747332  1
  Si  Si13  1  0.56565764  0.01532813  0.25062201  1
  Si  Si14  1  0.55939588  0.25094625  0.91064652  1
  Si  Si15  1  0.94081353  0.77146961  0.53622869  1
  Cu  Cu16  1  0.00267224  0.28852048  0.21250301  1
  Si  Si17  1  0.55918731  0.77147024  0.53622777  1
  Cu  Cu18  1  0.99730806  0.71147776  0.78747215  1
  Si  Si19  1  0.05918689  0.22853074  0.46377492  1
  Si  Si20  1  0.06565761  0.98467404  0.74938347  1
  Si  Si21  1  0.94060593  0.25094562  0.91064933  1
  Si  Si22  1  0.94317580  0.59634354  0.26105262  1
  Si  Si23  1  0.43434241  0.98467424  0.74938395  1
  Si  Si24  1  0.05939479  0.74905499  0.08935371  1
  Si  Si25  1  0.44081418  0.22853155  0.46377342  1
  Si  Si26  1  0.05682308  0.40365791  0.73895133  1
  Si  Si27  1  0.55682401  0.59634334  0.26105199  1
  O  O28  1  0.99808895  0.28311364  0.61120926  1
  O  O29  1  0.00191212  0.71688554  0.38879504  1
  O  O30  1  0.45891790  0.47010336  0.24810742  1
  O  O31  1  0.05345876  0.88923597  0.20673081  1
  O  O32  1  0.25000031  0.42080195  0.72932017  1
  O  O33  1  0.53301025  0.75124338  0.96829984  1
  O  O34  1  0.96698851  0.75124438  0.96830506  1
  O  O35  1  0.97915116  0.64183564  0.14090145  1
  O  O36  1  0.50191072  0.28311246  0.61120871  1
  O  O37  1  0.04108170  0.47010355  0.24810981  1
  O  O38  1  0.03301071  0.24875580  0.03169526  1
  O  O39  1  0.01457441  0.32569226  0.39463034  1
  O  O40  1  0.94654044  0.11076441  0.79327406  1
  O  O41  1  0.97037651  0.10508347  0.17191583  1
  O  O42  1  0.52962374  0.10508173  0.17191296  1
  O  O43  1  0.53141039  0.08725362  0.40331562  1
  O  O44  1  0.75000070  0.80809478  0.53840822  1
  O  O45  1  0.47037915  0.89491678  0.82808668  1
  O  O46  1  0.02962119  0.89491906  0.82808880  1
  O  O47  1  0.02084942  0.35816550  0.85910299  1
  O  O48  1  0.24999986  0.03984673  0.76468788  1
  O  O49  1  0.52084915  0.64183657  0.14090116  1
  O  O50  1  0.54108342  0.52989671  0.75189278  1
  O  O51  1  0.44654149  0.88923586  0.20673077  1
  O  O52  1  0.46698625  0.24875408  0.03168662  1
  O  O53  1  0.96858948  0.08725337  0.40331532  1
  O  O54  1  0.98542257  0.67430698  0.60536895  1
  O  O55  1  0.75000016  0.57919792  0.27068632  1
  O  O56  1  0.25000059  0.71039707  0.06707994  1
  O  O57  1  0.46858914  0.91274666  0.59668982  1
  O  O58  1  0.74999961  0.96015417  0.23531890  1
  O  O59  1  0.49808794  0.71688495  0.38879487  1
  O  O60  1  0.95891717  0.52989785  0.75189398  1
  O  O61  1  0.48542510  0.32568935  0.39462122  1
  O  O62  1  0.51457730  0.67430488  0.60536322  1
  O  O63  1  0.25000091  0.19190596  0.46159767  1
  O  O64  1  0.47914996  0.35816653  0.85910270  1
  O  O65  1  0.55345947  0.11076405  0.79327412  1
  O  O66  1  0.03141132  0.91274662  0.59668965  1
  O  O67  1  0.75000085  0.28960285  0.93292704  1
