# generated using pymatgen
data_Pr3Si2Cl3O7
_symmetry_space_group_name_H-M   'P 1'
_cell_length_a   5.36168837
_cell_length_b   8.00399044
_cell_length_c   12.21945354
_cell_angle_alpha   90.00000000
_cell_angle_beta   90.00000000
_cell_angle_gamma   110.57718694
_symmetry_Int_Tables_number   1
_chemical_formula_structural   Pr3Si2Cl3O7
_chemical_formula_sum   'Pr6 Si4 Cl6 O14'
_cell_volume   490.93991484
_cell_formula_units_Z   2
loop_
 _symmetry_equiv_pos_site_id
 _symmetry_equiv_pos_as_xyz
  1  'x, y, z'
loop_
 _atom_site_type_symbol
 _atom_site_label
 _atom_site_symmetry_multiplicity
 _atom_site_fract_x
 _atom_site_fract_y
 _atom_site_fract_z
 _atom_site_occupancy
  Pr  Pr0  1  0.32486166  0.53062318  0.89753665  1
  Pr  Pr1  1  0.61164264  0.07933887  0.87586263  1
  Pr  Pr2  1  0.38835736  0.92066113  0.37586263  1
  Pr  Pr3  1  0.14968955  0.20274997  0.62180492  1
  Pr  Pr4  1  0.85031045  0.79725003  0.12180492  1
  Pr  Pr5  1  0.67513834  0.46937682  0.39753665  1
  Si  Si6  1  0.93051250  0.81745891  0.82367833  1
  Si  Si7  1  0.27601326  0.56437528  0.21128240  1
  Si  Si8  1  0.06948750  0.18254109  0.32367833  1
  Si  Si9  1  0.72398674  0.43562472  0.71128240  1
  Cl  Cl10  1  0.21229703  0.55716960  0.49475750  1
  Cl  Cl11  1  0.87509838  0.83239809  0.49114140  1
  Cl  Cl12  1  0.52018691  0.00808890  0.11791380  1
  Cl  Cl13  1  0.78770297  0.44283040  0.99475750  1
  Cl  Cl14  1  0.47981309  0.99191110  0.61791380  1
  Cl  Cl15  1  0.12490162  0.16760191  0.99114140  1
  O  O16  1  0.37071139  0.59759394  0.08490317  1
  O  O17  1  0.27673200  0.19656783  0.42707143  1
  O  O18  1  0.97677894  0.37853178  0.74785611  1
  O  O19  1  0.78141714  0.19156166  0.36058168  1
  O  O20  1  0.06066431  1.00084208  0.26204885  1
  O  O21  1  0.54138818  0.69340570  0.28005711  1
  O  O22  1  0.45861182  0.30659430  0.78005711  1
  O  O23  1  0.24457761  0.36113307  0.25152401  1
  O  O24  1  0.02322106  0.62146822  0.24785611  1
  O  O25  1  0.75542239  0.63886693  0.75152401  1
  O  O26  1  0.72326800  0.80343217  0.92707143  1
  O  O27  1  0.21858286  0.80843834  0.86058168  1
  O  O28  1  0.93933569  -0.00084208  0.76204885  1
  O  O29  1  0.62928861  0.40240606  0.58490317  1
