# generated using pymatgen
data_In2Ag3(PO4)3
_symmetry_space_group_name_H-M   'P 1'
_cell_length_a   6.72207537
_cell_length_b   9.18246912
_cell_length_c   9.18246917
_cell_angle_alpha   91.08764229
_cell_angle_beta   106.70772297
_cell_angle_gamma   106.70771954
_symmetry_Int_Tables_number   1
_chemical_formula_structural   In2Ag3(PO4)3
_chemical_formula_sum   'In4 Ag6 P6 O24'
_cell_volume   516.74404504
_cell_formula_units_Z   2
loop_
 _symmetry_equiv_pos_site_id
 _symmetry_equiv_pos_as_xyz
  1  'x, y, z'
loop_
 _atom_site_type_symbol
 _atom_site_label
 _atom_site_symmetry_multiplicity
 _atom_site_fract_x
 _atom_site_fract_y
 _atom_site_fract_z
 _atom_site_occupancy
  In  In0  1  0.15367924  0.38561209  0.07259873  1
  In  In1  1  0.65367924  0.07259873  0.38561209  1
  In  In2  1  0.34632076  0.92740127  0.61438791  1
  In  In3  1  0.84632076  0.61438791  0.92740127  1
  Ag  Ag4  1  0.25000000  0.00090149  0.99909851  1
  Ag  Ag5  1  0.25000000  0.27690985  0.72309015  1
  Ag  Ag6  1  0.75000000  0.99909851  0.00090149  1
  Ag  Ag7  1  0.75000000  0.72309015  0.27690985  1
  Ag  Ag8  1  0.50000000  0.50000000  0.50000000  1
  Ag  Ag9  1  0.00000000  0.50000000  0.50000000  1
  P  P10  1  0.25000000  0.73171217  0.26828783  1
  P  P11  1  0.36101412  0.65623944  0.85868674  1
  P  P12  1  0.13898588  0.14131326  0.34376056  1
  P  P13  1  0.86101412  0.85868674  0.65623944  1
  P  P14  1  0.63898588  0.34376056  0.14131326  1
  P  P15  1  0.75000000  0.26828783  0.73171217  1
  O  O16  1  0.92091776  0.01868437  0.33911529  1
  O  O17  1  0.71904330  0.42894672  0.74922571  1
  O  O18  1  0.78095670  0.25077429  0.57105328  1
  O  O19  1  0.37119573  0.82668230  0.82967994  1
  O  O20  1  0.67132409  0.93021767  0.58903786  1
  O  O21  1  0.17132409  0.58903786  0.93021767  1
  O  O22  1  0.95517640  0.25162853  0.85491649  1
  O  O23  1  0.28095670  0.57105328  0.25077429  1
  O  O24  1  0.45517640  0.85491649  0.25162853  1
  O  O25  1  0.82867591  0.41096214  0.06978233  1
  O  O26  1  0.07908224  0.98131563  0.66088471  1
  O  O27  1  0.87119573  0.82967994  0.82668230  1
  O  O28  1  0.04482360  0.74837147  0.14508351  1
  O  O29  1  0.82576172  0.71026031  0.56070441  1
  O  O30  1  0.21904330  0.74922571  0.42894672  1
  O  O31  1  0.42091776  0.33911529  0.01868437  1
  O  O32  1  0.57908224  0.66088471  0.98131563  1
  O  O33  1  0.17423828  0.28973969  0.43929559  1
  O  O34  1  0.32867591  0.06978233  0.41096214  1
  O  O35  1  0.54482360  0.14508351  0.74837147  1
  O  O36  1  0.62880427  0.17331770  0.17032006  1
  O  O37  1  0.67423828  0.43929559  0.28973969  1
  O  O38  1  0.12880427  0.17032006  0.17331770  1
  O  O39  1  0.32576172  0.56070441  0.71026031  1
