# generated using pymatgen
data_Na2YC(OF)3
_symmetry_space_group_name_H-M   'P 1'
_cell_length_a   6.54048989
_cell_length_b   10.79300237
_cell_length_c   14.25097635
_cell_angle_alpha   90.00000000
_cell_angle_beta   90.00000000
_cell_angle_gamma   90.00000000
_symmetry_Int_Tables_number   1
_chemical_formula_structural   Na2YC(OF)3
_chemical_formula_sum   'Na16 Y8 C8 O24 F24'
_cell_volume   1005.99812313
_cell_formula_units_Z   8
loop_
 _symmetry_equiv_pos_site_id
 _symmetry_equiv_pos_as_xyz
  1  'x, y, z'
loop_
 _atom_site_type_symbol
 _atom_site_label
 _atom_site_symmetry_multiplicity
 _atom_site_fract_x
 _atom_site_fract_y
 _atom_site_fract_z
 _atom_site_occupancy
  Na  Na0  1  0.05254317  0.99330426  0.60709166  1
  Na  Na1  1  0.23564173  0.27829217  0.25610406  1
  Na  Na2  1  0.55254317  0.50669574  0.39290834  1
  Na  Na3  1  0.05254317  0.50669574  0.10709166  1
  Na  Na4  1  0.76435827  0.77829217  0.24389594  1
  Na  Na5  1  0.23564173  0.22170783  0.75610406  1
  Na  Na6  1  0.26435827  0.77829217  0.25610406  1
  Na  Na7  1  0.26435827  0.72170783  0.75610406  1
  Na  Na8  1  0.94745683  0.49330426  0.89290834  1
  Na  Na9  1  0.44745683  0.00669574  0.10709166  1
  Na  Na10  1  0.73564173  0.27829217  0.24389594  1
  Na  Na11  1  0.76435827  0.72170783  0.74389594  1
  Na  Na12  1  0.55254317  0.99330426  0.89290834  1
  Na  Na13  1  0.44745683  0.49330426  0.60709166  1
  Na  Na14  1  0.73564173  0.22170783  0.74389594  1
  Na  Na15  1  0.94745683  0.00669574  0.39290834  1
  Y  Y16  1  0.99437697  0.31610046  0.51420706  1
  Y  Y17  1  0.00562303  0.68389954  0.48579294  1
  Y  Y18  1  0.99437697  0.18389954  0.01420706  1
  Y  Y19  1  0.00562303  0.81610046  0.98579294  1
  Y  Y20  1  0.50562303  0.81610046  0.51420706  1
  Y  Y21  1  0.50562303  0.68389954  0.01420706  1
  Y  Y22  1  0.49437697  0.31610046  0.98579294  1
  Y  Y23  1  0.49437697  0.18389954  0.48579294  1
  C  C24  1  0.99694859  0.51756117  0.32533394  1
  C  C25  1  0.50305141  0.01756117  0.32533394  1
  C  C26  1  0.00305141  0.48243883  0.67466606  1
  C  C27  1  0.99694859  0.98243883  0.82533394  1
  C  C28  1  0.50305141  0.48243883  0.82533394  1
  C  C29  1  0.49694859  0.98243883  0.67466606  1
  C  C30  1  0.49694859  0.51756117  0.17466606  1
  C  C31  1  0.00305141  0.01756117  0.17466606  1
  O  O32  1  0.43199720  0.48744953  0.08944973  1
  O  O33  1  0.99872415  0.43853564  0.25900118  1
  O  O34  1  0.93199720  0.01255047  0.91055027  1
  O  O35  1  0.00127585  0.93853564  0.24099882  1
  O  O36  1  0.55193826  0.86764418  0.68432951  1
  O  O37  1  0.05193826  0.63235582  0.31567049  1
  O  O38  1  0.05193826  0.86764418  0.81567049  1
  O  O39  1  0.94806174  0.13235582  0.18432951  1
  O  O40  1  0.06800280  0.51255047  0.58944973  1
  O  O41  1  0.43199720  0.01255047  0.58944973  1
  O  O42  1  0.50127585  0.93853564  0.25900118  1
  O  O43  1  0.00127585  0.56146436  0.74099882  1
  O  O44  1  0.55193826  0.63235582  0.18432951  1
  O  O45  1  0.44806174  0.13235582  0.31567049  1
  O  O46  1  0.56800280  0.51255047  0.91055027  1
  O  O47  1  0.49872415  0.43853564  0.24099882  1
  O  O48  1  0.56800280  0.98744953  0.41055027  1
  O  O49  1  0.50127585  0.56146436  0.75900118  1
  O  O50  1  0.99872415  0.06146436  0.75900118  1
  O  O51  1  0.44806174  0.36764418  0.81567049  1
  O  O52  1  0.93199720  0.48744953  0.41055027  1
  O  O53  1  0.06800280  0.98744953  0.08944973  1
  O  O54  1  0.94806174  0.36764418  0.68432951  1
  O  O55  1  0.49872415  0.06146436  0.74099882  1
  F  F56  1  0.84919533  0.62583239  0.02056757  1
  F  F57  1  0.70893352  0.66165568  0.57938791  1
  F  F58  1  0.15080467  0.37416761  0.97943243  1
  F  F59  1  0.34919533  0.87416761  0.97943243  1
  F  F60  1  0.19791737  0.77932073  0.60166842  1
  F  F61  1  0.80208263  0.27932073  0.89833158  1
  F  F62  1  0.19791737  0.72067927  0.10166842  1
  F  F63  1  0.30208263  0.27932073  0.60166842  1
  F  F64  1  0.79106648  0.33834432  0.07938791  1
  F  F65  1  0.69791737  0.72067927  0.39833158  1
  F  F66  1  0.29106648  0.33834432  0.42061209  1
  F  F67  1  0.20893352  0.83834432  0.42061209  1
  F  F68  1  0.80208263  0.22067927  0.39833158  1
  F  F69  1  0.84919533  0.87416761  0.52056757  1
  F  F70  1  0.65080467  0.37416761  0.52056757  1
  F  F71  1  0.30208263  0.22067927  0.10166842  1
  F  F72  1  0.15080467  0.12583239  0.47943243  1
  F  F73  1  0.29106648  0.16165568  0.92061209  1
  F  F74  1  0.69791737  0.77932073  0.89833158  1
  F  F75  1  0.20893352  0.66165568  0.92061209  1
  F  F76  1  0.34919533  0.62583239  0.47943243  1
  F  F77  1  0.79106648  0.16165568  0.57938791  1
  F  F78  1  0.70893352  0.83834432  0.07938791  1
  F  F79  1  0.65080467  0.12583239  0.02056757  1
