# generated using pymatgen
data_Na3B5SO8
_symmetry_space_group_name_H-M   'P 1'
_cell_length_a   6.32610095
_cell_length_b   11.07041419
_cell_length_c   11.62184086
_cell_angle_alpha   93.38487269
_cell_angle_beta   90.00000000
_cell_angle_gamma   90.00000000
_symmetry_Int_Tables_number   1
_chemical_formula_structural   Na3B5SO8
_chemical_formula_sum   'Na12 B20 S4 O32'
_cell_volume   812.48733990
_cell_formula_units_Z   4
loop_
 _symmetry_equiv_pos_site_id
 _symmetry_equiv_pos_as_xyz
  1  'x, y, z'
loop_
 _atom_site_type_symbol
 _atom_site_label
 _atom_site_symmetry_multiplicity
 _atom_site_fract_x
 _atom_site_fract_y
 _atom_site_fract_z
 _atom_site_occupancy
  Na  Na0  1  0.69302906  0.19737986  0.47488899  1
  Na  Na1  1  0.19302906  0.30262014  0.52511101  1
  Na  Na2  1  0.07730208  0.35346545  0.78937225  1
  Na  Na3  1  0.78269047  0.89077110  0.02053586  1
  Na  Na4  1  0.92269792  0.64653455  0.21062775  1
  Na  Na5  1  0.28269047  0.60922890  0.97946414  1
  Na  Na6  1  0.71730953  0.39077110  0.02053586  1
  Na  Na7  1  0.21730953  0.10922890  0.97946414  1
  Na  Na8  1  0.57730208  0.14653455  0.21062775  1
  Na  Na9  1  0.30697094  0.80262014  0.52511101  1
  Na  Na10  1  0.42269792  0.85346545  0.78937225  1
  Na  Na11  1  0.80697094  0.69737986  0.47488899  1
  B  B12  1  0.01241310  0.04392599  0.67491629  1
  B  B13  1  0.59487252  0.32718962  0.70140367  1
  B  B14  1  0.61637774  0.18328817  0.85946484  1
  B  B15  1  0.33938365  0.02139249  0.37789355  1
  B  B16  1  0.40512748  0.67281038  0.29859633  1
  B  B17  1  0.11637774  0.31671183  0.14053516  1
  B  B18  1  0.61315840  0.87252826  0.31229083  1
  B  B19  1  0.38684160  0.12747174  0.68770917  1
  B  B20  1  0.51241310  0.45607401  0.32508371  1
  B  B21  1  0.66061635  0.97860751  0.62210645  1
  B  B22  1  0.11315840  0.62747174  0.68770917  1
  B  B23  1  0.09487252  0.17281038  0.29859633  1
  B  B24  1  0.90512748  0.82718962  0.70140367  1
  B  B25  1  0.88684160  0.37252826  0.31229083  1
  B  B26  1  0.88362226  0.68328817  0.85946484  1
  B  B27  1  0.38362226  0.81671183  0.14053516  1
  B  B28  1  0.98758690  0.95607401  0.32508371  1
  B  B29  1  0.83938365  0.47860751  0.62210645  1
  B  B30  1  0.16061635  0.52139249  0.37789355  1
  B  B31  1  0.48758690  0.54392599  0.67491629  1
  S  S32  1  0.24886023  0.86435319  0.01172406  1
  S  S33  1  0.75113977  0.13564681  0.98827594  1
  S  S34  1  0.74886023  0.63564681  0.98827594  1
  S  S35  1  0.25113977  0.36435319  0.01172406  1
  O  O36  1  0.17991736  0.93449088  0.38092073  1
  O  O37  1  0.02394791  0.73352558  0.63764831  1
  O  O38  1  0.82008264  0.06550912  0.61907927  1
  O  O39  1  0.95370606  0.38519389  0.19059666  1
  O  O40  1  0.04629394  0.61480611  0.80940334  1
  O  O41  1  0.67963430  0.28965946  0.81292837  1
  O  O42  1  0.04611312  0.93545438  0.72180638  1
  O  O43  1  0.28825698  0.14061025  0.36730193  1
  O  O44  1  0.45388688  0.43545438  0.72180638  1
  O  O45  1  0.65335296  0.36181962  0.32093764  1
  O  O46  1  0.82036570  0.78965946  0.81292837  1
  O  O47  1  0.54828636  0.98848456  0.37787691  1
  O  O48  1  0.04828636  0.51151544  0.62212309  1
  O  O49  1  0.95171364  0.48848456  0.37787691  1
  O  O50  1  0.78825698  0.35938975  0.63269807  1
  O  O51  1  0.15335296  0.13818038  0.67906236  1
  O  O52  1  0.45370606  0.11480611  0.80940334  1
  O  O53  1  0.84664704  0.86181962  0.32093764  1
  O  O54  1  0.54611312  0.56454562  0.27819362  1
  O  O55  1  0.17963430  0.21034054  0.18707163  1
  O  O56  1  0.45171364  0.01151544  0.62212309  1
  O  O57  1  0.47605209  0.23352558  0.63764831  1
  O  O58  1  0.32036570  0.71034054  0.18707163  1
  O  O59  1  0.32008264  0.43449088  0.38092073  1
  O  O60  1  0.67991736  0.56550912  0.61907927  1
  O  O61  1  0.54629394  0.88519389  0.19059666  1
  O  O62  1  0.21174302  0.64061025  0.36730193  1
  O  O63  1  0.95388688  0.06454562  0.27819362  1
  O  O64  1  0.71174302  0.85938975  0.63269807  1
  O  O65  1  0.97605209  0.26647442  0.36235169  1
  O  O66  1  0.34664704  0.63818038  0.67906236  1
  O  O67  1  0.52394791  0.76647442  0.36235169  1
