# generated using pymatgen
data_Li2Cd(PO3)4
_symmetry_space_group_name_H-M   'P 1'
_cell_length_a   9.52829574
_cell_length_b   9.65557546
_cell_length_c   10.33420820
_cell_angle_alpha   90.00000000
_cell_angle_beta   90.00000000
_cell_angle_gamma   90.00000000
_symmetry_Int_Tables_number   1
_chemical_formula_structural   Li2Cd(PO3)4
_chemical_formula_sum   'Li8 Cd4 P16 O48'
_cell_volume   950.75933350
_cell_formula_units_Z   4
loop_
 _symmetry_equiv_pos_site_id
 _symmetry_equiv_pos_as_xyz
  1  'x, y, z'
loop_
 _atom_site_type_symbol
 _atom_site_label
 _atom_site_symmetry_multiplicity
 _atom_site_fract_x
 _atom_site_fract_y
 _atom_site_fract_z
 _atom_site_occupancy
  Li  Li0  1  0.10529040  0.49726137  0.67663957  1
  Li  Li1  1  0.89470960  0.50273863  0.32336043  1
  Li  Li2  1  0.89470960  0.00273863  0.17663957  1
  Li  Li3  1  0.10529040  0.99726137  0.82336043  1
  Li  Li4  1  0.39470960  0.99726137  0.82336043  1
  Li  Li5  1  0.60529040  0.00273863  0.17663957  1
  Li  Li6  1  0.60529040  0.50273863  0.32336043  1
  Li  Li7  1  0.39470960  0.49726137  0.67663957  1
  Cd  Cd8  1  0.25000000  0.48846339  0.30636950  1
  Cd  Cd9  1  0.75000000  0.51153661  0.69363050  1
  Cd  Cd10  1  0.25000000  0.98846339  0.19363050  1
  Cd  Cd11  1  0.75000000  0.01153661  0.80636950  1
  P  P12  1  0.75000000  0.30382219  0.09999599  1
  P  P13  1  0.53153114  0.79291173  0.61193845  1
  P  P14  1  0.46846886  0.70708827  0.11193845  1
  P  P15  1  0.75000000  0.80382219  0.40000401  1
  P  P16  1  0.75000000  0.23012001  0.51531916  1
  P  P17  1  0.25000000  0.26987999  0.01531916  1
  P  P18  1  0.25000000  0.69617781  0.90000401  1
  P  P19  1  0.53153114  0.29291173  0.88806155  1
  P  P20  1  0.96846886  0.29291173  0.88806155  1
  P  P21  1  0.25000000  0.76987999  0.48468084  1
  P  P22  1  0.03153114  0.70708827  0.11193845  1
  P  P23  1  0.75000000  0.73012001  0.98468084  1
  P  P24  1  0.03153114  0.20708827  0.38806155  1
  P  P25  1  0.46846886  0.20708827  0.38806155  1
  P  P26  1  0.96846886  0.79291173  0.61193845  1
  P  P27  1  0.25000000  0.19617781  0.59999599  1
  O  O28  1  0.37498587  0.83143820  0.57165091  1
  O  O29  1  0.37498587  0.33143820  0.92834909  1
  O  O30  1  0.25000000  0.61346163  0.49191457  1
  O  O31  1  0.55975597  0.88442034  0.72717824  1
  O  O32  1  0.75000000  0.88653837  0.99191457  1
  O  O33  1  0.45158258  0.36206568  0.37695697  1
  O  O34  1  0.45158258  0.86206568  0.12304303  1
  O  O35  1  0.75000000  0.89941099  0.28583271  1
  O  O36  1  0.87498587  0.66856180  0.07165091  1
  O  O37  1  0.95158258  0.63793432  0.62304303  1
  O  O38  1  0.88167838  0.85012565  0.48930974  1
  O  O39  1  0.75000000  0.16189332  0.64391989  1
  O  O40  1  0.04841742  0.36206568  0.37695697  1
  O  O41  1  0.05975597  0.61557966  0.22717824  1
  O  O42  1  0.04841742  0.86206568  0.12304303  1
  O  O43  1  0.25000000  0.33810668  0.14391989  1
  O  O44  1  0.62501413  0.66856180  0.07165091  1
  O  O45  1  0.05975597  0.11557966  0.27282176  1
  O  O46  1  0.75000000  0.38653837  0.50808543  1
  O  O47  1  0.11832162  0.14987435  0.51069026  1
  O  O48  1  0.12501413  0.33143820  0.92834909  1
  O  O49  1  0.94024403  0.38442034  0.77282176  1
  O  O50  1  0.62501413  0.16856180  0.42834909  1
  O  O51  1  0.25000000  0.10058901  0.71416729  1
  O  O52  1  0.38167838  0.64987435  0.98930974  1
  O  O53  1  0.95158258  0.13793432  0.87695697  1
  O  O54  1  0.88167838  0.35012565  0.01069026  1
  O  O55  1  0.75000000  0.64994256  0.37959712  1
  O  O56  1  0.55975597  0.38442034  0.77282176  1
  O  O57  1  0.94024403  0.88442034  0.72717824  1
  O  O58  1  0.25000000  0.83810668  0.35608011  1
  O  O59  1  0.25000000  0.60058901  0.78583271  1
  O  O60  1  0.54841742  0.63793432  0.62304303  1
  O  O61  1  0.38167838  0.14987435  0.51069026  1
  O  O62  1  0.25000000  0.11346163  0.00808543  1
  O  O63  1  0.12501413  0.83143820  0.57165091  1
  O  O64  1  0.75000000  0.66189332  0.85608011  1
  O  O65  1  0.44024403  0.11557966  0.27282176  1
  O  O66  1  0.11832162  0.64987435  0.98930974  1
  O  O67  1  0.87498587  0.16856180  0.42834909  1
  O  O68  1  0.75000000  0.14994256  0.12040288  1
  O  O69  1  0.61832162  0.85012565  0.48930974  1
  O  O70  1  0.44024403  0.61557966  0.22717824  1
  O  O71  1  0.25000000  0.35005744  0.62040288  1
  O  O72  1  0.25000000  0.85005744  0.87959712  1
  O  O73  1  0.61832162  0.35012565  0.01069026  1
  O  O74  1  0.75000000  0.39941099  0.21416729  1
  O  O75  1  0.54841742  0.13793432  0.87695697  1
