# generated using pymatgen
data_Cs2Ti(Si2O5)3
_symmetry_space_group_name_H-M   'P 1'
_cell_length_a   7.54692405
_cell_length_b   7.78138622
_cell_length_c   15.33598850
_cell_angle_alpha   76.45304925
_cell_angle_beta   75.75390867
_cell_angle_gamma   60.99122479
_symmetry_Int_Tables_number   1
_chemical_formula_structural   Cs2Ti(Si2O5)3
_chemical_formula_sum   'Cs4 Ti2 Si12 O30'
_cell_volume   756.36013826
_cell_formula_units_Z   2
loop_
 _symmetry_equiv_pos_site_id
 _symmetry_equiv_pos_as_xyz
  1  'x, y, z'
loop_
 _atom_site_type_symbol
 _atom_site_label
 _atom_site_symmetry_multiplicity
 _atom_site_fract_x
 _atom_site_fract_y
 _atom_site_fract_z
 _atom_site_occupancy
  Cs  Cs0  1  0.62429688  0.82385632  0.40999659  1
  Cs  Cs1  1  0.37570312  0.17614368  0.59000341  1
  Cs  Cs2  1  0.14183326  0.32384691  0.91000005  1
  Cs  Cs3  1  0.85816674  0.67615309  0.08999995  1
  Ti  Ti4  1  0.50000000  0.50000000  0.00000000  1
  Ti  Ti5  1  0.00000000  0.00000000  0.50000000  1
  Si  Si6  1  0.39637894  0.18611276  0.16646856  1
  Si  Si7  1  0.11591804  0.33269171  0.35610089  1
  Si  Si8  1  0.80473550  0.16730135  0.14389946  1
  Si  Si9  1  0.25106835  0.68613895  0.66646209  1
  Si  Si10  1  0.19526450  0.83269865  0.85610054  1
  Si  Si11  1  0.26563653  0.85940052  0.14598897  1
  Si  Si12  1  0.27099457  0.64059646  0.35400857  1
  Si  Si13  1  0.88408196  0.66730829  0.64389911  1
  Si  Si14  1  0.60362106  0.81388724  0.83353144  1
  Si  Si15  1  0.72900543  0.35940354  0.64599143  1
  Si  Si16  1  0.74893165  0.31386105  0.33353791  1
  Si  Si17  1  0.73436347  0.14059948  0.85401103  1
  O  O18  1  0.34447944  0.02520711  0.14103744  1
  O  O19  1  0.28638978  0.23759547  0.26936761  1
  O  O20  1  0.03084025  0.98064466  0.12152332  1
  O  O21  1  0.80000152  0.20800234  0.57503130  1
  O  O22  1  0.48931223  0.52524197  0.64103806  1
  O  O23  1  0.65552056  0.97479289  0.85896256  1
  O  O24  1  0.86701928  0.48064388  0.62151844  1
  O  O25  1  0.25332172  0.74997825  0.24999828  1
  O  O26  1  0.65969747  0.61923306  0.90797552  1
  O  O27  1  0.58302658  0.29197284  0.92498506  1
  O  O28  1  0.74667828  0.25002175  0.75000172  1
  O  O29  1  0.75057891  0.33642626  0.05736897  1
  O  O30  1  0.41697342  0.70802716  0.07501494  1
  O  O31  1  0.11544340  0.56676865  0.67229082  1
  O  O32  1  0.20663494  0.73763112  0.76935904  1
  O  O33  1  0.34030253  0.38076694  0.09202448  1
  O  O34  1  0.85562049  0.83642914  0.55736326  1
  O  O35  1  0.96915975  0.01935534  0.87847668  1
  O  O36  1  0.79336506  0.26236888  0.23064096  1
  O  O37  1  0.51068777  0.47475803  0.35896194  1
  O  O38  1  0.18692504  0.88077870  0.59201556  1
  O  O39  1  0.14437951  0.16357086  0.44263674  1
  O  O40  1  0.64554142  0.06673256  0.17229651  1
  O  O41  1  0.19999848  0.79199766  0.42496870  1
  O  O42  1  0.88455660  0.43323135  0.32770918  1
  O  O43  1  0.13298072  0.51935612  0.37848156  1
  O  O44  1  0.35445858  0.93326744  0.82770349  1
  O  O45  1  0.71361022  0.76240453  0.73063239  1
  O  O46  1  0.81307496  0.11922130  0.40798444  1
  O  O47  1  0.24942109  0.66357374  0.94263103  1
