# generated using pymatgen
data_AgTeNO5
_symmetry_space_group_name_H-M   'P 1'
_cell_length_a   5.36933398
_cell_length_b   5.70874955
_cell_length_c   14.52898866
_cell_angle_alpha   90.00000000
_cell_angle_beta   90.00000000
_cell_angle_gamma   90.00000000
_symmetry_Int_Tables_number   1
_chemical_formula_structural   AgTeNO5
_chemical_formula_sum   'Ag4 Te4 N4 O20'
_cell_volume   445.34521837
_cell_formula_units_Z   4
loop_
 _symmetry_equiv_pos_site_id
 _symmetry_equiv_pos_as_xyz
  1  'x, y, z'
loop_
 _atom_site_type_symbol
 _atom_site_label
 _atom_site_symmetry_multiplicity
 _atom_site_fract_x
 _atom_site_fract_y
 _atom_site_fract_z
 _atom_site_occupancy
  Ag  Ag0  1  0.25000000  0.50000000  0.61401841  1
  Ag  Ag1  1  0.75000000  0.50000000  0.38598159  1
  Ag  Ag2  1  0.25000000  0.00000000  0.11401841  1
  Ag  Ag3  1  0.75000000  0.00000000  0.88598159  1
  Te  Te4  1  0.75000000  0.00000000  0.56084142  1
  Te  Te5  1  0.25000000  0.00000000  0.43915858  1
  Te  Te6  1  0.25000000  0.50000000  0.93915858  1
  Te  Te7  1  0.75000000  0.50000000  0.06084142  1
  N  N8  1  0.75000000  0.50000000  0.74313401  1
  N  N9  1  0.75000000  0.00000000  0.24313401  1
  N  N10  1  0.25000000  0.00000000  0.75686599  1
  N  N11  1  0.25000000  0.50000000  0.25686599  1
  O  O12  1  0.93534439  0.29688511  0.97650464  1
  O  O13  1  0.10170441  0.13355215  0.71449103  1
  O  O14  1  0.89829559  0.86644785  0.28550897  1
  O  O15  1  0.39829559  0.63355215  0.21449103  1
  O  O16  1  0.56465561  0.70311489  0.97650464  1
  O  O17  1  0.10170441  0.36644785  0.21449103  1
  O  O18  1  0.39829559  0.86644785  0.71449103  1
  O  O19  1  0.60170441  0.13355215  0.28550897  1
  O  O20  1  0.75000000  0.50000000  0.65462634  1
  O  O21  1  0.25000000  0.50000000  0.34537366  1
  O  O22  1  0.60170441  0.36644785  0.78550897  1
  O  O23  1  0.06465561  0.70311489  0.02349536  1
  O  O24  1  0.75000000  0.00000000  0.15462634  1
  O  O25  1  0.89829559  0.63355215  0.78550897  1
  O  O26  1  0.25000000  0.00000000  0.84537366  1
  O  O27  1  0.06465561  0.79688511  0.52349536  1
  O  O28  1  0.43534439  0.29688511  0.02349536  1
  O  O29  1  0.43534439  0.20311489  0.52349536  1
  O  O30  1  0.56465561  0.79688511  0.47650464  1
  O  O31  1  0.93534439  0.20311489  0.47650464  1
