# generated using pymatgen
data_Ba3In2Cl2O5
_symmetry_space_group_name_H-M   'P 1'
_cell_length_a   4.30120834
_cell_length_b   4.30120860
_cell_length_c   13.10970521
_cell_angle_alpha   99.44186519
_cell_angle_beta   99.44186580
_cell_angle_gamma   90.00000270
_symmetry_Int_Tables_number   1
_chemical_formula_structural   Ba3In2Cl2O5
_chemical_formula_sum   'Ba3 In2 Cl2 O5'
_cell_volume   235.91750813
_cell_formula_units_Z   1
loop_
 _symmetry_equiv_pos_site_id
 _symmetry_equiv_pos_as_xyz
  1  'x, y, z'
loop_
 _atom_site_type_symbol
 _atom_site_label
 _atom_site_symmetry_multiplicity
 _atom_site_fract_x
 _atom_site_fract_y
 _atom_site_fract_z
 _atom_site_occupancy
  Ba  Ba0  1  0.66124553  0.66124553  0.32249106  1
  Ba  Ba1  1  0.50000000  0.50000000  0.00000000  1
  Ba  Ba2  1  0.33875447  0.33875447  0.67750894  1
  In  In3  1  0.91757247  0.91757247  0.83514493  1
  In  In4  1  0.08242753  0.08242753  0.16485507  1
  Cl  Cl5  1  0.20518856  0.20518856  0.41037711  1
  Cl  Cl6  1  0.79481144  0.79481144  0.58962289  1
  O  O7  1  0.09405948  0.59405948  0.18811896  1
  O  O8  1  0.40594052  0.90594052  0.81188104  1
  O  O9  1  0.90594052  0.40594052  0.81188104  1
  O  O10  1  0.00000000  0.00000000  0.00000000  1
  O  O11  1  0.59405948  0.09405948  0.18811896  1
