# generated using pymatgen
data_TeMoWSeS2
_symmetry_space_group_name_H-M   'P 1'
_cell_length_a   3.31114264
_cell_length_b   3.31117880
_cell_length_c   37.64059776
_cell_angle_alpha   90.00034428
_cell_angle_beta   90.00000000
_cell_angle_gamma   119.99963880
_symmetry_Int_Tables_number   1
_chemical_formula_structural   TeMoWSeS2
_chemical_formula_sum   'Te2 Mo2 W2 Se2 S4'
_cell_volume   357.39563688
_cell_formula_units_Z   2
loop_
 _symmetry_equiv_pos_site_id
 _symmetry_equiv_pos_as_xyz
  1  'x, y, z'
loop_
 _atom_site_type_symbol
 _atom_site_label
 _atom_site_symmetry_multiplicity
 _atom_site_fract_x
 _atom_site_fract_y
 _atom_site_fract_z
 _atom_site_occupancy
  Te  Te0  1  0.33336302  0.66672705  0.70862479  1
  Te  Te1  1  0.33335096  0.66670292  0.60646104  1
  Mo  Mo2  1  0.33331067  0.66662133  0.09391772  1
  Mo  Mo3  1  0.33329914  0.66659828  0.46965162  1
  W  W4  1  0.66668769  0.33337538  0.28179804  1
  W  W5  1  0.66669018  0.33338036  0.65756546  1
  Se  Se6  1  0.33335515  0.66671131  0.32664532  1
  Se  Se7  1  0.33334677  0.66669455  0.23693639  1
  S  S8  1  0.66664631  0.33329162  0.05333745  1
  S  S9  1  0.66665325  0.33330549  0.42907332  1
  S  S10  1  0.66664218  0.33328337  0.13450703  1
  S  S11  1  0.66665467  0.33330834  0.51022983  1
