# generated using pymatgen
data_K9Bi5O13
_symmetry_space_group_name_H-M   'P 1'
_cell_length_a   5.82338744
_cell_length_b   15.37680236
_cell_length_c   26.11596621
_cell_angle_alpha   102.30628592
_cell_angle_beta   90.00000000
_cell_angle_gamma   90.00000000
_symmetry_Int_Tables_number   1
_chemical_formula_structural   K9Bi5O13
_chemical_formula_sum   'K36 Bi20 O52'
_cell_volume   2284.82134078
_cell_formula_units_Z   4
loop_
 _symmetry_equiv_pos_site_id
 _symmetry_equiv_pos_as_xyz
  1  'x, y, z'
loop_
 _atom_site_type_symbol
 _atom_site_label
 _atom_site_symmetry_multiplicity
 _atom_site_fract_x
 _atom_site_fract_y
 _atom_site_fract_z
 _atom_site_occupancy
  K  K0  1  0.74061566  0.82590301  0.30040608  1
  K  K1  1  0.25938434  0.17409699  0.69959392  1
  K  K2  1  0.23610118  0.42459912  0.30225731  1
  K  K3  1  0.73610118  0.07540088  0.19774269  1
  K  K4  1  0.73146743  0.05535271  0.61421011  1
  K  K5  1  0.25063377  0.68654735  0.91884895  1
  K  K6  1  0.76853257  0.55535271  0.11421011  1
  K  K7  1  0.75496075  0.79742805  0.43950310  1
  K  K8  1  0.18638999  0.92889848  0.10017002  1
  K  K9  1  0.74412686  0.30332804  0.49740223  1
  K  K10  1  0.24955990  0.94272580  0.24043253  1
  K  K11  1  0.75044010  0.05727420  0.75956747  1
  K  K12  1  0.31361001  0.42889848  0.60017002  1
  K  K13  1  0.74577815  0.80695839  0.71830387  1
  K  K14  1  0.24503925  0.20257195  0.56049690  1
  K  K15  1  0.75063377  0.81345265  0.58115105  1
  K  K16  1  0.81361001  0.07110152  0.89982998  1
  K  K17  1  0.75587314  0.80332804  0.99740223  1
  K  K18  1  0.24577815  0.69304161  0.78169613  1
  K  K19  1  0.25496075  0.70257195  0.06049690  1
  K  K20  1  0.25587314  0.69667196  0.50259777  1
  K  K21  1  0.26853257  0.94464729  0.38578989  1
  K  K22  1  0.23146743  0.44464729  0.88578989  1
  K  K23  1  0.26389882  0.92459912  0.80225731  1
  K  K24  1  0.24061566  0.67409699  0.19959392  1
  K  K25  1  0.74936623  0.31345265  0.08115105  1
  K  K26  1  0.24412686  0.19667196  0.00259777  1
  K  K27  1  0.74503925  0.29742805  0.93950310  1
  K  K28  1  0.74955990  0.55727420  0.25956747  1
  K  K29  1  0.24936623  0.18654735  0.41884895  1
  K  K30  1  0.68638999  0.57110152  0.39982998  1
  K  K31  1  0.75422185  0.30695839  0.21830387  1
  K  K32  1  0.76389882  0.57540088  0.69774269  1
  K  K33  1  0.75938434  0.32590301  0.80040608  1
  K  K34  1  0.25422185  0.19304161  0.28169613  1
  K  K35  1  0.25044010  0.44272580  0.74043253  1
  Bi  Bi36  1  0.72107201  0.54590822  0.96881494  1
  Bi  Bi37  1  0.70282179  0.79940806  0.16267137  1
  Bi  Bi38  1  0.25726514  0.92246251  0.66120743  1
  Bi  Bi39  1  0.76149103  0.32522454  0.36459922  1
  Bi  Bi40  1  0.29717821  0.20059194  0.83732863  1
  Bi  Bi41  1  0.73850897  0.82522454  0.86459922  1
  Bi  Bi42  1  0.77892799  0.04590822  0.46881494  1
  Bi  Bi43  1  0.29867799  0.93386371  0.95871359  1
  Bi  Bi44  1  0.24273486  0.42246251  0.16120743  1
  Bi  Bi45  1  0.79867799  0.56613629  0.54128641  1
  Bi  Bi46  1  0.70132201  0.06613629  0.04128641  1
  Bi  Bi47  1  0.20282179  0.70059194  0.33732863  1
  Bi  Bi48  1  0.20132201  0.43386371  0.45871359  1
  Bi  Bi49  1  0.23850897  0.67477546  0.63540078  1
  Bi  Bi50  1  0.26149103  0.17477546  0.13540078  1
  Bi  Bi51  1  0.75726514  0.57753749  0.83879257  1
  Bi  Bi52  1  0.74273486  0.07753749  0.33879257  1
  Bi  Bi53  1  0.22107201  0.95409178  0.53118506  1
  Bi  Bi54  1  0.79717821  0.29940806  0.66267137  1
  Bi  Bi55  1  0.27892799  0.45409178  0.03118506  1
  O  O56  1  0.23104660  0.79961336  0.69689190  1
  O  O57  1  0.75566400  0.69534681  0.19905488  1
  O  O58  1  0.20045577  0.08610809  0.78649771  1
  O  O59  1  0.73047162  0.45354931  0.89708329  1
  O  O60  1  0.74433600  0.19534681  0.69905488  1
  O  O61  1  0.83864373  0.77086421  0.08916324  1
  O  O62  1  0.12446577  0.33364028  0.37662674  1
  O  O63  1  0.66135627  0.27086421  0.58916324  1
  O  O64  1  0.66314647  0.95374855  0.96225148  1
  O  O65  1  0.14297010  0.31150460  0.65394090  1
  O  O66  1  0.23581999  0.08495496  0.18485195  1
  O  O67  1  0.26418001  0.58495496  0.68485195  1
  O  O68  1  0.75665217  0.15397484  0.41752941  1
  O  O69  1  0.24334783  0.84602516  0.58247059  1
  O  O70  1  0.35702990  0.81150460  0.15394090  1
  O  O71  1  0.29954423  0.58610809  0.28649771  1
  O  O72  1  0.73703937  0.16710086  0.00059476  1
  O  O73  1  0.73104660  0.70038664  0.80310810  1
  O  O74  1  0.25566400  0.80465319  0.30094512  1
  O  O75  1  0.70045577  0.41389191  0.71350229  1
  O  O76  1  0.10805543  0.56374227  0.82959115  1
  O  O77  1  0.87553423  0.66635972  0.62337326  1
  O  O78  1  0.76296063  0.66710086  0.50059476  1
  O  O79  1  0.86089712  0.93680419  0.52109974  1
  O  O80  1  0.23703937  0.33289914  0.49940524  1
  O  O81  1  0.79954423  0.91389191  0.21350229  1
  O  O82  1  0.39194457  0.06374227  0.32959115  1
  O  O83  1  0.85702990  0.68849540  0.34605910  1
  O  O84  1  0.33685353  0.04625145  0.03774852  1
  O  O85  1  0.33864373  0.72913579  0.41083676  1
  O  O86  1  0.64297010  0.18849540  0.84605910  1
  O  O87  1  0.16135627  0.22913579  0.91083676  1
  O  O88  1  0.73581999  0.41504504  0.31514805  1
  O  O89  1  0.25665217  0.34602516  0.08247059  1
  O  O90  1  0.76418001  0.91504504  0.81514805  1
  O  O91  1  0.16314647  0.54625145  0.53774852  1
  O  O92  1  0.37553423  0.83364028  0.87662674  1
  O  O93  1  0.60805543  0.93625773  0.67040885  1
  O  O94  1  0.63910288  0.43680419  0.02109974  1
  O  O95  1  0.76952838  0.95354931  0.39708329  1
  O  O96  1  0.74334783  0.65397484  0.91752941  1
  O  O97  1  0.62446577  0.16635972  0.12337326  1
  O  O98  1  0.26952838  0.54645069  0.10291671  1
  O  O99  1  0.26895340  0.29961336  0.19689190  1
  O  O100  1  0.13910288  0.06319581  0.47890026  1
  O  O101  1  0.24433600  0.30465319  0.80094512  1
  O  O102  1  0.26296063  0.83289914  0.99940524  1
  O  O103  1  0.23047162  0.04645069  0.60291671  1
  O  O104  1  0.36089712  0.56319581  0.97890026  1
  O  O105  1  0.89194457  0.43625773  0.17040885  1
  O  O106  1  0.83685353  0.45374855  0.46225148  1
  O  O107  1  0.76895340  0.20038664  0.30310810  1
