# generated using pymatgen
data_YSiNO2
_symmetry_space_group_name_H-M   'P 1'
_cell_length_a   7.08849092
_cell_length_b   7.08849101
_cell_length_c   27.54912682
_cell_angle_alpha   90.00000000
_cell_angle_beta   90.00000000
_cell_angle_gamma   119.99999960
_symmetry_Int_Tables_number   1
_chemical_formula_structural   YSiNO2
_chemical_formula_sum   'Y18 Si18 N18 O36'
_cell_volume   1198.79811597
_cell_formula_units_Z   18
loop_
 _symmetry_equiv_pos_site_id
 _symmetry_equiv_pos_as_xyz
  1  'x, y, z'
loop_
 _atom_site_type_symbol
 _atom_site_label
 _atom_site_symmetry_multiplicity
 _atom_site_fract_x
 _atom_site_fract_y
 _atom_site_fract_z
 _atom_site_occupancy
  Y  Y0  1  0.98860938  0.97721875  0.25000000  1
  Y  Y1  1  0.02278125  0.01139062  0.58333300  1
  Y  Y2  1  0.01139062  0.02278125  0.75000000  1
  Y  Y3  1  0.98860938  0.01139062  0.91666700  1
  Y  Y4  1  0.34143574  0.65856426  0.91666700  1
  Y  Y5  1  0.65856426  0.31712852  0.75000000  1
  Y  Y6  1  0.65856426  0.34143574  0.41666700  1
  Y  Y7  1  0.66089504  0.33910496  0.91666700  1
  Y  Y8  1  0.68287148  0.34143574  0.08333300  1
  Y  Y9  1  0.32179009  0.66089504  0.08333300  1
  Y  Y10  1  0.31712852  0.65856426  0.58333300  1
  Y  Y11  1  0.66089504  0.32179009  0.25000000  1
  Y  Y12  1  0.67820991  0.33910496  0.58333300  1
  Y  Y13  1  0.33910496  0.67820991  0.75000000  1
  Y  Y14  1  0.33910496  0.66089504  0.41666700  1
  Y  Y15  1  0.97721875  0.98860938  0.08333300  1
  Y  Y16  1  0.01139062  0.98860938  0.41666700  1
  Y  Y17  1  0.34143574  0.68287148  0.25000000  1
  Si  Si18  1  0.32844411  0.24562041  0.00189200  1
  Si  Si19  1  0.42680487  0.42680487  0.66666700  1
  Si  Si20  1  0.75437959  0.08282370  0.33522600  1
  Si  Si21  1  0.67155589  0.75437959  0.50189200  1
  Si  Si22  1  0.24562041  0.91717630  0.83522600  1
  Si  Si23  1  0.91717630  0.24562041  0.49810800  1
  Si  Si24  1  0.08282370  0.32844411  0.16855900  1
  Si  Si25  1  0.57319513  0.00000000  0.00000000  1
  Si  Si26  1  0.00000000  0.42680487  0.83333300  1
  Si  Si27  1  0.08282370  0.75437959  0.99810800  1
  Si  Si28  1  1.00000000  0.57319513  0.33333300  1
  Si  Si29  1  0.75437959  0.67155589  0.83144100  1
  Si  Si30  1  0.67155589  0.91717630  0.66477400  1
  Si  Si31  1  0.42680487  0.00000000  0.50000000  1
  Si  Si32  1  0.91717630  0.67155589  0.66855900  1
  Si  Si33  1  0.24562041  0.32844411  0.33144100  1
  Si  Si34  1  0.57319513  0.57319513  0.16666700  1
  Si  Si35  1  0.32844411  0.08282370  0.16477400  1
  N  N36  1  0.43429287  0.76258501  0.50125365  1
  N  N37  1  0.67170786  0.43429287  0.66791965  1
  N  N38  1  0.90898413  0.00000000  0.50000000  1
  N  N39  1  0.09101587  0.00000000  0.00000000  1
  N  N40  1  0.00000000  0.90898413  0.83333300  1
  N  N41  1  0.56570713  0.23741499  0.00125365  1
  N  N42  1  0.32829214  0.56570713  0.16791965  1
  N  N43  1  0.23741499  0.67170786  0.83458665  1
  N  N44  1  0.43429287  0.67170786  0.66541335  1
  N  N45  1  0.90898413  0.90898413  0.66666700  1
  N  N46  1  0.67170786  0.23741499  0.49874635  1
  N  N47  1  0.09101587  0.09101587  0.16666700  1
  N  N48  1  0.56570713  0.32829214  0.16541335  1
  N  N49  1  1.00000000  0.09101587  0.33333300  1
  N  N50  1  0.32829214  0.76258501  0.99874635  1
  N  N51  1  0.76258501  0.32829214  0.33458665  1
  N  N52  1  0.76258501  0.43429287  0.83208035  1
  N  N53  1  0.23741499  0.56570713  0.33208035  1
  O  O54  1  0.03061940  0.36385506  0.55042687  1
  O  O55  1  0.03061940  0.66676434  0.61624013  1
  O  O56  1  0.00182446  0.31140752  0.78137777  1
  O  O57  1  0.69041694  0.68859248  0.21862223  1
  O  O58  1  0.96938060  0.63614494  0.05042687  1
  O  O59  1  0.36385506  0.03061940  0.78290713  1
  O  O60  1  0.68859248  0.69041694  0.11471077  1
  O  O61  1  0.00182446  0.69041694  0.38528923  1
  O  O62  1  0.64171366  0.96609147  0.38761837  1
  O  O63  1  0.30958306  0.99817554  0.44804477  1
  O  O64  1  0.35828634  0.32437781  0.27904863  1
  O  O65  1  0.63614494  0.66676434  0.88375987  1
  O  O66  1  0.03390853  0.35828634  0.44571563  1
  O  O67  1  0.96938060  0.33323566  0.11624013  1
  O  O68  1  0.99817554  0.68859248  0.28137777  1
  O  O69  1  0.31140752  0.00182446  0.55195523  1
  O  O70  1  0.68859248  0.99817554  0.05195523  1
  O  O71  1  0.30958306  0.31140752  0.71862223  1
  O  O72  1  0.03390853  0.67562219  0.72095137  1
  O  O73  1  0.33323566  0.36385506  0.94957313  1
  O  O74  1  0.66676434  0.03061940  0.71709287  1
  O  O75  1  0.63614494  0.96938060  0.28290713  1
  O  O76  1  0.69041694  0.00182446  0.94804477  1
  O  O77  1  0.99817554  0.30958306  0.88528923  1
  O  O78  1  0.67562219  0.64171366  0.55428437  1
  O  O79  1  0.35828634  0.03390853  0.88761837  1
  O  O80  1  0.36385506  0.33323566  0.38375987  1
  O  O81  1  0.64171366  0.67562219  0.77904863  1
  O  O82  1  0.31140752  0.30958306  0.61471077  1
  O  O83  1  0.33323566  0.96938060  0.21709287  1
  O  O84  1  0.96609147  0.32437781  0.22095137  1
  O  O85  1  0.96609147  0.64171366  0.94571563  1
  O  O86  1  0.67562219  0.03390853  0.61238163  1
  O  O87  1  0.32437781  0.35828634  0.05428437  1
  O  O88  1  0.32437781  0.96609147  0.11238163  1
  O  O89  1  0.66676434  0.63614494  0.44957313  1
