# generated using pymatgen
data_Nb2Cd2O7
_symmetry_space_group_name_H-M   'P 1'
_cell_length_a   7.44376863
_cell_length_b   7.53059173
_cell_length_c   7.48137684
_cell_angle_alpha   120.21812948
_cell_angle_beta   119.83402274
_cell_angle_gamma   89.99964281
_symmetry_Int_Tables_number   1
_chemical_formula_structural   Nb2Cd2O7
_chemical_formula_sum   'Nb4 Cd4 O14'
_cell_volume   296.30724731
_cell_formula_units_Z   2
loop_
 _symmetry_equiv_pos_site_id
 _symmetry_equiv_pos_as_xyz
  1  'x, y, z'
loop_
 _atom_site_type_symbol
 _atom_site_label
 _atom_site_symmetry_multiplicity
 _atom_site_fract_x
 _atom_site_fract_y
 _atom_site_fract_z
 _atom_site_occupancy
  Nb  Nb0  1  0.00677167  0.98840460  0.51354698  1
  Nb  Nb1  1  0.99999265  0.98739768  0.00000108  1
  Nb  Nb2  1  0.49999184  0.98739516  0.99999934  1
  Nb  Nb3  1  0.99322387  0.47485727  0.48645310  1
  Cd  Cd4  1  0.49280540  0.48722809  0.48561997  1
  Cd  Cd5  1  0.00000066  0.48573959  0.00000360  1
  Cd  Cd6  1  0.49999765  0.48573691  0.99999702  1
  Cd  Cd7  1  0.50718643  0.00160813  0.51438106  1
  O  O8  1  0.32189024  0.07584799  0.75056378  1
  O  O9  1  0.62429942  0.37610653  0.74859788  1
  O  O10  1  0.68365056  0.94441185  0.86729984  1
  O  O11  1  0.06982318  0.32333312  0.63964207  1
  O  O12  1  0.92867675  0.07584985  0.75056438  1
  O  O13  1  0.31201935  0.68992627  0.74635677  1
  O  O14  1  0.68798813  0.94357235  0.25364010  1
  O  O15  1  0.37570154  0.62750861  0.25140224  1
  O  O16  1  0.06566140  0.94356977  0.25364211  1
  O  O17  1  0.93018139  0.68369089  0.36035758  1
  O  O18  1  0.67811211  0.32528495  0.24943555  1
  O  O19  1  0.93434848  0.68993304  0.74635923  1
  O  O20  1  0.07132663  0.32528491  0.24943621  1
  O  O21  1  0.31635063  0.07711243  0.13270012  1
