# generated using pymatgen
data_Ba3Nb2CoO9
_symmetry_space_group_name_H-M   'P 1'
_cell_length_a   5.82243704
_cell_length_b   5.87929613
_cell_length_c   7.19705481
_cell_angle_alpha   91.11686789
_cell_angle_beta   89.97986222
_cell_angle_gamma   119.67362288
_symmetry_Int_Tables_number   1
_chemical_formula_structural   Ba3Nb2CoO9
_chemical_formula_sum   'Ba3 Nb2 Co1 O9'
_cell_volume   214.00657346
_cell_formula_units_Z   1
loop_
 _symmetry_equiv_pos_site_id
 _symmetry_equiv_pos_as_xyz
  1  'x, y, z'
loop_
 _atom_site_type_symbol
 _atom_site_label
 _atom_site_symmetry_multiplicity
 _atom_site_fract_x
 _atom_site_fract_y
 _atom_site_fract_z
 _atom_site_occupancy
  Ba  Ba0  1  0.66822870  0.33674357  0.33447173  1
  Ba  Ba1  1  -0.00000000  0.00000100  -0.00000000  1
  Ba  Ba2  1  0.33177030  0.66325743  0.66552827  1
  Nb  Nb3  1  0.33539113  0.67122197  0.17785574  1
  Nb  Nb4  1  0.66460887  0.32877803  0.82214426  1
  Co  Co5  1  -0.00000000  -0.00000000  0.50000000  1
  O  O6  1  0.50000000  0.50000000  -0.00000000  1
  O  O7  1  0.17799681  0.35654793  0.32524529  1
  O  O8  1  0.82200419  0.64345107  0.67475471  1
  O  O9  1  -0.00000000  0.49999900  -0.00000000  1
  O  O10  1  0.17309924  0.83798901  0.32530914  1
  O  O11  1  0.33623629  0.16161337  0.67409575  1
  O  O12  1  0.82690176  0.16201099  0.67469186  1
  O  O13  1  0.66376371  0.83838663  0.32590425  1
  O  O14  1  0.50000000  -0.00000000  -0.00000000  1
