# generated using pymatgen
data_LiYb(PO3)4
_symmetry_space_group_name_H-M   'P 1'
_cell_length_a   7.17582950
_cell_length_b   9.05917958
_cell_length_c   9.07407002
_cell_angle_alpha   65.95161036
_cell_angle_beta   66.70888903
_cell_angle_gamma   66.66833730
_symmetry_Int_Tables_number   1
_chemical_formula_structural   LiYb(PO3)4
_chemical_formula_sum   'Li2 Yb2 P8 O24'
_cell_volume   474.97830586
_cell_formula_units_Z   2
loop_
 _symmetry_equiv_pos_site_id
 _symmetry_equiv_pos_as_xyz
  1  'x, y, z'
loop_
 _atom_site_type_symbol
 _atom_site_label
 _atom_site_symmetry_multiplicity
 _atom_site_fract_x
 _atom_site_fract_y
 _atom_site_fract_z
 _atom_site_occupancy
  Yb  Yb0  1  0.20537610  0.25000000  0.75000000  1
  Yb  Yb1  1  0.79462390  0.75000000  0.25000000  1
  Li  Li2  1  0.29478714  0.75000000  0.25000000  1
  Li  Li3  1  0.70521286  0.25000000  0.75000000  1
  P  P4  1  0.41363599  0.16188921  0.11540185  1
  P  P5  1  0.99481384  0.90182739  0.80730769  1
  P  P6  1  0.70394892  0.59817261  0.69269231  1
  P  P7  1  0.29605108  0.40182739  0.30730769  1
  P  P8  1  0.00518616  0.09817261  0.19269231  1
  P  P9  1  0.69092705  0.33811079  0.38459815  1
  P  P10  1  0.30907295  0.66188921  0.61540185  1
  P  P11  1  0.58636401  0.83811079  0.88459815  1
  O  O12  1  0.23206891  0.27829275  0.47511679  1
  O  O13  1  0.21395183  0.08797326  0.22830663  1
  O  O14  1  0.66715111  0.66018220  0.84631265  1
  O  O15  1  0.53023172  0.41202674  0.27169337  1
  O  O16  1  0.42252305  0.70661563  0.43037479  1
  O  O17  1  0.78604817  0.91202674  0.77169337  1
  O  O18  1  0.82327913  0.45711377  0.31520587  1
  O  O19  1  0.17672087  0.54288623  0.68479413  1
  O  O20  1  0.82635404  0.16018220  0.34631265  1
  O  O21  1  0.15916821  0.58130964  0.27551127  1
  O  O22  1  0.57747695  0.29338437  0.56962521  1
  O  O23  1  0.46976828  0.58797326  0.72830663  1
  O  O24  1  0.17364596  0.83981780  0.65368735  1
  O  O25  1  0.01452156  0.77829275  0.97511679  1
  O  O26  1  0.01598912  0.91869036  0.22448873  1
  O  O27  1  0.33284889  0.33981780  0.15368735  1
  O  O28  1  0.44048653  0.20661563  0.93037479  1
  O  O29  1  0.40440123  0.95711377  0.81520587  1
  O  O30  1  0.84083179  0.41869036  0.72448873  1
  O  O31  1  0.76793109  0.72170725  0.52488321  1
  O  O32  1  0.59559877  0.04288623  0.18479413  1
  O  O33  1  0.98401088  0.08130964  0.77551127  1
  O  O34  1  0.98547844  0.22170725  0.02488321  1
  O  O35  1  0.55951347  0.79338437  0.06962521  1
