# generated using pymatgen
data_As2Pb4S6ICl
_symmetry_space_group_name_H-M   'P 1'
_cell_length_a   6.79900492
_cell_length_b   9.71726590
_cell_length_c   11.77591459
_cell_angle_alpha   90.00000000
_cell_angle_beta   90.00000000
_cell_angle_gamma   90.00000000
_symmetry_Int_Tables_number   1
_chemical_formula_structural   As2Pb4S6ICl
_chemical_formula_sum   'As4 Pb8 S12 I2 Cl2'
_cell_volume   778.00804765
_cell_formula_units_Z   2
loop_
 _symmetry_equiv_pos_site_id
 _symmetry_equiv_pos_as_xyz
  1  'x, y, z'
loop_
 _atom_site_type_symbol
 _atom_site_label
 _atom_site_symmetry_multiplicity
 _atom_site_fract_x
 _atom_site_fract_y
 _atom_site_fract_z
 _atom_site_occupancy
  As  As0  1  0.50000000  0.94928070  0.16916788  1
  As  As1  1  0.00000000  0.44928070  0.83083212  1
  As  As2  1  0.50000000  0.52404354  0.66918338  1
  As  As3  1  0.00000000  0.02404354  0.33081662  1
  Pb  Pb4  1  0.50000000  0.28333342  0.37169865  1
  Pb  Pb5  1  0.00000000  0.68851071  0.12795553  1
  Pb  Pb6  1  0.50000000  0.76724741  0.42928227  1
  Pb  Pb7  1  0.00000000  0.22018807  0.08283631  1
  Pb  Pb8  1  0.00000000  0.78333342  0.62830135  1
  Pb  Pb9  1  0.50000000  0.72018807  0.91716369  1
  Pb  Pb10  1  0.00000000  0.26724741  0.57071773  1
  Pb  Pb11  1  0.50000000  0.18851071  0.87204447  1
  S  S12  1  0.75114614  0.40336252  0.95508422  1
  S  S13  1  0.24672077  0.07380041  0.45600100  1
  S  S14  1  0.25327923  0.57380041  0.54399900  1
  S  S15  1  0.74672077  0.57380041  0.54399900  1
  S  S16  1  0.00000000  0.68186461  0.85085526  1
  S  S17  1  0.74885386  0.90336252  0.04491578  1
  S  S18  1  0.24885386  0.40336252  0.95508422  1
  S  S19  1  0.25114614  0.90336252  0.04491578  1
  S  S20  1  0.50000000  0.18186461  0.14914474  1
  S  S21  1  0.50000000  0.29262248  0.64826273  1
  S  S22  1  0.75327923  0.07380041  0.45600100  1
  S  S23  1  0.00000000  0.79262248  0.35173727  1
  I  I24  1  0.00000000  0.08518097  0.79114239  1
  I  I25  1  0.50000000  0.58518097  0.20885761  1
  Cl  Cl26  1  0.50000000  0.87171223  0.71670830  1
  Cl  Cl27  1  0.00000000  0.37171223  0.28329170  1
