# generated using pymatgen
data_BaNbTePO8
_symmetry_space_group_name_H-M   'P 1'
_cell_length_a   6.85294986
_cell_length_b   7.69509093
_cell_length_c   27.85648413
_cell_angle_alpha   90.00000000
_cell_angle_beta   90.00000000
_cell_angle_gamma   90.00000000
_symmetry_Int_Tables_number   1
_chemical_formula_structural   BaNbTePO8
_chemical_formula_sum   'Ba8 Nb8 Te8 P8 O64'
_cell_volume   1468.98584845
_cell_formula_units_Z   8
loop_
 _symmetry_equiv_pos_site_id
 _symmetry_equiv_pos_as_xyz
  1  'x, y, z'
loop_
 _atom_site_type_symbol
 _atom_site_label
 _atom_site_symmetry_multiplicity
 _atom_site_fract_x
 _atom_site_fract_y
 _atom_site_fract_z
 _atom_site_occupancy
  Ba  Ba0  1  0.96952944  0.35773000  0.80103883  1
  Ba  Ba1  1  0.46952944  0.14227000  0.19896117  1
  Ba  Ba2  1  0.53047056  0.64227000  0.30103883  1
  Ba  Ba3  1  0.46952944  0.35773000  0.69896117  1
  Ba  Ba4  1  0.96952944  0.14227000  0.30103883  1
  Ba  Ba5  1  0.03047056  0.85773000  0.69896117  1
  Ba  Ba6  1  0.53047056  0.85773000  0.80103883  1
  Ba  Ba7  1  0.03047056  0.64227000  0.19896117  1
  Nb  Nb8  1  0.23628432  0.58444122  0.43534136  1
  Nb  Nb9  1  0.73628432  0.91555878  0.56465864  1
  Nb  Nb10  1  0.76371568  0.08444122  0.06465864  1
  Nb  Nb11  1  0.76371568  0.41555878  0.56465864  1
  Nb  Nb12  1  0.26371568  0.41555878  0.93534136  1
  Nb  Nb13  1  0.26371568  0.08444122  0.43534136  1
  Nb  Nb14  1  0.23628432  0.91555878  0.93534136  1
  Nb  Nb15  1  0.73628432  0.58444122  0.06465864  1
  Te  Te16  1  0.29277213  0.63855942  0.57250687  1
  Te  Te17  1  0.79277213  0.86144058  0.42749313  1
  Te  Te18  1  0.70722787  0.36144058  0.42749313  1
  Te  Te19  1  0.29277213  0.86144058  0.07250687  1
  Te  Te20  1  0.79277213  0.63855942  0.92749313  1
  Te  Te21  1  0.20722787  0.13855942  0.57250687  1
  Te  Te22  1  0.70722787  0.13855942  0.92749313  1
  Te  Te23  1  0.20722787  0.36144058  0.07250687  1
  P  P24  1  0.03497448  0.82288141  0.82312433  1
  P  P25  1  0.46502552  0.32288141  0.82312433  1
  P  P26  1  0.96502552  0.32288141  0.67687567  1
  P  P27  1  0.46502552  0.17711859  0.32312433  1
  P  P28  1  0.53497448  0.82288141  0.67687567  1
  P  P29  1  0.53497448  0.67711859  0.17687567  1
  P  P30  1  0.96502552  0.17711859  0.17687567  1
  P  P31  1  0.03497448  0.67711859  0.32312433  1
  O  O32  1  0.97253247  0.04921840  0.41723451  1
  O  O33  1  0.82114380  0.85065340  0.06843835  1
  O  O34  1  0.19041299  0.88647223  0.86072074  1
  O  O35  1  0.69041299  0.88647223  0.63927926  1
  O  O36  1  0.02746753  0.95078160  0.58276549  1
  O  O37  1  0.14634222  0.71323603  0.78553383  1
  O  O38  1  0.95882362  0.66717366  0.44043490  1
  O  O39  1  0.52746753  0.54921840  0.41723451  1
  O  O40  1  0.67885620  0.14934660  0.56843835  1
  O  O41  1  0.02746753  0.54921840  0.08276549  1
  O  O42  1  0.71650880  0.40694509  0.49653711  1
  O  O43  1  0.67885620  0.35065340  0.06843835  1
  O  O44  1  0.17885620  0.35065340  0.43156165  1
  O  O45  1  0.45882362  0.66717366  0.05956510  1
  O  O46  1  0.45882362  0.83282634  0.55956510  1
  O  O47  1  0.64634222  0.71323603  0.71446617  1
  O  O48  1  0.28349120  0.59305491  0.50346289  1
  O  O49  1  0.87473932  0.70683250  0.84805422  1
  O  O50  1  0.12526068  0.29316750  0.15194578  1
  O  O51  1  0.93124419  0.52331198  0.29859830  1
  O  O52  1  0.43124419  0.52331198  0.20140170  1
  O  O53  1  0.06875581  0.47668802  0.70140170  1
  O  O54  1  0.32114380  0.85065340  0.43156165  1
  O  O55  1  0.19041299  0.61352777  0.36072074  1
  O  O56  1  0.21650880  0.09305491  0.50346289  1
  O  O57  1  0.28349120  0.90694509  0.00346289  1
  O  O58  1  0.80958701  0.38647223  0.63927926  1
  O  O59  1  0.78349120  0.90694509  0.49653711  1
  O  O60  1  0.62526068  0.20683250  0.84805422  1
  O  O61  1  0.04117638  0.16717366  0.05956510  1
  O  O62  1  0.95882362  0.83282634  0.94043490  1
  O  O63  1  0.54117638  0.16717366  0.44043490  1
  O  O64  1  0.35365778  0.28676397  0.28553383  1
  O  O65  1  0.35365778  0.21323603  0.78553383  1
  O  O66  1  0.37473932  0.70683250  0.65194578  1
  O  O67  1  0.69041299  0.61352777  0.13927926  1
  O  O68  1  0.93124419  0.97668802  0.79859830  1
  O  O69  1  0.47253247  0.04921840  0.08276549  1
  O  O70  1  0.06875581  0.02331198  0.20140170  1
  O  O71  1  0.47253247  0.45078160  0.58276549  1
  O  O72  1  0.82114380  0.64934660  0.56843835  1
  O  O73  1  0.43124419  0.97668802  0.70140170  1
  O  O74  1  0.17885620  0.14934660  0.93156165  1
  O  O75  1  0.80958701  0.11352777  0.13927926  1
  O  O76  1  0.37473932  0.79316750  0.15194578  1
  O  O77  1  0.14634222  0.78676397  0.28553383  1
  O  O78  1  0.32114380  0.64934660  0.93156165  1
  O  O79  1  0.71650880  0.09305491  0.99653711  1
  O  O80  1  0.54117638  0.33282634  0.94043490  1
  O  O81  1  0.78349120  0.59305491  0.99653711  1
  O  O82  1  0.56875581  0.02331198  0.29859830  1
  O  O83  1  0.30958701  0.11352777  0.36072074  1
  O  O84  1  0.52746753  0.95078160  0.91723451  1
  O  O85  1  0.64634222  0.78676397  0.21446617  1
  O  O86  1  0.30958701  0.38647223  0.86072074  1
  O  O87  1  0.85365778  0.21323603  0.71446617  1
  O  O88  1  0.12526068  0.20683250  0.65194578  1
  O  O89  1  0.21650880  0.40694509  0.00346289  1
  O  O90  1  0.62526068  0.29316750  0.34805422  1
  O  O91  1  0.85365778  0.28676397  0.21446617  1
  O  O92  1  0.04117638  0.33282634  0.55956510  1
  O  O93  1  0.97253247  0.45078160  0.91723451  1
  O  O94  1  0.87473932  0.79316750  0.34805422  1
  O  O95  1  0.56875581  0.47668802  0.79859830  1
