# generated using pymatgen
data_TeMoWSeS2
_symmetry_space_group_name_H-M   'P 1'
_cell_length_a   3.31319585
_cell_length_b   3.31334307
_cell_length_c   39.32829331
_cell_angle_alpha   89.99974692
_cell_angle_beta   90.00000000
_cell_angle_gamma   119.99853010
_symmetry_Int_Tables_number   1
_chemical_formula_structural   TeMoWSeS2
_chemical_formula_sum   'Te2 Mo2 W2 Se2 S4'
_cell_volume   373.90018400
_cell_formula_units_Z   2
loop_
 _symmetry_equiv_pos_site_id
 _symmetry_equiv_pos_as_xyz
  1  'x, y, z'
loop_
 _atom_site_type_symbol
 _atom_site_label
 _atom_site_symmetry_multiplicity
 _atom_site_fract_x
 _atom_site_fract_y
 _atom_site_fract_z
 _atom_site_occupancy
  Te  Te0  1  0.66667355  0.33334611  0.42202099  1
  Te  Te1  1  0.66665632  0.33331164  0.51986483  1
  Mo  Mo2  1  0.33330400  0.66660800  0.09372923  1
  Mo  Mo3  1  0.66679769  0.33359538  0.65793587  1
  W  W4  1  0.33330546  0.66661093  0.47090837  1
  W  W5  1  0.66662572  0.33325144  0.28032313  1
  Se  Se6  1  0.33329827  0.66659754  0.32314119  1
  Se  Se7  1  0.33324986  0.66650073  0.23748094  1
  S  S8  1  0.33333240  0.66666580  0.69675953  1
  S  S9  1  0.66669891  0.33339682  0.05489492  1
  S  S10  1  0.66673419  0.33346738  0.13254061  1
  S  S11  1  0.33332362  0.66664823  0.61914841  1
