# generated using pymatgen
data_NbP4(SCl)5
_symmetry_space_group_name_H-M   'P 1'
_cell_length_a   7.27244712
_cell_length_b   13.95387287
_cell_length_c   18.47470813
_cell_angle_alpha   90.00000000
_cell_angle_beta   99.19313632
_cell_angle_gamma   90.00000000
_symmetry_Int_Tables_number   1
_chemical_formula_structural   NbP4(SCl)5
_chemical_formula_sum   'Nb4 P16 S20 Cl20'
_cell_volume   1850.71033601
_cell_formula_units_Z   4
loop_
 _symmetry_equiv_pos_site_id
 _symmetry_equiv_pos_as_xyz
  1  'x, y, z'
loop_
 _atom_site_type_symbol
 _atom_site_label
 _atom_site_symmetry_multiplicity
 _atom_site_fract_x
 _atom_site_fract_y
 _atom_site_fract_z
 _atom_site_occupancy
  Nb  Nb0  1  0.80118097  0.69333491  0.52970061  1
  Nb  Nb1  1  0.30118097  0.80666509  0.02970061  1
  Nb  Nb2  1  0.19881903  0.30666509  0.47029939  1
  Nb  Nb3  1  0.69881903  0.19333491  0.97029939  1
  P  P4  1  0.41827454  0.64006580  0.11396909  1
  P  P5  1  0.22523510  0.49233864  0.80886838  1
  P  P6  1  0.20489144  0.94772200  0.29801472  1
  P  P7  1  0.70489144  0.55227800  0.79801472  1
  P  P8  1  0.52907630  0.32846240  0.76035407  1
  P  P9  1  0.27476490  0.99233864  0.69113162  1
  P  P10  1  0.08172546  0.14006580  0.38603091  1
  P  P11  1  0.72523510  0.00766136  0.30886838  1
  P  P12  1  0.47092370  0.67153760  0.23964593  1
  P  P13  1  0.77476490  0.50766136  0.19113162  1
  P  P14  1  0.79510856  0.05227800  0.70198528  1
  P  P15  1  0.29510856  0.44772200  0.20198528  1
  P  P16  1  0.02907630  0.17153760  0.26035407  1
  P  P17  1  0.97092370  0.82846240  0.73964593  1
  P  P18  1  0.91827454  0.85993420  0.61396909  1
  P  P19  1  0.58172546  0.35993420  0.88603091  1
  S  S20  1  0.27792478  0.02786081  0.39742324  1
  S  S21  1  0.22207522  0.52786081  0.10257676  1
  S  S22  1  0.79931817  0.93510665  0.77623518  1
  S  S23  1  0.67202419  0.58345592  0.09247280  1
  S  S24  1  0.57532861  0.39992945  0.20531654  1
  S  S25  1  0.24878184  0.87832070  0.76546991  1
  S  S26  1  0.92467139  0.89992945  0.29468346  1
  S  S27  1  0.74878184  0.62167930  0.26546991  1
  S  S28  1  0.77792478  0.47213919  0.89742324  1
  S  S29  1  0.72207522  0.97213919  0.60257676  1
  S  S30  1  0.42467139  0.60007055  0.79468346  1
  S  S31  1  0.25121816  0.37832070  0.73453009  1
  S  S32  1  0.17202419  0.91654408  0.59247280  1
  S  S33  1  0.20068183  0.06489335  0.22376482  1
  S  S34  1  0.82797581  0.08345592  0.40752720  1
  S  S35  1  0.70068183  0.43510665  0.72376482  1
  S  S36  1  0.29931817  0.56489335  0.27623518  1
  S  S37  1  0.07532861  0.10007055  0.70531654  1
  S  S38  1  0.75121816  0.12167930  0.23453009  1
  S  S39  1  0.32797581  0.41654408  0.90752720  1
  Cl  Cl40  1  0.38224048  0.19721815  0.54793799  1
  Cl  Cl41  1  0.98433727  0.37331163  0.37405558  1
  Cl  Cl42  1  0.58153763  0.70243968  0.61042742  1
  Cl  Cl43  1  0.01566273  0.62668837  0.62594442  1
  Cl  Cl44  1  0.70521860  0.55424849  0.47013023  1
  Cl  Cl45  1  0.20521860  0.94575151  0.97013023  1
  Cl  Cl46  1  0.94707686  0.26896458  0.52993103  1
  Cl  Cl47  1  0.91846237  0.20243968  0.88957258  1
  Cl  Cl48  1  0.41846237  0.29756032  0.38957258  1
  Cl  Cl49  1  0.08153763  0.79756032  0.11042742  1
  Cl  Cl50  1  0.88224048  0.30278185  0.04793799  1
  Cl  Cl51  1  0.29478140  0.44575151  0.52986977  1
  Cl  Cl52  1  0.48433727  0.12668837  0.87405558  1
  Cl  Cl53  1  0.05292314  0.73103542  0.47006897  1
  Cl  Cl54  1  0.61775952  0.80278185  0.45206201  1
  Cl  Cl55  1  0.44707686  0.23103542  0.02993103  1
  Cl  Cl56  1  0.79478140  0.05424849  0.02986977  1
  Cl  Cl57  1  0.51566273  0.87331163  0.12594442  1
  Cl  Cl58  1  0.11775952  0.69721815  0.95206201  1
  Cl  Cl59  1  0.55292314  0.76896458  0.97006897  1
