# generated using pymatgen
data_K2Ge4O9
_symmetry_space_group_name_H-M   'P 1'
_cell_length_a   9.95996665
_cell_length_b   12.05449420
_cell_length_c   12.05451939
_cell_angle_alpha   120.00007232
_cell_angle_beta   90.00000001
_cell_angle_gamma   90.00015232
_symmetry_Int_Tables_number   1
_chemical_formula_structural   K2Ge4O9
_chemical_formula_sum   'K12 Ge24 O54'
_cell_volume   1253.39250035
_cell_formula_units_Z   6
loop_
 _symmetry_equiv_pos_site_id
 _symmetry_equiv_pos_as_xyz
  1  'x, y, z'
loop_
 _atom_site_type_symbol
 _atom_site_label
 _atom_site_symmetry_multiplicity
 _atom_site_fract_x
 _atom_site_fract_y
 _atom_site_fract_z
 _atom_site_occupancy
  K  K0  1  0.07179834  0.99809385  0.66343417  1
  K  K1  1  0.07180456  0.33655979  0.33465900  1
  K  K2  1  0.07180581  0.66533777  0.00190437  1
  K  K3  1  0.57179834  0.99809385  0.33465968  1
  K  K4  1  0.57180581  0.66533777  0.66343339  1
  K  K5  1  0.57180456  0.33655979  0.00190079  1
  K  K6  1  0.92820166  0.00190615  0.33656583  1
  K  K7  1  0.92819544  0.66344021  0.66534100  1
  K  K8  1  0.92819419  0.33466223  0.99809563  1
  K  K9  1  0.42820166  0.00190615  0.66534032  1
  K  K10  1  0.42819419  0.33466223  0.33656661  1
  K  K11  1  0.42819544  0.66344021  0.99809921  1
  Ge  Ge12  1  0.00000000  0.00000000  0.00000000  1
  Ge  Ge13  1  0.50000000  0.00000000  0.00000000  1
  Ge  Ge14  1  0.75000000  1.00000000  0.82354623  1
  Ge  Ge15  1  0.75000070  0.17645181  0.17645112  1
  Ge  Ge16  1  0.74999930  0.82354819  -0.00000070  1
  Ge  Ge17  1  0.25000000  0.00000000  0.17645377  1
  Ge  Ge18  1  0.24999930  0.82354819  0.82354888  1
  Ge  Ge19  1  0.25000070  0.17645181  0.00000070  1
  Ge  Ge20  1  0.78559668  0.84936109  0.51409842  1
  Ge  Ge21  1  0.78559547  0.48589542  0.33526396  1
  Ge  Ge22  1  0.78559681  0.66473579  0.15063518  1
  Ge  Ge23  1  0.28559668  0.84936109  0.33526267  1
  Ge  Ge24  1  0.28559681  0.66473579  0.51410061  1
  Ge  Ge25  1  0.28559547  0.48589542  0.15063147  1
  Ge  Ge26  1  0.21440332  0.15063891  0.48590158  1
  Ge  Ge27  1  0.21440453  0.51410458  0.66473604  1
  Ge  Ge28  1  0.21440319  0.33526421  0.84936482  1
  Ge  Ge29  1  0.71440332  0.15063891  0.66473733  1
  Ge  Ge30  1  0.71440319  0.33526421  0.48589939  1
  Ge  Ge31  1  0.71440453  0.51410458  0.84936853  1
  Ge  Ge32  1  0.53788975  0.66665481  0.33332884  1
  Ge  Ge33  1  0.03788975  0.66665481  0.33332597  1
  Ge  Ge34  1  0.46211025  0.33334519  0.66667116  1
  Ge  Ge35  1  0.96211025  0.33334519  0.66667403  1
  O  O36  1  0.88481504  0.07983363  0.92949469  1
  O  O37  1  0.88481483  0.07050440  0.15033957  1
  O  O38  1  0.88481571  0.84966050  0.92016629  1
  O  O39  1  0.38481504  0.07983363  0.15033895  1
  O  O40  1  0.38481571  0.84966050  0.92949421  1
  O  O41  1  0.38481483  0.07050440  0.92016483  1
  O  O42  1  0.11518496  0.92016637  0.07050531  1
  O  O43  1  0.11518517  0.92949560  0.84966043  1
  O  O44  1  0.11518429  0.15033950  0.07983371  1
  O  O45  1  0.61518496  0.92016637  0.84966105  1
  O  O46  1  0.61518429  0.15033950  0.07050579  1
  O  O47  1  0.61518517  0.92949560  0.07983517  1
  O  O48  1  0.83182273  0.88613746  0.67440600  1
  O  O49  1  0.83182392  0.32558547  0.21172678  1
  O  O50  1  0.83182444  0.78827211  0.11386199  1
  O  O51  1  0.33182273  0.88613746  0.21173146  1
  O  O52  1  0.33182444  0.78827211  0.67441011  1
  O  O53  1  0.33182392  0.32558547  0.11385869  1
  O  O54  1  0.16817727  0.11386254  0.32559400  1
  O  O55  1  0.16817608  0.67441453  0.78827322  1
  O  O56  1  0.16817556  0.21172789  0.88613801  1
  O  O57  1  0.66817727  0.11386254  0.78826854  1
  O  O58  1  0.66817556  0.21172789  0.32558989  1
  O  O59  1  0.66817608  0.67441453  0.88614131  1
  O  O60  1  0.64804401  0.74780693  0.48431790  1
  O  O61  1  0.64804433  0.51567366  0.26348676  1
  O  O62  1  0.64804012  0.73650683  0.25219015  1
  O  O63  1  0.14804401  0.74780693  0.26348903  1
  O  O64  1  0.14804012  0.73650683  0.48431668  1
  O  O65  1  0.14804433  0.51567366  0.25218690  1
  O  O66  1  0.35195599  0.25219307  0.51568210  1
  O  O67  1  0.35195567  0.48432634  0.73651324  1
  O  O68  1  0.35195988  0.26349317  0.74780985  1
  O  O69  1  0.85195599  0.25219307  0.73651097  1
  O  O70  1  0.85195988  0.26349317  0.51568332  1
  O  O71  1  0.85195567  0.48432634  0.74781310  1
  O  O72  1  0.93003357  0.81681792  0.41913185  1
  O  O73  1  0.93003523  0.58086062  0.39768734  1
  O  O74  1  0.93003329  0.60230788  0.18317286  1
  O  O75  1  0.43003357  0.81681792  0.39768607  1
  O  O76  1  0.43003329  0.60230788  0.41913502  1
  O  O77  1  0.43003523  0.58086062  0.18317328  1
  O  O78  1  0.06996643  0.18318208  0.58086815  1
  O  O79  1  0.06996477  0.41913938  0.60231266  1
  O  O80  1  0.06996671  0.39769212  0.81682714  1
  O  O81  1  0.56996643  0.18318208  0.60231393  1
  O  O82  1  0.56996671  0.39769212  0.58086498  1
  O  O83  1  0.56996477  0.41913938  0.81682672  1
  O  O84  1  0.75000000  1.00000000  0.52341798  1
  O  O85  1  0.74999836  0.47657948  0.47658345  1
  O  O86  1  0.75000164  0.52342052  0.00000398  1
  O  O87  1  0.25000000  0.00000000  0.47658202  1
  O  O88  1  0.25000164  0.52342052  0.52341655  1
  O  O89  1  0.24999836  0.47657948  0.99999602  1
