# generated using pymatgen
data_Ba2Ti9O20
_symmetry_space_group_name_H-M   'P 1'
_cell_length_a   7.54871743
_cell_length_b   14.28853137
_cell_length_c   14.51507793
_cell_angle_alpha   89.89245266
_cell_angle_beta   79.56304463
_cell_angle_gamma   84.58228663
_symmetry_Int_Tables_number   1
_chemical_formula_structural   Ba2Ti9O20
_chemical_formula_sum   'Ba8 Ti36 O80'
_cell_volume   1532.63100299
_cell_formula_units_Z   4
loop_
 _symmetry_equiv_pos_site_id
 _symmetry_equiv_pos_as_xyz
  1  'x, y, z'
loop_
 _atom_site_type_symbol
 _atom_site_label
 _atom_site_symmetry_multiplicity
 _atom_site_fract_x
 _atom_site_fract_y
 _atom_site_fract_z
 _atom_site_occupancy
  Ba  Ba0  1  0.49033287  0.24845947  0.27354826  1
  Ba  Ba1  1  0.76146534  0.56013966  0.92389995  1
  Ba  Ba2  1  0.25085932  0.93838035  0.97745402  1
  Ba  Ba3  1  0.74914068  0.06161965  0.02254598  1
  Ba  Ba4  1  0.50631959  0.24964155  0.62809471  1
  Ba  Ba5  1  0.50966713  0.75154053  0.72645174  1
  Ba  Ba6  1  0.23853466  0.43986034  0.07610005  1
  Ba  Ba7  1  0.49368041  0.75035845  0.37190529  1
  Ti  Ti8  1  0.31705633  0.00115148  0.68044464  1
  Ti  Ti9  1  0.95198089  0.16358342  0.18985743  1
  Ti  Ti10  1  0.67869424  0.48967495  0.43420053  1
  Ti  Ti11  1  0.98397139  0.65764330  0.71223005  1
  Ti  Ti12  1  0.68986848  0.50191483  0.64598661  1
  Ti  Ti13  1  0.01602861  0.34235670  0.28776995  1
  Ti  Ti14  1  0.33622660  0.16250085  0.86326551  1
  Ti  Ti15  1  0.69871615  0.32877689  0.05005830  1
  Ti  Ti16  1  0.05041455  0.33763103  0.49141650  1
  Ti  Ti17  1  0.32199134  0.49888226  0.78331492  1
  Ti  Ti18  1  0.68294367  0.99884852  0.31955536  1
  Ti  Ti19  1  0.32034168  0.00777379  0.46637432  1
  Ti  Ti20  1  0.32130576  0.51032505  0.56579947  1
  Ti  Ti21  1  0.04801911  0.83641658  0.81014257  1
  Ti  Ti22  1  0.33174709  0.66814887  0.16297244  1
  Ti  Ti23  1  0.68371534  0.98765238  0.75314895  1
  Ti  Ti24  1  0.67965832  0.99222621  0.53362568  1
  Ti  Ti25  1  0.95500524  0.15574183  0.40012093  1
  Ti  Ti26  1  0.05532507  0.33309068  0.90320214  1
  Ti  Ti27  1  0.31013152  0.49808517  0.35401339  1
  Ti  Ti28  1  0.04361755  0.34684117  0.69534350  1
  Ti  Ti29  1  0.96173084  0.15535108  0.60544932  1
  Ti  Ti30  1  0.04499476  0.84425817  0.59987907  1
  Ti  Ti31  1  0.94958545  0.66236897  0.50858350  1
  Ti  Ti32  1  0.96400219  0.15129001  0.81075195  1
  Ti  Ti33  1  0.67800866  0.50111774  0.21668508  1
  Ti  Ti34  1  0.66377340  0.83749915  0.13673449  1
  Ti  Ti35  1  0.03826916  0.84464892  0.39455068  1
  Ti  Ti36  1  0.03599781  0.84870999  0.18924805  1
  Ti  Ti37  1  0.30203180  0.18077317  0.07054389  1
  Ti  Ti38  1  0.94467493  0.66690932  0.09679786  1
  Ti  Ti39  1  0.95638245  0.65315883  0.30465650  1
  Ti  Ti40  1  0.31628466  0.01234762  0.24685105  1
  Ti  Ti41  1  0.30128385  0.67122311  0.94994170  1
  Ti  Ti42  1  0.69796820  0.81922683  0.92945611  1
  Ti  Ti43  1  0.66825291  0.33185113  0.83702756  1
  O  O44  1  0.83290562  0.24619588  0.90786547  1
  O  O45  1  0.84118406  0.74930876  0.21177707  1
  O  O46  1  0.43985116  0.07455157  0.75855608  1
  O  O47  1  0.50827862  0.24655735  0.82006117  1
  O  O48  1  0.20012172  0.76378036  0.87853420  1
  O  O49  1  0.90324534  0.40923634  0.61318335  1
  O  O50  1  0.41757934  0.60681582  0.05350436  1
  O  O51  1  0.90993468  0.39395647  0.00645890  1
  O  O52  1  0.09733862  0.09270216  0.29157264  1
  O  O53  1  0.75497199  0.58201313  0.32376145  1
  O  O54  1  0.76954845  0.57350673  0.52400611  1
  O  O55  1  0.14807243  0.75868772  0.68497374  1
  O  O56  1  0.43146406  0.06894195  0.55685851  1
  O  O57  1  0.79987828  0.23621964  0.12146580  1
  O  O58  1  0.24502801  0.41798687  0.67623855  1
  O  O59  1  0.85999934  0.23631558  0.51489497  1
  O  O60  1  0.11339280  0.09343826  0.88286413  1
  O  O61  1  0.43001808  0.06748882  0.35193261  1
  O  O62  1  0.10324786  0.09277264  0.48890527  1
  O  O63  1  0.51886899  0.74150223  0.92860153  1
  O  O64  1  0.58242066  0.39318418  0.94649564  1
  O  O65  1  0.09006532  0.60604353  0.99354110  1
  O  O66  1  0.23045155  0.42649327  0.47599389  1
  O  O67  1  0.09670479  0.60329933  0.18973835  1
  O  O68  1  0.20002432  0.25215581  0.96997386  1
  O  O69  1  0.59024055  0.90731726  0.84260692  1
  O  O70  1  0.91020749  0.89941091  0.90921543  1
  O  O71  1  0.42801806  0.57030282  0.45749224  1
  O  O72  1  0.21990764  0.92688657  0.17767307  1
  O  O73  1  0.10519486  0.59312846  0.58959304  1
  O  O74  1  0.48113101  0.25849777  0.07139847  1
  O  O75  1  0.79997568  0.74784419  0.03002614  1
  O  O76  1  0.08979251  0.10058909  0.09078457  1
  O  O77  1  0.13985031  0.75954479  0.28644564  1
  O  O78  1  0.58753520  0.41495271  0.14180673  1
  O  O79  1  0.90266138  0.90729784  0.70842736  1
  O  O80  1  0.55972184  0.43473967  0.33999066  1
  O  O81  1  0.78009236  0.07311343  0.82232693  1
  O  O82  1  0.41246480  0.58504729  0.85819327  1
  O  O83  1  0.57799227  0.89676760  0.03743089  1
  O  O84  1  0.90329521  0.39670067  0.81026165  1
  O  O85  1  0.56853594  0.93105805  0.44314149  1
  O  O86  1  0.57611922  0.42276558  0.74704378  1
  O  O87  1  0.89480514  0.40687154  0.41040696  1
  O  O88  1  0.42388078  0.57723442  0.25295622  1
  O  O89  1  0.56998192  0.93251118  0.64806739  1
  O  O90  1  0.86014969  0.24045521  0.71355436  1
  O  O91  1  0.77800432  0.57756862  0.12357237  1
  O  O92  1  0.89675214  0.90722736  0.51109473  1
  O  O93  1  0.76211190  0.08425832  0.23189184  1
  O  O94  1  0.15881594  0.25069124  0.78822293  1
  O  O95  1  0.85192757  0.24131228  0.31502626  1
  O  O96  1  0.49172138  0.75344265  0.17993883  1
  O  O97  1  0.88660720  0.90656174  0.11713587  1
  O  O98  1  0.10590835  0.57848074  0.78062090  1
  O  O99  1  0.14071303  0.25689634  0.18090381  1
  O  O100  1  0.14952128  0.26464117  0.58581147  1
  O  O101  1  0.40975945  0.09268274  0.15739308  1
  O  O102  1  0.89360557  0.90823282  0.31112106  1
  O  O103  1  0.09675466  0.59076366  0.38681665  1
  O  O104  1  0.16709438  0.75380412  0.09213453  1
  O  O105  1  0.23788810  0.91574168  0.76810816  1
  O  O106  1  0.56014884  0.92544843  0.24144392  1
  O  O107  1  0.42200773  0.10323240  0.96256911  1
  O  O108  1  0.23427630  0.92482385  0.57623845  1
  O  O109  1  0.44027816  0.56526033  0.66000934  1
  O  O110  1  0.89409165  0.42151926  0.21937910  1
  O  O111  1  0.85873576  0.73799850  0.61355528  1
  O  O112  1  0.57198194  0.42969718  0.54250776  1
  O  O113  1  0.22952000  0.92080205  0.37979862  1
  O  O114  1  0.22199568  0.42243138  0.87642763  1
  O  O115  1  0.76572370  0.07517615  0.42376155  1
  O  O116  1  0.77048000  0.07919795  0.62020138  1
  O  O117  1  0.85928697  0.74310366  0.81909619  1
  O  O118  1  0.14000066  0.76368442  0.48510503  1
  O  O119  1  0.85047872  0.73535883  0.41418853  1
  O  O120  1  0.22978018  0.41211509  0.28116948  1
  O  O121  1  0.77021982  0.58788491  0.71883052  1
  O  O122  1  0.14126424  0.26200150  0.38644472  1
  O  O123  1  0.10639443  0.09176718  0.68887894  1
