# generated using pymatgen
data_Ca2Zr(SiO3)4
_symmetry_space_group_name_H-M   'P 1'
_cell_length_a   5.38893743
_cell_length_b   7.50350503
_cell_length_c   13.84285370
_cell_angle_alpha   90.00000000
_cell_angle_beta   90.00000000
_cell_angle_gamma   108.88818630
_symmetry_Int_Tables_number   1
_chemical_formula_structural   Ca2Zr(SiO3)4
_chemical_formula_sum   'Ca4 Zr2 Si8 O24'
_cell_volume   529.60724567
_cell_formula_units_Z   2
loop_
 _symmetry_equiv_pos_site_id
 _symmetry_equiv_pos_as_xyz
  1  'x, y, z'
loop_
 _atom_site_type_symbol
 _atom_site_label
 _atom_site_symmetry_multiplicity
 _atom_site_fract_x
 _atom_site_fract_y
 _atom_site_fract_z
 _atom_site_occupancy
  Ca  Ca0  1  0.00000000  0.50000000  0.00000000  1
  Ca  Ca1  1  0.83477934  0.18618672  0.25000000  1
  Ca  Ca2  1  0.16522066  0.81381328  0.75000000  1
  Ca  Ca3  1  0.00000000  0.50000000  0.50000000  1
  Zr  Zr4  1  0.00000000  0.00000000  0.50000000  1
  Zr  Zr5  1  0.00000000  0.00000000  0.00000000  1
  Si  Si6  1  0.56803267  0.61553750  0.63972879  1
  Si  Si7  1  0.56675072  0.18217795  0.86238703  1
  Si  Si8  1  0.56803267  0.61553750  0.86027121  1
  Si  Si9  1  0.43324928  0.81782205  0.13761297  1
  Si  Si10  1  0.43196733  0.38446250  0.13972879  1
  Si  Si11  1  0.56675072  0.18217795  0.63761297  1
  Si  Si12  1  0.43324928  0.81782205  0.36238703  1
  Si  Si13  1  0.43196733  0.38446250  0.36027121  1
  O  O14  1  0.20594768  0.84240064  0.06792883  1
  O  O15  1  0.27509479  0.62178550  0.86741350  1
  O  O16  1  0.26807001  0.04551784  0.88121381  1
  O  O17  1  0.40302692  0.59425628  0.12305895  1
  O  O18  1  0.78787700  0.74361185  0.93470797  1
  O  O19  1  0.69401342  0.68722012  0.75000000  1
  O  O20  1  0.59697308  0.40574372  0.87694105  1
  O  O21  1  0.30598658  0.31277988  0.25000000  1
  O  O22  1  0.72490521  0.37821450  0.36741350  1
  O  O23  1  0.62967980  0.13719379  0.75000000  1
  O  O24  1  0.37032020  0.86280621  0.25000000  1
  O  O25  1  0.59697308  0.40574372  0.62305895  1
  O  O26  1  0.73192999  0.95448216  0.11878619  1
  O  O27  1  0.20594768  0.84240064  0.43207117  1
  O  O28  1  0.21212300  0.25638815  0.06529203  1
  O  O29  1  0.79405232  0.15759936  0.93207117  1
  O  O30  1  0.78787700  0.74361185  0.56529203  1
  O  O31  1  0.26807001  0.04551784  0.61878619  1
  O  O32  1  0.27509479  0.62178550  0.63258650  1
  O  O33  1  0.40302692  0.59425628  0.37694105  1
  O  O34  1  0.72490521  0.37821450  0.13258650  1
  O  O35  1  0.21212300  0.25638815  0.43470797  1
  O  O36  1  0.73192999  0.95448216  0.38121381  1
  O  O37  1  0.79405232  0.15759936  0.56792883  1
