# generated using pymatgen
data_K4La6OsI14
_symmetry_space_group_name_H-M   'P 1'
_cell_length_a   13.37422288
_cell_length_b   13.37422288
_cell_length_c   25.34424570
_cell_angle_alpha   90.00000000
_cell_angle_beta   90.00000000
_cell_angle_gamma   90.00000000
_symmetry_Int_Tables_number   1
_chemical_formula_structural   K4La6OsI14
_chemical_formula_sum   'K16 La24 Os4 I56'
_cell_volume   4533.32111357
_cell_formula_units_Z   4
loop_
 _symmetry_equiv_pos_site_id
 _symmetry_equiv_pos_as_xyz
  1  'x, y, z'
loop_
 _atom_site_type_symbol
 _atom_site_label
 _atom_site_symmetry_multiplicity
 _atom_site_fract_x
 _atom_site_fract_y
 _atom_site_fract_z
 _atom_site_occupancy
  K  K0  1  0.95656038  0.18865994  0.42543386  1
  K  K1  1  0.95656038  0.31134006  0.92543386  1
  K  K2  1  0.04343962  0.81134006  0.57456614  1
  K  K3  1  0.81134006  0.45656038  0.57456614  1
  K  K4  1  0.81134006  0.04343962  0.07456614  1
  K  K5  1  0.31134006  0.95656038  0.42543386  1
  K  K6  1  0.18865994  0.54343962  0.42543386  1
  K  K7  1  0.54343962  0.18865994  0.92543386  1
  K  K8  1  0.68865994  0.45656038  0.07456614  1
  K  K9  1  0.45656038  0.81134006  0.07456614  1
  K  K10  1  0.18865994  0.95656038  0.92543386  1
  K  K11  1  0.04343962  0.68865994  0.07456614  1
  K  K12  1  0.54343962  0.31134006  0.42543386  1
  K  K13  1  0.68865994  0.04343962  0.57456614  1
  K  K14  1  0.31134006  0.54343962  0.92543386  1
  K  K15  1  0.45656038  0.68865994  0.57456614  1
  La  La16  1  0.75000000  0.75000000  0.43095336  1
  La  La17  1  0.12395327  0.07838859  0.18279409  1
  La  La18  1  0.57838859  0.62395327  0.31720591  1
  La  La19  1  0.07838859  0.12395327  0.68279409  1
  La  La20  1  0.25000000  0.25000000  0.06904664  1
  La  La21  1  0.12395327  0.42161141  0.68279409  1
  La  La22  1  0.92161141  0.87604673  0.31720591  1
  La  La23  1  0.62395327  0.57838859  0.81720591  1
  La  La24  1  0.87604673  0.57838859  0.31720591  1
  La  La25  1  0.07838859  0.37604673  0.18279409  1
  La  La26  1  0.37604673  0.42161141  0.18279409  1
  La  La27  1  0.42161141  0.12395327  0.18279409  1
  La  La28  1  0.75000000  0.75000000  0.93095336  1
  La  La29  1  0.75000000  0.75000000  0.20266743  1
  La  La30  1  0.42161141  0.37604673  0.68279409  1
  La  La31  1  0.57838859  0.87604673  0.81720591  1
  La  La32  1  0.75000000  0.75000000  0.70266743  1
  La  La33  1  0.87604673  0.92161141  0.81720591  1
  La  La34  1  0.25000000  0.25000000  0.79733257  1
  La  La35  1  0.92161141  0.62395327  0.81720591  1
  La  La36  1  0.37604673  0.07838859  0.68279409  1
  La  La37  1  0.25000000  0.25000000  0.56904664  1
  La  La38  1  0.25000000  0.25000000  0.29733257  1
  La  La39  1  0.62395327  0.92161141  0.31720591  1
  Os  Os40  1  0.75000000  0.75000000  0.81621137  1
  Os  Os41  1  0.75000000  0.75000000  0.31621137  1
  Os  Os42  1  0.25000000  0.25000000  0.68378863  1
  Os  Os43  1  0.25000000  0.25000000  0.18378863  1
  I  I44  1  0.44204660  0.09991085  0.05477731  1
  I  I45  1  0.25000000  0.25000000  0.43267851  1
  I  I46  1  0.87168814  0.53835313  0.18587254  1
  I  I47  1  0.90008915  0.94204660  0.94522269  1
  I  I48  1  0.62831186  0.53835313  0.68587254  1
  I  I49  1  0.05795340  0.40008915  0.05477731  1
  I  I50  1  0.91338908  0.19939044  0.17754217  1
  I  I51  1  0.59991085  0.55795340  0.94522269  1
  I  I52  1  0.30060956  0.58661092  0.67754217  1
  I  I53  1  0.46164687  0.12831186  0.31412746  1
  I  I54  1  0.62831186  0.96164687  0.18587254  1
  I  I55  1  0.75000000  0.75000000  0.06732149  1
  I  I56  1  0.19939044  0.91338908  0.67754217  1
  I  I57  1  0.53835313  0.62831186  0.18587254  1
  I  I58  1  0.40008915  0.44204660  0.05477731  1
  I  I59  1  0.12831186  0.46164687  0.81412746  1
  I  I60  1  0.37168814  0.46164687  0.31412746  1
  I  I61  1  0.03835313  0.37168814  0.31412746  1
  I  I62  1  0.55795340  0.59991085  0.44522269  1
  I  I63  1  0.58661092  0.30060956  0.17754217  1
  I  I64  1  0.19939044  0.58661092  0.17754217  1
  I  I65  1  0.46164687  0.37168814  0.81412746  1
  I  I66  1  0.37168814  0.03835313  0.81412746  1
  I  I67  1  0.55795340  0.90008915  0.94522269  1
  I  I68  1  0.75000000  0.25000000  0.50000000  1
  I  I69  1  0.53835313  0.87168814  0.68587254  1
  I  I70  1  0.69939044  0.41338908  0.32245783  1
  I  I71  1  0.80060956  0.41338908  0.82245783  1
  I  I72  1  0.75000000  0.75000000  0.56732149  1
  I  I73  1  0.09991085  0.05795340  0.05477731  1
  I  I74  1  0.58661092  0.19939044  0.67754217  1
  I  I75  1  0.09991085  0.44204660  0.55477731  1
  I  I76  1  0.80060956  0.08661092  0.32245783  1
  I  I77  1  0.30060956  0.91338908  0.17754217  1
  I  I78  1  0.08661092  0.80060956  0.82245783  1
  I  I79  1  0.59991085  0.94204660  0.44522269  1
  I  I80  1  0.40008915  0.05795340  0.55477731  1
  I  I81  1  0.75000000  0.25000000  0.00000000  1
  I  I82  1  0.87168814  0.96164687  0.68587254  1
  I  I83  1  0.90008915  0.55795340  0.44522269  1
  I  I84  1  0.94204660  0.59991085  0.94522269  1
  I  I85  1  0.69939044  0.08661092  0.82245783  1
  I  I86  1  0.25000000  0.75000000  0.00000000  1
  I  I87  1  0.91338908  0.30060956  0.67754217  1
  I  I88  1  0.96164687  0.87168814  0.18587254  1
  I  I89  1  0.41338908  0.80060956  0.32245783  1
  I  I90  1  0.03835313  0.12831186  0.81412746  1
  I  I91  1  0.05795340  0.09991085  0.55477731  1
  I  I92  1  0.12831186  0.03835313  0.31412746  1
  I  I93  1  0.08661092  0.69939044  0.32245783  1
  I  I94  1  0.41338908  0.69939044  0.82245783  1
  I  I95  1  0.25000000  0.75000000  0.50000000  1
  I  I96  1  0.44204660  0.40008915  0.55477731  1
  I  I97  1  0.96164687  0.62831186  0.68587254  1
  I  I98  1  0.94204660  0.90008915  0.44522269  1
  I  I99  1  0.25000000  0.25000000  0.93267851  1
