# generated using pymatgen
data_In5Br7
_symmetry_space_group_name_H-M   'P 1'
_cell_length_a   13.46401048
_cell_length_b   13.46400991
_cell_length_c   19.86303606
_cell_angle_alpha   79.85414166
_cell_angle_beta   79.85414210
_cell_angle_gamma   89.98971437
_symmetry_Int_Tables_number   1
_chemical_formula_structural   In5Br7
_chemical_formula_sum   'In40 Br56'
_cell_volume   3487.26044191
_cell_formula_units_Z   8
loop_
 _symmetry_equiv_pos_site_id
 _symmetry_equiv_pos_as_xyz
  1  'x, y, z'
loop_
 _atom_site_type_symbol
 _atom_site_label
 _atom_site_symmetry_multiplicity
 _atom_site_fract_x
 _atom_site_fract_y
 _atom_site_fract_z
 _atom_site_occupancy
  In  In0  1  0.69570369  0.56954335  0.24763763  1
  In  In1  1  0.49608019  0.01361428  0.13673945  1
  In  In2  1  0.07241799  0.92758201  0.75000000  1
  In  In3  1  0.81448598  0.97402839  0.58675301  1
  In  In4  1  0.50391981  0.98638572  0.86326055  1
  In  In5  1  0.19252083  0.80747917  0.25000000  1
  In  In6  1  0.73825104  0.30435482  0.09818263  1
  In  In7  1  0.52574653  0.35983842  0.91463931  1
  In  In8  1  0.18551402  0.02597161  0.41324699  1
  In  In9  1  0.43045665  0.30429631  0.25236237  1
  In  In10  1  0.02597161  0.18551402  0.91324699  1
  In  In11  1  0.23802382  0.14387472  0.09948225  1
  In  In12  1  0.30435482  0.73825104  0.59818263  1
  In  In13  1  0.41878032  -0.00197582  0.63423146  1
  In  In14  1  0.26174896  0.69564518  0.90181737  1
  In  In15  1  0.56954335  0.69570369  0.74763763  1
  In  In16  1  0.85612528  0.76197618  0.40051775  1
  In  In17  1  0.49125784  0.81650616  0.36286789  1
  In  In18  1  -0.00197582  0.41878032  0.13423146  1
  In  In19  1  0.31716930  0.07629588  0.86508678  1
  In  In20  1  0.80747917  0.19252083  0.75000000  1
  In  In21  1  0.68283070  0.92370412  0.13491322  1
  In  In22  1  0.18349384  0.50874216  0.13713211  1
  In  In23  1  1.00197582  0.58121968  0.86576854  1
  In  In24  1  0.92758201  0.07241799  0.25000000  1
  In  In25  1  0.58121968  1.00197582  0.36576854  1
  In  In26  1  0.47425347  0.64016158  0.08536069  1
  In  In27  1  0.14387472  0.23802382  0.59948225  1
  In  In28  1  0.07629588  0.31716930  0.36508678  1
  In  In29  1  0.69564518  0.26174896  0.40181737  1
  In  In30  1  0.81650616  0.49125784  0.86286789  1
  In  In31  1  0.01361428  0.49608019  0.63673945  1
  In  In32  1  0.64016158  0.47425347  0.58536069  1
  In  In33  1  0.97402839  0.81448598  0.08675301  1
  In  In34  1  0.98638572  0.50391981  0.36326055  1
  In  In35  1  0.76197618  0.85612528  0.90051775  1
  In  In36  1  0.30429631  0.43045665  0.75236237  1
  In  In37  1  0.35983842  0.52574653  0.41463931  1
  In  In38  1  0.92370412  0.68283070  0.63491322  1
  In  In39  1  0.50874216  0.18349384  0.63713211  1
  Br  Br40  1  0.29961760  0.79514652  0.42363478  1
  Br  Br41  1  0.79514652  0.29961760  0.92363478  1
  Br  Br42  1  0.70280235  0.76316636  0.07428435  1
  Br  Br43  1  0.48205014  0.73571051  0.25288173  1
  Br  Br44  1  0.05483325  0.62819822  0.43199145  1
  Br  Br45  1  0.86395866  0.35541199  0.24872697  1
  Br  Br46  1  0.14426240  0.23544978  0.25565897  1
  Br  Br47  1  0.50285799  0.20864586  0.08717543  1
  Br  Br48  1  0.23544978  0.14426240  0.75565897  1
  Br  Br49  1  0.96848531  0.16136736  0.43895967  1
  Br  Br50  1  0.01594318  0.36335617  0.75203586  1
  Br  Br51  1  0.94516675  0.37180178  0.56800855  1
  Br  Br52  1  0.76316636  0.70280235  0.57428435  1
  Br  Br53  1  0.75189732  0.99467194  0.41392905  1
  Br  Br54  1  0.52139538  0.87231704  0.56623270  1
  Br  Br55  1  0.83863264  0.03151469  0.06104033  1
  Br  Br56  1  0.99467194  0.75189732  0.91392905  1
  Br  Br57  1  0.00532806  0.24810268  0.08607095  1
  Br  Br58  1  0.12768296  0.47860462  0.93376730  1
  Br  Br59  1  0.62819822  0.05483325  0.93199145  1
  Br  Br60  1  0.47860462  0.12768296  0.43376730  1
  Br  Br61  1  0.16136736  0.96848531  0.93895967  1
  Br  Br62  1  0.29719765  0.23683364  0.92571565  1
  Br  Br63  1  0.43823920  0.33895144  0.56303840  1
  Br  Br64  1  0.85573760  0.76455022  0.74434103  1
  Br  Br65  1  0.36335617  0.01594318  0.25203586  1
  Br  Br66  1  0.66104856  0.56176080  0.93696160  1
  Br  Br67  1  0.24810268  0.00532806  0.58607095  1
  Br  Br68  1  0.58416888  0.46147577  0.15093780  1
  Br  Br69  1  0.03992817  0.91656894  0.34897083  1
  Br  Br70  1  0.79135414  0.49714201  0.41282457  1
  Br  Br71  1  0.35541199  0.86395866  0.74872697  1
  Br  Br72  1  0.41583112  0.53852423  0.84906220  1
  Br  Br73  1  0.20485348  0.70038240  0.07636522  1
  Br  Br74  1  0.63664383  0.98405682  0.74796414  1
  Br  Br75  1  0.87231704  0.52139538  0.06623270  1
  Br  Br76  1  0.53852423  0.41583112  0.34906220  1
  Br  Br77  1  0.13604134  0.64458801  0.75127303  1
  Br  Br78  1  0.96007183  0.08343106  0.65102917  1
  Br  Br79  1  0.91656894  0.03992817  0.84897083  1
  Br  Br80  1  0.37180178  0.94516675  0.06800855  1
  Br  Br81  1  0.49714201  0.79135414  0.91282457  1
  Br  Br82  1  0.76455022  0.85573760  0.24434103  1
  Br  Br83  1  0.64458801  0.13604134  0.25127303  1
  Br  Br84  1  0.56176080  0.66104856  0.43696160  1
  Br  Br85  1  0.70038240  0.20485348  0.57636522  1
  Br  Br86  1  0.20864586  0.50285799  0.58717543  1
  Br  Br87  1  0.23683364  0.29719765  0.42571565  1
  Br  Br88  1  0.98405682  0.63664383  0.24796414  1
  Br  Br89  1  0.03151469  0.83863264  0.56104033  1
  Br  Br90  1  0.51794986  0.26428949  0.74711827  1
  Br  Br91  1  0.33895144  0.43823920  0.06303840  1
  Br  Br92  1  0.08343106  0.96007183  0.15102917  1
  Br  Br93  1  0.46147577  0.58416888  0.65093780  1
  Br  Br94  1  0.26428949  0.51794986  0.24711827  1
  Br  Br95  1  0.73571051  0.48205014  0.75288173  1
