# generated using pymatgen
data_K2Mn2Zn4Si4O15
_symmetry_space_group_name_H-M   'P 1'
_cell_length_a   5.27917861
_cell_length_b   9.19033494
_cell_length_c   9.56840937
_cell_angle_alpha   118.70018444
_cell_angle_beta   106.01350809
_cell_angle_gamma   90.00069109
_symmetry_Int_Tables_number   1
_chemical_formula_structural   K2Mn2Zn4Si4O15
_chemical_formula_sum   'K2 Mn2 Zn4 Si4 O15'
_cell_volume   386.53722491
_cell_formula_units_Z   1
loop_
 _symmetry_equiv_pos_site_id
 _symmetry_equiv_pos_as_xyz
  1  'x, y, z'
loop_
 _atom_site_type_symbol
 _atom_site_label
 _atom_site_symmetry_multiplicity
 _atom_site_fract_x
 _atom_site_fract_y
 _atom_site_fract_z
 _atom_site_occupancy
  K  K0  1  0.67988496  0.61677327  0.23338055  1
  K  K1  1  0.44615832  0.38321924  0.76656397  1
  Mn  Mn2  1  0.61044716  0.15880820  0.00002413  1
  Mn  Mn3  1  0.61045012  0.84119615  0.99998073  1
  Zn  Zn4  1  0.78531904  0.99563947  0.61385208  1
  Zn  Zn5  1  0.78530230  0.61821758  0.61384714  1
  Zn  Zn6  1  0.17151830  0.38178503  0.38615433  1
  Zn  Zn7  1  0.17150396  0.00434822  0.38613000  1
  Si  Si8  1  0.05632822  0.67141637  0.99998075  1
  Si  Si9  1  0.68619414  0.19426425  0.38850673  1
  Si  Si10  1  0.29763236  0.80575303  0.61151025  1
  Si  Si11  1  0.05632974  0.32854287  0.00000311  1
  O  O12  1  0.35961326  0.67597007  0.00000644  1
  O  O13  1  0.39450550  0.21438927  0.42877034  1
  O  O14  1  0.83170356  0.66643874  0.83912682  1
  O  O15  1  0.38573626  0.90957235  0.52444258  1
  O  O16  1  0.45195314  0.90618696  0.81236148  1
  O  O17  1  0.83172231  0.17267065  0.83914730  1
  O  O18  1  0.95817730  0.49995077  0.99992575  1
  O  O19  1  0.86132501  0.38514999  0.47556038  1
  O  O20  1  0.99257550  0.33361128  0.16089369  1
  O  O21  1  0.35961391  0.32404139  0.00002689  1
  O  O22  1  0.96569466  0.78563929  0.57125176  1
  O  O23  1  0.38573073  0.61487522  0.52444547  1
  O  O24  1  0.86136993  0.09045491  0.47558517  1
  O  O25  1  0.99256884  0.82726107  0.16086476  1
  O  O26  1  0.63964148  0.09382437  0.18765740  1
