# generated using pymatgen
data_V2Ni(TeO5)2
_symmetry_space_group_name_H-M   'P 1'
_cell_length_a   4.88224033
_cell_length_b   6.42493569
_cell_length_c   6.62844585
_cell_angle_alpha   84.62442257
_cell_angle_beta   69.22940423
_cell_angle_gamma   73.03845653
_symmetry_Int_Tables_number   1
_chemical_formula_structural   V2Ni(TeO5)2
_chemical_formula_sum   'V2 Ni1 Te2 O10'
_cell_volume   185.94062560
_cell_formula_units_Z   1
loop_
 _symmetry_equiv_pos_site_id
 _symmetry_equiv_pos_as_xyz
  1  'x, y, z'
loop_
 _atom_site_type_symbol
 _atom_site_label
 _atom_site_symmetry_multiplicity
 _atom_site_fract_x
 _atom_site_fract_y
 _atom_site_fract_z
 _atom_site_occupancy
  V  V0  1  0.64411821  0.61053153  0.62929241  1
  V  V1  1  0.35588179  0.38946847  0.37070759  1
  Ni  Ni2  1  0.00000000  0.50000000  0.00000000  1
  Te  Te3  1  0.28176099  0.90695041  0.21977135  1
  Te  Te4  1  0.71823901  0.09304959  0.78022865  1
  O  O5  1  0.04347146  0.52993801  0.29231946  1
  O  O6  1  0.65618529  0.34705966  0.13688063  1
  O  O7  1  0.29478062  0.16662308  0.96225791  1
  O  O8  1  0.59612132  0.32430222  0.57418975  1
  O  O9  1  0.71851686  0.88408753  0.58955108  1
  O  O10  1  0.28148314  0.11591247  0.41044892  1
  O  O11  1  0.40387868  0.67569778  0.42581025  1
  O  O12  1  0.70521938  0.83337692  0.03774209  1
  O  O13  1  0.34381471  0.65294034  0.86311937  1
  O  O14  1  0.95652854  0.47006199  0.70768054  1
