# generated using pymatgen
data_K3Bi5(AsO4)6
_symmetry_space_group_name_H-M   'P 1'
_cell_length_a   7.31358299
_cell_length_b   9.90449843
_cell_length_c   18.02159754
_cell_angle_alpha   83.08434809
_cell_angle_beta   78.29097273
_cell_angle_gamma   68.33918726
_symmetry_Int_Tables_number   1
_chemical_formula_structural   K3Bi5(AsO4)6
_chemical_formula_sum   'K6 Bi10 As12 O48'
_cell_volume   1186.52144226
_cell_formula_units_Z   2
loop_
 _symmetry_equiv_pos_site_id
 _symmetry_equiv_pos_as_xyz
  1  'x, y, z'
loop_
 _atom_site_type_symbol
 _atom_site_label
 _atom_site_symmetry_multiplicity
 _atom_site_fract_x
 _atom_site_fract_y
 _atom_site_fract_z
 _atom_site_occupancy
  K  K0  1  0.80595345  0.74995927  0.74994493  1
  K  K1  1  0.81470835  0.06867269  0.58228976  1
  K  K2  1  0.03409397  0.56859601  0.08226316  1
  K  K3  1  0.96590603  0.43140399  0.91773684  1
  K  K4  1  0.19404655  0.25004073  0.25005507  1
  K  K5  1  0.18529165  0.93132731  0.41771024  1
  Bi  Bi6  1  0.88506682  0.13832711  0.79841067  1
  Bi  Bi7  1  0.73273910  0.69919382  0.52723123  1
  Bi  Bi8  1  0.54085267  0.19929656  0.02721735  1
  Bi  Bi9  1  0.34116355  0.75001048  0.74998870  1
  Bi  Bi10  1  0.67806531  0.63843952  0.29847160  1
  Bi  Bi11  1  0.32193469  0.36156048  0.70152840  1
  Bi  Bi12  1  0.45914733  0.80070344  0.97278265  1
  Bi  Bi13  1  0.11493318  0.86167289  0.20158933  1
  Bi  Bi14  1  0.26726090  0.30080618  0.47276877  1
  Bi  Bi15  1  0.65883645  0.24998952  0.25001130  1
  As  As16  1  0.05060809  0.15250056  0.08587383  1
  As  As17  1  0.83707245  0.42018116  0.65403910  1
  As  As18  1  0.94939191  0.84749944  0.91412617  1
  As  As19  1  0.16292755  0.57981884  0.34596090  1
  As  As20  1  0.21110964  0.65244315  0.58582861  1
  As  As21  1  0.78889036  0.34755685  0.41417139  1
  As  As22  1  0.58876298  0.92016854  0.15402992  1
  As  As23  1  0.47678769  0.47485632  0.88373414  1
  As  As24  1  0.41123702  0.07983146  0.84597008  1
  As  As25  1  0.33505619  0.02513199  0.61621767  1
  As  As26  1  0.52321231  0.52514368  0.11626586  1
  As  As27  1  0.66494381  0.97486801  0.38378233  1
  O  O28  1  0.03625924  0.84942573  0.81481263  1
  O  O29  1  0.12937808  0.75537145  0.96601575  1
  O  O30  1  0.69538024  0.53420311  0.42268713  1
  O  O31  1  0.66688594  0.48364191  0.18734510  1
  O  O32  1  0.78287036  0.75968158  0.91778424  1
  O  O33  1  0.33311406  0.51635809  0.81265490  1
  O  O34  1  0.59350977  0.90908329  0.05966028  1
  O  O35  1  0.03956597  0.25971522  0.41776889  1
  O  O36  1  0.00757376  0.58201219  0.28373845  1
  O  O37  1  0.75646390  0.92443886  0.46719988  1
  O  O38  1  0.30461976  0.46579689  0.57731287  1
  O  O39  1  0.96043403  0.74028478  0.58223111  1
  O  O40  1  0.60218700  0.08914228  0.15808716  1
  O  O41  1  0.39464243  0.17267618  0.63104413  1
  O  O42  1  0.15216006  0.96583272  0.07737844  1
  O  O43  1  0.65070640  0.58917018  0.65807738  1
  O  O44  1  0.79926842  0.34957047  0.31486094  1
  O  O45  1  0.78408307  0.78302947  0.18819795  1
  O  O46  1  0.24353610  0.07556114  0.53280012  1
  O  O47  1  0.64785817  0.57552183  0.03284848  1
  O  O48  1  0.20073158  0.65042953  0.68513906  1
  O  O49  1  0.39781300  0.91085772  0.84191284  1
  O  O50  1  0.54786551  0.62366249  0.87879573  1
  O  O51  1  0.60535757  0.82732382  0.36895587  1
  O  O52  1  0.21712964  0.24031842  0.08221576  1
  O  O53  1  0.21591693  0.21697053  0.81180205  1
  O  O54  1  0.37331314  0.91808340  0.21628353  1
  O  O55  1  0.87062192  0.24462855  0.03398425  1
  O  O56  1  0.45004387  0.12368661  0.37878729  1
  O  O57  1  0.34929360  0.41082982  0.34192262  1
  O  O58  1  0.83819659  0.01636024  0.31269534  1
  O  O59  1  0.64911821  0.25541293  0.46607912  1
  O  O60  1  0.54995613  0.87631339  0.62121271  1
  O  O61  1  0.45213449  0.37633751  0.12120427  1
  O  O62  1  0.40649023  0.09091671  0.94033972  1
  O  O63  1  0.25542496  0.71692595  0.31182002  1
  O  O64  1  0.35088179  0.74458707  0.53392088  1
  O  O65  1  0.84783994  0.03416728  0.92262156  1
  O  O66  1  0.93768905  0.40910316  0.55965129  1
  O  O67  1  0.16180341  0.98363976  0.68730466  1
  O  O68  1  0.06231095  0.59089684  0.44034871  1
  O  O69  1  0.99242624  0.41798781  0.71626155  1
  O  O70  1  0.74457504  0.28307405  0.68817998  1
  O  O71  1  0.69864284  0.32727258  0.86892000  1
  O  O72  1  0.96374076  0.15057427  0.18518737  1
  O  O73  1  0.35214183  0.42447817  0.96715152  1
  O  O74  1  0.62668686  0.08191660  0.78371647  1
  O  O75  1  0.30135716  0.67272742  0.13108000  1
