# generated using pymatgen
data_LiV(IO4)2
_symmetry_space_group_name_H-M   'P 1'
_cell_length_a   5.31626914
_cell_length_b   10.09191662
_cell_length_c   12.71224717
_cell_angle_alpha   106.45219816
_cell_angle_beta   90.00000000
_cell_angle_gamma   90.00000000
_symmetry_Int_Tables_number   1
_chemical_formula_structural   LiV(IO4)2
_chemical_formula_sum   'Li4 V4 I8 O32'
_cell_volume   654.10439747
_cell_formula_units_Z   4
loop_
 _symmetry_equiv_pos_site_id
 _symmetry_equiv_pos_as_xyz
  1  'x, y, z'
loop_
 _atom_site_type_symbol
 _atom_site_label
 _atom_site_symmetry_multiplicity
 _atom_site_fract_x
 _atom_site_fract_y
 _atom_site_fract_z
 _atom_site_occupancy
  Li  Li0  1  0.76556322  0.80028240  0.56363678  1
  Li  Li1  1  0.26556322  0.69971760  0.93636322  1
  Li  Li2  1  0.23443678  0.19971760  0.43636322  1
  Li  Li3  1  0.73443678  0.30028240  0.06363678  1
  V  V4  1  0.72197395  0.78287303  0.04994910  1
  V  V5  1  0.22197395  0.71712697  0.45005090  1
  V  V6  1  0.77802605  0.28287303  0.54994910  1
  V  V7  1  0.27802605  0.21712697  0.95005090  1
  I  I8  1  0.81748305  0.90588972  0.83068134  1
  I  I9  1  0.30504206  0.08784197  0.67127452  1
  I  I10  1  0.19495794  0.58784197  0.17127452  1
  I  I11  1  0.31748305  0.59411028  0.66931866  1
  I  I12  1  0.68251695  0.40588972  0.33068134  1
  I  I13  1  0.18251695  0.09411028  0.16931866  1
  I  I14  1  0.69495794  0.91215803  0.32872548  1
  I  I15  1  0.80504206  0.41215803  0.82872548  1
  O  O16  1  0.58717791  0.81489841  0.42180252  1
  O  O17  1  0.08064532  0.51786316  0.82341233  1
  O  O18  1  0.07159414  0.21848296  0.29318133  1
  O  O19  1  0.57159414  0.28151704  0.20681867  1
  O  O20  1  0.41935468  0.01786316  0.32341233  1
  O  O21  1  0.55672105  0.32078506  0.43565008  1
  O  O22  1  0.12909372  0.72897277  0.30275406  1
  O  O23  1  0.44327895  0.67921494  0.56434992  1
  O  O24  1  0.05672105  0.17921494  0.06434992  1
  O  O25  1  0.01969790  0.37879215  0.53131120  1
  O  O26  1  0.11987556  0.87636895  0.51872691  1
  O  O27  1  0.07708788  0.02975233  0.83958418  1
  O  O28  1  0.91282209  0.31489841  0.92180252  1
  O  O29  1  0.57708788  0.47024767  0.66041582  1
  O  O30  1  0.41282209  0.18510159  0.57819748  1
  O  O31  1  0.37090628  0.22897277  0.80275406  1
  O  O32  1  0.91935468  0.48213684  0.17658767  1
  O  O33  1  0.08717791  0.68510159  0.07819748  1
  O  O34  1  0.87090628  0.27102723  0.69724594  1
  O  O35  1  0.48030210  0.87879215  0.03131120  1
  O  O36  1  0.62909372  0.77102723  0.19724594  1
  O  O37  1  0.92291212  0.97024767  0.16041582  1
  O  O38  1  0.42840586  0.71848296  0.79318133  1
  O  O39  1  0.98030210  0.62120785  0.46868880  1
  O  O40  1  0.38012444  0.37636895  0.01872691  1
  O  O41  1  0.92840586  0.78151704  0.70681867  1
  O  O42  1  0.94327895  0.82078506  0.93565008  1
  O  O43  1  0.42291212  0.52975233  0.33958418  1
  O  O44  1  0.51969790  0.12120785  0.96868880  1
  O  O45  1  0.88012444  0.12363105  0.48127309  1
  O  O46  1  0.58064532  0.98213684  0.67658767  1
  O  O47  1  0.61987556  0.62363105  0.98127309  1
