# generated using pymatgen
data_LiSn2(PO4)3
_symmetry_space_group_name_H-M   'P 1'
_cell_length_a   8.85335044
_cell_length_b   8.85335057
_cell_length_c   8.85335038
_cell_angle_alpha   59.31655943
_cell_angle_beta   59.31655894
_cell_angle_gamma   59.31655921
_symmetry_Int_Tables_number   1
_chemical_formula_structural   LiSn2(PO4)3
_chemical_formula_sum   'Li2 Sn4 P6 O24'
_cell_volume   483.05548499
_cell_formula_units_Z   2
loop_
 _symmetry_equiv_pos_site_id
 _symmetry_equiv_pos_as_xyz
  1  'x, y, z'
loop_
 _atom_site_type_symbol
 _atom_site_label
 _atom_site_symmetry_multiplicity
 _atom_site_fract_x
 _atom_site_fract_y
 _atom_site_fract_z
 _atom_site_occupancy
  Li  Li0  1  0.00000000  0.00000000  0.00000000  1
  Li  Li1  1  0.50000000  0.50000000  0.50000000  1
  Sn  Sn2  1  0.14291946  0.14291946  0.14291946  1
  Sn  Sn3  1  0.64291946  0.64291946  0.64291946  1
  Sn  Sn4  1  0.85708054  0.85708054  0.85708054  1
  Sn  Sn5  1  0.35708054  0.35708054  0.35708054  1
  P  P6  1  0.95570046  0.25000000  0.54429954  1
  P  P7  1  0.75000000  0.45570046  0.04429954  1
  P  P8  1  0.04429954  0.75000000  0.45570046  1
  P  P9  1  0.54429954  0.95570046  0.25000000  1
  P  P10  1  0.45570046  0.04429954  0.75000000  1
  P  P11  1  0.25000000  0.54429954  0.95570046  1
  O  O12  1  0.11289017  0.30407240  0.50958900  1
  O  O13  1  0.56001519  0.76655509  0.41369794  1
  O  O14  1  0.93998481  0.08630206  0.73344491  1
  O  O15  1  0.76655509  0.41369794  0.56001519  1
  O  O16  1  0.43998481  0.23344491  0.58630206  1
  O  O17  1  0.80407240  0.61289017  0.00958900  1
  O  O18  1  0.88710983  0.69592760  0.49041100  1
  O  O19  1  0.49041100  0.88710983  0.69592760  1
  O  O20  1  0.00958900  0.80407240  0.61289017  1
  O  O21  1  0.58630206  0.43998481  0.23344491  1
  O  O22  1  0.30407240  0.50958900  0.11289017  1
  O  O23  1  0.19592760  0.38710983  0.99041100  1
  O  O24  1  0.41369794  0.56001519  0.76655509  1
  O  O25  1  0.50958900  0.11289017  0.30407240  1
  O  O26  1  0.26655509  0.06001519  0.91369794  1
  O  O27  1  0.08630206  0.73344491  0.93998481  1
  O  O28  1  0.38710983  0.99041100  0.19592760  1
  O  O29  1  0.23344491  0.58630206  0.43998481  1
  O  O30  1  0.69592760  0.49041100  0.88710983  1
  O  O31  1  0.99041100  0.19592760  0.38710983  1
  O  O32  1  0.06001519  0.91369794  0.26655509  1
  O  O33  1  0.73344491  0.93998481  0.08630206  1
  O  O34  1  0.91369794  0.26655509  0.06001519  1
  O  O35  1  0.61289017  0.00958900  0.80407240  1
