# generated using pymatgen
data_PrCu(MoO4)2
_symmetry_space_group_name_H-M   'P 1'
_cell_length_a   10.09320111
_cell_length_b   10.53351705
_cell_length_c   15.02929507
_cell_angle_alpha   90.00000000
_cell_angle_beta   90.00000000
_cell_angle_gamma   90.00000000
_symmetry_Int_Tables_number   1
_chemical_formula_structural   PrCu(MoO4)2
_chemical_formula_sum   'Pr8 Cu8 Mo16 O64'
_cell_volume   1597.86815092
_cell_formula_units_Z   8
loop_
 _symmetry_equiv_pos_site_id
 _symmetry_equiv_pos_as_xyz
  1  'x, y, z'
loop_
 _atom_site_type_symbol
 _atom_site_label
 _atom_site_symmetry_multiplicity
 _atom_site_fract_x
 _atom_site_fract_y
 _atom_site_fract_z
 _atom_site_occupancy
  Pr  Pr0  1  0.77714287  0.03490048  0.10361947  1
  Pr  Pr1  1  0.27714287  0.46509952  0.10361947  1
  Pr  Pr2  1  0.22285713  0.46509952  0.60361947  1
  Pr  Pr3  1  0.72285713  0.53490048  0.89638053  1
  Pr  Pr4  1  0.77714287  0.53490048  0.39638053  1
  Pr  Pr5  1  0.27714287  0.96509952  0.39638053  1
  Pr  Pr6  1  0.72285713  0.03490048  0.60361947  1
  Pr  Pr7  1  0.22285713  0.96509952  0.89638053  1
  Cu  Cu8  1  0.19440363  0.81899758  0.69391475  1
  Cu  Cu9  1  0.30559637  0.81899758  0.19391475  1
  Cu  Cu10  1  0.80559637  0.18100242  0.30608525  1
  Cu  Cu11  1  0.69440363  0.68100242  0.69391475  1
  Cu  Cu12  1  0.80559637  0.68100242  0.19391475  1
  Cu  Cu13  1  0.69440363  0.18100242  0.80608525  1
  Cu  Cu14  1  0.19440363  0.31899758  0.80608525  1
  Cu  Cu15  1  0.30559637  0.31899758  0.30608525  1
  Mo  Mo16  1  0.49770075  0.27867701  0.44168169  1
  Mo  Mo17  1  0.17133337  0.10286984  0.15342523  1
  Mo  Mo18  1  0.67133337  0.89713016  0.34657477  1
  Mo  Mo19  1  0.17133337  0.60286984  0.34657477  1
  Mo  Mo20  1  0.99770075  0.22132299  0.44168169  1
  Mo  Mo21  1  0.99770075  0.72132299  0.05831831  1
  Mo  Mo22  1  0.00229925  0.77867701  0.55831831  1
  Mo  Mo23  1  0.32866663  0.10286984  0.65342523  1
  Mo  Mo24  1  0.32866663  0.60286984  0.84657477  1
  Mo  Mo25  1  0.82866663  0.39713016  0.65342523  1
  Mo  Mo26  1  0.82866663  0.89713016  0.84657477  1
  Mo  Mo27  1  0.50229925  0.72132299  0.55831831  1
  Mo  Mo28  1  0.00229925  0.27867701  0.94168169  1
  Mo  Mo29  1  0.49770075  0.77867701  0.05831831  1
  Mo  Mo30  1  0.50229925  0.22132299  0.94168169  1
  Mo  Mo31  1  0.67133337  0.39713016  0.15342523  1
  O  O32  1  0.11474087  0.68460273  0.63145009  1
  O  O33  1  0.24470469  0.98712683  0.72587867  1
  O  O34  1  0.39518118  0.33320969  0.99450261  1
  O  O35  1  0.00352375  0.41225379  0.66518430  1
  O  O36  1  0.60481882  0.16679031  0.49450261  1
  O  O37  1  0.25529531  0.48712683  0.27412133  1
  O  O38  1  0.59208324  0.13542646  0.02425124  1
  O  O39  1  0.24470469  0.48712683  0.77412133  1
  O  O40  1  0.89518118  0.16679031  0.99450261  1
  O  O41  1  0.40791676  0.36457354  0.52425124  1
  O  O42  1  0.90271003  0.38436857  0.87599653  1
  O  O43  1  0.59728997  0.38436857  0.37599653  1
  O  O44  1  0.78578968  0.92169980  0.95993264  1
  O  O45  1  0.72568747  0.73885557  0.31575770  1
  O  O46  1  0.27431253  0.26114443  0.68424230  1
  O  O47  1  0.28578968  0.57830020  0.95993264  1
  O  O48  1  0.39518118  0.83320969  0.50549739  1
  O  O49  1  0.40271003  0.61563143  0.62400347  1
  O  O50  1  0.09728997  0.61563143  0.12400347  1
  O  O51  1  0.88525913  0.31539727  0.36854991  1
  O  O52  1  0.38525913  0.68460273  0.13145009  1
  O  O53  1  0.21421032  0.57830020  0.45993264  1
  O  O54  1  0.71421032  0.42169980  0.04006736  1
  O  O55  1  0.99647625  0.08774621  0.16518430  1
  O  O56  1  0.59208324  0.63542646  0.47574876  1
  O  O57  1  0.27431253  0.76114443  0.81575770  1
  O  O58  1  0.90271003  0.88436857  0.62400347  1
  O  O59  1  0.77431253  0.23885557  0.68424230  1
  O  O60  1  0.49647625  0.91225379  0.33481570  1
  O  O61  1  0.72568747  0.23885557  0.18424230  1
  O  O62  1  0.59728997  0.88436857  0.12400347  1
  O  O63  1  0.22568747  0.26114443  0.18424230  1
  O  O64  1  0.71421032  0.92169980  0.45993264  1
  O  O65  1  0.90791676  0.13542646  0.52425124  1
  O  O66  1  0.90791676  0.63542646  0.97574876  1
  O  O67  1  0.11474087  0.18460273  0.86854991  1
  O  O68  1  0.40271003  0.11563143  0.87599653  1
  O  O69  1  0.25529531  0.98712683  0.22587867  1
  O  O70  1  0.61474087  0.81539727  0.63145009  1
  O  O71  1  0.38525913  0.18460273  0.36854991  1
  O  O72  1  0.50352375  0.08774621  0.66518430  1
  O  O73  1  0.88525913  0.81539727  0.13145009  1
  O  O74  1  0.09208324  0.86457354  0.47574876  1
  O  O75  1  0.10481882  0.33320969  0.49450261  1
  O  O76  1  0.09208324  0.36457354  0.02425124  1
  O  O77  1  0.74470469  0.51287317  0.72587867  1
  O  O78  1  0.75529531  0.01287317  0.27412133  1
  O  O79  1  0.40791676  0.86457354  0.97574876  1
  O  O80  1  0.22568747  0.76114443  0.31575770  1
  O  O81  1  0.60481882  0.66679031  0.00549739  1
  O  O82  1  0.89518118  0.66679031  0.50549739  1
  O  O83  1  0.09728997  0.11563143  0.37599653  1
  O  O84  1  0.74470469  0.01287317  0.77412133  1
  O  O85  1  0.00352375  0.91225379  0.83481570  1
  O  O86  1  0.21421032  0.07830020  0.04006736  1
  O  O87  1  0.77431253  0.73885557  0.81575770  1
  O  O88  1  0.78578968  0.42169980  0.54006736  1
  O  O89  1  0.99647625  0.58774621  0.33481570  1
  O  O90  1  0.75529531  0.51287317  0.22587867  1
  O  O91  1  0.28578968  0.07830020  0.54006736  1
  O  O92  1  0.61474087  0.31539727  0.86854991  1
  O  O93  1  0.50352375  0.58774621  0.83481570  1
  O  O94  1  0.49647625  0.41225379  0.16518430  1
  O  O95  1  0.10481882  0.83320969  0.00549739  1
