# generated using pymatgen
data_NaMo2P3O13
_symmetry_space_group_name_H-M   'P 1'
_cell_length_a   6.46516857
_cell_length_b   7.58691709
_cell_length_c   11.35779677
_cell_angle_alpha   75.44815624
_cell_angle_beta   85.34279854
_cell_angle_gamma   79.38509991
_symmetry_Int_Tables_number   1
_chemical_formula_structural   NaMo2P3O13
_chemical_formula_sum   'Na2 Mo4 P6 O26'
_cell_volume   529.65155797
_cell_formula_units_Z   2
loop_
 _symmetry_equiv_pos_site_id
 _symmetry_equiv_pos_as_xyz
  1  'x, y, z'
loop_
 _atom_site_type_symbol
 _atom_site_label
 _atom_site_symmetry_multiplicity
 _atom_site_fract_x
 _atom_site_fract_y
 _atom_site_fract_z
 _atom_site_occupancy
  Na  Na0  1  0.32091925  0.58644431  0.77130366  1
  Na  Na1  1  0.67908075  0.41355569  0.22869634  1
  Mo  Mo2  1  0.78267146  0.79454521  0.90982079  1
  Mo  Mo3  1  0.23944581  0.19554154  0.59607349  1
  Mo  Mo4  1  0.21732854  0.20545479  0.09017921  1
  Mo  Mo5  1  0.76055419  0.80445846  0.40392651  1
  P  P6  1  0.87868506  0.53061626  0.68795764  1
  P  P7  1  0.26303274  0.93284916  0.88893161  1
  P  P8  1  0.73803761  0.20369979  0.66476766  1
  P  P9  1  0.26196239  0.79630021  0.33523234  1
  P  P10  1  0.12131494  0.46938374  0.31204236  1
  P  P11  1  0.73696726  0.06715084  0.11106839  1
  O  O12  1  0.89365541  0.54142795  0.34632742  1
  O  O13  1  0.07782260  0.78481642  0.42977996  1
  O  O14  1  0.24687809  0.64233197  0.25941117  1
  O  O15  1  0.52737564  0.19600870  0.13243374  1
  O  O16  1  0.26792589  0.98747845  0.00986497  1
  O  O17  1  0.09702115  0.80612960  0.89406981  1
  O  O18  1  0.47385914  0.72889291  0.39666400  1
  O  O19  1  0.31031144  0.97401512  0.58187212  1
  O  O20  1  0.22065843  0.10787482  0.78453071  1
  O  O21  1  0.74799631  0.65527217  0.58177955  1
  O  O22  1  0.90297885  0.19387040  0.10593019  1
  O  O23  1  0.47262436  0.80399130  0.86756626  1
  O  O24  1  0.25200369  0.34472783  0.41822045  1
  O  O25  1  0.13127666  0.38029821  0.20549208  1
  O  O26  1  0.24523990  0.98308379  0.24796382  1
  O  O27  1  0.92217740  0.21518358  0.57022004  1
  O  O28  1  0.76425369  0.63066312  0.04387446  1
  O  O29  1  0.75312191  0.35766803  0.74058883  1
  O  O30  1  0.77934157  0.89212518  0.21546929  1
  O  O31  1  0.75476010  0.01691621  0.75203618  1
  O  O32  1  0.23574631  0.36933688  0.95612554  1
  O  O33  1  0.10634459  0.45857205  0.65367258  1
  O  O34  1  0.52614086  0.27110709  0.60333600  1
  O  O35  1  0.86872334  0.61970179  0.79450792  1
  O  O36  1  0.68968856  0.02598488  0.41812788  1
  O  O37  1  0.73207411  0.01252155  0.99013503  1
