# generated using pymatgen
data_SrV3O7
_symmetry_space_group_name_H-M   'P 1'
_cell_length_a   5.37594562
_cell_length_b   10.58123744
_cell_length_c   11.38875661
_cell_angle_alpha   90.00000000
_cell_angle_beta   90.00000000
_cell_angle_gamma   90.00000000
_symmetry_Int_Tables_number   1
_chemical_formula_structural   SrV3O7
_chemical_formula_sum   'Sr4 V12 O28'
_cell_volume   647.83981983
_cell_formula_units_Z   4
loop_
 _symmetry_equiv_pos_site_id
 _symmetry_equiv_pos_as_xyz
  1  'x, y, z'
loop_
 _atom_site_type_symbol
 _atom_site_label
 _atom_site_symmetry_multiplicity
 _atom_site_fract_x
 _atom_site_fract_y
 _atom_site_fract_z
 _atom_site_occupancy
  Sr  Sr0  1  0.75616774  0.75000000  0.42714534  1
  Sr  Sr1  1  0.25616774  0.25000000  0.07285466  1
  Sr  Sr2  1  0.24383226  0.25000000  0.57285466  1
  Sr  Sr3  1  0.74383226  0.75000000  0.92714534  1
  V  V4  1  0.75488095  0.97974330  0.19149661  1
  V  V5  1  0.25488095  0.02025670  0.30850339  1
  V  V6  1  0.24511905  0.47974330  0.80850339  1
  V  V7  1  0.74511905  0.52025670  0.69149661  1
  V  V8  1  0.24511905  0.02025670  0.80850339  1
  V  V9  1  0.74511905  0.97974330  0.69149661  1
  V  V10  1  0.75488095  0.52025670  0.19149661  1
  V  V11  1  0.25488095  0.47974330  0.30850339  1
  V  V12  1  0.25491746  0.75000000  0.21170012  1
  V  V13  1  0.75491746  0.25000000  0.28829988  1
  V  V14  1  0.74508254  0.25000000  0.78829988  1
  V  V15  1  0.24508254  0.75000000  0.71170012  1
  O  O16  1  0.49148585  0.88068514  0.27419629  1
  O  O17  1  0.99148585  0.11931486  0.22580371  1
  O  O18  1  0.50851415  0.38068514  0.72580371  1
  O  O19  1  0.00851415  0.61931486  0.77419629  1
  O  O20  1  0.50851415  0.11931486  0.72580371  1
  O  O21  1  0.00851415  0.88068514  0.77419629  1
  O  O22  1  0.49148585  0.61931486  0.27419629  1
  O  O23  1  0.99148585  0.38068514  0.22580371  1
  O  O24  1  0.01829180  0.88072728  0.27428850  1
  O  O25  1  0.51829180  0.11927272  0.22571150  1
  O  O26  1  0.98170820  0.38072728  0.72571150  1
  O  O27  1  0.48170820  0.61927272  0.77428850  1
  O  O28  1  0.98170820  0.11927272  0.72571150  1
  O  O29  1  0.48170820  0.88072728  0.77428850  1
  O  O30  1  0.01829180  0.61927272  0.27428850  1
  O  O31  1  0.51829180  0.38072728  0.22571150  1
  O  O32  1  0.75422016  0.93927859  0.05083704  1
  O  O33  1  0.25422016  0.06072141  0.44916296  1
  O  O34  1  0.24577984  0.43927859  0.94916296  1
  O  O35  1  0.74577984  0.56072141  0.55083704  1
  O  O36  1  0.24577984  0.06072141  0.94916296  1
  O  O37  1  0.74577984  0.93927859  0.55083704  1
  O  O38  1  0.75422016  0.56072141  0.05083704  1
  O  O39  1  0.25422016  0.43927859  0.44916296  1
  O  O40  1  0.25563244  0.75000000  0.06601360  1
  O  O41  1  0.75563244  0.25000000  0.43398640  1
  O  O42  1  0.74436756  0.25000000  0.93398640  1
  O  O43  1  0.24436756  0.75000000  0.56601360  1
