# generated using pymatgen
data_Ca10(Al2Ge3)3
_symmetry_space_group_name_H-M   'P 1'
_cell_length_a   10.71080869
_cell_length_b   10.71080818
_cell_length_c   10.71080816
_cell_angle_alpha   81.37178327
_cell_angle_beta   81.37178370
_cell_angle_gamma   81.37178273
_symmetry_Int_Tables_number   1
_chemical_formula_structural   Ca10(Al2Ge3)3
_chemical_formula_sum   'Ca20 Al12 Ge18'
_cell_volume   1190.83998380
_cell_formula_units_Z   2
loop_
 _symmetry_equiv_pos_site_id
 _symmetry_equiv_pos_as_xyz
  1  'x, y, z'
loop_
 _atom_site_type_symbol
 _atom_site_label
 _atom_site_symmetry_multiplicity
 _atom_site_fract_x
 _atom_site_fract_y
 _atom_site_fract_z
 _atom_site_occupancy
  Ca  Ca0  1  0.20707971  0.50000000  0.79292029  1
  Ca  Ca1  1  0.79292029  0.20707971  0.50000000  1
  Ca  Ca2  1  0.70855718  0.00000000  0.29144282  1
  Ca  Ca3  1  0.20707971  0.79292029  0.50000000  1
  Ca  Ca4  1  0.00000000  0.29144282  0.70855718  1
  Ca  Ca5  1  0.34403519  0.34403519  0.05320557  1
  Ca  Ca6  1  0.65596481  0.94679443  0.65596481  1
  Ca  Ca7  1  0.00000000  0.70855718  0.29144282  1
  Ca  Ca8  1  0.65596481  0.65596481  0.94679443  1
  Ca  Ca9  1  0.05320557  0.34403519  0.34403519  1
  Ca  Ca10  1  0.79292029  0.50000000  0.20707971  1
  Ca  Ca11  1  0.50000000  0.79292029  0.20707971  1
  Ca  Ca12  1  0.94679443  0.65596481  0.65596481  1
  Ca  Ca13  1  0.00000000  0.00000000  0.00000000  1
  Ca  Ca14  1  0.29144282  1.00000000  0.70855718  1
  Ca  Ca15  1  0.34403519  0.05320557  0.34403519  1
  Ca  Ca16  1  0.50000000  0.50000000  0.50000000  1
  Ca  Ca17  1  0.70855718  0.29144282  0.00000000  1
  Ca  Ca18  1  0.50000000  0.20707971  0.79292029  1
  Ca  Ca19  1  0.29144282  0.70855718  1.00000000  1
  Al  Al20  1  0.96887123  0.68242645  0.96887123  1
  Al  Al21  1  0.71458914  0.49967491  0.71458914  1
  Al  Al22  1  0.28541086  0.28541086  0.50032509  1
  Al  Al23  1  0.68242645  0.96887123  0.96887123  1
  Al  Al24  1  0.31757355  0.03112877  0.03112877  1
  Al  Al25  1  0.71458914  0.71458914  0.49967491  1
  Al  Al26  1  0.50032509  0.28541086  0.28541086  1
  Al  Al27  1  0.03112877  0.31757355  0.03112877  1
  Al  Al28  1  0.28541086  0.50032509  0.28541086  1
  Al  Al29  1  0.49967491  0.71458914  0.71458914  1
  Al  Al30  1  0.96887123  0.96887123  0.68242645  1
  Al  Al31  1  0.03112877  0.03112877  0.31757355  1
  Ge  Ge32  1  0.89086874  0.89086874  0.48638159  1
  Ge  Ge33  1  0.48684766  0.48684766  0.81407724  1
  Ge  Ge34  1  0.81407724  0.48684766  0.48684766  1
  Ge  Ge35  1  0.10913126  0.51361841  0.10913126  1
  Ge  Ge36  1  0.79547957  0.79547957  0.11639038  1
  Ge  Ge37  1  0.51315234  0.51315234  0.18592276  1
  Ge  Ge38  1  0.88360962  0.20452043  0.20452043  1
  Ge  Ge39  1  0.51361841  0.10913126  0.10913126  1
  Ge  Ge40  1  0.48638159  0.89086874  0.89086874  1
  Ge  Ge41  1  0.11639038  0.79547957  0.79547957  1
  Ge  Ge42  1  0.89086874  0.48638159  0.89086874  1
  Ge  Ge43  1  0.20452043  0.88360962  0.20452043  1
  Ge  Ge44  1  0.20452043  0.20452043  0.88360962  1
  Ge  Ge45  1  0.10913126  0.10913126  0.51361841  1
  Ge  Ge46  1  0.51315234  0.18592276  0.51315234  1
  Ge  Ge47  1  0.48684766  0.81407724  0.48684766  1
  Ge  Ge48  1  0.79547957  0.11639038  0.79547957  1
  Ge  Ge49  1  0.18592276  0.51315234  0.51315234  1
