# generated using pymatgen
data_Te2PdBr6
_symmetry_space_group_name_H-M   'P 1'
_cell_length_a   9.32595851
_cell_length_b   17.11217831
_cell_length_c   19.80934425
_cell_angle_alpha   116.36123584
_cell_angle_beta   90.00000000
_cell_angle_gamma   90.00000000
_symmetry_Int_Tables_number   1
_chemical_formula_structural   Te2PdBr6
_chemical_formula_sum   'Te16 Pd8 Br48'
_cell_volume   2832.58456894
_cell_formula_units_Z   8
loop_
 _symmetry_equiv_pos_site_id
 _symmetry_equiv_pos_as_xyz
  1  'x, y, z'
loop_
 _atom_site_type_symbol
 _atom_site_label
 _atom_site_symmetry_multiplicity
 _atom_site_fract_x
 _atom_site_fract_y
 _atom_site_fract_z
 _atom_site_occupancy
  Te  Te0  1  0.65344048  0.51811773  0.64073617  1
  Te  Te1  1  0.71012206  0.33936224  0.45022219  1
  Te  Te2  1  0.21012206  0.66063776  0.04977781  1
  Te  Te3  1  0.28987794  0.66063776  0.54977781  1
  Te  Te4  1  0.78987794  0.33936224  0.95022219  1
  Te  Te5  1  0.13741779  0.13134162  0.64435619  1
  Te  Te6  1  0.15344048  0.48188227  0.85926383  1
  Te  Te7  1  0.22127262  0.10751609  0.45350353  1
  Te  Te8  1  0.34655952  0.48188227  0.35926383  1
  Te  Te9  1  0.77872738  0.89248391  0.54649647  1
  Te  Te10  1  0.84655952  0.51811773  0.14073617  1
  Te  Te11  1  0.86258221  0.86865838  0.35564381  1
  Te  Te12  1  0.27872738  0.10751609  0.95350353  1
  Te  Te13  1  0.72127262  0.89248391  0.04649647  1
  Te  Te14  1  0.63741779  0.86865838  0.85564381  1
  Te  Te15  1  0.36258221  0.13134162  0.14435619  1
  Pd  Pd16  1  0.83579200  0.50278299  0.00639155  1
  Pd  Pd17  1  0.16342347  0.00577148  0.51238139  1
  Pd  Pd18  1  0.33657653  0.00577148  0.01238139  1
  Pd  Pd19  1  0.16420800  0.49721701  0.99360845  1
  Pd  Pd20  1  0.66342347  0.99422852  0.98761861  1
  Pd  Pd21  1  0.33579200  0.49721701  0.49360845  1
  Pd  Pd22  1  0.66420800  0.50278299  0.50639155  1
  Pd  Pd23  1  0.83657653  0.99422852  0.48761861  1
  Br  Br24  1  0.51544169  0.86535145  0.50869744  1
  Br  Br25  1  0.66462698  0.72854715  0.87356360  1
  Br  Br26  1  0.10557714  0.93699775  0.60144537  1
  Br  Br27  1  0.82073485  0.36123179  0.12637199  1
  Br  Br28  1  0.12120440  0.33433227  0.90648366  1
  Br  Br29  1  0.89442286  0.06300225  0.39855463  1
  Br  Br30  1  0.39585834  0.13626293  0.69045010  1
  Br  Br31  1  0.33537302  0.27145285  0.12643640  1
  Br  Br32  1  0.17926515  0.63876821  0.87362801  1
  Br  Br33  1  0.17546821  0.86365988  0.39529077  1
  Br  Br34  1  0.67926515  0.36123179  0.62637199  1
  Br  Br35  1  0.87879560  0.66566773  0.09351634  1
  Br  Br36  1  0.74228527  0.27642885  0.30872180  1
  Br  Br37  1  0.41775696  0.44275237  0.82197635  1
  Br  Br38  1  0.10414166  0.13626293  0.19045010  1
  Br  Br39  1  0.33667890  0.48116970  0.61353261  1
  Br  Br40  1  0.77645352  0.98134866  0.18478513  1
  Br  Br41  1  0.32073485  0.63876821  0.37362801  1
  Br  Br42  1  0.83667890  0.51883030  0.88646739  1
  Br  Br43  1  0.32453179  0.86365988  0.89529077  1
  Br  Br44  1  0.16462698  0.27145285  0.62643640  1
  Br  Br45  1  0.48455831  0.13464855  0.49130256  1
  Br  Br46  1  0.27645352  0.01865134  0.31521487  1
  Br  Br47  1  0.60414166  0.86373707  0.30954990  1
  Br  Br48  1  0.75771473  0.27642885  0.80872180  1
  Br  Br49  1  0.66332110  0.51883030  0.38646739  1
  Br  Br50  1  0.97857497  0.34483839  0.47600768  1
  Br  Br51  1  0.82453179  0.13634012  0.60470923  1
  Br  Br52  1  0.89585834  0.86373707  0.80954990  1
  Br  Br53  1  0.52142503  0.34483839  0.97600768  1
  Br  Br54  1  0.37879560  0.33433227  0.40648366  1
  Br  Br55  1  0.72354648  0.98134866  0.68478513  1
  Br  Br56  1  0.22354648  0.01865134  0.81521487  1
  Br  Br57  1  0.83537302  0.72854715  0.37356360  1
  Br  Br58  1  0.47857497  0.65516161  0.02399232  1
  Br  Br59  1  0.08224304  0.44275237  0.32197635  1
  Br  Br60  1  0.91775696  0.55724763  0.67802365  1
  Br  Br61  1  0.24228527  0.72357115  0.19127820  1
  Br  Br62  1  0.60557714  0.06300225  0.89855463  1
  Br  Br63  1  0.16332110  0.48116970  0.11353261  1
  Br  Br64  1  0.62120440  0.66566773  0.59351634  1
  Br  Br65  1  0.67546821  0.13634012  0.10470923  1
  Br  Br66  1  0.25771473  0.72357115  0.69127820  1
  Br  Br67  1  0.01544169  0.13464855  0.99130256  1
  Br  Br68  1  0.39442286  0.93699775  0.10144537  1
  Br  Br69  1  0.58224304  0.55724763  0.17802365  1
  Br  Br70  1  0.02142503  0.65516161  0.52399232  1
  Br  Br71  1  0.98455831  0.86535145  0.00869744  1
