# generated using pymatgen
data_Rb2ZnBr4
_symmetry_space_group_name_H-M   'P 1'
_cell_length_a   7.82895838
_cell_length_b   9.89086702
_cell_length_c   13.73107106
_cell_angle_alpha   90.00000000
_cell_angle_beta   90.00000000
_cell_angle_gamma   90.00000000
_symmetry_Int_Tables_number   1
_chemical_formula_structural   Rb2ZnBr4
_chemical_formula_sum   'Rb8 Zn4 Br16'
_cell_volume   1063.26804483
_cell_formula_units_Z   4
loop_
 _symmetry_equiv_pos_site_id
 _symmetry_equiv_pos_as_xyz
  1  'x, y, z'
loop_
 _atom_site_type_symbol
 _atom_site_label
 _atom_site_symmetry_multiplicity
 _atom_site_fract_x
 _atom_site_fract_y
 _atom_site_fract_z
 _atom_site_occupancy
  Rb  Rb0  1  0.25000000  0.98454094  0.17394115  1
  Rb  Rb1  1  0.75000000  0.87457784  0.40547272  1
  Rb  Rb2  1  0.75000000  0.37457784  0.09452728  1
  Rb  Rb3  1  0.25000000  0.62542216  0.90547272  1
  Rb  Rb4  1  0.25000000  0.12542216  0.59452728  1
  Rb  Rb5  1  0.75000000  0.51545906  0.67394115  1
  Rb  Rb6  1  0.75000000  0.01545906  0.82605885  1
  Rb  Rb7  1  0.25000000  0.48454094  0.32605885  1
  Zn  Zn8  1  0.25000000  0.72559506  0.57757595  1
  Zn  Zn9  1  0.75000000  0.77440494  0.07757595  1
  Zn  Zn10  1  0.25000000  0.22559506  0.92242405  1
  Zn  Zn11  1  0.75000000  0.27440494  0.42242405  1
  Br  Br12  1  0.25000000  0.31932772  0.08717762  1
  Br  Br13  1  0.99816631  0.31619090  0.84183574  1
  Br  Br14  1  0.99816631  0.81619090  0.65816426  1
  Br  Br15  1  0.00183369  0.68380910  0.15816426  1
  Br  Br16  1  0.50183369  0.31619090  0.84183574  1
  Br  Br17  1  0.25000000  0.98116973  0.91653350  1
  Br  Br18  1  0.75000000  0.51883027  0.41653350  1
  Br  Br19  1  0.50183369  0.81619090  0.65816426  1
  Br  Br20  1  0.25000000  0.48116973  0.58346650  1
  Br  Br21  1  0.75000000  0.68067228  0.91282238  1
  Br  Br22  1  0.49816631  0.18380910  0.34183574  1
  Br  Br23  1  0.25000000  0.81932772  0.41282238  1
  Br  Br24  1  0.75000000  0.18067228  0.58717762  1
  Br  Br25  1  0.49816631  0.68380910  0.15816426  1
  Br  Br26  1  0.75000000  0.01883027  0.08346650  1
  Br  Br27  1  0.00183369  0.18380910  0.34183574  1
