# generated using pymatgen
data_Ag2Se
_symmetry_space_group_name_H-M   'P 1'
_cell_length_a   7.14682896
_cell_length_b   7.77430775
_cell_length_c   4.97040324
_cell_angle_alpha   90.00000000
_cell_angle_beta   90.00000000
_cell_angle_gamma   90.00000000
_symmetry_Int_Tables_number   1
_chemical_formula_structural   Ag2Se
_chemical_formula_sum   'Ag8 Se4'
_cell_volume   276.16379410
_cell_formula_units_Z   4
loop_
 _symmetry_equiv_pos_site_id
 _symmetry_equiv_pos_as_xyz
  1  'x, y, z'
loop_
 _atom_site_type_symbol
 _atom_site_label
 _atom_site_symmetry_multiplicity
 _atom_site_fract_x
 _atom_site_fract_y
 _atom_site_fract_z
 _atom_site_occupancy
  Ag  Ag0  1  0.50794885  0.97378650  0.24987406  1
  Ag  Ag1  1  0.99205115  0.02621350  0.74987406  1
  Ag  Ag2  1  0.86384773  0.21090615  0.24992379  1
  Ag  Ag3  1  0.00794885  0.52621350  0.75012594  1
  Ag  Ag4  1  0.36384773  0.28909385  0.75007621  1
  Ag  Ag5  1  0.63615227  0.78909385  0.74992379  1
  Ag  Ag6  1  0.13615227  0.71090615  0.25007621  1
  Ag  Ag7  1  0.49205115  0.47378650  0.25012594  1
  Se  Se8  1  0.76513849  0.28350357  0.74994413  1
  Se  Se9  1  0.23486151  0.78350357  0.75005587  1
  Se  Se10  1  0.26513849  0.21649643  0.25005587  1
  Se  Se11  1  0.73486151  0.71649643  0.24994413  1
