# generated using pymatgen
data_Rb2CuBr3
_symmetry_space_group_name_H-M   'P 1'
_cell_length_a   4.46107407
_cell_length_b   13.33082324
_cell_length_c   13.82245816
_cell_angle_alpha   90.00000000
_cell_angle_beta   90.00000000
_cell_angle_gamma   90.00000000
_symmetry_Int_Tables_number   1
_chemical_formula_structural   Rb2CuBr3
_chemical_formula_sum   'Rb8 Cu4 Br12'
_cell_volume   822.01868251
_cell_formula_units_Z   4
loop_
 _symmetry_equiv_pos_site_id
 _symmetry_equiv_pos_as_xyz
  1  'x, y, z'
loop_
 _atom_site_type_symbol
 _atom_site_label
 _atom_site_symmetry_multiplicity
 _atom_site_fract_x
 _atom_site_fract_y
 _atom_site_fract_z
 _atom_site_occupancy
  Rb  Rb0  1  0.75000000  0.98725415  0.17570623  1
  Rb  Rb1  1  0.25000000  0.01274585  0.82429377  1
  Rb  Rb2  1  0.75000000  0.82629263  0.52381404  1
  Rb  Rb3  1  0.25000000  0.17370737  0.47618596  1
  Rb  Rb4  1  0.75000000  0.48725415  0.32429377  1
  Rb  Rb5  1  0.25000000  0.67370737  0.02381404  1
  Rb  Rb6  1  0.75000000  0.32629263  0.97618596  1
  Rb  Rb7  1  0.25000000  0.51274585  0.67570623  1
  Cu  Cu8  1  0.25000000  0.75542289  0.31052276  1
  Cu  Cu9  1  0.25000000  0.25542289  0.18947724  1
  Cu  Cu10  1  0.75000000  0.24457711  0.68947724  1
  Cu  Cu11  1  0.75000000  0.74457711  0.81052276  1
  Br  Br12  1  0.75000000  0.22665176  0.27966410  1
  Br  Br13  1  0.25000000  0.27334824  0.77966410  1
  Br  Br14  1  0.25000000  0.43376555  0.13949757  1
  Br  Br15  1  0.75000000  0.36234981  0.55235005  1
  Br  Br16  1  0.25000000  0.77334824  0.72033590  1
  Br  Br17  1  0.75000000  0.56623445  0.86050243  1
  Br  Br18  1  0.75000000  0.06623445  0.63949757  1
  Br  Br19  1  0.25000000  0.93376555  0.36050243  1
  Br  Br20  1  0.75000000  0.72665176  0.22033590  1
  Br  Br21  1  0.25000000  0.13765019  0.05235005  1
  Br  Br22  1  0.75000000  0.86234981  0.94764995  1
  Br  Br23  1  0.25000000  0.63765019  0.44764995  1
