# generated using pymatgen
data_K10MgMo7O27
_symmetry_space_group_name_H-M   'P 1'
_cell_length_a   8.07949440
_cell_length_b   10.77526122
_cell_length_c   18.72941073
_cell_angle_alpha   90.00000000
_cell_angle_beta   90.00000000
_cell_angle_gamma   90.00000000
_symmetry_Int_Tables_number   1
_chemical_formula_structural   K10MgMo7O27
_chemical_formula_sum   'K20 Mg2 Mo14 O54'
_cell_volume   1630.55745104
_cell_formula_units_Z   2
loop_
 _symmetry_equiv_pos_site_id
 _symmetry_equiv_pos_as_xyz
  1  'x, y, z'
loop_
 _atom_site_type_symbol
 _atom_site_label
 _atom_site_symmetry_multiplicity
 _atom_site_fract_x
 _atom_site_fract_y
 _atom_site_fract_z
 _atom_site_occupancy
  K  K0  1  0.09631027  0.12164084  0.50000000  1
  K  K1  1  0.73342344  0.00854069  0.34755950  1
  K  K2  1  0.26098550  0.02343608  0.31566604  1
  K  K3  1  0.62017158  0.26743328  0.00000000  1
  K  K4  1  0.05462231  0.69484492  0.32078902  1
  K  K5  1  0.38149894  0.36589568  0.64067737  1
  K  K6  1  0.73901450  0.52343608  0.18433396  1
  K  K7  1  0.73901450  0.52343608  0.81566604  1
  K  K8  1  0.61850106  0.86589568  0.14067737  1
  K  K9  1  0.05462231  0.69484492  0.67921098  1
  K  K10  1  0.73342344  0.00854069  0.65244050  1
  K  K11  1  0.90368973  0.62164084  0.00000000  1
  K  K12  1  0.94537769  0.19484492  0.17921098  1
  K  K13  1  0.61850106  0.86589568  0.85932263  1
  K  K14  1  0.38149894  0.36589568  0.35932263  1
  K  K15  1  0.37982842  0.76743328  0.50000000  1
  K  K16  1  0.26657656  0.50854069  0.15244050  1
  K  K17  1  0.94537769  0.19484492  0.82078902  1
  K  K18  1  0.26657656  0.50854069  0.84755950  1
  K  K19  1  0.26098550  0.02343608  0.68433396  1
  Mg  Mg20  1  0.29010663  0.01326259  0.00000000  1
  Mg  Mg21  1  0.70989337  0.51326259  0.50000000  1
  Mo  Mo22  1  0.10853571  0.50068997  0.50000000  1
  Mo  Mo23  1  0.90686478  0.34879998  0.34646375  1
  Mo  Mo24  1  0.44053616  0.68602598  0.00000000  1
  Mo  Mo25  1  0.53685738  0.67757091  0.33355219  1
  Mo  Mo26  1  0.89146429  0.00068997  0.00000000  1
  Mo  Mo27  1  0.46314262  0.17757091  0.16644781  1
  Mo  Mo28  1  0.09313522  0.84879998  0.15353625  1
  Mo  Mo29  1  0.10162389  0.32228119  0.00000000  1
  Mo  Mo30  1  0.46314262  0.17757091  0.83355219  1
  Mo  Mo31  1  0.89837611  0.82228119  0.50000000  1
  Mo  Mo32  1  0.09313522  0.84879998  0.84646375  1
  Mo  Mo33  1  0.55946384  0.18602598  0.50000000  1
  Mo  Mo34  1  0.53685738  0.67757091  0.66644781  1
  Mo  Mo35  1  0.90686478  0.34879998  0.65353625  1
  O  O36  1  0.00042914  0.38558807  0.07735020  1
  O  O37  1  0.54880504  0.63211268  0.07833638  1
  O  O38  1  0.28042142  0.23508881  0.79023075  1
  O  O39  1  0.02765592  0.21008903  0.35461681  1
  O  O40  1  0.54880504  0.63211268  0.92166362  1
  O  O41  1  0.40200583  0.80527483  0.35367396  1
  O  O42  1  0.59266004  0.59957471  0.41607197  1
  O  O43  1  0.59799417  0.30527483  0.85367396  1
  O  O44  1  0.99957086  0.88558807  0.42264980  1
  O  O45  1  0.28042142  0.23508881  0.20976925  1
  O  O46  1  0.40200583  0.80527483  0.64632604  1
  O  O47  1  0.19718843  0.35047859  0.50000000  1
  O  O48  1  0.00642933  0.94283695  0.77684784  1
  O  O49  1  0.71957858  0.73508881  0.70976925  1
  O  O50  1  0.99357067  0.44283695  0.72315216  1
  O  O51  1  0.29473552  0.80601722  0.81952308  1
  O  O52  1  0.56980186  0.35433123  0.50000000  1
  O  O53  1  0.70526448  0.30601722  0.31952308  1
  O  O54  1  0.44028862  0.56823876  0.72577955  1
  O  O55  1  0.45119496  0.13211268  0.57833638  1
  O  O56  1  0.79514580  0.07299661  0.92530510  1
  O  O57  1  0.20485420  0.57299661  0.57469490  1
  O  O58  1  0.23419348  0.62774716  0.00000000  1
  O  O59  1  0.29473552  0.80601722  0.18047692  1
  O  O60  1  0.40733996  0.09957471  0.91607197  1
  O  O61  1  0.99957086  0.88558807  0.57735020  1
  O  O62  1  0.55971138  0.06823876  0.22577955  1
  O  O63  1  0.70526448  0.30601722  0.68047692  1
  O  O64  1  0.00042914  0.38558807  0.92264980  1
  O  O65  1  0.02765592  0.21008903  0.64538319  1
  O  O66  1  0.97234408  0.71008903  0.85461681  1
  O  O67  1  0.71957858  0.73508881  0.29023075  1
  O  O68  1  0.59266004  0.59957471  0.58392803  1
  O  O69  1  0.99357067  0.44283695  0.27684784  1
  O  O70  1  0.08707001  0.15120795  0.00000000  1
  O  O71  1  0.55971138  0.06823876  0.77422045  1
  O  O72  1  0.45119496  0.13211268  0.42166362  1
  O  O73  1  0.09974457  0.93860279  0.93083431  1
  O  O74  1  0.80281157  0.85047859  0.00000000  1
  O  O75  1  0.40733996  0.09957471  0.08392803  1
  O  O76  1  0.00642933  0.94283695  0.22315216  1
  O  O77  1  0.09974457  0.93860279  0.06916569  1
  O  O78  1  0.97234408  0.71008903  0.14538319  1
  O  O79  1  0.31248971  0.36444379  0.00000000  1
  O  O80  1  0.91292999  0.65120795  0.50000000  1
  O  O81  1  0.44028862  0.56823876  0.27422045  1
  O  O82  1  0.43019814  0.85433123  0.00000000  1
  O  O83  1  0.76580652  0.12774716  0.50000000  1
  O  O84  1  0.90025543  0.43860279  0.56916569  1
  O  O85  1  0.59799417  0.30527483  0.14632604  1
  O  O86  1  0.20485420  0.57299661  0.42530510  1
  O  O87  1  0.79514580  0.07299661  0.07469490  1
  O  O88  1  0.90025543  0.43860279  0.43083431  1
  O  O89  1  0.68751029  0.86444379  0.50000000  1
