# generated using pymatgen
data_Sm3RuO7
_symmetry_space_group_name_H-M   'P 1'
_cell_length_a   6.55245058
_cell_length_b   6.55245059
_cell_length_c   7.53990284
_cell_angle_alpha   90.00000000
_cell_angle_beta   90.00000000
_cell_angle_gamma   111.00025682
_symmetry_Int_Tables_number   1
_chemical_formula_structural   Sm3RuO7
_chemical_formula_sum   'Sm6 Ru2 O14'
_cell_volume   302.22072881
_cell_formula_units_Z   2
loop_
 _symmetry_equiv_pos_site_id
 _symmetry_equiv_pos_as_xyz
  1  'x, y, z'
loop_
 _atom_site_type_symbol
 _atom_site_label
 _atom_site_symmetry_multiplicity
 _atom_site_fract_x
 _atom_site_fract_y
 _atom_site_fract_z
 _atom_site_occupancy
  O  O0  1  0.58520451  0.58520451  0.75000000  1
  O  O1  1  0.41479549  0.41479549  0.25000000  1
  O  O2  1  0.10715456  0.84286588  0.75000000  1
  O  O3  1  0.89284544  0.15713412  0.25000000  1
  O  O4  1  0.84286588  0.10715456  0.75000000  1
  O  O5  1  0.15713412  0.89284544  0.25000000  1
  O  O6  1  0.18529588  0.43886973  0.96113216  1
  O  O7  1  0.81470412  0.56113027  0.46113216  1
  O  O8  1  0.43886973  0.18529588  0.96113216  1
  O  O9  1  0.56113027  0.81470412  0.46113216  1
  O  O10  1  0.18529588  0.43886973  0.53886784  1
  O  O11  1  0.81470412  0.56113027  0.03886784  1
  O  O12  1  0.56113027  0.81470412  0.03886784  1
  O  O13  1  0.43886973  0.18529588  0.53886784  1
  Ru  Ru14  1  0.50000000  0.50000000  0.50000000  1
  Ru  Ru15  1  0.50000000  0.50000000  0.00000000  1
  Sm  Sm16  1  0.91993803  0.47564920  0.75000000  1
  Sm  Sm17  1  0.08006197  0.52435080  0.25000000  1
  Sm  Sm18  1  0.47564920  0.91993803  0.75000000  1
  Sm  Sm19  1  0.52435080  0.08006197  0.25000000  1
  Sm  Sm20  1  0.00000000  0.00000000  0.50000000  1
  Sm  Sm21  1  0.00000000  0.00000000  0.00000000  1
