# generated using pymatgen
data_K4Sn9
_symmetry_space_group_name_H-M   'P 1'
_cell_length_a   8.46889007
_cell_length_b   14.46633963
_cell_length_c   16.72447327
_cell_angle_alpha   95.11185977
_cell_angle_beta   90.00000000
_cell_angle_gamma   90.00000000
_symmetry_Int_Tables_number   1
_chemical_formula_structural   K4Sn9
_chemical_formula_sum   'K16 Sn36'
_cell_volume   2040.82992200
_cell_formula_units_Z   4
loop_
 _symmetry_equiv_pos_site_id
 _symmetry_equiv_pos_as_xyz
  1  'x, y, z'
loop_
 _atom_site_type_symbol
 _atom_site_label
 _atom_site_symmetry_multiplicity
 _atom_site_fract_x
 _atom_site_fract_y
 _atom_site_fract_z
 _atom_site_occupancy
  K  K0  1  0.97000215  0.38799225  0.35718712  1
  K  K1  1  0.56067357  0.49105276  0.61569252  1
  K  K2  1  0.52999785  0.38799225  0.85718712  1
  K  K3  1  0.43932643  0.50894724  0.38430748  1
  K  K4  1  0.42942358  0.92466130  0.23813967  1
  K  K5  1  0.57057642  0.07533870  0.76186033  1
  K  K6  1  0.47000215  0.61200775  0.14281288  1
  K  K7  1  0.56497312  0.16274223  0.44730160  1
  K  K8  1  0.93502688  0.16274223  0.94730160  1
  K  K9  1  0.07057642  0.92466130  0.73813967  1
  K  K10  1  0.43502688  0.83725777  0.55269840  1
  K  K11  1  0.06067357  0.50894724  0.88430748  1
  K  K12  1  0.02999785  0.61200775  0.64281288  1
  K  K13  1  0.06497312  0.83725777  0.05269840  1
  K  K14  1  0.92942358  0.07533870  0.26186033  1
  K  K15  1  0.93932643  0.49105276  0.11569252  1
  Sn  Sn16  1  0.75645331  0.92572338  0.40791185  1
  Sn  Sn17  1  0.82488955  0.81847279  0.24716713  1
  Sn  Sn18  1  0.10977012  0.67195899  0.43146481  1
  Sn  Sn19  1  0.92608685  0.74741836  0.85672126  1
  Sn  Sn20  1  0.25645331  0.07427662  0.09208815  1
  Sn  Sn21  1  0.39022988  0.67195899  0.93146481  1
  Sn  Sn22  1  0.62095963  0.29246459  0.24122678  1
  Sn  Sn23  1  0.23380082  0.35525078  0.52565875  1
  Sn  Sn24  1  0.57391315  0.74741836  0.35672126  1
  Sn  Sn25  1  0.37904037  0.70753541  0.75877322  1
  Sn  Sn26  1  0.60977012  0.32804101  0.06853519  1
  Sn  Sn27  1  0.76619918  0.64474922  0.47434125  1
  Sn  Sn28  1  0.93074185  0.82555516  0.53107661  1
  Sn  Sn29  1  0.74354669  0.92572338  0.90791185  1
  Sn  Sn30  1  0.32016646  0.39007230  0.20184374  1
  Sn  Sn31  1  0.06925815  0.17444484  0.46892339  1
  Sn  Sn32  1  0.42608685  0.25258164  0.64327874  1
  Sn  Sn33  1  0.24354669  0.07427662  0.59208815  1
  Sn  Sn34  1  0.17511045  0.18152721  0.75283287  1
  Sn  Sn35  1  0.87904037  0.29246459  0.74122678  1
  Sn  Sn36  1  0.10161260  0.87744469  0.37969560  1
  Sn  Sn37  1  0.56925815  0.82555516  0.03107661  1
  Sn  Sn38  1  0.32488955  0.18152721  0.25283287  1
  Sn  Sn39  1  0.67983354  0.60992770  0.79815626  1
  Sn  Sn40  1  0.26619918  0.35525078  0.02565875  1
  Sn  Sn41  1  0.39838740  0.87744469  0.87969560  1
  Sn  Sn42  1  0.43074185  0.17444484  0.96892339  1
  Sn  Sn43  1  0.17983354  0.39007230  0.70184374  1
  Sn  Sn44  1  0.73380082  0.64474922  0.97434125  1
  Sn  Sn45  1  0.12095963  0.70753541  0.25877322  1
  Sn  Sn46  1  0.89022988  0.32804101  0.56853519  1
  Sn  Sn47  1  0.67511045  0.81847279  0.74716713  1
  Sn  Sn48  1  0.82016646  0.60992770  0.29815626  1
  Sn  Sn49  1  0.60161260  0.12255531  0.12030440  1
  Sn  Sn50  1  0.89838740  0.12255531  0.62030440  1
  Sn  Sn51  1  0.07391315  0.25258164  0.14327874  1
