# generated using pymatgen
data_Na3LaV2O8
_symmetry_space_group_name_H-M   'P 1'
_cell_length_a   5.71183623
_cell_length_b   14.31106440
_cell_length_c   20.00066437
_cell_angle_alpha   90.00000000
_cell_angle_beta   90.00000000
_cell_angle_gamma   90.00000000
_symmetry_Int_Tables_number   1
_chemical_formula_structural   Na3LaV2O8
_chemical_formula_sum   'Na24 La8 V16 O64'
_cell_volume   1634.90342983
_cell_formula_units_Z   8
loop_
 _symmetry_equiv_pos_site_id
 _symmetry_equiv_pos_as_xyz
  1  'x, y, z'
loop_
 _atom_site_type_symbol
 _atom_site_label
 _atom_site_symmetry_multiplicity
 _atom_site_fract_x
 _atom_site_fract_y
 _atom_site_fract_z
 _atom_site_occupancy
  Na  Na0  1  0.97391580  0.78427127  0.08001742  1
  Na  Na1  1  0.45557188  0.53233570  0.18511952  1
  Na  Na2  1  0.54799719  0.70328094  0.33791665  1
  Na  Na3  1  0.02608420  0.28427127  0.08001742  1
  Na  Na4  1  0.54442812  0.03233570  0.18511952  1
  Na  Na5  1  0.54799719  0.79671906  0.83791665  1
  Na  Na6  1  0.98305694  0.36447408  0.74913438  1
  Na  Na7  1  0.51037052  0.61460482  0.52014798  1
  Na  Na8  1  0.03543938  0.95318021  0.92971618  1
  Na  Na9  1  0.96456062  0.04681979  0.42971618  1
  Na  Na10  1  0.45200281  0.29671906  0.83791665  1
  Na  Na11  1  0.51037052  0.88539518  0.02014798  1
  Na  Na12  1  0.45200281  0.20328094  0.33791665  1
  Na  Na13  1  0.48962948  0.11460482  0.52014798  1
  Na  Na14  1  0.03543938  0.54681979  0.42971618  1
  Na  Na15  1  0.45557188  0.96766430  0.68511952  1
  Na  Na16  1  0.96456062  0.45318021  0.92971618  1
  Na  Na17  1  0.54442812  0.46766430  0.68511952  1
  Na  Na18  1  0.01694306  0.63552592  0.24913438  1
  Na  Na19  1  0.02608420  0.21572873  0.58001742  1
  Na  Na20  1  0.01694306  0.86447408  0.74913438  1
  Na  Na21  1  0.97391580  0.71572873  0.58001742  1
  Na  Na22  1  0.48962948  0.38539518  0.02014798  1
  Na  Na23  1  0.98305694  0.13552592  0.24913438  1
  La  La24  1  0.92520525  0.38831433  0.26912121  1
  La  La25  1  0.07479475  0.61168567  0.76912121  1
  La  La26  1  0.56361209  0.13824764  0.00164838  1
  La  La27  1  0.43638791  0.63824764  0.00164838  1
  La  La28  1  0.56361209  0.36175236  0.50164838  1
  La  La29  1  0.07479475  0.88831433  0.26912121  1
  La  La30  1  0.43638791  0.86175236  0.50164838  1
  La  La31  1  0.92520525  0.11168567  0.76912121  1
  V  V32  1  0.47446205  0.02256409  0.84943284  1
  V  V33  1  0.01536799  0.22724423  0.92073130  1
  V  V34  1  0.96290860  0.52604073  0.09352107  1
  V  V35  1  0.03709140  0.02604073  0.09352107  1
  V  V36  1  0.01536799  0.27275577  0.42073130  1
  V  V37  1  0.52553795  0.52256409  0.84943284  1
  V  V38  1  0.54577655  0.72488437  0.67690367  1
  V  V39  1  0.98463201  0.77275577  0.42073130  1
  V  V40  1  0.52553795  0.97743591  0.34943284  1
  V  V41  1  0.98463201  0.72724423  0.92073130  1
  V  V42  1  0.96290860  0.97395927  0.59352107  1
  V  V43  1  0.03709140  0.47395927  0.59352107  1
  V  V44  1  0.45422345  0.27511563  0.17690367  1
  V  V45  1  0.45422345  0.22488437  0.67690367  1
  V  V46  1  0.54577655  0.77511563  0.17690367  1
  V  V47  1  0.47446205  0.47743591  0.34943284  1
  O  O48  1  0.30352450  0.03703901  0.30779805  1
  O  O49  1  0.53158775  0.75269377  0.09099856  1
  O  O50  1  0.79629542  0.00379501  0.31336308  1
  O  O51  1  0.54475470  0.36091932  0.34117697  1
  O  O52  1  0.60033448  0.12022400  0.69303988  1
  O  O53  1  0.46841225  0.25269377  0.09099856  1
  O  O54  1  0.98412307  0.00231823  0.17805813  1
  O  O55  1  0.10592206  0.63088311  0.07567655  1
  O  O56  1  0.54475470  0.13908068  0.84117697  1
  O  O57  1  0.90948816  0.94105089  0.04419943  1
  O  O58  1  0.46841225  0.24730623  0.59099856  1
  O  O59  1  0.01587693  0.50231823  0.17805813  1
  O  O60  1  0.15472145  0.28453937  0.19779701  1
  O  O61  1  0.46558741  0.99487125  0.93473267  1
  O  O62  1  0.28929696  0.25294461  0.95515727  1
  O  O63  1  0.33983502  0.03584297  0.07679666  1
  O  O64  1  0.09051184  0.44105089  0.04419943  1
  O  O65  1  0.30352450  0.46296099  0.80779805  1
  O  O66  1  0.01587693  0.99768177  0.67805813  1
  O  O67  1  0.28929696  0.24705539  0.45515727  1
  O  O68  1  0.94403969  0.38937649  0.42685436  1
  O  O69  1  0.84527855  0.78453937  0.19779701  1
  O  O70  1  0.79629542  0.49620499  0.81336308  1
  O  O71  1  0.98261612  0.75744777  0.83607834  1
  O  O72  1  0.66016498  0.53584297  0.07679666  1
  O  O73  1  0.79804740  0.21402066  0.46521404  1
  O  O74  1  0.09051184  0.05894911  0.54419943  1
  O  O75  1  0.53441259  0.49487125  0.93473267  1
  O  O76  1  0.71070304  0.75294461  0.95515727  1
  O  O77  1  0.45524530  0.63908068  0.84117697  1
  O  O78  1  0.60033448  0.37977600  0.19303988  1
  O  O79  1  0.20195260  0.78597934  0.96521404  1
  O  O80  1  0.05596031  0.61062351  0.92685436  1
  O  O81  1  0.05596031  0.88937649  0.42685436  1
  O  O82  1  0.33983502  0.46415703  0.57679666  1
  O  O83  1  0.53441259  0.00512875  0.43473267  1
  O  O84  1  0.89407794  0.36911689  0.57567655  1
  O  O85  1  0.98261612  0.74255223  0.33607834  1
  O  O86  1  0.20370458  0.50379501  0.31336308  1
  O  O87  1  0.66016498  0.96415703  0.57679666  1
  O  O88  1  0.58659771  0.31099530  0.72384841  1
  O  O89  1  0.69647550  0.96296099  0.80779805  1
  O  O90  1  0.39966552  0.87977600  0.19303988  1
  O  O91  1  0.46558741  0.50512875  0.43473267  1
  O  O92  1  0.79804740  0.28597934  0.96521404  1
  O  O93  1  0.53158775  0.74730623  0.59099856  1
  O  O94  1  0.89407794  0.13088311  0.07567655  1
  O  O95  1  0.45524530  0.86091932  0.34117697  1
  O  O96  1  0.20370458  0.99620499  0.81336308  1
  O  O97  1  0.90948816  0.55894911  0.54419943  1
  O  O98  1  0.01738388  0.24255223  0.33607834  1
  O  O99  1  0.41340229  0.81099530  0.72384841  1
  O  O100  1  0.58659771  0.18900470  0.22384841  1
  O  O101  1  0.69647550  0.53703901  0.30779805  1
  O  O102  1  0.41340229  0.68900470  0.22384841  1
  O  O103  1  0.20195260  0.71402066  0.46521404  1
  O  O104  1  0.94403969  0.11062351  0.92685436  1
  O  O105  1  0.98412307  0.49768177  0.67805813  1
  O  O106  1  0.15472145  0.21546063  0.69779701  1
  O  O107  1  0.39966552  0.62022400  0.69303988  1
  O  O108  1  0.01738388  0.25744777  0.83607834  1
  O  O109  1  0.71070304  0.74705539  0.45515727  1
  O  O110  1  0.10592206  0.86911689  0.57567655  1
  O  O111  1  0.84527855  0.71546063  0.69779701  1
