# generated using pymatgen
data_Na2FeCoF7
_symmetry_space_group_name_H-M   'P 1'
_cell_length_a   7.40563711
_cell_length_b   7.40563634
_cell_length_c   24.89941818
_cell_angle_alpha   81.72226658
_cell_angle_beta   81.72226746
_cell_angle_gamma   60.52527623
_symmetry_Int_Tables_number   1
_chemical_formula_structural   Na2FeCoF7
_chemical_formula_sum   'Na16 Fe8 Co8 F56'
_cell_volume   1172.19639758
_cell_formula_units_Z   8
loop_
 _symmetry_equiv_pos_site_id
 _symmetry_equiv_pos_as_xyz
  1  'x, y, z'
loop_
 _atom_site_type_symbol
 _atom_site_label
 _atom_site_symmetry_multiplicity
 _atom_site_fract_x
 _atom_site_fract_y
 _atom_site_fract_z
 _atom_site_occupancy
  Na  Na0  1  0.21754040  0.78245960  0.25000000  1
  Na  Na1  1  0.12244311  0.12906463  0.12184801  1
  Na  Na2  1  0.78904253  0.70643397  0.75153950  1
  Na  Na3  1  0.29356603  0.21095747  0.74846050  1
  Na  Na4  1  0.21095747  0.29356603  0.24846050  1
  Na  Na5  1  0.50000000  0.50000000  0.00000000  1
  Na  Na6  1  0.78245960  0.21754040  0.75000000  1
  Na  Na7  1  0.00000000  0.00000000  0.50000000  1
  Na  Na8  1  0.12906463  0.12244311  0.62184801  1
  Na  Na9  1  0.50000000  0.00000000  0.50000000  1
  Na  Na10  1  0.70643397  0.78904253  0.25153950  1
  Na  Na11  1  0.50000000  0.50000000  0.50000000  1
  Na  Na12  1  0.87755689  0.87093537  0.87815199  1
  Na  Na13  1  0.87093537  0.87755689  0.37815199  1
  Na  Na14  1  0.00000000  0.00000000  0.00000000  1
  Na  Na15  1  0.00000000  0.50000000  0.00000000  1
  Fe  Fe16  1  0.75334235  0.24665765  0.25000000  1
  Fe  Fe17  1  0.88947865  0.36482545  0.87469280  1
  Fe  Fe18  1  0.63517455  0.11052135  0.62530720  1
  Fe  Fe19  1  0.50000000  0.00000000  0.00000000  1
  Fe  Fe20  1  0.24665765  0.75334235  0.75000000  1
  Fe  Fe21  1  0.00000000  0.50000000  0.50000000  1
  Fe  Fe22  1  0.11052135  0.63517455  0.12530720  1
  Fe  Fe23  1  0.36482545  0.88947865  0.37469280  1
  Co  Co24  1  0.38746683  0.86664443  0.87379551  1
  Co  Co25  1  0.63006391  0.61330717  0.62757108  1
  Co  Co26  1  0.86664443  0.38746683  0.37379551  1
  Co  Co27  1  0.36993609  0.38669283  0.37242892  1
  Co  Co28  1  0.13335557  0.61253317  0.62620449  1
  Co  Co29  1  0.61253317  0.13335557  0.12620449  1
  Co  Co30  1  0.38669283  0.36993609  0.87242892  1
  Co  Co31  1  0.61330717  0.63006391  0.12757108  1
  F  F32  1  0.47487297  0.36409319  0.29095722  1
  F  F33  1  0.02587584  0.13730427  0.20926681  1
  F  F34  1  0.35710655  0.69119984  0.59927800  1
  F  F35  1  0.03223675  0.63809920  0.20464163  1
  F  F36  1  0.66305041  0.69953277  0.35907176  1
  F  F37  1  0.13730427  0.02587584  0.70926681  1
  F  F38  1  0.97412416  0.86269573  0.79073319  1
  F  F39  1  0.63590681  0.52512703  0.20904278  1
  F  F40  1  0.13543897  0.58209446  0.54574330  1
  F  F41  1  0.69953277  0.66305041  0.85907176  1
  F  F42  1  0.92388684  0.93349963  0.10946125  1
  F  F43  1  0.26990848  0.69940022  0.35903783  1
  F  F44  1  0.06650037  0.07611316  0.39053875  1
  F  F45  1  0.53627612  0.90708009  0.15383883  1
  F  F46  1  0.92363271  0.53617197  0.11030593  1
  F  F47  1  0.93349963  0.92388684  0.60946125  1
  F  F48  1  0.13159425  0.20615442  0.53171241  1
  F  F49  1  0.73009152  0.30059978  0.64096217  1
  F  F50  1  0.63518208  0.13618819  0.20680813  1
  F  F51  1  0.41790554  0.86456103  0.95425670  1
  F  F52  1  0.36409319  0.47487297  0.79095722  1
  F  F53  1  0.25849316  0.41891328  0.45323948  1
  F  F54  1  0.36481792  0.86381181  0.79319187  1
  F  F55  1  0.90708009  0.53627612  0.65383883  1
  F  F56  1  0.86381181  0.36481792  0.29319187  1
  F  F57  1  0.86456103  0.41790554  0.45425670  1
  F  F58  1  0.30046723  0.33694959  0.14092824  1
  F  F59  1  0.58209446  0.13543897  0.04574330  1
  F  F60  1  0.86269573  0.97412416  0.29073319  1
  F  F61  1  0.96776325  0.36190080  0.79535837  1
  F  F62  1  0.41891328  0.25849316  0.95323948  1
  F  F63  1  0.63809920  0.03223675  0.70464163  1
  F  F64  1  0.58108672  0.74150684  0.04676052  1
  F  F65  1  0.53617197  0.92363271  0.61030593  1
  F  F66  1  0.69940022  0.26990848  0.85903783  1
  F  F67  1  0.86840575  0.79384558  0.46828759  1
  F  F68  1  0.07611316  0.06650037  0.89053875  1
  F  F69  1  0.13618819  0.63518208  0.70680813  1
  F  F70  1  0.09291991  0.46372388  0.34616117  1
  F  F71  1  0.63577964  0.18412867  0.54561320  1
  F  F72  1  0.52512703  0.63590681  0.70904278  1
  F  F73  1  0.81587133  0.36422036  0.95438680  1
  F  F74  1  0.33694959  0.30046723  0.64092824  1
  F  F75  1  0.46372388  0.09291991  0.84616117  1
  F  F76  1  0.64289345  0.30880016  0.40072200  1
  F  F77  1  0.07636729  0.46382803  0.88969407  1
  F  F78  1  0.74150684  0.58108672  0.54676052  1
  F  F79  1  0.69119984  0.35710655  0.09927800  1
  F  F80  1  0.46382803  0.07636729  0.38969407  1
  F  F81  1  0.20615442  0.13159425  0.03171241  1
  F  F82  1  0.36422036  0.81587133  0.45438680  1
  F  F83  1  0.79384558  0.86840575  0.96828759  1
  F  F84  1  0.30059978  0.73009152  0.14096217  1
  F  F85  1  0.36190080  0.96776325  0.29535837  1
  F  F86  1  0.30880016  0.64289345  0.90072200  1
  F  F87  1  0.18412867  0.63577964  0.04561320  1
