# generated using pymatgen
data_SrMg14Zr
_symmetry_space_group_name_H-M   'P 1'
_cell_length_a   6.61835397
_cell_length_b   6.61835340
_cell_length_c   10.29988288
_cell_angle_alpha   90.00000000
_cell_angle_beta   90.00000000
_cell_angle_gamma   120.00000289
_symmetry_Int_Tables_number   1
_chemical_formula_structural   SrMg14Zr
_chemical_formula_sum   'Sr1 Mg14 Zr1'
_cell_volume   390.71748774
_cell_formula_units_Z   1
loop_
 _symmetry_equiv_pos_site_id
 _symmetry_equiv_pos_as_xyz
  1  'x, y, z'
loop_
 _atom_site_type_symbol
 _atom_site_label
 _atom_site_symmetry_multiplicity
 _atom_site_fract_x
 _atom_site_fract_y
 _atom_site_fract_z
 _atom_site_occupancy
  Sr  Sr0  1  0.16666700  0.33333300  0.62500000  1
  Mg  Mg1  1  0.16830925  0.83415413  0.12500000  1
  Mg  Mg2  1  0.17642591  0.83821245  0.62500000  1
  Mg  Mg3  1  0.66584587  0.33169075  0.12500000  1
  Mg  Mg4  1  0.66178755  0.32357409  0.62500000  1
  Mg  Mg5  1  0.66584587  0.83415413  0.12500000  1
  Mg  Mg6  1  0.66178755  0.83821245  0.62500000  1
  Mg  Mg7  1  0.33644657  0.16355343  0.36392414  1
  Mg  Mg8  1  0.33644657  0.16355343  0.88607586  1
  Mg  Mg9  1  0.33644657  0.67289414  0.36392414  1
  Mg  Mg10  1  0.33644657  0.67289414  0.88607586  1
  Mg  Mg11  1  0.82710586  0.16355343  0.36392414  1
  Mg  Mg12  1  0.82710586  0.16355343  0.88607586  1
  Mg  Mg13  1  0.83333300  0.66666700  0.37693754  1
  Mg  Mg14  1  0.83333300  0.66666700  0.87306246  1
  Zr  Zr15  1  0.16666700  0.33333300  0.12500000  1
