# generated using pymatgen
data_BaCaCo4O7
_symmetry_space_group_name_H-M   'P 1'
_cell_length_a   6.40024912
_cell_length_b   10.30109601
_cell_length_c   11.10306330
_cell_angle_alpha   90.00000000
_cell_angle_beta   90.00000000
_cell_angle_gamma   90.00000000
_symmetry_Int_Tables_number   1
_chemical_formula_structural   BaCaCo4O7
_chemical_formula_sum   'Ba4 Ca4 Co16 O28'
_cell_volume   732.02030756
_cell_formula_units_Z   4
loop_
 _symmetry_equiv_pos_site_id
 _symmetry_equiv_pos_as_xyz
  1  'x, y, z'
loop_
 _atom_site_type_symbol
 _atom_site_label
 _atom_site_symmetry_multiplicity
 _atom_site_fract_x
 _atom_site_fract_y
 _atom_site_fract_z
 _atom_site_occupancy
  Ba  Ba0  1  0.50503068  0.99698319  0.16432897  1
  Ba  Ba1  1  0.00503068  0.49698319  0.33567103  1
  Ba  Ba2  1  0.99496932  0.99698319  0.66432897  1
  Ba  Ba3  1  0.49496932  0.49698319  0.83567103  1
  Ca  Ca4  1  0.50481574  0.12679181  0.82603315  1
  Ca  Ca5  1  0.49518426  0.62679181  0.17396685  1
  Ca  Ca6  1  0.99518426  0.12679181  0.32603315  1
  Ca  Ca7  1  0.00481574  0.62679181  0.67396685  1
  Co  Co8  1  0.23772166  0.81854887  0.42107642  1
  Co  Co9  1  0.73772166  0.31854887  0.07892358  1
  Co  Co10  1  0.99809100  0.81154031  0.17386659  1
  Co  Co11  1  0.25055114  0.30634232  0.58563161  1
  Co  Co12  1  0.74944886  0.80634232  0.41436839  1
  Co  Co13  1  0.24944886  0.30634232  0.08563161  1
  Co  Co14  1  0.50190900  0.81154031  0.67386659  1
  Co  Co15  1  0.49689888  0.55410617  0.50220531  1
  Co  Co16  1  0.49809100  0.31154031  0.32613341  1
  Co  Co17  1  0.99689888  0.05410617  0.99779469  1
  Co  Co18  1  0.76227834  0.31854887  0.57892358  1
  Co  Co19  1  0.00310112  0.55410617  0.00220531  1
  Co  Co20  1  0.00190900  0.31154031  0.82613341  1
  Co  Co21  1  0.50310112  0.05410617  0.49779469  1
  Co  Co22  1  0.75055114  0.80634232  0.91436839  1
  Co  Co23  1  0.26227834  0.81854887  0.92107642  1
  O  O24  1  0.48793486  0.74472409  0.50167807  1
  O  O25  1  0.06935772  0.49629754  0.84645923  1
  O  O26  1  0.43064228  0.49629754  0.34645923  1
  O  O27  1  0.93064228  0.99629754  0.15354077  1
  O  O28  1  0.21108077  0.21616070  0.73659931  1
  O  O29  1  0.98793486  0.24472409  0.99832193  1
  O  O30  1  0.27083632  0.79174317  0.25919114  1
  O  O31  1  0.77083632  0.29174317  0.24080886  1
  O  O32  1  0.71571553  0.99688253  0.39865694  1
  O  O33  1  0.28891923  0.21616070  0.23659931  1
  O  O34  1  0.71108077  0.71616070  0.76340069  1
  O  O35  1  0.01206514  0.74472409  0.00167807  1
  O  O36  1  0.76486579  0.50429956  0.55020494  1
  O  O37  1  0.99244882  0.26937974  0.49236694  1
  O  O38  1  0.22916368  0.79174317  0.75919114  1
  O  O39  1  0.00755118  0.76937974  0.50763306  1
  O  O40  1  0.78428447  0.99688253  0.89865694  1
  O  O41  1  0.26486579  0.00429956  0.94979506  1
  O  O42  1  0.50755118  0.26937974  0.99236694  1
  O  O43  1  0.23513421  0.00429956  0.44979506  1
  O  O44  1  0.56935772  0.99629754  0.65354077  1
  O  O45  1  0.21571553  0.49688253  0.10134306  1
  O  O46  1  0.51206514  0.24472409  0.49832193  1
  O  O47  1  0.72916368  0.29174317  0.74080886  1
  O  O48  1  0.28428447  0.49688253  0.60134306  1
  O  O49  1  0.73513421  0.50429956  0.05020494  1
  O  O50  1  0.78891923  0.71616070  0.26340069  1
  O  O51  1  0.49244882  0.76937974  0.00763306  1
