# generated using pymatgen
data_K2UI5
_symmetry_space_group_name_H-M   'P 1'
_cell_length_a   9.30861798
_cell_length_b   9.87296452
_cell_length_c   14.72448053
_cell_angle_alpha   89.99824270
_cell_angle_beta   90.00109330
_cell_angle_gamma   90.00084877
_symmetry_Int_Tables_number   1
_chemical_formula_structural   K2UI5
_chemical_formula_sum   'K8 U4 I20'
_cell_volume   1353.23357886
_cell_formula_units_Z   4
loop_
 _symmetry_equiv_pos_site_id
 _symmetry_equiv_pos_as_xyz
  1  'x, y, z'
loop_
 _atom_site_type_symbol
 _atom_site_label
 _atom_site_symmetry_multiplicity
 _atom_site_fract_x
 _atom_site_fract_y
 _atom_site_fract_z
 _atom_site_occupancy
  K  K0  1  0.56340607  0.00522518  0.67163240  1
  K  K1  1  0.93658235  0.00523004  0.17162509  1
  K  K2  1  0.43657998  0.99477776  0.32837576  1
  K  K3  1  0.06343809  0.99478603  0.82836709  1
  K  K4  1  0.06340130  0.50518516  0.82835196  1
  K  K5  1  0.43656802  0.50520666  0.32837930  1
  K  K6  1  0.56342543  0.49476654  0.67161674  1
  K  K7  1  0.93659125  0.49478814  0.17164448  1
  U  U8  1  0.57454889  0.75001460  0.99635406  1
  U  U9  1  0.07449598  0.25000072  0.50361079  1
  U  U10  1  0.42539528  0.25000873  0.00363145  1
  U  U11  1  0.92552886  0.74999986  0.49639986  1
  I  I12  1  0.16708777  0.95579052  0.57396497  1
  I  I13  1  0.15885109  0.25000058  0.29452172  1
  I  I14  1  0.84114306  0.74999919  0.70549297  1
  I  I15  1  0.83293743  0.04423355  0.42604446  1
  I  I16  1  0.66701370  0.45573671  0.92606324  1
  I  I17  1  0.57262868  0.75000816  0.49432721  1
  I  I18  1  0.66702245  0.04427741  0.92605426  1
  I  I19  1  0.92739224  0.75000544  0.99432829  1
  I  I20  1  0.87965282  0.24999504  0.68224524  1
  I  I21  1  0.16707975  0.54421006  0.57397238  1
  I  I22  1  0.37967435  0.75000053  0.81777460  1
  I  I23  1  0.34115935  0.24999977  0.79457824  1
  I  I24  1  0.33293233  0.95583660  0.07393883  1
  I  I25  1  0.42738004  0.24999512  0.50566450  1
  I  I26  1  0.12037378  0.74999940  0.31773899  1
  I  I27  1  0.33293300  0.54416554  0.07393570  1
  I  I28  1  0.62030138  0.24999927  0.18219326  1
  I  I29  1  0.65885712  0.74999406  0.20546033  1
  I  I30  1  0.83292943  0.45576203  0.42604185  1
  I  I31  1  0.07268872  0.25000159  0.00566999  1
