# generated using pymatgen
data_In10(Pb2S7)3
_symmetry_space_group_name_H-M   'P 1'
_cell_length_a   3.89623623
_cell_length_b   14.14514256
_cell_length_c   15.97341002
_cell_angle_alpha   95.28545054
_cell_angle_beta   89.99503189
_cell_angle_gamma   97.88856102
_symmetry_Int_Tables_number   1
_chemical_formula_structural   In10(Pb2S7)3
_chemical_formula_sum   'In10 Pb6 S21'
_cell_volume   868.23082965
_cell_formula_units_Z   1
loop_
 _symmetry_equiv_pos_site_id
 _symmetry_equiv_pos_as_xyz
  1  'x, y, z'
loop_
 _atom_site_type_symbol
 _atom_site_label
 _atom_site_symmetry_multiplicity
 _atom_site_fract_x
 _atom_site_fract_y
 _atom_site_fract_z
 _atom_site_occupancy
  In  In0  1  0.68878048  0.37632551  0.48381644  1
  In  In1  1  0.51756643  0.02572995  0.12949662  1
  In  In2  1  0.21104209  0.42946915  0.69183474  1
  In  In3  1  0.78873873  0.57047723  0.30825051  1
  In  In4  1  0.90449491  0.80085813  0.01891653  1
  In  In5  1  0.73124047  0.47122488  0.89351174  1
  In  In6  1  0.30983199  0.62501725  0.51503848  1
  In  In7  1  0.26639491  0.52761842  0.10813980  1
  In  In8  1  0.10322848  0.19933416  0.98166043  1
  In  In9  1  0.48895372  0.97443583  0.87241761  1
  Pb  Pb10  1  0.06489312  0.14733495  0.70566752  1
  Pb  Pb11  1  0.14238081  0.27386919  0.24118482  1
  Pb  Pb12  1  0.93174365  0.85097380  0.29524127  1
  Pb  Pb13  1  0.85817049  0.72317849  0.75918082  1
  Pb  Pb14  1  0.04506884  0.09925700  0.43102729  1
  Pb  Pb15  1  0.94199566  0.90063103  0.57042608  1
  S  S16  1  0.47006788  0.93123980  0.40684232  1
  S  S17  1  0.60451760  0.20309575  0.09559581  1
  S  S18  1  0.53092422  0.07036869  0.59213033  1
  S  S19  1  0.33010407  0.65444508  0.23835409  1
  S  S20  1  0.27663454  0.56256917  0.81192602  1
  S  S21  1  0.23015757  0.47301630  0.40125034  1
  S  S22  1  0.72129308  0.43674562  0.18856356  1
  S  S23  1  0.58320868  0.15878346  0.87431932  1
  S  S24  1  0.61954773  0.23686024  0.36709259  1
  S  S25  1  0.80575973  0.60811811  0.02450081  1
  S  S26  1  0.03043507  0.05222411  0.23604980  1
  S  S27  1  0.66938336  0.34593244  0.76192908  1
  S  S28  1  0.19295801  0.39102832  0.97676846  1
  S  S29  1  0.40412511  0.79631730  0.90470601  1
  S  S30  1  0.00544942  0.99946052  0.00036132  1
  S  S31  1  0.84729623  0.69957838  0.43494003  1
  S  S32  1  0.37985145  0.76328557  0.63340205  1
  S  S33  1  0.97614274  0.94958903  0.76495859  1
  S  S34  1  0.42324305  0.84161900  0.12669665  1
  S  S35  1  0.15150483  0.30272324  0.56428286  1
  S  S36  1  0.76452583  0.52866588  0.59690527  1
