# generated using pymatgen
data_AlH20Ru(Cl3O5)2
_symmetry_space_group_name_H-M   'P 1'
_cell_length_a   7.10269087
_cell_length_b   10.47691221
_cell_length_c   11.56478149
_cell_angle_alpha   90.00000000
_cell_angle_beta   90.00000000
_cell_angle_gamma   92.32988470
_symmetry_Int_Tables_number   1
_chemical_formula_structural   AlH20Ru(Cl3O5)2
_chemical_formula_sum   'Al2 H40 Ru2 Cl12 O20'
_cell_volume   859.87333501
_cell_formula_units_Z   2
loop_
 _symmetry_equiv_pos_site_id
 _symmetry_equiv_pos_as_xyz
  1  'x, y, z'
loop_
 _atom_site_type_symbol
 _atom_site_label
 _atom_site_symmetry_multiplicity
 _atom_site_fract_x
 _atom_site_fract_y
 _atom_site_fract_z
 _atom_site_occupancy
  Al  Al0  1  0.50000000  0.50000000  0.50000000  1
  Al  Al1  1  0.00000000  0.00000000  0.00000000  1
  H  H2  1  0.94343010  0.18724663  0.13621756  1
  H  H3  1  0.15307289  0.11450389  0.67141256  1
  H  H4  1  0.49071699  0.79208985  0.84278361  1
  H  H5  1  0.07203955  0.89779125  0.19834728  1
  H  H6  1  0.50928301  0.20791015  0.15721639  1
  H  H7  1  0.82917086  0.60307986  0.45002567  1
  H  H8  1  0.16384011  0.81417834  0.09468923  1
  H  H9  1  0.00928301  0.70791015  0.34278361  1
  H  H10  1  0.32917086  0.10307986  0.04997433  1
  H  H11  1  0.04121460  0.92029885  0.38836482  1
  H  H12  1  0.17082914  0.39692014  0.54997433  1
  H  H13  1  0.33615989  0.68582166  0.59468923  1
  H  H14  1  0.21824875  0.19864649  0.96258946  1
  H  H15  1  0.02000528  0.42929674  0.71420802  1
  H  H16  1  0.95878540  0.07970115  0.61163518  1
  H  H17  1  0.75018405  0.09769851  0.12926736  1
  H  H18  1  0.71824875  0.69864649  0.53741054  1
  H  H19  1  0.42796045  0.60220875  0.69834728  1
  H  H20  1  0.78175125  0.80135351  0.03741054  1
  H  H21  1  0.97999472  0.57070326  0.28579198  1
  H  H22  1  0.05656990  0.81275337  0.86378244  1
  H  H23  1  0.44343010  0.68724663  0.36378244  1
  H  H24  1  0.99071699  0.29208985  0.65721639  1
  H  H25  1  0.34692711  0.38549611  0.17141256  1
  H  H26  1  0.65307289  0.61450389  0.82858744  1
  H  H27  1  0.52000528  0.92929674  0.78579198  1
  H  H28  1  0.67082914  0.89692014  0.95002567  1
  H  H29  1  0.47999472  0.07070326  0.21420802  1
  H  H30  1  0.74981595  0.40230149  0.62926736  1
  H  H31  1  0.83615989  0.18582166  0.90531077  1
  H  H32  1  0.25018405  0.59769851  0.37073264  1
  H  H33  1  0.28175125  0.30135351  0.46258946  1
  H  H34  1  0.84692711  0.88549611  0.32858744  1
  H  H35  1  0.45878540  0.57970115  0.88836482  1
  H  H36  1  0.24981595  0.90230149  0.87073264  1
  H  H37  1  0.54121460  0.42029885  0.11163518  1
  H  H38  1  0.92796045  0.10220875  0.80165272  1
  H  H39  1  0.55656990  0.31275337  0.63621756  1
  H  H40  1  0.57203955  0.39779125  0.30165272  1
  H  H41  1  0.66384011  0.31417834  0.40531077  1
  Ru  Ru42  1  0.00000000  0.50000000  0.00000000  1
  Ru  Ru43  1  0.50000000  0.00000000  0.50000000  1
  Cl  Cl44  1  0.75495370  0.13479987  0.43438439  1
  Cl  Cl45  1  0.96444460  0.62638043  0.82930391  1
  Cl  Cl46  1  0.74504630  0.36520013  0.93438439  1
  Cl  Cl47  1  0.28228428  0.12255581  0.39625688  1
  Cl  Cl48  1  0.21771572  0.37744419  0.89625688  1
  Cl  Cl49  1  0.03555540  0.37361957  0.17069609  1
  Cl  Cl50  1  0.24504630  0.86520013  0.56561561  1
  Cl  Cl51  1  0.25495370  0.63479987  0.06561561  1
  Cl  Cl52  1  0.53555540  0.87361957  0.32930391  1
  Cl  Cl53  1  0.71771572  0.87744419  0.60374312  1
  Cl  Cl54  1  0.78228428  0.62255581  0.10374312  1
  Cl  Cl55  1  0.46444460  0.12638043  0.67069609  1
  O  O56  1  0.48296225  0.36801536  0.17366384  1
  O  O57  1  0.39115575  0.59983913  0.38214003  1
  O  O58  1  0.88322213  0.09941969  0.88501154  1
  O  O59  1  0.01516525  0.61377063  0.35919037  1
  O  O60  1  0.01703775  0.13198464  0.67366384  1
  O  O61  1  0.98296225  0.86801536  0.32633616  1
  O  O62  1  0.28095773  0.38993654  0.49584606  1
  O  O63  1  0.10884425  0.90016087  0.88214003  1
  O  O64  1  0.48483475  0.88622937  0.85919037  1
  O  O65  1  0.38322213  0.59941969  0.61498846  1
  O  O66  1  0.71904227  0.61006346  0.50415394  1
  O  O67  1  0.78095773  0.88993654  0.00415394  1
  O  O68  1  0.61677787  0.40058031  0.38501154  1
  O  O69  1  0.11677787  0.90058031  0.11498846  1
  O  O70  1  0.21904227  0.11006346  0.99584606  1
  O  O71  1  0.51516525  0.11377063  0.14080963  1
  O  O72  1  0.89115575  0.09983913  0.11785997  1
  O  O73  1  0.60884425  0.40016087  0.61785997  1
  O  O74  1  0.51703775  0.63198464  0.82633616  1
  O  O75  1  0.98483475  0.38622937  0.64080963  1
