# generated using pymatgen
data_La3Ni2B2N3
_symmetry_space_group_name_H-M   'P 1'
_cell_length_a   3.76713613
_cell_length_b   3.76713613
_cell_length_c   10.31581612
_cell_angle_alpha   100.52067451
_cell_angle_beta   100.52067451
_cell_angle_gamma   90.00000007
_symmetry_Int_Tables_number   1
_chemical_formula_structural   La3Ni2B2N3
_chemical_formula_sum   'La3 Ni2 B2 N3'
_cell_volume   141.43010680
_cell_formula_units_Z   1
loop_
 _symmetry_equiv_pos_site_id
 _symmetry_equiv_pos_as_xyz
  1  'x, y, z'
loop_
 _atom_site_type_symbol
 _atom_site_label
 _atom_site_symmetry_multiplicity
 _atom_site_fract_x
 _atom_site_fract_y
 _atom_site_fract_z
 _atom_site_occupancy
  B  B0  1  0.80012340  0.80012340  0.60024681  1
  B  B1  1  0.19987660  0.19987660  0.39975319  1
  N  N2  1  0.87272645  0.87272645  0.74545291  1
  N  N3  1  0.50000000  0.50000000  0.00000000  1
  N  N4  1  0.12727355  0.12727355  0.25454709  1
  Ni  Ni5  1  0.25000000  0.75000000  0.50000000  1
  Ni  Ni6  1  0.75000000  0.25000000  0.50000000  1
  La  La7  1  0.63036749  0.63036749  0.26073499  1
  La  La8  1  0.36963251  0.36963251  0.73926501  1
  La  La9  1  0.00000000  0.00000000  0.00000000  1
