# generated using pymatgen
data_KCeCuTe4
_symmetry_space_group_name_H-M   'P 1'
_cell_length_a   4.45759520
_cell_length_b   4.45640185
_cell_length_c   21.15702312
_cell_angle_alpha   89.99937240
_cell_angle_beta   89.99960632
_cell_angle_gamma   89.99984021
_symmetry_Int_Tables_number   1
_chemical_formula_structural   KCeCuTe4
_chemical_formula_sum   'K2 Ce2 Cu2 Te8'
_cell_volume   420.28078384
_cell_formula_units_Z   2
loop_
 _symmetry_equiv_pos_site_id
 _symmetry_equiv_pos_as_xyz
  1  'x, y, z'
loop_
 _atom_site_type_symbol
 _atom_site_label
 _atom_site_symmetry_multiplicity
 _atom_site_fract_x
 _atom_site_fract_y
 _atom_site_fract_z
 _atom_site_occupancy
  K  K0  1  0.75000245  0.74999849  0.14260587  1
  K  K1  1  0.24999999  0.24999988  0.85740241  1
  Ce  Ce2  1  0.25000646  0.25000142  0.40006689  1
  Ce  Ce3  1  0.74999378  0.74999750  0.59990893  1
  Cu  Cu4  1  0.75000163  0.24999830  0.00042181  1
  Cu  Cu5  1  0.24999741  0.75000450  0.99958067  1
  Te  Te6  1  0.25000087  0.74999949  0.71568382  1
  Te  Te7  1  0.75000055  0.75000017  0.92995754  1
  Te  Te8  1  0.74999981  0.25000004  0.28431940  1
  Te  Te9  1  0.24999991  0.25000110  0.55663781  1
  Te  Te10  1  0.75000090  0.75000063  0.44335939  1
  Te  Te11  1  0.74999727  0.24999896  0.71574419  1
  Te  Te12  1  0.25000003  0.75000006  0.28425949  1
  Te  Te13  1  0.24999894  0.24999947  0.07005177  1
