# generated using pymatgen
data_Zr6Fe23
_symmetry_space_group_name_H-M   'P 1'
_cell_length_a   8.27067689
_cell_length_b   8.27067692
_cell_length_c   8.27067650
_cell_angle_alpha   60.00000167
_cell_angle_beta   60.00000157
_cell_angle_gamma   60.00000345
_symmetry_Int_Tables_number   1
_chemical_formula_structural   Zr6Fe23
_chemical_formula_sum   'Zr6 Fe23'
_cell_volume   400.04437585
_cell_formula_units_Z   1
loop_
 _symmetry_equiv_pos_site_id
 _symmetry_equiv_pos_as_xyz
  1  'x, y, z'
loop_
 _atom_site_type_symbol
 _atom_site_label
 _atom_site_symmetry_multiplicity
 _atom_site_fract_x
 _atom_site_fract_y
 _atom_site_fract_z
 _atom_site_occupancy
  Zr  Zr0  1  0.79410526  0.20589474  0.20589474  1
  Zr  Zr1  1  0.79410526  0.79410526  0.20589474  1
  Zr  Zr2  1  0.79410526  0.20589474  0.79410526  1
  Zr  Zr3  1  0.20589474  0.20589474  0.79410526  1
  Zr  Zr4  1  0.20589474  0.79410526  0.20589474  1
  Zr  Zr5  1  0.20589474  0.79410526  0.79410526  1
  Fe  Fe6  1  0.82744141  0.51767576  0.82744141  1
  Fe  Fe7  1  0.17255859  0.48232424  0.17255859  1
  Fe  Fe8  1  0.00000000  0.50000000  0.00000000  1
  Fe  Fe9  1  0.37835099  0.37835099  0.37835099  1
  Fe  Fe10  1  0.17255859  0.17255859  0.48232424  1
  Fe  Fe11  1  0.13505296  0.62164901  0.62164901  1
  Fe  Fe12  1  0.50000000  0.00000000  0.00000000  1
  Fe  Fe13  1  0.82744141  0.82744141  0.82744141  1
  Fe  Fe14  1  0.51767576  0.82744141  0.82744141  1
  Fe  Fe15  1  0.62164901  0.13505296  0.62164901  1
  Fe  Fe16  1  0.50000000  0.50000000  0.50000000  1
  Fe  Fe17  1  0.48232424  0.17255859  0.17255859  1
  Fe  Fe18  1  0.86494704  0.37835099  0.37835099  1
  Fe  Fe19  1  0.17255859  0.17255859  0.17255859  1
  Fe  Fe20  1  0.50000000  0.00000000  0.50000000  1
  Fe  Fe21  1  0.00000000  0.00000000  0.50000000  1
  Fe  Fe22  1  0.62164901  0.62164901  0.13505296  1
  Fe  Fe23  1  0.82744141  0.82744141  0.51767576  1
  Fe  Fe24  1  0.62164901  0.62164901  0.62164901  1
  Fe  Fe25  1  0.37835099  0.86494704  0.37835099  1
  Fe  Fe26  1  0.50000000  0.50000000  0.00000000  1
  Fe  Fe27  1  0.37835099  0.37835099  0.86494704  1
  Fe  Fe28  1  0.00000000  0.50000000  0.50000000  1
