# generated using pymatgen
data_K3Nb8O21
_symmetry_space_group_name_H-M   'P 1'
_cell_length_a   9.32651175
_cell_length_b   9.32651176
_cell_length_c   12.23901219
_cell_angle_alpha   90.00000000
_cell_angle_beta   90.00000000
_cell_angle_gamma   120.00000001
_symmetry_Int_Tables_number   1
_chemical_formula_structural   K3Nb8O21
_chemical_formula_sum   'K6 Nb16 O42'
_cell_volume   921.96722536
_cell_formula_units_Z   2
loop_
 _symmetry_equiv_pos_site_id
 _symmetry_equiv_pos_as_xyz
  1  'x, y, z'
loop_
 _atom_site_type_symbol
 _atom_site_label
 _atom_site_symmetry_multiplicity
 _atom_site_fract_x
 _atom_site_fract_y
 _atom_site_fract_z
 _atom_site_occupancy
  O  O0  1  0.79398669  0.79398669  0.75000000  1
  O  O1  1  0.00000000  0.79398669  0.25000000  1
  O  O2  1  0.79398669  0.00000000  0.25000000  1
  O  O3  1  0.20601331  0.00000000  0.75000000  1
  O  O4  1  0.00000000  0.20601331  0.75000000  1
  O  O5  1  0.20601331  0.20601331  0.25000000  1
  O  O6  1  0.20034033  0.20034033  0.92673578  1
  O  O7  1  0.79965967  0.00000000  0.92673578  1
  O  O8  1  0.00000000  0.79965967  0.92673578  1
  O  O9  1  0.00000000  0.20034033  0.42673578  1
  O  O10  1  0.79965967  0.00000000  0.57326422  1
  O  O11  1  0.79965967  0.79965967  0.42673578  1
  O  O12  1  0.20034033  0.00000000  0.42673578  1
  O  O13  1  0.79965967  0.79965967  0.07326422  1
  O  O14  1  0.00000000  0.20034033  0.07326422  1
  O  O15  1  0.48060550  0.31307269  0.40529671  1
  O  O16  1  0.00000000  0.79965967  0.57326422  1
  O  O17  1  0.20034033  0.00000000  0.07326422  1
  O  O18  1  0.51939450  0.83246719  0.09470329  1
  O  O19  1  0.16753281  0.68692731  0.09470329  1
  O  O20  1  0.31307269  0.48060550  0.09470329  1
  O  O21  1  0.68692731  0.51939450  0.59470329  1
  O  O22  1  0.48060550  0.31307269  0.09470329  1
  O  O23  1  0.16753281  0.48060550  0.59470329  1
  O  O24  1  0.31307269  0.83246719  0.59470329  1
  O  O25  1  0.68692731  0.16753281  0.09470329  1
  O  O26  1  0.83246719  0.51939450  0.09470329  1
  O  O27  1  0.16753281  0.68692731  0.40529671  1
  O  O28  1  0.51939450  0.83246719  0.40529671  1
  O  O29  1  0.51939450  0.68692731  0.59470329  1
  O  O30  1  0.31307269  0.48060550  0.40529671  1
  O  O31  1  0.68692731  0.51939450  0.90529671  1
  O  O32  1  0.83246719  0.31307269  0.90529671  1
  O  O33  1  0.48060550  0.16753281  0.90529671  1
  O  O34  1  0.51939450  0.68692731  0.90529671  1
  O  O35  1  0.83246719  0.51939450  0.40529671  1
  O  O36  1  0.68692731  0.16753281  0.40529671  1
  O  O37  1  0.31307269  0.83246719  0.90529671  1
  O  O38  1  0.16753281  0.48060550  0.90529671  1
  O  O39  1  0.83246719  0.31307269  0.59470329  1
  O  O40  1  0.48060550  0.16753281  0.59470329  1
  O  O41  1  0.20034033  0.20034033  0.57326422  1
  K  K42  1  0.40555603  0.40555603  0.75000000  1
  K  K43  1  0.00000000  0.40555603  0.25000000  1
  K  K44  1  0.40555603  0.00000000  0.25000000  1
  K  K45  1  0.59444397  0.00000000  0.75000000  1
  K  K46  1  0.00000000  0.59444397  0.75000000  1
  K  K47  1  0.59444397  0.59444397  0.25000000  1
  Nb  Nb48  1  0.24852610  0.00000000  0.90560660  1
  Nb  Nb49  1  0.00000000  0.24852610  0.90560660  1
  Nb  Nb50  1  0.75147390  0.75147390  0.90560660  1
  Nb  Nb51  1  0.24852610  0.24852610  0.40560660  1
  Nb  Nb52  1  0.75147390  0.75147390  0.59439340  1
  Nb  Nb53  1  0.75147390  0.00000000  0.40560660  1
  Nb  Nb54  1  0.00000000  0.75147390  0.40560660  1
  Nb  Nb55  1  0.00000000  0.75147390  0.09439340  1
  Nb  Nb56  1  0.75147390  0.00000000  0.09439340  1
  Nb  Nb57  1  0.24852610  0.00000000  0.59439340  1
  Nb  Nb58  1  0.00000000  0.24852610  0.59439340  1
  Nb  Nb59  1  0.24852610  0.24852610  0.09439340  1
  Nb  Nb60  1  0.66666667  0.33333333  0.50000000  1
  Nb  Nb61  1  0.33333333  0.66666667  0.00000000  1
  Nb  Nb62  1  0.33333333  0.66666667  0.50000000  1
  Nb  Nb63  1  0.66666667  0.33333333  0.00000000  1
