# generated using pymatgen
data_Cs2Pd(ICl2)2
_symmetry_space_group_name_H-M   'P 1'
_cell_length_a   7.46227449
_cell_length_b   7.46227490
_cell_length_c   7.46227389
_cell_angle_alpha   105.38013632
_cell_angle_beta   111.55468755
_cell_angle_gamma   111.55468063
_symmetry_Int_Tables_number   1
_chemical_formula_structural   Cs2Pd(ICl2)2
_chemical_formula_sum   'Cs2 Pd1 I2 Cl4'
_cell_volume   318.67166772
_cell_formula_units_Z   1
loop_
 _symmetry_equiv_pos_site_id
 _symmetry_equiv_pos_as_xyz
  1  'x, y, z'
loop_
 _atom_site_type_symbol
 _atom_site_label
 _atom_site_symmetry_multiplicity
 _atom_site_fract_x
 _atom_site_fract_y
 _atom_site_fract_z
 _atom_site_occupancy
  Cs  Cs0  1  0.50000000  0.75000000  0.25000000  1
  Cs  Cs1  1  0.50000000  0.25000000  0.75000000  1
  Pd  Pd2  1  0.00000000  0.00000000  0.00000000  1
  I  I3  1  1.00000000  0.65776011  0.65776011  1
  I  I4  1  0.00000000  0.34223989  0.34223989  1
  Cl  Cl5  1  0.00000000  0.19668822  0.80331178  1
  Cl  Cl6  1  0.39337644  0.19668822  0.19668822  1
  Cl  Cl7  1  1.00000000  0.80331178  0.19668822  1
  Cl  Cl8  1  0.60662356  0.80331178  0.80331178  1
