# generated using pymatgen
data_Cs3Li2Ga(MoO4)4
_symmetry_space_group_name_H-M   'P 1'
_cell_length_a   10.82439121
_cell_length_b   10.82439138
_cell_length_c   10.82439139
_cell_angle_alpha   109.35100331
_cell_angle_beta   109.35100364
_cell_angle_gamma   109.71192124
_symmetry_Int_Tables_number   1
_chemical_formula_structural   Cs3Li2Ga(MoO4)4
_chemical_formula_sum   'Cs6 Li4 Ga2 Mo8 O32'
_cell_volume   976.29895245
_cell_formula_units_Z   2
loop_
 _symmetry_equiv_pos_site_id
 _symmetry_equiv_pos_as_xyz
  1  'x, y, z'
loop_
 _atom_site_type_symbol
 _atom_site_label
 _atom_site_symmetry_multiplicity
 _atom_site_fract_x
 _atom_site_fract_y
 _atom_site_fract_z
 _atom_site_occupancy
  Cs  Cs0  1  0.51543773  0.12500000  0.89043773  1
  Cs  Cs1  1  0.23456227  0.62500000  0.10956227  1
  Cs  Cs2  1  0.37500000  0.48456227  0.60956227  1
  Cs  Cs3  1  0.87500000  0.76543773  0.39043773  1
  Cs  Cs4  1  0.75000000  0.25000000  0.50000000  1
  Cs  Cs5  1  0.00000000  0.00000000  0.00000000  1
  Li  Li6  1  0.75065531  0.62500000  0.62565531  1
  Li  Li7  1  0.87500000  0.24934469  0.87434469  1
  Li  Li8  1  0.99934469  0.12500000  0.37434469  1
  Li  Li9  1  0.37500000  0.00065531  0.12565531  1
  Ga  Ga10  1  0.25000000  0.75000000  0.50000000  1
  Ga  Ga11  1  0.50000000  0.50000000  0.00000000  1
  Mo  Mo12  1  0.12594172  0.68141908  0.74715659  1
  Mo  Mo13  1  0.31858092  0.06573751  0.44452265  1
  Mo  Mo14  1  0.62405828  0.87121487  0.05547735  1
  Mo  Mo15  1  0.93426249  0.37878513  0.25284341  1
  Mo  Mo16  1  0.62121487  0.87405828  0.55547735  1
  Mo  Mo17  1  0.81573751  0.56858092  0.94452265  1
  Mo  Mo18  1  0.12878513  0.18426249  0.75284341  1
  Mo  Mo19  1  0.43141908  0.37594172  0.24715659  1
  O  O20  1  0.86578001  0.42935180  0.87765483  1
  O  O21  1  0.05483161  0.24815670  0.86930061  1
  O  O22  1  0.33117385  0.32871176  0.82935891  1
  O  O23  1  0.41882615  0.74818506  0.49753791  1
  O  O24  1  0.12410244  0.01898488  0.74872805  1
  O  O25  1  0.76898488  0.37410244  0.24872805  1
  O  O26  1  0.47974317  0.23101512  0.60511756  1
  O  O27  1  0.67128824  0.50064715  0.00246209  1
  O  O28  1  0.99815670  0.30483161  0.36930061  1
  O  O29  1  0.88421999  0.26187482  0.06357180  1
  O  O30  1  0.81446900  0.94516839  0.19332509  1
  O  O31  1  0.19830302  0.82064820  0.93642820  1
  O  O32  1  0.62589756  0.87462561  0.39488244  1
  O  O33  1  0.73812518  0.80169698  0.62234517  1
  O  O34  1  0.25181494  0.74935285  0.67064109  1
  O  O35  1  0.62462561  0.87589756  0.89488244  1
  O  O36  1  0.01187482  0.13421999  0.56357180  1
  O  O37  1  0.75184330  0.62114391  0.80667491  1
  O  O38  1  0.27025683  0.37537439  0.25127195  1
  O  O39  1  0.57064820  0.44830302  0.43642820  1
  O  O40  1  0.93553100  0.62885609  0.63069939  1
  O  O41  1  0.07871176  0.58117385  0.32935891  1
  O  O42  1  0.17935180  0.11578001  0.37765483  1
  O  O43  1  0.69516839  0.06446900  0.69332509  1
  O  O44  1  0.12537439  0.52025683  0.75127195  1
  O  O45  1  0.49818506  0.66882615  0.99753791  1
  O  O46  1  0.55169698  0.98812518  0.12234517  1
  O  O47  1  0.37114391  0.00184330  0.30667491  1
  O  O48  1  0.25064715  0.92128824  0.50246209  1
  O  O49  1  0.49935285  0.50181494  0.17064109  1
  O  O50  1  0.37885609  0.18553100  0.13069939  1
  O  O51  1  0.98101512  0.72974317  0.10511756  1
