# generated using pymatgen
data_LiEu2Ge3
_symmetry_space_group_name_H-M   'P 1'
_cell_length_a   4.48257442
_cell_length_b   10.95986554
_cell_length_c   11.61931772
_cell_angle_alpha   90.00000000
_cell_angle_beta   90.00000000
_cell_angle_gamma   90.00000000
_symmetry_Int_Tables_number   1
_chemical_formula_structural   LiEu2Ge3
_chemical_formula_sum   'Li4 Eu8 Ge12'
_cell_volume   570.83863875
_cell_formula_units_Z   4
loop_
 _symmetry_equiv_pos_site_id
 _symmetry_equiv_pos_as_xyz
  1  'x, y, z'
loop_
 _atom_site_type_symbol
 _atom_site_label
 _atom_site_symmetry_multiplicity
 _atom_site_fract_x
 _atom_site_fract_y
 _atom_site_fract_z
 _atom_site_occupancy
  Eu  Eu0  1  0.50000000  0.55039188  0.85071325  1
  Eu  Eu1  1  0.50000000  0.44960812  0.14928675  1
  Eu  Eu2  1  0.50000000  0.17826327  0.92939138  1
  Eu  Eu3  1  0.00000000  0.67826327  0.57060862  1
  Eu  Eu4  1  0.00000000  0.32173673  0.42939138  1
  Eu  Eu5  1  0.00000000  0.05039188  0.64928675  1
  Eu  Eu6  1  0.00000000  0.94960812  0.35071325  1
  Eu  Eu7  1  0.50000000  0.82173673  0.07060862  1
  Li  Li8  1  0.00000000  0.64093428  0.28218309  1
  Li  Li9  1  0.00000000  0.35906572  0.71781691  1
  Li  Li10  1  0.50000000  0.85906572  0.78218309  1
  Li  Li11  1  0.50000000  0.14093428  0.21781691  1
  Ge  Ge12  1  0.00000000  0.74437513  0.85919050  1
  Ge  Ge13  1  0.50000000  0.88905805  0.54411292  1
  Ge  Ge14  1  0.00000000  0.61094195  0.04411292  1
  Ge  Ge15  1  0.00000000  0.38905805  0.95588708  1
  Ge  Ge16  1  0.50000000  0.24437513  0.64080950  1
  Ge  Ge17  1  0.00000000  0.25562487  0.14080950  1
  Ge  Ge18  1  0.00000000  0.97083632  0.89697220  1
  Ge  Ge19  1  0.50000000  0.47083632  0.60302780  1
  Ge  Ge20  1  0.00000000  0.02916368  0.10302780  1
  Ge  Ge21  1  0.50000000  0.11094195  0.45588708  1
  Ge  Ge22  1  0.50000000  0.75562487  0.35919050  1
  Ge  Ge23  1  0.50000000  0.52916368  0.39697220  1
