# generated using pymatgen
data_AlHO2
_symmetry_space_group_name_H-M   'P 1'
_cell_length_a   4.40543917
_cell_length_b   9.49649295
_cell_length_c   2.86695394
_cell_angle_alpha   90.00000000
_cell_angle_beta   90.00000000
_cell_angle_gamma   90.00000000
_symmetry_Int_Tables_number   1
_chemical_formula_structural   AlHO2
_chemical_formula_sum   'Al4 H4 O8'
_cell_volume   119.94252155
_cell_formula_units_Z   4
loop_
 _symmetry_equiv_pos_site_id
 _symmetry_equiv_pos_as_xyz
  1  'x, y, z'
loop_
 _atom_site_type_symbol
 _atom_site_label
 _atom_site_symmetry_multiplicity
 _atom_site_fract_x
 _atom_site_fract_y
 _atom_site_fract_z
 _atom_site_occupancy
  Al  Al0  1  0.45059027  0.35715056  0.25000000  1
  Al  Al1  1  0.04940973  0.85715056  0.25000000  1
  Al  Al2  1  0.54940973  0.64284944  0.75000000  1
  Al  Al3  1  0.95059027  0.14284944  0.75000000  1
  H  H4  1  0.08625411  0.59305868  0.25000000  1
  H  H5  1  0.41374589  0.09305868  0.25000000  1
  H  H6  1  0.91374589  0.40694132  0.75000000  1
  H  H7  1  0.58625411  0.90694132  0.75000000  1
  O  O8  1  0.79803019  0.69657079  0.25000000  1
  O  O9  1  0.70196981  0.19657079  0.25000000  1
  O  O10  1  0.20196981  0.30342921  0.75000000  1
  O  O11  1  0.29803019  0.80342921  0.75000000  1
  O  O12  1  0.30341481  0.55505505  0.25000000  1
  O  O13  1  0.19658519  0.05505505  0.25000000  1
  O  O14  1  0.69658519  0.44494495  0.75000000  1
  O  O15  1  0.80341481  0.94494495  0.75000000  1
