# generated using pymatgen
data_ScHO2
_symmetry_space_group_name_H-M   'P 1'
_cell_length_a   4.76550430
_cell_length_b   10.44862104
_cell_length_c   3.24956740
_cell_angle_alpha   90.00000000
_cell_angle_beta   90.00000000
_cell_angle_gamma   90.00000000
_symmetry_Int_Tables_number   1
_chemical_formula_structural   ScHO2
_chemical_formula_sum   'Sc4 H4 O8'
_cell_volume   161.80554218
_cell_formula_units_Z   4
loop_
 _symmetry_equiv_pos_site_id
 _symmetry_equiv_pos_as_xyz
  1  'x, y, z'
loop_
 _atom_site_type_symbol
 _atom_site_label
 _atom_site_symmetry_multiplicity
 _atom_site_fract_x
 _atom_site_fract_y
 _atom_site_fract_z
 _atom_site_occupancy
  Sc  Sc0  1  0.43026030  0.35625561  0.25000000  1
  Sc  Sc1  1  0.06973970  0.85625561  0.25000000  1
  Sc  Sc2  1  0.56973970  0.64374439  0.75000000  1
  Sc  Sc3  1  0.93026030  0.14374439  0.75000000  1
  H  H4  1  0.11152354  0.59578311  0.25000000  1
  H  H5  1  0.38847646  0.09578311  0.25000000  1
  H  H6  1  0.88847646  0.40421689  0.75000000  1
  H  H7  1  0.61152354  0.90421689  0.75000000  1
  O  O8  1  0.81359701  0.69646330  0.25000000  1
  O  O9  1  0.68640299  0.19646330  0.25000000  1
  O  O10  1  0.18640299  0.30353670  0.75000000  1
  O  O11  1  0.31359701  0.80353670  0.75000000  1
  O  O12  1  0.30529767  0.55957422  0.25000000  1
  O  O13  1  0.19470233  0.05957422  0.25000000  1
  O  O14  1  0.69470233  0.44042578  0.75000000  1
  O  O15  1  0.80529767  0.94042578  0.75000000  1
