# generated using pymatgen
data_Na6Mo11O36
_symmetry_space_group_name_H-M   'P 1'
_cell_length_a   7.41534733
_cell_length_b   9.82743947
_cell_length_c   22.85616581
_cell_angle_alpha   90.08668421
_cell_angle_beta   90.23302062
_cell_angle_gamma   67.83603800
_symmetry_Int_Tables_number   1
_chemical_formula_structural   Na6Mo11O36
_chemical_formula_sum   'Na12 Mo22 O72'
_cell_volume   1542.52894999
_cell_formula_units_Z   2
loop_
 _symmetry_equiv_pos_site_id
 _symmetry_equiv_pos_as_xyz
  1  'x, y, z'
loop_
 _atom_site_type_symbol
 _atom_site_label
 _atom_site_symmetry_multiplicity
 _atom_site_fract_x
 _atom_site_fract_y
 _atom_site_fract_z
 _atom_site_occupancy
  Na  Na0  1  0.98078857  0.00546901  0.17038412  1
  Na  Na1  1  0.51353834  0.50288847  0.58851522  1
  Na  Na2  1  0.50000000  0.00000000  0.50000000  1
  Na  Na3  1  0.49683035  0.50643329  0.75002164  1
  Na  Na4  1  0.51399563  0.00560478  0.32963297  1
  Na  Na5  1  0.48646166  0.49711153  0.41148478  1
  Na  Na6  1  0.48600437  0.99439522  0.67036703  1
  Na  Na7  1  0.01921143  0.99453099  0.82961588  1
  Na  Na8  1  0.48352531  0.50298527  0.91151985  1
  Na  Na9  1  0.00000000  0.00000000  0.00000000  1
  Na  Na10  1  0.51647469  0.49701473  0.08848015  1
  Na  Na11  1  0.50316965  0.49356671  0.24997836  1
  Mo  Mo12  1  0.12694771  0.81252973  0.67663793  1
  Mo  Mo13  1  0.05739973  0.30924922  0.08512761  1
  Mo  Mo14  1  0.54799843  0.83636497  0.17072497  1
  Mo  Mo15  1  0.54917517  0.81165037  0.00179542  1
  Mo  Mo16  1  0.13346628  0.30916005  0.41490629  1
  Mo  Mo17  1  0.13928532  0.81164032  0.49819549  1
  Mo  Mo18  1  0.86071468  0.18835968  0.50180451  1
  Mo  Mo19  1  0.86653372  0.69083995  0.58509371  1
  Mo  Mo20  1  0.95827712  0.68211690  0.08355654  1
  Mo  Mo21  1  0.06929456  0.36137592  0.74999793  1
  Mo  Mo22  1  0.88418112  0.16361104  0.67071693  1
  Mo  Mo23  1  0.93070544  0.63862408  0.25000207  1
  Mo  Mo24  1  0.11581888  0.83638896  0.32928307  1
  Mo  Mo25  1  0.45200157  0.16363503  0.82927503  1
  Mo  Mo26  1  0.04172288  0.31788310  0.91644346  1
  Mo  Mo27  1  0.87305229  0.18747027  0.32336207  1
  Mo  Mo28  1  0.45082483  0.18834963  0.99820458  1
  Mo  Mo29  1  0.85961569  0.68215697  0.41643379  1
  Mo  Mo30  1  0.43964536  0.18741275  0.17661136  1
  Mo  Mo31  1  0.94260027  0.69075078  0.91487239  1
  Mo  Mo32  1  0.14038431  0.31784303  0.58356621  1
  Mo  Mo33  1  0.56035464  0.81258725  0.82338864  1
  O  O34  1  0.12911275  0.30907699  0.99833380  1
  O  O35  1  0.51574790  0.31884261  0.83449703  1
  O  O36  1  0.80642800  0.52167397  0.25675177  1
  O  O37  1  0.05939918  0.29453911  0.33888401  1
  O  O38  1  0.36743839  0.66937254  0.49721828  1
  O  O39  1  0.89743482  0.17478178  0.24774495  1
  O  O40  1  0.63476509  0.82786711  0.41805297  1
  O  O41  1  0.19209450  0.97318797  0.49891046  1
  O  O42  1  0.84984717  0.48002738  0.08398306  1
  O  O43  1  0.94048498  0.19741067  0.42328656  1
  O  O44  1  0.96259166  0.17217578  0.91808657  1
  O  O45  1  0.16881140  0.98104705  0.65734154  1
  O  O46  1  0.36347556  0.17531698  0.75409879  1
  O  O47  1  0.64224845  0.80433516  0.08241523  1
  O  O48  1  0.63790896  0.80258359  0.92327438  1
  O  O49  1  0.07313173  0.30596175  0.66505831  1
  O  O50  1  0.17017473  0.47995266  0.41605698  1
  O  O51  1  0.57199372  0.82526895  0.74777045  1
  O  O52  1  0.17196223  0.52175482  0.24320835  1
  O  O53  1  0.31817605  0.98662341  0.16970013  1
  O  O54  1  0.63306041  0.82633389  0.58097006  1
  O  O55  1  0.34993457  0.98108602  0.84268159  1
  O  O56  1  0.87913252  0.69411313  0.16505692  1
  O  O57  1  0.17778085  0.52624175  0.08219609  1
  O  O58  1  0.46334722  0.66935034  0.00277464  1
  O  O59  1  0.04050518  0.82629839  0.91901186  1
  O  O60  1  0.48425210  0.68115739  0.16550297  1
  O  O61  1  0.03895624  0.82472302  0.25411355  1
  O  O62  1  0.35775155  0.19566484  0.91758477  1
  O  O63  1  0.52485736  0.33010725  0.16570266  1
  O  O64  1  0.94060082  0.70546089  0.66111599  1
  O  O65  1  0.36523491  0.17213289  0.58194703  1
  O  O66  1  0.10256518  0.82521822  0.75225505  1
  O  O67  1  0.03740834  0.82782422  0.08191343  1
  O  O68  1  0.95949482  0.17370161  0.08098814  1
  O  O69  1  0.53665278  0.33064966  0.99722536  1
  O  O70  1  0.82982527  0.52004734  0.58394302  1
  O  O71  1  0.19357200  0.47832603  0.74324823  1
  O  O72  1  0.65006543  0.01891398  0.15731841  1
  O  O73  1  0.06180371  0.30900661  0.50167991  1
  O  O74  1  0.12086748  0.30588687  0.83494308  1
  O  O75  1  0.66523636  0.31883563  0.66548557  1
  O  O76  1  0.82803777  0.47824518  0.75679165  1
  O  O77  1  0.66520700  0.02682197  0.99890934  1
  O  O78  1  0.80457020  0.01337051  0.66970738  1
  O  O79  1  0.42800628  0.17473105  0.25222955  1
  O  O80  1  0.63652444  0.82468302  0.24590121  1
  O  O81  1  0.64512140  0.33014076  0.33425491  1
  O  O82  1  0.05349661  0.80435781  0.41757827  1
  O  O83  1  0.83118860  0.01895295  0.34265846  1
  O  O84  1  0.33476364  0.68116437  0.33451443  1
  O  O85  1  0.15015283  0.51997262  0.91601694  1
  O  O86  1  0.20404060  0.47370652  0.58217537  1
  O  O87  1  0.94650339  0.19564219  0.58242173  1
  O  O88  1  0.14614313  0.29452311  0.16113812  1
  O  O89  1  0.93819629  0.69099339  0.49832009  1
  O  O90  1  0.79595940  0.52629348  0.41782463  1
  O  O91  1  0.19542980  0.98662949  0.33029262  1
  O  O92  1  0.92686827  0.69403825  0.33494169  1
  O  O93  1  0.85385687  0.70547689  0.83886188  1
  O  O94  1  0.80790550  0.02681203  0.50108954  1
  O  O95  1  0.35487860  0.66985924  0.66574509  1
  O  O96  1  0.63256161  0.33062746  0.50278172  1
  O  O97  1  0.05951502  0.80258933  0.57671344  1
  O  O98  1  0.36693959  0.17366611  0.41902994  1
  O  O99  1  0.87088725  0.69092301  0.00166620  1
  O  O100  1  0.33479300  0.97317803  0.00109066  1
  O  O101  1  0.96104376  0.17527698  0.74588645  1
  O  O102  1  0.47514264  0.66989275  0.83429734  1
  O  O103  1  0.36209104  0.19741641  0.07672562  1
  O  O104  1  0.82221915  0.47375825  0.91780391  1
  O  O105  1  0.68182395  0.01337659  0.83029987  1
