# generated using pymatgen
data_BaNdFe2O5
_symmetry_space_group_name_H-M   'P 1'
_cell_length_a   4.03121813
_cell_length_b   7.76431335
_cell_length_c   8.05774665
_cell_angle_alpha   90.00000000
_cell_angle_beta   90.00000000
_cell_angle_gamma   90.00000000
_symmetry_Int_Tables_number   1
_chemical_formula_structural   BaNdFe2O5
_chemical_formula_sum   'Ba2 Nd2 Fe4 O10'
_cell_volume   252.20457535
_cell_formula_units_Z   2
loop_
 _symmetry_equiv_pos_site_id
 _symmetry_equiv_pos_as_xyz
  1  'x, y, z'
loop_
 _atom_site_type_symbol
 _atom_site_label
 _atom_site_symmetry_multiplicity
 _atom_site_fract_x
 _atom_site_fract_y
 _atom_site_fract_z
 _atom_site_occupancy
  Ba  Ba0  1  0.00000000  0.99953205  0.00305023  1
  Ba  Ba1  1  0.00000000  0.00046795  0.50305023  1
  Nd  Nd2  1  0.00000000  0.49950114  0.00362440  1
  Nd  Nd3  1  0.00000000  0.50049886  0.50362440  1
  Fe  Fe4  1  0.50000000  0.26332648  0.25343820  1
  Fe  Fe5  1  0.50000000  0.26100287  0.75331669  1
  Fe  Fe6  1  0.50000000  0.73899713  0.25331669  1
  Fe  Fe7  1  0.50000000  0.73667352  0.75343820  1
  O  O8  1  0.00000000  0.69398224  0.75376055  1
  O  O9  1  0.50000000  0.30544024  0.00210897  1
  O  O10  1  0.00000000  0.69328907  0.25336701  1
  O  O11  1  0.00000000  0.30671093  0.75336701  1
  O  O12  1  0.50000000  0.99742752  0.25333475  1
  O  O13  1  0.00000000  0.30601776  0.25376055  1
  O  O14  1  0.50000000  0.69324029  0.00479921  1
  O  O15  1  0.50000000  0.69455976  0.50210897  1
  O  O16  1  0.50000000  0.00257248  0.75333475  1
  O  O17  1  0.50000000  0.30675971  0.50479921  1
