# generated using pymatgen
data_Al5HO8
_symmetry_space_group_name_H-M   'P 1'
_cell_length_a   5.62990079
_cell_length_b   5.63633581
_cell_length_c   8.84678956
_cell_angle_alpha   89.99958566
_cell_angle_beta   90.00000000
_cell_angle_gamma   119.96224002
_symmetry_Int_Tables_number   1
_chemical_formula_structural   Al5HO8
_chemical_formula_sum   'Al10 H2 O16'
_cell_volume   243.20866929
_cell_formula_units_Z   2
loop_
 _symmetry_equiv_pos_site_id
 _symmetry_equiv_pos_as_xyz
  1  'x, y, z'
loop_
 _atom_site_type_symbol
 _atom_site_label
 _atom_site_symmetry_multiplicity
 _atom_site_fract_x
 _atom_site_fract_y
 _atom_site_fract_z
 _atom_site_occupancy
  Al  Al0  1  0.83426174  0.16572338  0.86581336  1
  Al  Al1  1  0.83425556  0.66851111  0.86581404  1
  Al  Al2  1  0.33146164  0.16572338  0.86581336  1
  Al  Al3  1  0.16572273  0.83428370  0.36580675  1
  Al  Al4  1  0.16572962  0.33145925  0.36581240  1
  Al  Al5  1  0.66856098  0.83428370  0.36580675  1
  Al  Al6  1  0.33332893  0.66665785  0.66018943  1
  Al  Al7  1  0.66667967  0.33335934  0.16018032  1
  Al  Al8  1  0.66663108  0.33326215  0.54747109  1
  Al  Al9  1  0.33335938  0.66671877  0.04742741  1
  H  H10  1  0.00000056  0.00000111  0.59669235  1
  H  H11  1  0.00000142  0.00000283  0.09669114  1
  O  O12  1  0.00000316  0.00000633  0.48428629  1
  O  O13  1  -0.00000136  -0.00000273  0.98428719  1
  O  O14  1  0.48560401  0.51440124  0.50114687  1
  O  O15  1  0.48561331  0.97122663  0.50115326  1
  O  O16  1  0.02879723  0.51440124  0.50114687  1
  O  O17  1  0.51439652  0.48560269  0.00114952  1
  O  O18  1  0.51439262  0.02878525  0.00114995  1
  O  O19  1  0.97120617  0.48560269  0.00114952  1
  O  O20  1  0.66875131  0.83437858  0.76264545  1
  O  O21  1  0.16562727  0.83437858  0.76264545  1
  O  O22  1  0.16561408  0.33122816  0.76264456  1
  O  O23  1  0.33123003  0.16561371  0.26264795  1
  O  O24  1  0.83438367  0.16561371  0.26264795  1
  O  O25  1  0.83439666  0.66879332  0.26264728  1
  O  O26  1  0.66666228  0.33332456  0.75461364  1
  O  O27  1  0.33332974  0.66665947  0.25462186  1
