# generated using pymatgen
data_Sr21In8Pb7
_symmetry_space_group_name_H-M   'P 1'
_cell_length_a   12.51510237
_cell_length_b   12.51507670
_cell_length_c   12.51511974
_cell_angle_alpha   59.99977790
_cell_angle_beta   59.99984017
_cell_angle_gamma   59.99993870
_symmetry_Int_Tables_number   1
_chemical_formula_structural   Sr21In8Pb7
_chemical_formula_sum   'Sr21 In8 Pb7'
_cell_volume   1386.07419547
_cell_formula_units_Z   1
loop_
 _symmetry_equiv_pos_site_id
 _symmetry_equiv_pos_as_xyz
  1  'x, y, z'
loop_
 _atom_site_type_symbol
 _atom_site_label
 _atom_site_symmetry_multiplicity
 _atom_site_fract_x
 _atom_site_fract_y
 _atom_site_fract_z
 _atom_site_occupancy
  Sr  Sr0  1  0.38305245  0.87231522  0.87231653  1
  Sr  Sr1  1  0.49999989  0.18217041  0.50000006  1
  Sr  Sr2  1  0.18217070  0.49999960  0.49999985  1
  Sr  Sr3  1  0.87231597  0.38305235  0.87231675  1
  Sr  Sr4  1  0.12768419  0.61694839  0.12768336  1
  Sr  Sr5  1  0.50000024  0.81782962  0.18216997  1
  Sr  Sr6  1  0.61694754  0.12768400  0.12768396  1
  Sr  Sr7  1  0.81782860  0.50000016  0.50000064  1
  Sr  Sr8  1  0.18217075  0.50000012  0.81782922  1
  Sr  Sr9  1  0.81782910  0.18217072  0.49999993  1
  Sr  Sr10  1  0.50000007  0.49999897  0.18217117  1
  Sr  Sr11  1  0.12768440  0.12768357  0.61694883  1
  Sr  Sr12  1  0.12768439  0.12768369  0.12768347  1
  Sr  Sr13  1  0.18216971  0.81782901  0.50000072  1
  Sr  Sr14  1  0.50000015  0.81782994  0.49999928  1
  Sr  Sr15  1  0.00000032  0.00000096  0.99999922  1
  Sr  Sr16  1  0.87231588  0.87231713  0.87231630  1
  Sr  Sr17  1  0.49999987  0.50000023  0.81782882  1
  Sr  Sr18  1  0.81782836  0.50000071  0.18217097  1
  Sr  Sr19  1  0.87231651  0.87231688  0.38305019  1
  Sr  Sr20  1  0.50000015  0.18217053  0.81782968  1
  In  In21  1  0.68906357  0.68906378  0.68906380  1
  In  In22  1  0.68906376  0.93280890  0.68906317  1
  In  In23  1  0.31093684  0.31093678  0.06719021  1
  In  In24  1  0.68906343  0.68906307  0.93280980  1
  In  In25  1  0.31093637  0.06719051  0.31093697  1
  In  In26  1  0.06719059  0.31093626  0.31093668  1
  In  In27  1  0.93280950  0.68906334  0.68906345  1
  In  In28  1  0.31093631  0.31093626  0.31093663  1
  Pb  Pb29  1  0.78734030  0.21265973  0.21265944  1
  Pb  Pb30  1  0.78734055  0.21265952  0.78734027  1
  Pb  Pb31  1  0.21265967  0.78733986  0.21265996  1
  Pb  Pb32  1  0.21265985  0.21265954  0.78734032  1
  Pb  Pb33  1  0.21265951  0.78734039  0.78734057  1
  Pb  Pb34  1  0.78734035  0.78734008  0.21265970  1
  Pb  Pb35  1  0.50000016  0.49999978  0.50000011  1
