# generated using pymatgen
data_K3Lu(SiO3)3
_symmetry_space_group_name_H-M   'P 1'
_cell_length_a   5.86784526
_cell_length_b   13.00989976
_cell_length_c   14.11711439
_cell_angle_alpha   90.00000000
_cell_angle_beta   90.00000000
_cell_angle_gamma   90.00000000
_symmetry_Int_Tables_number   1
_chemical_formula_structural   K3Lu(SiO3)3
_chemical_formula_sum   'K12 Lu4 Si12 O36'
_cell_volume   1077.70162270
_cell_formula_units_Z   4
loop_
 _symmetry_equiv_pos_site_id
 _symmetry_equiv_pos_as_xyz
  1  'x, y, z'
loop_
 _atom_site_type_symbol
 _atom_site_label
 _atom_site_symmetry_multiplicity
 _atom_site_fract_x
 _atom_site_fract_y
 _atom_site_fract_z
 _atom_site_occupancy
  K  K0  1  0.85713896  0.33611833  0.50000000  1
  K  K1  1  0.85614500  0.34835530  0.00000000  1
  K  K2  1  0.34109703  0.62621059  0.73515658  1
  K  K3  1  0.14385500  0.84835530  0.50000000  1
  K  K4  1  0.34556919  0.12154047  0.50000000  1
  K  K5  1  0.65890297  0.12621059  0.23515658  1
  K  K6  1  0.34109703  0.62621059  0.26484342  1
  K  K7  1  0.30384267  0.10709725  0.00000000  1
  K  K8  1  0.65890297  0.12621059  0.76484342  1
  K  K9  1  0.65443081  0.62154047  0.00000000  1
  K  K10  1  0.69615733  0.60709725  0.50000000  1
  K  K11  1  0.14286104  0.83611833  0.00000000  1
  Lu  Lu12  1  0.14481623  0.95932387  0.24298171  1
  Lu  Lu13  1  0.85518377  0.45932387  0.25701829  1
  Lu  Lu14  1  0.14481623  0.95932387  0.75701829  1
  Lu  Lu15  1  0.85518377  0.45932387  0.74298171  1
  Si  Si16  1  0.34897947  0.42011880  0.11588746  1
  Si  Si17  1  0.82989673  0.74370669  0.73302613  1
  Si  Si18  1  0.65102053  0.92011880  0.38411254  1
  Si  Si19  1  0.82989673  0.74370669  0.26697387  1
  Si  Si20  1  0.17010327  0.24370669  0.23302613  1
  Si  Si21  1  0.65484050  0.88246538  0.11182349  1
  Si  Si22  1  0.65102053  0.92011880  0.61588746  1
  Si  Si23  1  0.17010327  0.24370669  0.76697387  1
  Si  Si24  1  0.34515950  0.38246538  0.38817651  1
  Si  Si25  1  0.34515950  0.38246538  0.61182349  1
  Si  Si26  1  0.65484050  0.88246538  0.88817651  1
  Si  Si27  1  0.34897947  0.42011880  0.88411254  1
  O  O28  1  0.59398428  0.46906695  0.14500232  1
  O  O29  1  0.59215340  0.43442617  0.36899061  1
  O  O30  1  0.17445126  0.12198002  0.78718910  1
  O  O31  1  0.12739300  0.48452156  0.14909445  1
  O  O32  1  0.32876333  0.29582523  0.14660083  1
  O  O33  1  0.59398428  0.46906695  0.85499768  1
  O  O34  1  0.65772673  0.83775060  0.00000000  1
  O  O35  1  0.59215340  0.43442617  0.63100939  1
  O  O36  1  0.12739300  0.48452156  0.85090555  1
  O  O37  1  0.12688527  0.45502069  0.36866174  1
  O  O38  1  0.40784660  0.93442617  0.86899061  1
  O  O39  1  0.67123667  0.79582523  0.64660083  1
  O  O40  1  0.31561958  0.26812314  0.66679813  1
  O  O41  1  0.17445126  0.12198002  0.21281090  1
  O  O42  1  0.32876333  0.29582523  0.85339917  1
  O  O43  1  0.40601572  0.96906695  0.64500232  1
  O  O44  1  0.87311473  0.95502069  0.13133826  1
  O  O45  1  0.82554874  0.62198002  0.71281090  1
  O  O46  1  0.64956728  0.90716727  0.50000000  1
  O  O47  1  0.91895740  0.29419630  0.76434674  1
  O  O48  1  0.67123667  0.79582523  0.35339917  1
  O  O49  1  0.91895740  0.29419630  0.23565326  1
  O  O50  1  0.87311473  0.95502069  0.86866174  1
  O  O51  1  0.35043272  0.40716727  0.00000000  1
  O  O52  1  0.40784660  0.93442617  0.13100939  1
  O  O53  1  0.68438042  0.76812314  0.83320187  1
  O  O54  1  0.08104260  0.79419630  0.73565326  1
  O  O55  1  0.12688527  0.45502069  0.63133826  1
  O  O56  1  0.68438042  0.76812314  0.16679813  1
  O  O57  1  0.40601572  0.96906695  0.35499768  1
  O  O58  1  0.87260700  0.98452156  0.35090555  1
  O  O59  1  0.08104260  0.79419630  0.26434674  1
  O  O60  1  0.87260700  0.98452156  0.64909445  1
  O  O61  1  0.34227327  0.33775060  0.50000000  1
  O  O62  1  0.82554874  0.62198002  0.28718910  1
  O  O63  1  0.31561958  0.26812314  0.33320187  1
