# generated using pymatgen
data_Fe2CuH4(OF4)2
_symmetry_space_group_name_H-M   'P 1'
_cell_length_a   5.40147288
_cell_length_b   5.40147288
_cell_length_c   13.19835786
_cell_angle_alpha   89.56321618
_cell_angle_beta   90.43678382
_cell_angle_gamma   89.95737851
_symmetry_Int_Tables_number   1
_chemical_formula_structural   Fe2CuH4(OF4)2
_chemical_formula_sum   'Fe4 Cu2 H8 O4 F16'
_cell_volume   385.05158919
_cell_formula_units_Z   2
loop_
 _symmetry_equiv_pos_site_id
 _symmetry_equiv_pos_as_xyz
  1  'x, y, z'
loop_
 _atom_site_type_symbol
 _atom_site_label
 _atom_site_symmetry_multiplicity
 _atom_site_fract_x
 _atom_site_fract_y
 _atom_site_fract_z
 _atom_site_occupancy
  Fe  Fe0  1  0.20553768  0.70600848  0.75278874  1
  Fe  Fe1  1  0.70600848  0.20553768  0.74721126  1
  Fe  Fe2  1  0.79446232  0.29399152  0.24721126  1
  Fe  Fe3  1  0.29399152  0.79446232  0.25278874  1
  Cu  Cu4  1  0.00000000  0.50000000  0.50000000  1
  Cu  Cu5  1  0.50000000  0.00000000  0.00000000  1
  H  H6  1  0.24838495  0.40962608  0.96197495  1
  H  H7  1  0.40962608  0.24838495  0.53802505  1
  H  H8  1  0.75161505  0.59037392  0.03802505  1
  H  H9  1  0.59037392  0.75161505  0.46197495  1
  H  H10  1  0.90949351  0.75675636  0.95916011  1
  H  H11  1  0.75675636  0.90949351  0.54083989  1
  H  H12  1  0.09050649  0.24324364  0.04083989  1
  H  H13  1  0.24324364  0.09050649  0.45916011  1
  O  O14  1  0.24536991  0.25486603  0.00177389  1
  O  O15  1  0.25486603  0.24536991  0.49822611  1
  O  O16  1  0.75463009  0.74513397  0.99822611  1
  O  O17  1  0.74513397  0.75463009  0.50177389  1
  F  F18  1  0.00739505  0.39859570  0.76814587  1
  F  F19  1  0.39859570  0.00739505  0.73185413  1
  F  F20  1  0.99260495  0.60140430  0.23185413  1
  F  F21  1  0.60140430  0.99260495  0.26814587  1
  F  F22  1  0.17619625  0.66935027  0.60622113  1
  F  F23  1  0.66935027  0.17619625  0.89377887  1
  F  F24  1  0.82380375  0.33064973  0.39377887  1
  F  F25  1  0.33064973  0.82380375  0.10622113  1
  F  F26  1  0.21435238  0.72031652  0.89919708  1
  F  F27  1  0.72031652  0.21435238  0.60080292  1
  F  F28  1  0.78564762  0.27968348  0.10080292  1
  F  F29  1  0.27968348  0.78564762  0.39919708  1
  F  F30  1  0.89855097  0.89855097  0.75000000  1
  F  F31  1  0.10144903  0.10144903  0.25000000  1
  F  F32  1  0.50843315  0.50843315  0.75000000  1
  F  F33  1  0.49156685  0.49156685  0.25000000  1
