# generated using pymatgen
data_Yb4Mg3H14
_symmetry_space_group_name_H-M   'P 1'
_cell_length_a   6.20014506
_cell_length_b   6.20014496
_cell_length_c   6.78021108
_cell_angle_alpha   90.00000000
_cell_angle_beta   90.00000000
_cell_angle_gamma   120.00022725
_symmetry_Int_Tables_number   1
_chemical_formula_structural   Yb4Mg3H14
_chemical_formula_sum   'Yb4 Mg3 H14'
_cell_volume   225.72338032
_cell_formula_units_Z   1
loop_
 _symmetry_equiv_pos_site_id
 _symmetry_equiv_pos_as_xyz
  1  'x, y, z'
loop_
 _atom_site_type_symbol
 _atom_site_label
 _atom_site_symmetry_multiplicity
 _atom_site_fract_x
 _atom_site_fract_y
 _atom_site_fract_z
 _atom_site_occupancy
  Yb  Yb0  1  0.00000928  0.00000928  0.73247991  1
  Yb  Yb1  1  0.00000928  0.00000928  0.26752009  1
  Yb  Yb2  1  0.66668342  0.33335184  0.50000000  1
  Yb  Yb3  1  0.33335184  0.66668342  0.50000000  1
  Mg  Mg4  1  0.44105245  0.44105245  0.00000000  1
  Mg  Mg5  1  0.55896655  0.00002749  0.00000000  1
  Mg  Mg6  1  0.00002749  0.55896655  0.00000000  1
  H  H7  1  0.38608976  0.38608976  0.72108626  1
  H  H8  1  0.61392539  0.00000930  0.72108703  1
  H  H9  1  0.00000930  0.61392539  0.72108703  1
  H  H10  1  0.38608976  0.38608976  0.27891374  1
  H  H11  1  0.61392539  0.00000930  0.27891297  1
  H  H12  1  0.00000930  0.61392539  0.27891297  1
  H  H13  1  0.73693291  0.73693291  0.50000000  1
  H  H14  1  0.26308797  0.00000864  0.50000000  1
  H  H15  1  0.00000864  0.26308797  0.50000000  1
  H  H16  1  0.76987301  0.76987301  0.00000000  1
  H  H17  1  0.23014300  0.00000596  0.00000000  1
  H  H18  1  0.00000596  0.23014300  0.00000000  1
  H  H19  1  0.66666647  0.33333282  0.00000000  1
  H  H20  1  0.33333282  0.66666647  0.00000000  1
