# generated using pymatgen
data_La4Mo7O27
_symmetry_space_group_name_H-M   'P 1'
_cell_length_a   7.39160783
_cell_length_b   14.34215180
_cell_length_c   23.31370751
_cell_angle_alpha   90.00000000
_cell_angle_beta   90.00000000
_cell_angle_gamma   90.00000000
_symmetry_Int_Tables_number   1
_chemical_formula_structural   La4Mo7O27
_chemical_formula_sum   'La16 Mo28 O108'
_cell_volume   2471.52253851
_cell_formula_units_Z   4
loop_
 _symmetry_equiv_pos_site_id
 _symmetry_equiv_pos_as_xyz
  1  'x, y, z'
loop_
 _atom_site_type_symbol
 _atom_site_label
 _atom_site_symmetry_multiplicity
 _atom_site_fract_x
 _atom_site_fract_y
 _atom_site_fract_z
 _atom_site_occupancy
  La  La0  1  0.01658931  0.84041878  0.11244559  1
  La  La1  1  0.99639558  0.40278363  0.84872207  1
  La  La2  1  0.01658931  0.65958122  0.61244559  1
  La  La3  1  0.50895602  0.70113859  0.10555180  1
  La  La4  1  0.98341069  0.34041878  0.11244559  1
  La  La5  1  0.48552266  0.53879962  0.84592428  1
  La  La6  1  0.50895602  0.79886141  0.60555180  1
  La  La7  1  0.00360442  0.59721637  0.34872207  1
  La  La8  1  0.98341069  0.15958122  0.61244559  1
  La  La9  1  0.51447734  0.03879962  0.84592428  1
  La  La10  1  0.49104398  0.20113859  0.10555180  1
  La  La11  1  0.49104398  0.29886141  0.60555180  1
  La  La12  1  0.00360442  0.90278363  0.84872207  1
  La  La13  1  0.99639558  0.09721637  0.34872207  1
  La  La14  1  0.48552266  0.96120038  0.34592428  1
  La  La15  1  0.51447734  0.46120038  0.34592428  1
  Mo  Mo16  1  0.98548575  0.86769982  0.28985527  1
  Mo  Mo17  1  0.51052009  0.80803347  0.79103250  1
  Mo  Mo18  1  0.32285171  0.07364354  0.50031903  1
  Mo  Mo19  1  0.67714829  0.92635646  0.00031903  1
  Mo  Mo20  1  0.32285171  0.42635646  0.00031903  1
  Mo  Mo21  1  0.78787073  0.97719703  0.48641049  1
  Mo  Mo22  1  0.50459605  0.43296778  0.17092200  1
  Mo  Mo23  1  0.67714829  0.57364354  0.50031903  1
  Mo  Mo24  1  0.81236246  0.19036845  0.96619180  1
  Mo  Mo25  1  0.51052009  0.69196653  0.29103250  1
  Mo  Mo26  1  0.18763754  0.80963155  0.46619180  1
  Mo  Mo27  1  0.01451425  0.13230018  0.78985527  1
  Mo  Mo28  1  0.48947991  0.30803347  0.79103250  1
  Mo  Mo29  1  0.99288513  0.61367048  0.16725154  1
  Mo  Mo30  1  0.48947991  0.19196653  0.29103250  1
  Mo  Mo31  1  0.49540395  0.56703222  0.67092200  1
  Mo  Mo32  1  0.99288513  0.88632952  0.66725154  1
  Mo  Mo33  1  0.00711487  0.38632952  0.66725154  1
  Mo  Mo34  1  0.50459605  0.06703222  0.67092200  1
  Mo  Mo35  1  0.21212927  0.47719703  0.48641049  1
  Mo  Mo36  1  0.00711487  0.11367048  0.16725154  1
  Mo  Mo37  1  0.81236246  0.30963155  0.46619180  1
  Mo  Mo38  1  0.18763754  0.69036845  0.96619180  1
  Mo  Mo39  1  0.49540395  0.93296778  0.17092200  1
  Mo  Mo40  1  0.98548575  0.63230018  0.78985527  1
  Mo  Mo41  1  0.21212927  0.02280297  0.98641049  1
  Mo  Mo42  1  0.01451425  0.36769982  0.28985527  1
  Mo  Mo43  1  0.78787073  0.52280297  0.98641049  1
  O  O44  1  0.76102801  0.50659054  0.90835306  1
  O  O45  1  0.14986252  0.56635639  0.83263858  1
  O  O46  1  0.51635788  0.70252424  0.83141086  1
  O  O47  1  0.34225450  0.39801653  0.52808886  1
  O  O48  1  0.94265521  0.34461849  0.21797380  1
  O  O49  1  0.52646448  0.54752727  0.14233875  1
  O  O50  1  0.71825823  0.89046650  0.16050307  1
  O  O51  1  0.24558719  0.76228472  0.53552994  1
  O  O52  1  0.56757330  0.06981726  0.48994946  1
  O  O53  1  0.62656911  0.36899355  0.43451507  1
  O  O54  1  0.32111999  0.39100594  0.81637819  1
  O  O55  1  0.20829740  0.44168517  0.29361095  1
  O  O56  1  0.20829740  0.05831483  0.79361095  1
  O  O57  1  0.98252894  0.88500158  0.47241565  1
  O  O58  1  0.73348645  0.67668892  0.54333275  1
  O  O59  1  0.37343089  0.63100645  0.93451507  1
  O  O60  1  0.85013748  0.06635639  0.83263858  1
  O  O61  1  0.47493796  0.21724230  0.21638238  1
  O  O62  1  0.19949443  0.82954171  0.64764983  1
  O  O63  1  0.47353552  0.04752727  0.14233875  1
  O  O64  1  0.06314017  0.25907352  0.32349944  1
  O  O65  1  0.05734479  0.65538151  0.71797380  1
  O  O66  1  0.80050557  0.17045829  0.14764983  1
  O  O67  1  0.71825823  0.60953350  0.66050307  1
  O  O68  1  0.67888001  0.60899406  0.31637819  1
  O  O69  1  0.24558719  0.73771528  0.03552994  1
  O  O70  1  0.06314017  0.24092648  0.82349944  1
  O  O71  1  0.05734479  0.84461849  0.21797380  1
  O  O72  1  0.87046583  0.28634644  0.92260166  1
  O  O73  1  0.77988550  0.57119202  0.42972079  1
  O  O74  1  0.03764603  0.00325055  0.13417471  1
  O  O75  1  0.26651355  0.32331108  0.04333275  1
  O  O76  1  0.52506204  0.71724230  0.21638238  1
  O  O77  1  0.32111999  0.10899406  0.31637819  1
  O  O78  1  0.91937829  0.06228000  0.52279294  1
  O  O79  1  0.26774395  0.97304131  0.53877731  1
  O  O80  1  0.56757330  0.43018274  0.98994946  1
  O  O81  1  0.65774550  0.60198347  0.02808886  1
  O  O82  1  0.97558474  0.59853640  0.24262452  1
  O  O83  1  0.48364212  0.29747576  0.33141086  1
  O  O84  1  0.26651355  0.17668892  0.54333275  1
  O  O85  1  0.87046583  0.21365356  0.42260166  1
  O  O86  1  0.51635788  0.79747576  0.33141086  1
  O  O87  1  0.19949443  0.67045829  0.14764983  1
  O  O88  1  0.12953417  0.78634644  0.92260166  1
  O  O89  1  0.94265521  0.15538151  0.71797380  1
  O  O90  1  0.47493796  0.28275770  0.71638238  1
  O  O91  1  0.96235397  0.50325055  0.13417471  1
  O  O92  1  0.43242670  0.93018274  0.98994946  1
  O  O93  1  0.12953417  0.71365356  0.42260166  1
  O  O94  1  0.23897199  0.49340946  0.40835306  1
  O  O95  1  0.31081648  0.62705165  0.30930359  1
  O  O96  1  0.02441526  0.09853640  0.24262452  1
  O  O97  1  0.31081648  0.87294835  0.80930359  1
  O  O98  1  0.03764603  0.49674945  0.63417471  1
  O  O99  1  0.52506204  0.78275770  0.71638238  1
  O  O100  1  0.16950114  0.30237906  0.63766630  1
  O  O101  1  0.14986252  0.93364361  0.33263858  1
  O  O102  1  0.34225450  0.10198347  0.02808886  1
  O  O103  1  0.23897199  0.00659054  0.90835306  1
  O  O104  1  0.83049886  0.80237906  0.63766630  1
  O  O105  1  0.35077587  0.85358903  0.12933196  1
  O  O106  1  0.43565434  0.56125727  0.74503519  1
  O  O107  1  0.16950114  0.19762094  0.13766630  1
  O  O108  1  0.98252894  0.61499842  0.97241565  1
  O  O109  1  0.75441281  0.23771528  0.03552994  1
  O  O110  1  0.64922413  0.35358903  0.12933196  1
  O  O111  1  0.85013748  0.43364361  0.33263858  1
  O  O112  1  0.68918352  0.37294835  0.80930359  1
  O  O113  1  0.75441281  0.26228472  0.53552994  1
  O  O114  1  0.68918352  0.12705165  0.30930359  1
  O  O115  1  0.64922413  0.14641097  0.62933196  1
  O  O116  1  0.65774550  0.89801653  0.52808886  1
  O  O117  1  0.77988550  0.92880798  0.92972079  1
  O  O118  1  0.43242670  0.56981726  0.48994946  1
  O  O119  1  0.91937829  0.43772000  0.02279294  1
  O  O120  1  0.37343089  0.86899355  0.43451507  1
  O  O121  1  0.80050557  0.32954171  0.64764983  1
  O  O122  1  0.28174177  0.39046650  0.16050307  1
  O  O123  1  0.62656911  0.13100645  0.93451507  1
  O  O124  1  0.56434566  0.06125727  0.74503519  1
  O  O125  1  0.93685983  0.74092648  0.82349944  1
  O  O126  1  0.01747106  0.38500158  0.47241565  1
  O  O127  1  0.96235397  0.99674945  0.63417471  1
  O  O128  1  0.35077587  0.64641097  0.62933196  1
  O  O129  1  0.73225605  0.02695869  0.03877731  1
  O  O130  1  0.08062171  0.93772000  0.02279294  1
  O  O131  1  0.83049886  0.69762094  0.13766630  1
  O  O132  1  0.47353552  0.45247273  0.64233875  1
  O  O133  1  0.97558474  0.90146360  0.74262452  1
  O  O134  1  0.93685983  0.75907352  0.32349944  1
  O  O135  1  0.48364212  0.20252424  0.83141086  1
  O  O136  1  0.43565434  0.93874273  0.24503519  1
  O  O137  1  0.22011450  0.42880798  0.92972079  1
  O  O138  1  0.67888001  0.89100594  0.81637819  1
  O  O139  1  0.73348645  0.82331108  0.04333275  1
  O  O140  1  0.01747106  0.11499842  0.97241565  1
  O  O141  1  0.79170260  0.94168517  0.29361095  1
  O  O142  1  0.02441526  0.40146360  0.74262452  1
  O  O143  1  0.79170260  0.55831483  0.79361095  1
  O  O144  1  0.73225605  0.47304131  0.53877731  1
  O  O145  1  0.08062171  0.56228000  0.52279294  1
  O  O146  1  0.52646448  0.95247273  0.64233875  1
  O  O147  1  0.26774395  0.52695869  0.03877731  1
  O  O148  1  0.56434566  0.43874273  0.24503519  1
  O  O149  1  0.76102801  0.99340946  0.40835306  1
  O  O150  1  0.22011450  0.07119202  0.42972079  1
  O  O151  1  0.28174177  0.10953350  0.66050307  1
