# generated using pymatgen
data_Fe5Te6(ClO9)2
_symmetry_space_group_name_H-M   'P 1'
_cell_length_a   4.97610255
_cell_length_b   9.36193689
_cell_length_c   10.63963941
_cell_angle_alpha   106.04242847
_cell_angle_beta   90.79964339
_cell_angle_gamma   104.02069586
_symmetry_Int_Tables_number   1
_chemical_formula_structural   Fe5Te6(ClO9)2
_chemical_formula_sum   'Fe5 Te6 Cl2 O18'
_cell_volume   460.42093927
_cell_formula_units_Z   1
loop_
 _symmetry_equiv_pos_site_id
 _symmetry_equiv_pos_as_xyz
  1  'x, y, z'
loop_
 _atom_site_type_symbol
 _atom_site_label
 _atom_site_symmetry_multiplicity
 _atom_site_fract_x
 _atom_site_fract_y
 _atom_site_fract_z
 _atom_site_occupancy
  Fe  Fe0  1  0.29307177  0.58610282  0.04579131  1
  Fe  Fe1  1  0.50814726  0.08415028  0.80167370  1
  Fe  Fe2  1  0.49185274  0.91584972  0.19832630  1
  Fe  Fe3  1  0.00000000  0.00000000  0.50000000  1
  Fe  Fe4  1  0.70692823  0.41389718  0.95420869  1
  Te  Te5  1  0.18040712  0.35051828  0.70279063  1
  Te  Te6  1  0.91163958  0.80122652  0.93071987  1
  Te  Te7  1  0.81959288  0.64948172  0.29720937  1
  Te  Te8  1  0.08836042  0.19877348  0.06928013  1
  Te  Te9  1  0.40953924  0.76601304  0.60722766  1
  Te  Te10  1  0.59046076  0.23398696  0.39277234  1
  Cl  Cl11  1  0.76084679  0.55323053  0.63214561  1
  Cl  Cl12  1  0.23915321  0.44676947  0.36785439  1
  O  O13  1  0.45718224  0.29044089  0.79034562  1
  O  O14  1  0.90461855  0.15814971  0.66595583  1
  O  O15  1  0.63053849  0.61644934  0.94405097  1
  O  O16  1  0.21197521  0.05774640  0.93065397  1
  O  O17  1  0.72861763  0.05218903  0.37600062  1
  O  O18  1  0.27138237  0.94781097  0.62399938  1
  O  O19  1  0.78802479  0.94225360  0.06934603  1
  O  O20  1  0.58585210  0.87609701  0.77914039  1
  O  O21  1  0.41414790  0.12390299  0.22085961  1
  O  O22  1  0.54281776  0.70955911  0.20965438  1
  O  O23  1  0.36946151  0.38355066  0.05594903  1
  O  O24  1  0.06176612  0.46685685  0.86906403  1
  O  O25  1  0.70106709  0.81864812  0.50025900  1
  O  O26  1  0.09538145  0.84185029  0.33404417  1
  O  O27  1  0.79621062  0.21802220  0.95466779  1
  O  O28  1  0.20378938  0.78197780  0.04533221  1
  O  O29  1  0.93823388  0.53314315  0.13093597  1
  O  O30  1  0.29893291  0.18135188  0.49974100  1
