# generated using pymatgen
data_SrH2Br2O
_symmetry_space_group_name_H-M   'P 1'
_cell_length_a   11.59126360
_cell_length_b   4.33614570
_cell_length_c   9.35180386
_cell_angle_alpha   90.00000000
_cell_angle_beta   90.00000000
_cell_angle_gamma   90.00000000
_symmetry_Int_Tables_number   1
_chemical_formula_structural   SrH2Br2O
_chemical_formula_sum   'Sr4 H8 Br8 O4'
_cell_volume   470.03482763
_cell_formula_units_Z   4
loop_
 _symmetry_equiv_pos_site_id
 _symmetry_equiv_pos_as_xyz
  1  'x, y, z'
loop_
 _atom_site_type_symbol
 _atom_site_label
 _atom_site_symmetry_multiplicity
 _atom_site_fract_x
 _atom_site_fract_y
 _atom_site_fract_z
 _atom_site_occupancy
  Sr  Sr0  1  0.68874409  0.25000000  0.38699578  1
  Sr  Sr1  1  0.18874409  0.25000000  0.11300422  1
  Sr  Sr2  1  0.31125591  0.75000000  0.61300422  1
  Sr  Sr3  1  0.81125591  0.75000000  0.88699578  1
  H  H4  1  0.87865421  0.75000000  0.30606137  1
  H  H5  1  0.37865421  0.75000000  0.19393863  1
  H  H6  1  0.12134579  0.25000000  0.69393863  1
  H  H7  1  0.62134579  0.25000000  0.80606137  1
  H  H8  1  0.87787854  0.75000000  0.47259843  1
  H  H9  1  0.37787854  0.75000000  0.02740157  1
  H  H10  1  0.12212146  0.25000000  0.52740157  1
  H  H11  1  0.62212146  0.25000000  0.97259843  1
  Br  Br12  1  0.60055165  0.75000000  0.61318454  1
  Br  Br13  1  0.10055165  0.75000000  0.88681546  1
  Br  Br14  1  0.39944835  0.25000000  0.38681546  1
  Br  Br15  1  0.89944835  0.25000000  0.11318454  1
  Br  Br16  1  0.61590377  0.75000000  0.15383057  1
  Br  Br17  1  0.11590377  0.75000000  0.34616943  1
  Br  Br18  1  0.38409623  0.25000000  0.84616943  1
  Br  Br19  1  0.88409623  0.25000000  0.65383057  1
  O  O20  1  0.82646773  0.75000000  0.38912638  1
  O  O21  1  0.32646773  0.75000000  0.11087362  1
  O  O22  1  0.17353227  0.25000000  0.61087362  1
  O  O23  1  0.67353227  0.25000000  0.88912638  1
