# generated using pymatgen
data_Na2ZnP2O7
_symmetry_space_group_name_H-M   'P 1'
_cell_length_a   7.83377751
_cell_length_b   7.83377751
_cell_length_c   10.42038230
_cell_angle_alpha   90.00000000
_cell_angle_beta   90.00000000
_cell_angle_gamma   90.00000000
_symmetry_Int_Tables_number   1
_chemical_formula_structural   Na2ZnP2O7
_chemical_formula_sum   'Na8 Zn4 P8 O28'
_cell_volume   639.47875121
_cell_formula_units_Z   4
loop_
 _symmetry_equiv_pos_site_id
 _symmetry_equiv_pos_as_xyz
  1  'x, y, z'
loop_
 _atom_site_type_symbol
 _atom_site_label
 _atom_site_symmetry_multiplicity
 _atom_site_fract_x
 _atom_site_fract_y
 _atom_site_fract_z
 _atom_site_occupancy
  O  O0  1  0.08045561  0.30602930  0.35318959  1
  O  O1  1  0.91954439  0.69397070  0.35318959  1
  O  O2  1  0.30602930  0.08045561  0.64681041  1
  O  O3  1  0.80602930  0.41954439  0.85318959  1
  O  O4  1  0.19397070  0.58045561  0.85318959  1
  O  O5  1  0.41954439  0.80602930  0.14681041  1
  O  O6  1  0.58045561  0.19397070  0.14681041  1
  O  O7  1  0.69397070  0.91954439  0.64681041  1
  O  O8  1  0.91954439  0.69397070  0.64681041  1
  O  O9  1  0.08045561  0.30602930  0.64681041  1
  O  O10  1  0.69397070  0.91954439  0.35318959  1
  O  O11  1  0.19397070  0.58045561  0.14681041  1
  O  O12  1  0.80602930  0.41954439  0.14681041  1
  O  O13  1  0.58045561  0.19397070  0.85318959  1
  O  O14  1  0.41954439  0.80602930  0.85318959  1
  O  O15  1  0.30602930  0.08045561  0.35318959  1
  O  O16  1  0.86350412  0.86350412  0.85651901  1
  O  O17  1  0.13649588  0.13649588  0.85651901  1
  O  O18  1  0.86350412  0.86350412  0.14348099  1
  O  O19  1  0.36350412  0.63649588  0.35651901  1
  O  O20  1  0.00000000  0.00000000  0.34540575  1
  O  O21  1  0.50000000  0.50000000  0.84540575  1
  O  O22  1  0.50000000  0.50000000  0.15459425  1
  O  O23  1  0.00000000  0.00000000  0.65459425  1
  O  O24  1  0.13649588  0.13649588  0.14348099  1
  O  O25  1  0.36350412  0.63649588  0.64348099  1
  O  O26  1  0.63649588  0.36350412  0.64348099  1
  O  O27  1  0.63649588  0.36350412  0.35651901  1
  Na  Na28  1  0.80607774  0.19392226  0.50000000  1
  Na  Na29  1  0.64592897  0.64592897  0.50000000  1
  Na  Na30  1  0.14592897  0.85407103  0.00000000  1
  Na  Na31  1  0.19392226  0.80607774  0.50000000  1
  Na  Na32  1  0.85407103  0.14592897  0.00000000  1
  Na  Na33  1  0.69392226  0.69392226  0.00000000  1
  Na  Na34  1  0.30607774  0.30607774  0.00000000  1
  Na  Na35  1  0.35407103  0.35407103  0.50000000  1
  P  P36  1  0.36190953  0.63809047  0.78867813  1
  P  P37  1  0.63809047  0.36190953  0.78867813  1
  P  P38  1  0.86190953  0.86190953  0.71132187  1
  P  P39  1  0.36190953  0.63809047  0.21132187  1
  P  P40  1  0.86190953  0.86190953  0.28867813  1
  P  P41  1  0.13809047  0.13809047  0.71132187  1
  P  P42  1  0.13809047  0.13809047  0.28867813  1
  P  P43  1  0.63809047  0.36190953  0.21132187  1
  Zn  Zn44  1  0.50000000  0.00000000  0.25000000  1
  Zn  Zn45  1  0.00000000  0.50000000  0.25000000  1
  Zn  Zn46  1  0.00000000  0.50000000  0.75000000  1
  Zn  Zn47  1  0.50000000  0.00000000  0.75000000  1
