# generated using pymatgen
data_HfMg14Zr
_symmetry_space_group_name_H-M   'P 1'
_cell_length_a   6.44652968
_cell_length_b   6.44652914
_cell_length_c   10.05447331
_cell_angle_alpha   90.00000000
_cell_angle_beta   90.00000000
_cell_angle_gamma   120.00000275
_symmetry_Int_Tables_number   1
_chemical_formula_structural   HfMg14Zr
_chemical_formula_sum   'Hf1 Mg14 Zr1'
_cell_volume   361.86108592
_cell_formula_units_Z   1
loop_
 _symmetry_equiv_pos_site_id
 _symmetry_equiv_pos_as_xyz
  1  'x, y, z'
loop_
 _atom_site_type_symbol
 _atom_site_label
 _atom_site_symmetry_multiplicity
 _atom_site_fract_x
 _atom_site_fract_y
 _atom_site_fract_z
 _atom_site_occupancy
  Hf  Hf0  1  0.16666700  0.33333300  0.62500000  1
  Mg  Mg1  1  0.16929264  0.83464582  0.12500000  1
  Mg  Mg2  1  0.16873319  0.83436610  0.62500000  1
  Mg  Mg3  1  0.66535418  0.33070736  0.12500000  1
  Mg  Mg4  1  0.66563390  0.33126681  0.62500000  1
  Mg  Mg5  1  0.66535418  0.83464582  0.12500000  1
  Mg  Mg6  1  0.66563390  0.83436610  0.62500000  1
  Mg  Mg7  1  0.33115002  0.16884998  0.37522766  1
  Mg  Mg8  1  0.33115002  0.16884998  0.87477234  1
  Mg  Mg9  1  0.33115002  0.66230104  0.37522766  1
  Mg  Mg10  1  0.33115002  0.66230104  0.87477234  1
  Mg  Mg11  1  0.83769896  0.16884998  0.37522766  1
  Mg  Mg12  1  0.83769896  0.16884998  0.87477234  1
  Mg  Mg13  1  0.83333300  0.66666700  0.37475635  1
  Mg  Mg14  1  0.83333300  0.66666700  0.87524365  1
  Zr  Zr15  1  0.16666700  0.33333300  0.12500000  1
