# generated using pymatgen
data_In10(Pb2S7)3
_symmetry_space_group_name_H-M   'P 1'
_cell_length_a   3.89257934
_cell_length_b   14.15125324
_cell_length_c   15.97614287
_cell_angle_alpha   95.23670802
_cell_angle_beta   90.01571588
_cell_angle_gamma   97.83310927
_symmetry_Int_Tables_number   1
_chemical_formula_structural   In10(Pb2S7)3
_chemical_formula_sum   'In10 Pb6 S21'
_cell_volume   868.12136758
_cell_formula_units_Z   1
loop_
 _symmetry_equiv_pos_site_id
 _symmetry_equiv_pos_as_xyz
  1  'x, y, z'
loop_
 _atom_site_type_symbol
 _atom_site_label
 _atom_site_symmetry_multiplicity
 _atom_site_fract_x
 _atom_site_fract_y
 _atom_site_fract_z
 _atom_site_occupancy
  In  In0  1  0.68732471  0.37744379  0.48535157  1
  In  In1  1  0.50900983  0.02642189  0.12868955  1
  In  In2  1  0.22024995  0.42936181  0.69243250  1
  In  In3  1  0.78679758  0.57067855  0.30595974  1
  In  In4  1  0.90362924  0.79934526  0.01763529  1
  In  In5  1  0.73173861  0.46873457  0.89248970  1
  In  In6  1  0.31143450  0.62452306  0.51378409  1
  In  In7  1  0.26206366  0.52800623  0.10653330  1
  In  In8  1  0.09647699  0.19714669  0.98110645  1
  In  In9  1  0.48141197  0.97314435  0.87076860  1
  Pb  Pb10  1  0.07010703  0.14787175  0.70560919  1
  Pb  Pb11  1  0.13033306  0.27314642  0.24133485  1
  Pb  Pb12  1  0.93228554  0.85086101  0.29570421  1
  Pb  Pb13  1  0.86557689  0.72263396  0.75662940  1
  Pb  Pb14  1  0.04148392  0.10070173  0.43015019  1
  Pb  Pb15  1  0.95211059  0.90197562  0.56852005  1
  S  S16  1  0.47186199  0.93034376  0.40766930  1
  S  S17  1  0.59864384  0.20358656  0.09568936  1
  S  S18  1  0.53382627  0.07079506  0.59220953  1
  S  S19  1  0.32745560  0.65495440  0.23646661  1
  S  S20  1  0.27891132  0.56143678  0.81230271  1
  S  S21  1  0.22786338  0.47274292  0.40176064  1
  S  S22  1  0.71740092  0.43722803  0.18716778  1
  S  S23  1  0.57872389  0.15731736  0.87350567  1
  S  S24  1  0.61458052  0.23814468  0.36778447  1
  S  S25  1  0.80160189  0.60726203  0.02244743  1
  S  S26  1  0.02294396  0.05183662  0.23632429  1
  S  S27  1  0.67648837  0.34427862  0.76122471  1
  S  S28  1  0.19270777  0.38984908  0.97635981  1
  S  S29  1  0.39742609  0.79581657  0.90328371  1
  S  S30  1  0.00569515  0.00043225  0.99989859  1
  S  S31  1  0.84801269  0.69820302  0.43308787  1
  S  S32  1  0.38203735  0.76263006  0.63152417  1
  S  S33  1  0.96975390  0.94814942  0.76357645  1
  S  S34  1  0.42711271  0.84231506  0.12494906  1
  S  S35  1  0.15027374  0.30270550  0.56492084  1
  S  S36  1  0.75688756  0.52900653  0.59801831  1
