# generated using pymatgen
data_Li2MnCl4
_symmetry_space_group_name_H-M   'P 1'
_cell_length_a   7.45027709
_cell_length_b   7.45027744
_cell_length_c   7.51321947
_cell_angle_alpha   59.72013748
_cell_angle_beta   59.72013591
_cell_angle_gamma   60.71313527
_symmetry_Int_Tables_number   1
_chemical_formula_structural   Li2MnCl4
_chemical_formula_sum   'Li4 Mn2 Cl8'
_cell_volume   295.16957201
_cell_formula_units_Z   2
loop_
 _symmetry_equiv_pos_site_id
 _symmetry_equiv_pos_as_xyz
  1  'x, y, z'
loop_
 _atom_site_type_symbol
 _atom_site_label
 _atom_site_symmetry_multiplicity
 _atom_site_fract_x
 _atom_site_fract_y
 _atom_site_fract_z
 _atom_site_occupancy
  Li  Li0  1  0.11920667  0.11920667  0.13079333  1
  Li  Li1  1  0.50000000  0.50000000  0.00000000  1
  Li  Li2  1  0.50000000  0.50000000  0.50000000  1
  Li  Li3  1  0.88079333  0.88079333  0.86920667  1
  Mn  Mn4  1  0.50000000  0.00000000  0.50000000  1
  Mn  Mn5  1  0.00000000  0.50000000  0.50000000  1
  Cl  Cl6  1  0.25481408  0.25481408  0.26046478  1
  Cl  Cl7  1  0.25481408  0.25481408  0.72990706  1
  Cl  Cl8  1  0.25180598  0.72720873  0.26049264  1
  Cl  Cl9  1  0.72720873  0.25180598  0.26049264  1
  Cl  Cl10  1  0.27279127  0.74819402  0.73950736  1
  Cl  Cl11  1  0.74819402  0.27279127  0.73950736  1
  Cl  Cl12  1  0.74518592  0.74518592  0.27009294  1
  Cl  Cl13  1  0.74518592  0.74518592  0.73953522  1
