# generated using pymatgen
data_NaLaH2S2O9
_symmetry_space_group_name_H-M   'P 1'
_cell_length_a   7.20262633
_cell_length_b   7.20262660
_cell_length_c   12.81594945
_cell_angle_alpha   90.00000000
_cell_angle_beta   90.00000000
_cell_angle_gamma   120.00000164
_symmetry_Int_Tables_number   1
_chemical_formula_structural   NaLaH2S2O9
_chemical_formula_sum   'Na3 La3 H6 S6 O27'
_cell_volume   575.78877632
_cell_formula_units_Z   3
loop_
 _symmetry_equiv_pos_site_id
 _symmetry_equiv_pos_as_xyz
  1  'x, y, z'
loop_
 _atom_site_type_symbol
 _atom_site_label
 _atom_site_symmetry_multiplicity
 _atom_site_fract_x
 _atom_site_fract_y
 _atom_site_fract_z
 _atom_site_occupancy
  Na  Na0  1  0.47558358  0.99740241  0.83243794  1
  Na  Na1  1  0.52181784  0.52441642  0.49910494  1
  Na  Na2  1  0.00259759  0.47818216  0.16577194  1
  La  La3  1  0.56117311  0.55921482  0.99900957  1
  La  La4  1  0.44078518  0.00195828  0.33234257  1
  La  La5  1  0.99804172  0.43882689  0.66567657  1
  H  H6  1  0.03787002  0.94145531  0.03808630  1
  H  H7  1  0.05854469  0.09641471  0.37141930  1
  H  H8  1  0.09199257  0.05880437  0.62208287  1
  H  H9  1  0.90358529  0.96212998  0.70475230  1
  H  H10  1  0.96681280  0.90800743  0.28874987  1
  H  H11  1  0.94119563  0.03318720  0.95541587  1
  S  S12  1  0.00318221  0.43837620  0.91896238  1
  S  S13  1  0.43519399  0.99681779  0.58562938  1
  S  S14  1  0.56162380  0.56480601  0.25229538  1
  S  S15  1  0.55984382  0.55768122  0.74605030  1
  S  S16  1  0.44231878  0.00216261  0.07938330  1
  S  S17  1  0.99783739  0.44015618  0.41271630  1
  O  O18  1  0.13612312  0.62104036  0.34234867  1
  O  O19  1  0.12035347  0.61891764  0.84365298  1
  O  O20  1  0.24649891  0.87173696  0.14430002  1
  O  O21  1  0.25240446  0.84578616  0.65249667  1
  O  O22  1  0.12826304  0.37476195  0.47763302  1
  O  O23  1  0.15421384  0.40661830  0.98582967  1
  O  O24  1  0.48491724  0.86387688  0.00901567  1
  O  O25  1  0.49856416  0.87964653  0.51031998  1
  O  O26  1  0.09364970  0.00489026  0.32947778  1
  O  O27  1  0.38108236  0.50143584  0.17698598  1
  O  O28  1  0.37895964  0.51508276  0.67568267  1
  O  O29  1  0.59338170  0.74759554  0.31916267  1
  O  O30  1  0.62523805  0.75350109  0.81096702  1
  O  O31  1  0.51856409  0.38375086  0.32268940  1
  O  O32  1  0.49658616  0.37692069  0.82118413  1
  O  O33  1  0.37001033  0.12764505  0.52083344  1
  O  O34  1  0.41011831  0.15290555  0.01248855  1
  O  O35  1  0.75763571  0.62998967  0.18749944  1
  O  O36  1  0.74278624  0.58988169  0.67915555  1
  O  O37  1  0.91124056  0.90635030  0.99614378  1
  O  O38  1  0.61624914  0.13481324  0.65602340  1
  O  O39  1  0.62307931  0.11966546  0.15451713  1
  O  O40  1  0.88033454  0.50341384  0.48785013  1
  O  O41  1  0.86518676  0.48143591  0.98935640  1
  O  O42  1  0.84709445  0.25721376  0.34582155  1
  O  O43  1  0.87235495  0.24236429  0.85416644  1
  O  O44  1  0.99510974  0.08875944  0.66281078  1
