# generated using pymatgen
data_GdAs2Pd3
_symmetry_space_group_name_H-M   'P 1'
_cell_length_a   4.00476631
_cell_length_b   8.40691535
_cell_length_c   9.74983785
_cell_angle_alpha   107.36684320
_cell_angle_beta   90.00000000
_cell_angle_gamma   103.77931613
_symmetry_Int_Tables_number   1
_chemical_formula_structural   GdAs2Pd3
_chemical_formula_sum   'Gd3 As6 Pd9'
_cell_volume   303.37815031
_cell_formula_units_Z   3
loop_
 _symmetry_equiv_pos_site_id
 _symmetry_equiv_pos_as_xyz
  1  'x, y, z'
loop_
 _atom_site_type_symbol
 _atom_site_label
 _atom_site_symmetry_multiplicity
 _atom_site_fract_x
 _atom_site_fract_y
 _atom_site_fract_z
 _atom_site_occupancy
  Gd  Gd0  1  0.84489969  0.68979937  0.29847109  1
  Gd  Gd1  1  0.00000000  0.00000000  0.00000000  1
  Gd  Gd2  1  0.15510031  0.31020063  0.70152891  1
  As  As3  1  0.63615470  0.27230940  0.45453715  1
  As  As4  1  0.46036427  0.92072855  0.21338229  1
  As  As5  1  0.19907583  0.39815167  0.13211661  1
  As  As6  1  0.36384530  0.72769060  0.54546285  1
  As  As7  1  0.80092417  0.60184833  0.86788339  1
  As  As8  1  0.53963573  0.07927145  0.78661771  1
  Pd  Pd9  1  0.31974924  0.63949847  0.03279088  1
  Pd  Pd10  1  0.04298035  0.08596071  0.33108547  1
  Pd  Pd11  1  0.77863580  0.55727160  0.60911502  1
  Pd  Pd12  1  0.68025076  0.36050153  0.96720912  1
  Pd  Pd13  1  0.62168687  0.24337374  0.19823929  1
  Pd  Pd14  1  0.37831313  0.75662626  0.80176071  1
  Pd  Pd15  1  0.95701965  0.91403929  0.66891453  1
  Pd  Pd16  1  0.50000000  0.00000000  0.50000000  1
  Pd  Pd17  1  0.22136420  0.44272840  0.39088498  1
