# generated using pymatgen
data_P6(Pb2O5)5
_symmetry_space_group_name_H-M   'P 1'
_cell_length_a   10.00366667
_cell_length_b   17.33359434
_cell_length_c   7.47371054
_cell_angle_alpha   89.99874683
_cell_angle_beta   90.00548145
_cell_angle_gamma   89.91861835
_symmetry_Int_Tables_number   1
_chemical_formula_structural   P6(Pb2O5)5
_chemical_formula_sum   'P12 Pb20 O50'
_cell_volume   1295.93635760
_cell_formula_units_Z   2
loop_
 _symmetry_equiv_pos_site_id
 _symmetry_equiv_pos_as_xyz
  1  'x, y, z'
loop_
 _atom_site_type_symbol
 _atom_site_label
 _atom_site_symmetry_multiplicity
 _atom_site_fract_x
 _atom_site_fract_y
 _atom_site_fract_z
 _atom_site_occupancy
  P  P0  1  0.11106786  0.48498033  0.75003134  1
  P  P1  1  0.16760491  0.19865098  0.75025486  1
  P  P2  1  0.21553406  0.81629684  0.75051901  1
  P  P3  1  0.28443774  0.68371012  0.25052099  1
  P  P4  1  0.33235405  0.30135329  0.25019786  1
  P  P5  1  0.38888344  0.01501451  0.25001880  1
  P  P6  1  0.61457235  0.98602390  0.74897770  1
  P  P7  1  0.67622040  0.70215429  0.74913568  1
  P  P8  1  0.71434667  0.31155068  0.74854032  1
  P  P9  1  0.78570716  0.18843489  0.24852673  1
  P  P10  1  0.82391770  0.79785411  0.24912245  1
  P  P11  1  0.88546631  0.51394911  0.24898064  1
  Pb  Pb12  1  0.00559573  0.66647072  0.50515766  1
  Pb  Pb13  1  0.00617696  0.66851192  0.99478718  1
  Pb  Pb14  1  0.00608207  0.33474543  0.49936376  1
  Pb  Pb15  1  0.00526902  0.33263425  0.00079637  1
  Pb  Pb16  1  0.11344813  0.11281124  0.26873015  1
  Pb  Pb17  1  0.11239817  0.88686443  0.26924684  1
  Pb  Pb18  1  0.25570338  0.99769355  0.74879981  1
  Pb  Pb19  1  0.24414141  0.50226954  0.24885028  1
  Pb  Pb20  1  0.38773883  0.61306489  0.76927538  1
  Pb  Pb21  1  0.38666951  0.38724776  0.76877104  1
  Pb  Pb22  1  0.49471693  0.16757913  0.50086328  1
  Pb  Pb23  1  0.49392607  0.16505926  0.99933708  1
  Pb  Pb24  1  0.49367244  0.83145556  0.49471710  1
  Pb  Pb25  1  0.49442346  0.83352403  0.00521043  1
  Pb  Pb26  1  0.63487476  0.62630500  0.24814456  1
  Pb  Pb27  1  0.62364102  0.36996571  0.24790596  1
  Pb  Pb28  1  0.72878778  0.49859053  0.76828209  1
  Pb  Pb29  1  0.77116620  0.00150345  0.26831567  1
  Pb  Pb30  1  0.87633227  0.13001601  0.74783628  1
  Pb  Pb31  1  0.86519154  0.87370618  0.74824699  1
  O  O32  1  0.99867494  0.99954953  0.33049133  1
  O  O33  1  0.02722196  0.55451536  0.24900061  1
  O  O34  1  0.08602712  0.57332450  0.75307817  1
  O  O35  1  0.08719115  0.17200106  0.58041717  1
  O  O36  1  0.08467865  0.16989020  0.91420849  1
  O  O37  1  0.09315550  0.76104780  0.74914230  1
  O  O38  1  0.15072095  0.73001115  0.25282669  1
  O  O39  1  0.17085128  0.28870172  0.75198824  1
  O  O40  1  0.18863742  0.33538968  0.24943982  1
  O  O41  1  0.19092980  0.45895619  0.92088921  1
  O  O42  1  0.19509291  0.46136554  0.58216854  1
  O  O43  1  0.21317492  0.87213852  0.91465545  1
  O  O44  1  0.21566318  0.86975960  0.58043819  1
  O  O45  1  0.28432996  0.63025243  0.08040207  1
  O  O46  1  0.28682816  0.62787059  0.41466092  1
  O  O47  1  0.30907720  0.04104288  0.42086755  1
  O  O48  1  0.30496944  0.03863261  0.08215015  1
  O  O49  1  0.31136945  0.16460727  0.74939432  1
  O  O50  1  0.32911691  0.21128854  0.25199183  1
  O  O51  1  0.34928357  0.76999083  0.75284542  1
  O  O52  1  0.40683104  0.73896242  0.24915841  1
  O  O53  1  0.41276415  0.32800278  0.08045919  1
  O  O54  1  0.41535792  0.33007946  0.41426444  1
  O  O55  1  0.41394960  0.92665440  0.25310298  1
  O  O56  1  0.47275011  0.94549497  0.74896288  1
  O  O57  1  0.50138700  0.50047923  0.83052834  1
  O  O58  1  0.52269781  0.06141822  0.24794768  1
  O  O59  1  0.59501598  0.07446284  0.74910036  1
  O  O60  1  0.59508271  0.67900016  0.91977070  1
  O  O61  1  0.59701114  0.67472501  0.58154643  1
  O  O62  1  0.59404081  0.25605655  0.75274290  1
  O  O63  1  0.65079434  0.23678430  0.24482899  1
  O  O64  1  0.68032764  0.79359345  0.74529312  1
  O  O65  1  0.67982942  0.82980275  0.25311511  1
  O  O66  1  0.69473727  0.95602017  0.91324922  1
  O  O67  1  0.69234014  0.95705214  0.58003739  1
  O  O68  1  0.71312286  0.36506165  0.58153786  1
  O  O69  1  0.72014694  0.36379229  0.91903088  1
  O  O70  1  0.78685757  0.13494025  0.08158591  1
  O  O71  1  0.77983692  0.13622182  0.41902960  1
  O  O72  1  0.80526399  0.54398748  0.41326986  1
  O  O73  1  0.80765064  0.54293448  0.08000936  1
  O  O74  1  0.82013754  0.67021458  0.75311923  1
  O  O75  1  0.81967507  0.70640470  0.24522010  1
  O  O76  1  0.84922855  0.26323956  0.74484899  1
  O  O77  1  0.90599596  0.24394232  0.25274898  1
  O  O78  1  0.90298901  0.82525563  0.08157823  1
  O  O79  1  0.90495856  0.82095977  0.41976369  1
  O  O80  1  0.90502004  0.42555921  0.24913598  1
  O  O81  1  0.97733746  0.43856675  0.74791440  1
