# generated using pymatgen
data_Cs2Re2S5
_symmetry_space_group_name_H-M   'P 1'
_cell_length_a   12.54692275
_cell_length_b   12.54692334
_cell_length_c   12.54692235
_cell_angle_alpha   69.08961165
_cell_angle_beta   69.08961063
_cell_angle_gamma   69.08960979
_symmetry_Int_Tables_number   1
_chemical_formula_structural   Cs2Re2S5
_chemical_formula_sum   'Cs12 Re12 S30'
_cell_volume   1662.90385308
_cell_formula_units_Z   6
loop_
 _symmetry_equiv_pos_site_id
 _symmetry_equiv_pos_as_xyz
  1  'x, y, z'
loop_
 _atom_site_type_symbol
 _atom_site_label
 _atom_site_symmetry_multiplicity
 _atom_site_fract_x
 _atom_site_fract_y
 _atom_site_fract_z
 _atom_site_occupancy
  Cs  Cs0  1  0.37179194  0.97075881  0.18121631  1
  Cs  Cs1  1  0.81878369  0.62820806  0.02924119  1
  Cs  Cs2  1  0.18121631  0.37179194  0.97075881  1
  Cs  Cs3  1  0.47075881  0.87179194  0.68121631  1
  Cs  Cs4  1  0.31878369  0.52924119  0.12820806  1
  Cs  Cs5  1  0.68121631  0.47075881  0.87179194  1
  Cs  Cs6  1  0.87179194  0.68121631  0.47075881  1
  Cs  Cs7  1  0.02924119  0.81878369  0.62820806  1
  Cs  Cs8  1  0.52924119  0.12820806  0.31878369  1
  Cs  Cs9  1  0.12820806  0.31878369  0.52924119  1
  Cs  Cs10  1  0.62820806  0.02924119  0.81878369  1
  Cs  Cs11  1  0.97075881  0.18121631  0.37179194  1
  Re  Re12  1  0.57778901  0.44336945  0.36505986  1
  Re  Re13  1  0.07778901  0.86505986  0.94336945  1
  Re  Re14  1  0.63494014  0.42221099  0.55663055  1
  Re  Re15  1  0.86505986  0.94336945  0.07778901  1
  Re  Re16  1  0.36505986  0.57778901  0.44336945  1
  Re  Re17  1  0.44336945  0.36505986  0.57778901  1
  Re  Re18  1  0.92221099  0.13494014  0.05663055  1
  Re  Re19  1  0.05663055  0.92221099  0.13494014  1
  Re  Re20  1  0.94336945  0.07778901  0.86505986  1
  Re  Re21  1  0.13494014  0.05663055  0.92221099  1
  Re  Re22  1  0.42221099  0.55663055  0.63494014  1
  Re  Re23  1  0.55663055  0.63494014  0.42221099  1
  S  S24  1  0.10437129  0.10437129  0.10437129  1
  S  S25  1  0.99981932  0.75283057  0.14376917  1
  S  S26  1  0.15688084  0.68537615  0.87006252  1
  S  S27  1  0.00018068  0.24716943  0.85623083  1
  S  S28  1  0.87006252  0.15688084  0.68537615  1
  S  S29  1  0.25283057  0.49981932  0.64376917  1
  S  S30  1  0.35623083  0.74716943  0.50018068  1
  S  S31  1  0.14376917  0.99981932  0.75283057  1
  S  S32  1  0.68537615  0.87006252  0.15688084  1
  S  S33  1  0.18537615  0.65688084  0.37006252  1
  S  S34  1  0.37006252  0.18537615  0.65688084  1
  S  S35  1  0.85623083  0.00018068  0.24716943  1
  S  S36  1  0.65688084  0.37006252  0.18537615  1
  S  S37  1  0.84311916  0.31462385  0.12993748  1
  S  S38  1  0.49981932  0.64376917  0.25283057  1
  S  S39  1  0.74716943  0.50018068  0.35623083  1
  S  S40  1  0.24716943  0.85623083  0.00018068  1
  S  S41  1  0.62993748  0.81462385  0.34311916  1
  S  S42  1  0.34311916  0.62993748  0.81462385  1
  S  S43  1  0.39562871  0.39562871  0.39562871  1
  S  S44  1  0.75283057  0.14376917  0.99981932  1
  S  S45  1  0.60437129  0.60437129  0.60437129  1
  S  S46  1  0.12993748  0.84311916  0.31462385  1
  S  S47  1  0.50018068  0.35623083  0.74716943  1
  S  S48  1  0.31462385  0.12993748  0.84311916  1
  S  S49  1  0.81462385  0.34311916  0.62993748  1
  S  S50  1  0.89562871  0.89562871  0.89562871  1
  S  S51  1  0.75000000  0.75000000  0.75000000  1
  S  S52  1  0.25000000  0.25000000  0.25000000  1
  S  S53  1  0.64376917  0.25283057  0.49981932  1
