# generated using pymatgen
data_CaBPO5
_symmetry_space_group_name_H-M   'P 1'
_cell_length_a   6.69802702
_cell_length_b   6.69802702
_cell_length_c   6.80427993
_cell_angle_alpha   90.00000000
_cell_angle_beta   90.00000000
_cell_angle_gamma   119.99999998
_symmetry_Int_Tables_number   1
_chemical_formula_structural   CaBPO5
_chemical_formula_sum   'Ca3 B3 P3 O15'
_cell_volume   264.36660554
_cell_formula_units_Z   3
loop_
 _symmetry_equiv_pos_site_id
 _symmetry_equiv_pos_as_xyz
  1  'x, y, z'
loop_
 _atom_site_type_symbol
 _atom_site_label
 _atom_site_symmetry_multiplicity
 _atom_site_fract_x
 _atom_site_fract_y
 _atom_site_fract_z
 _atom_site_occupancy
  B  B0  1  0.89823339  0.89823339  0.50000000  1
  B  B1  1  0.00000000  0.10176661  0.16666667  1
  B  B2  1  0.10176661  0.00000000  0.83333333  1
  O  O3  1  0.00000000  0.04657394  0.66666667  1
  O  O4  1  0.95342606  0.95342606  0.00000000  1
  O  O5  1  0.04657394  0.00000000  0.33333333  1
  O  O6  1  0.46488645  0.60290763  0.84935656  1
  O  O7  1  0.39709237  0.86197881  0.18268989  1
  O  O8  1  0.13802119  0.53511355  0.51602323  1
  O  O9  1  0.34896223  0.19224631  0.87236410  1
  O  O10  1  0.80775369  0.15671592  0.20569743  1
  O  O11  1  0.84328408  0.65103777  0.53903077  1
  O  O12  1  0.15671592  0.80775369  0.79430257  1
  O  O13  1  0.65103777  0.84328408  0.46096923  1
  O  O14  1  0.19224631  0.34896223  0.12763590  1
  O  O15  1  0.60290763  0.46488645  0.15064344  1
  O  O16  1  0.53511355  0.13802119  0.48397677  1
  O  O17  1  0.86197881  0.39709237  0.81731011  1
  P  P18  1  0.00000000  0.58242985  0.66666667  1
  P  P19  1  0.58242985  0.00000000  0.33333333  1
  P  P20  1  0.41757015  0.41757015  0.00000000  1
  Ca  Ca21  1  0.00000000  0.60207269  0.16666667  1
  Ca  Ca22  1  0.60207269  0.00000000  0.83333333  1
  Ca  Ca23  1  0.39792731  0.39792731  0.50000000  1
