# generated using pymatgen
data_Ca5Si2C2O13
_symmetry_space_group_name_H-M   'P 1'
_cell_length_a   7.62869408
_cell_length_b   10.37751857
_cell_length_c   15.21326451
_cell_angle_alpha   90.00000000
_cell_angle_beta   103.70505427
_cell_angle_gamma   90.00000000
_symmetry_Int_Tables_number   1
_chemical_formula_structural   Ca5Si2C2O13
_chemical_formula_sum   'Ca20 Si8 C8 O52'
_cell_volume   1170.09616714
_cell_formula_units_Z   4
loop_
 _symmetry_equiv_pos_site_id
 _symmetry_equiv_pos_as_xyz
  1  'x, y, z'
loop_
 _atom_site_type_symbol
 _atom_site_label
 _atom_site_symmetry_multiplicity
 _atom_site_fract_x
 _atom_site_fract_y
 _atom_site_fract_z
 _atom_site_occupancy
  C  C0  1  0.80922798  0.81067690  0.46905532  1
  C  C1  1  0.70375614  0.19478998  0.52374586  1
  C  C2  1  0.79624386  0.69478998  0.97625414  1
  C  C3  1  0.29624386  0.80521002  0.47625414  1
  C  C4  1  0.20375614  0.30521002  0.02374586  1
  C  C5  1  0.19077202  0.18932310  0.53094468  1
  C  C6  1  0.30922798  0.68932310  0.96905532  1
  C  C7  1  0.69077202  0.31067690  0.03094468  1
  O  O8  1  0.36023159  0.58373528  0.72558540  1
  O  O9  1  0.65852447  0.46777021  0.77354774  1
  O  O10  1  0.15852447  0.03222979  0.27354774  1
  O  O11  1  0.34147553  0.53222979  0.22645226  1
  O  O12  1  0.04935752  0.52963143  0.60158993  1
  O  O13  1  0.45064248  0.02963143  0.89841007  1
  O  O14  1  0.95064248  0.47036857  0.39841007  1
  O  O15  1  0.54935752  0.97036857  0.10158993  1
  O  O16  1  0.54369736  0.52436518  0.59901892  1
  O  O17  1  0.95630264  0.02436518  0.90098108  1
  O  O18  1  0.45630264  0.47563482  0.40098108  1
  O  O19  1  0.04369736  0.97563482  0.09901892  1
  O  O20  1  0.09546302  0.73333964  0.72812475  1
  O  O21  1  0.28130799  0.82665869  0.55721158  1
  O  O22  1  0.90453698  0.26666036  0.27187525  1
  O  O23  1  0.59546302  0.76666036  0.22812475  1
  O  O24  1  0.63924890  0.72491508  0.72566517  1
  O  O25  1  0.86075110  0.22491508  0.77433483  1
  O  O26  1  0.36075110  0.27508492  0.27433483  1
  O  O27  1  0.13924890  0.77508492  0.22566517  1
  O  O28  1  0.90107873  0.52616514  0.22444452  1
  O  O29  1  0.84147553  0.96777021  0.72645226  1
  O  O30  1  0.59892127  0.02616514  0.27555548  1
  O  O31  1  0.09892127  0.47383486  0.77555548  1
  O  O32  1  0.40107873  0.97383486  0.72444452  1
  O  O33  1  0.86023159  0.91626472  0.22558540  1
  O  O34  1  0.63976841  0.41626472  0.27441460  1
  O  O35  1  0.13976841  0.08373528  0.77441460  1
  O  O36  1  0.77268826  0.20775737  0.07132353  1
  O  O37  1  0.72731174  0.70775737  0.42867647  1
  O  O38  1  0.22731174  0.79224263  0.92867647  1
  O  O39  1  0.27268826  0.29224263  0.57132353  1
  O  O40  1  0.28408080  0.20574789  0.07009196  1
  O  O41  1  0.21591920  0.70574789  0.42990804  1
  O  O42  1  0.71591920  0.79425211  0.92990804  1
  O  O43  1  0.78408080  0.29425211  0.57009196  1
  O  O44  1  0.59501949  0.37821602  0.07386269  1
  O  O45  1  0.90498051  0.87821602  0.42613731  1
  O  O46  1  0.40498051  0.62178398  0.92613731  1
  O  O47  1  0.09501949  0.12178398  0.57386269  1
  O  O48  1  0.09985612  0.37627893  0.06029842  1
  O  O49  1  0.40014388  0.87627893  0.43970158  1
  O  O50  1  0.90014388  0.62372107  0.93970158  1
  O  O51  1  0.59985612  0.12372107  0.56029842  1
  O  O52  1  0.30072986  0.66000129  0.04985924  1
  O  O53  1  0.19927014  0.16000129  0.45014076  1
  O  O54  1  0.69927014  0.33999871  0.95014076  1
  O  O55  1  0.80072986  0.83999871  0.54985924  1
  O  O56  1  0.78130799  0.67334131  0.05721158  1
  O  O57  1  0.71869201  0.17334131  0.44278842  1
  O  O58  1  0.21869201  0.32665869  0.94278842  1
  O  O59  1  0.40453698  0.23333964  0.77187525  1
  Si  Si60  1  0.13396468  0.58405019  0.70340711  1
  Si  Si61  1  0.36603532  0.08405019  0.79659289  1
  Si  Si62  1  0.86603532  0.41594981  0.29659289  1
  Si  Si63  1  0.63396468  0.91594981  0.20340711  1
  Si  Si64  1  0.56372924  0.57886036  0.70133518  1
  Si  Si65  1  0.93627076  0.07886036  0.79866482  1
  Si  Si66  1  0.43627076  0.42113964  0.29866482  1
  Si  Si67  1  0.06372924  0.92113964  0.20133518  1
  Ca  Ca68  1  0.41849584  0.08921454  0.37372990  1
  Ca  Ca69  1  0.42004439  0.42034297  0.86062498  1
  Ca  Ca70  1  0.92004439  0.07965703  0.36062498  1
  Ca  Ca71  1  0.57995561  0.57965703  0.13937502  1
  Ca  Ca72  1  0.58150416  0.91078546  0.62627010  1
  Ca  Ca73  1  0.91849584  0.41078546  0.87372990  1
  Ca  Ca74  1  0.07995561  0.92034297  0.63937502  1
  Ca  Ca75  1  0.08150416  0.58921454  0.12627010  1
  Ca  Ca76  1  0.07245705  0.29034962  0.68061188  1
  Ca  Ca77  1  0.42754295  0.79034962  0.81938812  1
  Ca  Ca78  1  0.92754295  0.70965038  0.31938812  1
  Ca  Ca79  1  0.57245705  0.20965038  0.18061188  1
  Ca  Ca80  1  0.58613873  0.28816515  0.67617968  1
  Ca  Ca81  1  0.91386127  0.78816515  0.82382032  1
  Ca  Ca82  1  0.41386127  0.71183485  0.32382032  1
  Ca  Ca83  1  0.08613873  0.21183485  0.17617968  1
  Ca  Ca84  1  0.75421652  0.50540086  0.50362590  1
  Ca  Ca85  1  0.74578348  0.00540086  0.99637410  1
  Ca  Ca86  1  0.24578348  0.49459914  0.49637410  1
  Ca  Ca87  1  0.25421652  0.99459914  0.00362590  1
