# generated using pymatgen
data_K2U2O7
_symmetry_space_group_name_H-M   'P 1'
_cell_length_a   7.18808439
_cell_length_b   14.38678828
_cell_length_c   20.84003286
_cell_angle_alpha   21.67386599
_cell_angle_beta   28.94225972
_cell_angle_gamma   32.34866959
_symmetry_Int_Tables_number   1
_chemical_formula_structural   K2U2O7
_chemical_formula_sum   'K4 U4 O14'
_cell_volume   379.12254282
_cell_formula_units_Z   2
loop_
 _symmetry_equiv_pos_site_id
 _symmetry_equiv_pos_as_xyz
  1  'x, y, z'
loop_
 _atom_site_type_symbol
 _atom_site_label
 _atom_site_symmetry_multiplicity
 _atom_site_fract_x
 _atom_site_fract_y
 _atom_site_fract_z
 _atom_site_occupancy
  K  K0  1  0.49378030  0.12773866  0.24286831  1
  K  K1  1  0.48386943  0.60970127  0.26253400  1
  K  K2  1  0.50621970  0.37226134  0.75713169  1
  K  K3  1  0.51613057  0.89029873  0.73746600  1
  U  U4  1  0.96908001  0.96681243  0.02985301  1
  U  U5  1  0.03091999  0.53318757  0.97014699  1
  U  U6  1  0.00000000  0.25000000  0.50000000  1
  U  U7  1  0.00000000  0.75000000  0.50000000  1
  O  O8  1  0.07652071  0.00353265  0.06088117  1
  O  O9  1  0.22190056  0.11531083  0.19113250  1
  O  O10  1  0.12601585  0.56033663  0.01199880  1
  O  O11  1  0.41808427  0.51595309  0.19143891  1
  O  O12  1  0.04338196  0.28071012  0.55787129  1
  O  O13  1  0.95661804  0.21928988  0.44212871  1
  O  O14  1  0.62214804  0.62768744  0.36581431  1
  O  O15  1  0.11920899  0.74080548  0.55885962  1
  O  O16  1  0.88079101  0.75919452  0.44114038  1
  O  O17  1  0.77809944  0.38468917  0.80886750  1
  O  O18  1  0.37785196  0.87231256  0.63418569  1
  O  O19  1  0.92347929  0.49646735  0.93911883  1
  O  O20  1  0.58191573  0.98404691  0.80856109  1
  O  O21  1  0.87398415  0.93966337  0.98800120  1
