# generated using pymatgen
data_Rb12Sn8GeO4
_symmetry_space_group_name_H-M   'P 1'
_cell_length_a   13.48460619
_cell_length_b   13.24335383
_cell_length_c   23.96839428
_cell_angle_alpha   90.00000000
_cell_angle_beta   90.00000000
_cell_angle_gamma   118.98594954
_symmetry_Int_Tables_number   1
_chemical_formula_structural   Rb12Sn8GeO4
_chemical_formula_sum   'Rb48 Sn32 Ge4 O16'
_cell_volume   3744.15195722
_cell_formula_units_Z   4
loop_
 _symmetry_equiv_pos_site_id
 _symmetry_equiv_pos_as_xyz
  1  'x, y, z'
loop_
 _atom_site_type_symbol
 _atom_site_label
 _atom_site_symmetry_multiplicity
 _atom_site_fract_x
 _atom_site_fract_y
 _atom_site_fract_z
 _atom_site_occupancy
  Rb  Rb0  1  0.83105290  0.40733843  0.93174690  1
  Rb  Rb1  1  0.37748736  0.66164829  0.79441349  1
  Rb  Rb2  1  0.50371529  0.28677170  0.02726869  1
  Rb  Rb3  1  0.09304561  0.05671076  0.10539889  1
  Rb  Rb4  1  0.87911868  0.88009983  0.38173308  1
  Rb  Rb5  1  0.62251264  0.33835171  0.20558651  1
  Rb  Rb6  1  0.90417041  0.22727732  0.83964276  1
  Rb  Rb7  1  0.72903171  0.84125331  0.75522351  1
  Rb  Rb8  1  0.81021932  0.98690375  0.16164511  1
  Rb  Rb9  1  0.72903171  0.34125331  0.74477649  1
  Rb  Rb10  1  0.72011054  0.04587151  0.00591291  1
  Rb  Rb11  1  0.09582959  0.77272268  0.16035724  1
  Rb  Rb12  1  0.62251264  0.83835171  0.29441349  1
  Rb  Rb13  1  0.27096829  0.65874669  0.25522351  1
  Rb  Rb14  1  0.85687494  0.13408340  0.69033556  1
  Rb  Rb15  1  0.52534542  0.60107744  0.12232247  1
  Rb  Rb16  1  0.12088132  0.11990017  0.61826692  1
  Rb  Rb17  1  0.50371529  0.78677170  0.47273131  1
  Rb  Rb18  1  0.16084436  0.78919093  0.72526002  1
  Rb  Rb19  1  0.90695439  0.94328924  0.89460111  1
  Rb  Rb20  1  0.83915564  0.71080907  0.22526002  1
  Rb  Rb21  1  0.14312506  0.36591660  0.19033556  1
  Rb  Rb22  1  0.49628471  0.21322830  0.52726869  1
  Rb  Rb23  1  0.83105290  0.90733843  0.56825310  1
  Rb  Rb24  1  0.27096829  0.15874669  0.24477649  1
  Rb  Rb25  1  0.37748736  0.16164829  0.70558651  1
  Rb  Rb26  1  0.09582959  0.27272268  0.33964276  1
  Rb  Rb27  1  0.14312506  0.86591660  0.30966444  1
  Rb  Rb28  1  0.16894710  0.59266157  0.06825310  1
  Rb  Rb29  1  0.09304561  0.55671076  0.39460111  1
  Rb  Rb30  1  0.27988946  0.45412849  0.50591291  1
  Rb  Rb31  1  0.72011054  0.54587151  0.49408709  1
  Rb  Rb32  1  0.16084436  0.28919093  0.77473998  1
  Rb  Rb33  1  0.16894710  0.09266157  0.43174690  1
  Rb  Rb34  1  0.83915564  0.21080907  0.27473998  1
  Rb  Rb35  1  0.49628471  0.71322830  0.97273131  1
  Rb  Rb36  1  0.90695439  0.44328924  0.60539889  1
  Rb  Rb37  1  0.85687494  0.63408340  0.80966444  1
  Rb  Rb38  1  0.47465458  0.39892256  0.87767753  1
  Rb  Rb39  1  0.90417041  0.72727732  0.66035724  1
  Rb  Rb40  1  0.18978068  0.01309625  0.83835489  1
  Rb  Rb41  1  0.81021932  0.48690375  0.33835489  1
  Rb  Rb42  1  0.87911868  0.38009983  0.11826692  1
  Rb  Rb43  1  0.27988946  0.95412849  0.99408709  1
  Rb  Rb44  1  0.47465458  0.89892256  0.62232247  1
  Rb  Rb45  1  0.12088132  0.61990017  0.88173308  1
  Rb  Rb46  1  0.18978068  0.51309625  0.66164511  1
  Rb  Rb47  1  0.52534542  0.10107744  0.37767753  1
  Sn  Sn48  1  0.47543319  0.98717990  0.23197768  1
  Sn  Sn49  1  0.81435347  0.80100288  0.04683080  1
  Sn  Sn50  1  0.61934443  0.09955843  0.13214524  1
  Sn  Sn51  1  0.03253527  0.77922117  0.49647407  1
  Sn  Sn52  1  0.52456681  0.51282010  0.73197768  1
  Sn  Sn53  1  0.72693780  0.12715967  0.54447906  1
  Sn  Sn54  1  0.47543319  0.48717990  0.26802232  1
  Sn  Sn55  1  0.27306220  0.37284033  0.04447906  1
  Sn  Sn56  1  0.38065557  0.90044157  0.86785476  1
  Sn  Sn57  1  0.45077765  0.35160145  0.37474009  1
  Sn  Sn58  1  0.52456681  0.01282010  0.76802232  1
  Sn  Sn59  1  0.62131290  0.46495817  0.63219842  1
  Sn  Sn60  1  0.18564653  0.69899712  0.54683080  1
  Sn  Sn61  1  0.45077765  0.85160145  0.12525991  1
  Sn  Sn62  1  0.22929466  0.93801261  0.56858648  1
  Sn  Sn63  1  0.18564653  0.19899712  0.95316920  1
  Sn  Sn64  1  0.96746473  0.72077883  0.99647407  1
  Sn  Sn65  1  0.54922235  0.64839855  0.62525991  1
  Sn  Sn66  1  0.54922235  0.14839855  0.87474009  1
  Sn  Sn67  1  0.38065557  0.40044157  0.63214524  1
  Sn  Sn68  1  0.22929466  0.43801261  0.93141352  1
  Sn  Sn69  1  0.77070534  0.06198739  0.43141352  1
  Sn  Sn70  1  0.37868710  0.53504183  0.36780158  1
  Sn  Sn71  1  0.96746473  0.22077883  0.50352593  1
  Sn  Sn72  1  0.62131290  0.96495817  0.86780158  1
  Sn  Sn73  1  0.77070534  0.56198739  0.06858648  1
  Sn  Sn74  1  0.81435347  0.30100288  0.45316920  1
  Sn  Sn75  1  0.27306220  0.87284033  0.45552094  1
  Sn  Sn76  1  0.03253527  0.27922117  0.00352593  1
  Sn  Sn77  1  0.72693780  0.62715967  0.95552094  1
  Sn  Sn78  1  0.61934443  0.59955843  0.36785476  1
  Sn  Sn79  1  0.37868710  0.03504183  0.13219842  1
  Ge  Ge80  1  0.99556807  0.00933034  0.25765353  1
  Ge  Ge81  1  0.00443193  0.49066966  0.75765353  1
  Ge  Ge82  1  0.00443193  0.99066966  0.74234647  1
  Ge  Ge83  1  0.99556807  0.50933034  0.24234647  1
  O  O84  1  0.02392682  0.14164234  0.22325240  1
  O  O85  1  0.15502095  0.08098258  0.73281683  1
  O  O86  1  0.07054874  0.04146652  0.32363013  1
  O  O87  1  0.95196384  0.56693103  0.71518548  1
  O  O88  1  0.92945126  0.95853348  0.67636987  1
  O  O89  1  0.84497905  0.41901742  0.23281683  1
  O  O90  1  0.02392682  0.64164234  0.27674760  1
  O  O91  1  0.04803616  0.43306897  0.28481452  1
  O  O92  1  0.92945126  0.45853348  0.82363013  1
  O  O93  1  0.95196384  0.06693103  0.78481452  1
  O  O94  1  0.84497905  0.91901742  0.26718317  1
  O  O95  1  0.15502095  0.58098258  0.76718317  1
  O  O96  1  0.04803616  0.93306897  0.21518548  1
  O  O97  1  0.97607318  0.85835766  0.77674760  1
  O  O98  1  0.07054874  0.54146652  0.17636987  1
  O  O99  1  0.97607318  0.35835766  0.72325240  1
