# generated using pymatgen
data_Rb8U9O31
_symmetry_space_group_name_H-M   'P 1'
_cell_length_a   7.07037565
_cell_length_b   14.56759929
_cell_length_c   34.41438054
_cell_angle_alpha   90.00000000
_cell_angle_beta   90.00000000
_cell_angle_gamma   90.00000000
_symmetry_Int_Tables_number   1
_chemical_formula_structural   Rb8U9O31
_chemical_formula_sum   'Rb32 U36 O124'
_cell_volume   3544.62610849
_cell_formula_units_Z   4
loop_
 _symmetry_equiv_pos_site_id
 _symmetry_equiv_pos_as_xyz
  1  'x, y, z'
loop_
 _atom_site_type_symbol
 _atom_site_label
 _atom_site_symmetry_multiplicity
 _atom_site_fract_x
 _atom_site_fract_y
 _atom_site_fract_z
 _atom_site_occupancy
  Rb  Rb0  1  0.23973591  0.48576867  0.47289200  1
  Rb  Rb1  1  0.76026409  0.98576867  0.47289200  1
  Rb  Rb2  1  0.24718766  0.94770381  0.41243738  1
  Rb  Rb3  1  0.28325447  0.39467096  0.35274846  1
  Rb  Rb4  1  0.74718766  0.94770381  0.08756262  1
  Rb  Rb5  1  0.74718766  0.55229619  0.91243738  1
  Rb  Rb6  1  0.80384428  0.12655575  0.71996914  1
  Rb  Rb7  1  0.25281234  0.05229619  0.91243738  1
  Rb  Rb8  1  0.30384428  0.37344425  0.21996914  1
  Rb  Rb9  1  0.73973591  0.48576867  0.02710800  1
  Rb  Rb10  1  0.21674553  0.89467096  0.14725154  1
  Rb  Rb11  1  0.26026409  0.98576867  0.02710800  1
  Rb  Rb12  1  0.21674553  0.60532904  0.85274846  1
  Rb  Rb13  1  0.78325447  0.10532904  0.85274846  1
  Rb  Rb14  1  0.19615572  0.87344425  0.28003086  1
  Rb  Rb15  1  0.25281234  0.44770381  0.08756262  1
  Rb  Rb16  1  0.78325447  0.39467096  0.14725154  1
  Rb  Rb17  1  0.69615572  0.62655575  0.78003086  1
  Rb  Rb18  1  0.23973591  0.01423133  0.52710800  1
  Rb  Rb19  1  0.19615572  0.62655575  0.71996914  1
  Rb  Rb20  1  0.75281234  0.44770381  0.41243738  1
  Rb  Rb21  1  0.75281234  0.05229619  0.58756262  1
  Rb  Rb22  1  0.30384428  0.12655575  0.78003086  1
  Rb  Rb23  1  0.71674553  0.89467096  0.35274846  1
  Rb  Rb24  1  0.28325447  0.10532904  0.64725154  1
  Rb  Rb25  1  0.80384428  0.37344425  0.28003086  1
  Rb  Rb26  1  0.26026409  0.51423133  0.97289200  1
  Rb  Rb27  1  0.24718766  0.55229619  0.58756262  1
  Rb  Rb28  1  0.73973591  0.01423133  0.97289200  1
  Rb  Rb29  1  0.71674553  0.60532904  0.64725154  1
  Rb  Rb30  1  0.69615572  0.87344425  0.21996914  1
  Rb  Rb31  1  0.76026409  0.51423133  0.52710800  1
  U  U32  1  0.06336731  0.13241757  0.33071976  1
  U  U33  1  0.94981439  0.75000000  0.00000000  1
  U  U34  1  0.06336731  0.36758243  0.66928024  1
  U  U35  1  0.01568869  0.38356471  0.78460380  1
  U  U36  1  0.51568869  0.11643529  0.28460380  1
  U  U37  1  0.58562002  0.21227907  0.05663900  1
  U  U38  1  0.55018561  0.25000000  0.50000000  1
  U  U39  1  0.88125623  0.82757615  0.89004161  1
  U  U40  1  0.56336731  0.36758243  0.83071976  1
  U  U41  1  0.11874377  0.17242385  0.10995839  1
  U  U42  1  0.38125623  0.82757615  0.60995839  1
  U  U43  1  0.98431131  0.88356471  0.78460380  1
  U  U44  1  0.61874377  0.32757615  0.60995839  1
  U  U45  1  0.11874377  0.32757615  0.89004161  1
  U  U46  1  0.93663269  0.63241757  0.33071976  1
  U  U47  1  0.93663269  0.86758243  0.66928024  1
  U  U48  1  0.44981439  0.75000000  0.50000000  1
  U  U49  1  0.98431131  0.61643529  0.21539620  1
  U  U50  1  0.88125623  0.67242385  0.10995839  1
  U  U51  1  0.48431131  0.88356471  0.71539620  1
  U  U52  1  0.05018561  0.25000000  0.00000000  1
  U  U53  1  0.08562002  0.28772093  0.55663900  1
  U  U54  1  0.91437998  0.78772093  0.55663900  1
  U  U55  1  0.08562002  0.21227907  0.44336100  1
  U  U56  1  0.61874377  0.17242385  0.39004161  1
  U  U57  1  0.38125623  0.67242385  0.39004161  1
  U  U58  1  0.48431131  0.61643529  0.28460380  1
  U  U59  1  0.43663269  0.86758243  0.83071976  1
  U  U60  1  0.43663269  0.63241757  0.16928024  1
  U  U61  1  0.91437998  0.71227907  0.44336100  1
  U  U62  1  0.51568869  0.38356471  0.71539620  1
  U  U63  1  0.56336731  0.13241757  0.16928024  1
  U  U64  1  0.41437998  0.71227907  0.05663900  1
  U  U65  1  0.58562002  0.28772093  0.94336100  1
  U  U66  1  0.01568869  0.11643529  0.21539620  1
  U  U67  1  0.41437998  0.78772093  0.94336100  1
  O  O68  1  0.43430475  0.74270246  0.81855738  1
  O  O69  1  0.75092495  0.63052172  0.17468132  1
  O  O70  1  0.69806532  0.39840604  0.77090842  1
  O  O71  1  0.43872008  0.99442244  0.84068488  1
  O  O72  1  0.97290287  0.48800593  0.21114238  1
  O  O73  1  0.08562635  0.16435176  0.57338272  1
  O  O74  1  0.62517441  0.63799924  0.34436391  1
  O  O75  1  0.44789949  0.87289570  0.48494816  1
  O  O76  1  0.80193468  0.89840604  0.72909158  1
  O  O77  1  0.69806532  0.10159396  0.22909158  1
  O  O78  1  0.06569525  0.25729754  0.31855738  1
  O  O79  1  0.54440124  0.83517603  0.88875375  1
  O  O80  1  0.10063378  0.70521562  0.06640736  1
  O  O81  1  0.25092495  0.86947828  0.67468132  1
  O  O82  1  0.02709713  0.51199407  0.78885762  1
  O  O83  1  0.24907505  0.36947828  0.82531868  1
  O  O84  1  0.58562635  0.16435176  0.92661728  1
  O  O85  1  0.25092495  0.63052172  0.32531868  1
  O  O86  1  0.91098664  0.58799745  0.45886530  1
  O  O87  1  0.11213010  0.04852888  0.09668766  1
  O  O88  1  0.74907505  0.13052172  0.32531868  1
  O  O89  1  0.87482559  0.36200076  0.84436391  1
  O  O90  1  0.58901336  0.41200255  0.95886530  1
  O  O91  1  0.21017665  0.25000000  0.50000000  1
  O  O92  1  0.37419980  0.79338926  0.37326846  1
  O  O93  1  0.37419980  0.70661074  0.62673154  1
  O  O94  1  0.19806532  0.39840604  0.72909158  1
  O  O95  1  0.19806532  0.10159396  0.27090842  1
  O  O96  1  0.41437365  0.83564824  0.07338272  1
  O  O97  1  0.60063378  0.79478438  0.56640736  1
  O  O98  1  0.12517441  0.86200076  0.84436391  1
  O  O99  1  0.41437365  0.66435176  0.92661728  1
  O  O100  1  0.11213010  0.45147112  0.90331234  1
  O  O101  1  0.22941505  0.78262810  0.54522377  1
  O  O102  1  0.71017665  0.25000000  0.00000000  1
  O  O103  1  0.88786990  0.95147112  0.90331234  1
  O  O104  1  0.62580020  0.20661074  0.62673154  1
  O  O105  1  0.05210051  0.37289570  0.01505184  1
  O  O106  1  0.93872008  0.50557756  0.34068488  1
  O  O107  1  0.06569525  0.24270246  0.68144262  1
  O  O108  1  0.47290287  0.48800593  0.28885762  1
  O  O109  1  0.28982335  0.75000000  0.00000000  1
  O  O110  1  0.37482559  0.36200076  0.65563609  1
  O  O111  1  0.56569525  0.25729754  0.18144262  1
  O  O112  1  0.10063378  0.79478438  0.93359264  1
  O  O113  1  0.38786990  0.54852888  0.40331234  1
  O  O114  1  0.08562635  0.33564824  0.42661728  1
  O  O115  1  0.41098664  0.58799745  0.04113470  1
  O  O116  1  0.04440124  0.83517603  0.61124625  1
  O  O117  1  0.77058495  0.21737190  0.45477623  1
  O  O118  1  0.72941505  0.78262810  0.95477623  1
  O  O119  1  0.87419980  0.70661074  0.87326846  1
  O  O120  1  0.06127992  0.00557756  0.34068488  1
  O  O121  1  0.58901336  0.08799745  0.04113470  1
  O  O122  1  0.38786990  0.95147112  0.59668766  1
  O  O123  1  0.61213010  0.04852888  0.40331234  1
  O  O124  1  0.43872008  0.50557756  0.15931512  1
  O  O125  1  0.99787849  0.74154020  0.22487748  1
  O  O126  1  0.72941505  0.71737190  0.04522377  1
  O  O127  1  0.54440124  0.66482397  0.11124625  1
  O  O128  1  0.88786990  0.54852888  0.09668766  1
  O  O129  1  0.47290287  0.01199407  0.71114238  1
  O  O130  1  0.52709713  0.98800593  0.28885762  1
  O  O131  1  0.27058495  0.21737190  0.04522377  1
  O  O132  1  0.62517441  0.86200076  0.65563609  1
  O  O133  1  0.08901336  0.08799745  0.45886530  1
  O  O134  1  0.89936622  0.29478438  0.93359264  1
  O  O135  1  0.62580020  0.29338926  0.37326846  1
  O  O136  1  0.39936622  0.20521562  0.43359264  1
  O  O137  1  0.22941505  0.71737190  0.45477623  1
  O  O138  1  0.58562635  0.33564824  0.07338272  1
  O  O139  1  0.55210051  0.12710430  0.51505184  1
  O  O140  1  0.61213010  0.45147112  0.59668766  1
  O  O141  1  0.30193468  0.89840604  0.77090842  1
  O  O142  1  0.56569525  0.24270246  0.81855738  1
  O  O143  1  0.75092495  0.86947828  0.82531868  1
  O  O144  1  0.24907505  0.13052172  0.17468132  1
  O  O145  1  0.87419980  0.79338926  0.12673154  1
  O  O146  1  0.94789949  0.62710430  0.98494816  1
  O  O147  1  0.93430475  0.75729754  0.31855738  1
  O  O148  1  0.87482559  0.13799924  0.15563609  1
  O  O149  1  0.74907505  0.36947828  0.67468132  1
  O  O150  1  0.30193468  0.60159396  0.22909158  1
  O  O151  1  0.08901336  0.41200255  0.54113470  1
  O  O152  1  0.12517441  0.63799924  0.15563609  1
  O  O153  1  0.27058495  0.28262810  0.95477623  1
  O  O154  1  0.45559876  0.33517603  0.88875375  1
  O  O155  1  0.04440124  0.66482397  0.38875375  1
  O  O156  1  0.06127992  0.49442244  0.65931512  1
  O  O157  1  0.49787849  0.75845980  0.72487748  1
  O  O158  1  0.91098664  0.91200255  0.54113470  1
  O  O159  1  0.95559876  0.16482397  0.38875375  1
  O  O160  1  0.56127992  0.00557756  0.15931512  1
  O  O161  1  0.43430475  0.75729754  0.18144262  1
  O  O162  1  0.99787849  0.75845980  0.77512252  1
  O  O163  1  0.05210051  0.12710430  0.98494816  1
  O  O164  1  0.78982335  0.75000000  0.50000000  1
  O  O165  1  0.91437365  0.83564824  0.42661728  1
  O  O166  1  0.93430475  0.74270246  0.68144262  1
  O  O167  1  0.37482559  0.13799924  0.34436391  1
  O  O168  1  0.80193468  0.60159396  0.27090842  1
  O  O169  1  0.12580020  0.20661074  0.87326846  1
  O  O170  1  0.00212151  0.25845980  0.77512252  1
  O  O171  1  0.02709713  0.98800593  0.21114238  1
  O  O172  1  0.55210051  0.37289570  0.48494816  1
  O  O173  1  0.50212151  0.24154020  0.27512252  1
  O  O174  1  0.94789949  0.87289570  0.01505184  1
  O  O175  1  0.77058495  0.28262810  0.54522377  1
  O  O176  1  0.39936622  0.29478438  0.56640736  1
  O  O177  1  0.97290287  0.01199407  0.78885762  1
  O  O178  1  0.56127992  0.49442244  0.84068488  1
  O  O179  1  0.52709713  0.51199407  0.71114238  1
  O  O180  1  0.50212151  0.25845980  0.72487748  1
  O  O181  1  0.44789949  0.62710430  0.51505184  1
  O  O182  1  0.00212151  0.24154020  0.22487748  1
  O  O183  1  0.93872008  0.99442244  0.65931512  1
  O  O184  1  0.49787849  0.74154020  0.27512252  1
  O  O185  1  0.95559876  0.33517603  0.61124625  1
  O  O186  1  0.60063378  0.70521562  0.43359264  1
  O  O187  1  0.41098664  0.91200255  0.95886530  1
  O  O188  1  0.91437365  0.66435176  0.57338272  1
  O  O189  1  0.89936622  0.20521562  0.06640736  1
  O  O190  1  0.45559876  0.16482397  0.11124625  1
  O  O191  1  0.12580020  0.29338926  0.12673154  1
