# generated using pymatgen
data_KGa2Cl7
_symmetry_space_group_name_H-M   'P 1'
_cell_length_a   9.96435292
_cell_length_b   10.67709941
_cell_length_c   13.13994876
_cell_angle_alpha   90.00000000
_cell_angle_beta   90.00000000
_cell_angle_gamma   90.00000000
_symmetry_Int_Tables_number   1
_chemical_formula_structural   KGa2Cl7
_chemical_formula_sum   'K4 Ga8 Cl28'
_cell_volume   1397.96422957
_cell_formula_units_Z   4
loop_
 _symmetry_equiv_pos_site_id
 _symmetry_equiv_pos_as_xyz
  1  'x, y, z'
loop_
 _atom_site_type_symbol
 _atom_site_label
 _atom_site_symmetry_multiplicity
 _atom_site_fract_x
 _atom_site_fract_y
 _atom_site_fract_z
 _atom_site_occupancy
  K  K0  1  0.35980165  0.86265487  0.07420262  1
  K  K1  1  0.64019835  0.36265487  0.92579738  1
  K  K2  1  0.14019835  0.86265487  0.57420262  1
  K  K3  1  0.85980165  0.36265487  0.42579738  1
  Ga  Ga4  1  0.37015858  0.21424611  0.37078788  1
  Ga  Ga5  1  0.62984142  0.71424611  0.62921212  1
  Ga  Ga6  1  0.12984142  0.21424611  0.87078788  1
  Ga  Ga7  1  0.87015858  0.71424611  0.12921212  1
  Ga  Ga8  1  0.43360575  0.49202478  0.18317907  1
  Ga  Ga9  1  0.56639425  0.99202478  0.81682093  1
  Ga  Ga10  1  0.06639425  0.49202478  0.68317907  1
  Ga  Ga11  1  0.93360575  0.99202478  0.31682093  1
  Cl  Cl12  1  0.27471463  0.37781510  0.27511755  1
  Cl  Cl13  1  0.72528537  0.87781510  0.72488245  1
  Cl  Cl14  1  0.22528537  0.37781510  0.77511755  1
  Cl  Cl15  1  0.77471463  0.87781510  0.22488245  1
  Cl  Cl16  1  0.44727720  0.66950354  0.26142930  1
  Cl  Cl17  1  0.55272280  0.16950354  0.73857070  1
  Cl  Cl18  1  0.05272280  0.66950354  0.76142930  1
  Cl  Cl19  1  0.94727720  0.16950354  0.23857070  1
  Cl  Cl20  1  0.43006737  0.07275863  0.26238324  1
  Cl  Cl21  1  0.56993263  0.57275863  0.73761676  1
  Cl  Cl22  1  0.06993263  0.07275863  0.76238324  1
  Cl  Cl23  1  0.93006737  0.57275863  0.23761676  1
  Cl  Cl24  1  0.35226967  0.51678551  0.03163288  1
  Cl  Cl25  1  0.64773033  0.01678551  0.96836712  1
  Cl  Cl26  1  0.14773033  0.51678551  0.53163288  1
  Cl  Cl27  1  0.85226967  0.01678551  0.46836712  1
  Cl  Cl28  1  0.46676571  0.78999079  0.54030195  1
  Cl  Cl29  1  0.53323429  0.28999079  0.45969805  1
  Cl  Cl30  1  0.03323429  0.78999079  0.04030195  1
  Cl  Cl31  1  0.96676571  0.28999079  0.95969805  1
  Cl  Cl32  1  0.61124638  0.37374933  0.18128759  1
  Cl  Cl33  1  0.38875362  0.87374933  0.81871241  1
  Cl  Cl34  1  0.88875362  0.37374933  0.68128759  1
  Cl  Cl35  1  0.11124638  0.87374933  0.31871241  1
  Cl  Cl36  1  0.20051242  0.16237135  0.46648792  1
  Cl  Cl37  1  0.79948758  0.66237135  0.53351208  1
  Cl  Cl38  1  0.29948758  0.16237135  0.96648792  1
  Cl  Cl39  1  0.70051242  0.66237135  0.03351208  1
