# generated using pymatgen
data_Tm23Se32
_symmetry_space_group_name_H-M   'P 1'
_cell_length_a   8.05798372
_cell_length_b   8.03891443
_cell_length_c   22.76091885
_cell_angle_alpha   90.02549645
_cell_angle_beta   89.90127931
_cell_angle_gamma   90.08740137
_symmetry_Int_Tables_number   1
_chemical_formula_structural   Tm23Se32
_chemical_formula_sum   'Tm23 Se32'
_cell_volume   1474.39004381
_cell_formula_units_Z   1
loop_
 _symmetry_equiv_pos_site_id
 _symmetry_equiv_pos_as_xyz
  1  'x, y, z'
loop_
 _atom_site_type_symbol
 _atom_site_label
 _atom_site_symmetry_multiplicity
 _atom_site_fract_x
 _atom_site_fract_y
 _atom_site_fract_z
 _atom_site_occupancy
  Tm  Tm0  1  0.00742736  0.00771484  0.99904450  1
  Tm  Tm1  1  0.00028556  0.00058366  0.50028507  1
  Tm  Tm2  1  0.24817600  0.75103636  0.12277827  1
  Tm  Tm3  1  0.24130007  0.75595625  0.62477229  1
  Tm  Tm4  1  0.24835015  0.75411289  0.87890171  1
  Tm  Tm5  1  0.24750506  0.24795495  0.12267281  1
  Tm  Tm6  1  0.24162772  0.24364876  0.62621460  1
  Tm  Tm7  1  0.48892528  0.00044183  0.25388068  1
  Tm  Tm8  1  0.49977852  0.00048400  0.50034769  1
  Tm  Tm9  1  0.50901879  0.00236215  0.74743931  1
  Tm  Tm10  1  0.49225861  0.49230869  0.99883201  1
  Tm  Tm11  1  0.49465991  0.49988154  0.25485812  1
  Tm  Tm12  1  0.49956307  0.49979942  0.50034181  1
  Tm  Tm13  1  0.50409313  0.49807230  0.74555655  1
  Tm  Tm14  1  0.75767447  0.75610163  0.37541125  1
  Tm  Tm15  1  0.75299497  0.75215433  0.87631570  1
  Tm  Tm16  1  0.75035742  0.24880304  0.12147583  1
  Tm  Tm17  1  0.75760370  0.24381777  0.37522613  1
  Tm  Tm18  1  0.75120974  0.75175800  0.12092544  1
  Tm  Tm19  1  0.75462108  0.24747301  0.87754434  1
  Tm  Tm20  1  0.00674489  0.49922154  0.25333369  1
  Tm  Tm21  1  0.00007231  0.49962329  0.50027541  1
  Tm  Tm22  1  0.99614217  0.49685421  0.74805027  1
  Se  Se23  1  0.99546002  0.00033305  0.37854206  1
  Se  Se24  1  0.99847958  0.50061065  0.37588657  1
  Se  Se25  1  0.00062710  0.99931444  0.87526353  1
  Se  Se26  1  0.99935560  0.50329352  0.87173329  1
  Se  Se27  1  0.24992381  0.25183539  0.24857315  1
  Se  Se28  1  0.24943923  0.74846421  0.24883782  1
  Se  Se29  1  0.25125634  0.25151490  0.49899957  1
  Se  Se30  1  0.25598944  0.25348538  0.74988594  1
  Se  Se31  1  0.25071645  0.25065043  0.00279891  1
  Se  Se32  1  0.25113392  0.74870623  0.49844621  1
  Se  Se33  1  0.25276911  0.74958784  0.75115944  1
  Se  Se34  1  0.25010983  0.75056497  0.00056896  1
  Se  Se35  1  0.50292143  0.99907969  0.37612446  1
  Se  Se36  1  0.50356413  0.99778393  0.87137821  1
  Se  Se37  1  0.50997022  0.49933813  0.37636549  1
  Se  Se38  1  0.49978104  0.50032684  0.87452490  1
  Se  Se39  1  0.50052844  0.50044271  0.12544830  1
  Se  Se40  1  0.50017929  0.99917539  0.12733150  1
  Se  Se41  1  0.48960226  0.50140580  0.62322622  1
  Se  Se42  1  0.49546529  0.99946338  0.62395568  1
  Se  Se43  1  0.75032266  0.25023579  0.99991626  1
  Se  Se44  1  0.74811160  0.25019270  0.24885953  1
  Se  Se45  1  0.74885176  0.74886943  0.00028325  1
  Se  Se46  1  0.74771533  0.74930931  0.24860412  1
  Se  Se47  1  0.74860619  0.25156131  0.50172686  1
  Se  Se48  1  0.75099299  0.25137271  0.75175201  1
  Se  Se49  1  0.74866306  0.74856250  0.50153310  1
  Se  Se50  1  0.74871126  0.74614518  0.75026381  1
  Se  Se51  1  0.99812644  0.50048570  0.12700094  1
  Se  Se52  1  0.00109474  0.49975480  0.62419583  1
  Se  Se53  1  0.99803753  0.99942137  0.12583227  1
  Se  Se54  1  0.00310293  0.99854887  0.62149835  1
