# generated using pymatgen
data_In5Br7
_symmetry_space_group_name_H-M   'P 1'
_cell_length_a   13.43163622
_cell_length_b   13.43163622
_cell_length_c   38.23315571
_cell_angle_alpha   90.00000000
_cell_angle_beta   90.00000000
_cell_angle_gamma   90.00000000
_symmetry_Int_Tables_number   1
_chemical_formula_structural   In5Br7
_chemical_formula_sum   'In80 Br112'
_cell_volume   6897.59971264
_cell_formula_units_Z   16
loop_
 _symmetry_equiv_pos_site_id
 _symmetry_equiv_pos_as_xyz
  1  'x, y, z'
loop_
 _atom_site_type_symbol
 _atom_site_label
 _atom_site_symmetry_multiplicity
 _atom_site_fract_x
 _atom_site_fract_y
 _atom_site_fract_z
 _atom_site_occupancy
  In  In0  1  0.99530843  0.03892612  0.66908571  1
  In  In1  1  0.83212730  0.28366520  0.44268035  1
  In  In2  1  0.25648231  0.25648231  0.00000000  1
  In  In3  1  0.97005241  0.57866797  0.19351734  1
  In  In4  1  0.49530843  0.46107388  0.08091429  1
  In  In5  1  0.53268250  0.82747887  0.69086409  1
  In  In6  1  0.73990164  0.99378394  0.24830213  1
  In  In7  1  0.82747887  0.53268250  0.30913591  1
  In  In8  1  0.29033696  0.99516080  0.91754344  1
  In  In9  1  0.91776967  0.71843144  0.30688192  1
  In  In10  1  0.03268250  0.67252113  0.05913591  1
  In  In11  1  0.26009836  0.00621606  0.74830213  1
  In  In12  1  0.45460666  0.23683032  0.82524796  1
  In  In13  1  0.67252113  0.03268250  0.94086409  1
  In  In14  1  0.23683032  0.45460666  0.17475204  1
  In  In15  1  0.73683032  0.04539334  0.57524796  1
  In  In16  1  0.33212730  0.21633480  0.30731965  1
  In  In17  1  0.04539334  0.73683032  0.42475204  1
  In  In18  1  0.76466195  0.79935109  0.07505052  1
  In  In19  1  0.02994759  0.42133203  0.69351734  1
  In  In20  1  0.70966304  0.00483920  0.41754344  1
  In  In21  1  0.50621606  0.23990164  0.49830213  1
  In  In22  1  0.76009836  0.49378394  0.00169787  1
  In  In23  1  0.99516080  0.29033696  0.08245656  1
  In  In24  1  0.08223033  0.28156856  0.80688192  1
  In  In25  1  0.78366520  0.66787270  0.19268035  1
  In  In26  1  0.96731750  0.32747887  0.55913591  1
  In  In27  1  0.57866797  0.97005241  0.80648266  1
  In  In28  1  0.66787270  0.78366520  0.80731965  1
  In  In29  1  0.42133203  0.02994759  0.30648266  1
  In  In30  1  0.96107388  0.00469157  0.83091429  1
  In  In31  1  0.49378394  0.76009836  0.99830213  1
  In  In32  1  0.23533805  0.20064891  0.57505052  1
  In  In33  1  0.28366520  0.83212730  0.55731965  1
  In  In34  1  0.17252113  0.46731750  0.80913591  1
  In  In35  1  0.95460666  0.26316968  0.92475204  1
  In  In36  1  0.99378394  0.73990164  0.75169787  1
  In  In37  1  0.46107388  0.49530843  0.91908571  1
  In  In38  1  0.52994759  0.07866797  0.05648266  1
  In  In39  1  0.50483920  0.79033696  0.16754344  1
  In  In40  1  0.24351769  0.75648231  0.25000000  1
  In  In41  1  0.46731750  0.17252113  0.19086409  1
  In  In42  1  0.99084958  0.99084958  0.00000000  1
  In  In43  1  0.23990164  0.50621606  0.50169787  1
  In  In44  1  0.53892612  0.50469157  0.41908571  1
  In  In45  1  0.07866797  0.52994759  0.94351734  1
  In  In46  1  0.76316968  0.54539334  0.67475204  1
  In  In47  1  0.75648231  0.24351769  0.75000000  1
  In  In48  1  0.49516080  0.20966304  0.66754344  1
  In  In49  1  0.00483920  0.70966304  0.58245656  1
  In  In50  1  0.50915042  0.49084958  0.25000000  1
  In  In51  1  0.21633480  0.33212730  0.69268035  1
  In  In52  1  0.00469157  0.96107388  0.16908571  1
  In  In53  1  0.00915042  0.00915042  0.50000000  1
  In  In54  1  0.20064891  0.23533805  0.42494948  1
  In  In55  1  0.79033696  0.50483920  0.83245656  1
  In  In56  1  0.49084958  0.50915042  0.75000000  1
  In  In57  1  0.26466195  0.70064891  0.67494948  1
  In  In58  1  0.26316968  0.95460666  0.07524796  1
  In  In59  1  0.20966304  0.49516080  0.33245656  1
  In  In60  1  0.58223033  0.21843144  0.94311808  1
  In  In61  1  0.71843144  0.91776967  0.69311808  1
  In  In62  1  0.29935109  0.73533805  0.82505052  1
  In  In63  1  0.92133203  0.47005241  0.44351734  1
  In  In64  1  0.78156856  0.41776967  0.55688192  1
  In  In65  1  0.79935109  0.76466195  0.92494948  1
  In  In66  1  0.16787270  0.71633480  0.94268035  1
  In  In67  1  0.21843144  0.58223033  0.05688192  1
  In  In68  1  0.54539334  0.76316968  0.32524796  1
  In  In69  1  0.70064891  0.26466195  0.32505052  1
  In  In70  1  0.28156856  0.08223033  0.19311808  1
  In  In71  1  0.73533805  0.29935109  0.17494948  1
  In  In72  1  0.74351769  0.74351769  0.50000000  1
  In  In73  1  0.00621606  0.26009836  0.25169787  1
  In  In74  1  0.47005241  0.92133203  0.55648266  1
  In  In75  1  0.03892612  0.99530843  0.33091429  1
  In  In76  1  0.32747887  0.96731750  0.44086409  1
  In  In77  1  0.50469157  0.53892612  0.58091429  1
  In  In78  1  0.41776967  0.78156856  0.44311808  1
  In  In79  1  0.71633480  0.16787270  0.05731965  1
  Br  Br80  1  0.35287287  0.42355435  0.65610828  1
  Br  Br81  1  0.45367246  0.92600508  0.24855089  1
  Br  Br82  1  0.09462464  0.72497193  0.33718684  1
  Br  Br83  1  0.42600508  0.04632754  0.99855089  1
  Br  Br84  1  0.87318532  0.87837352  0.45020872  1
  Br  Br85  1  0.62255239  0.62798848  0.04979561  1
  Br  Br86  1  0.42708173  0.79302463  0.74836446  1
  Br  Br87  1  0.61075980  0.08678476  0.15665999  1
  Br  Br88  1  0.02408799  0.60449807  0.66899867  1
  Br  Br89  1  0.85524025  0.82745680  0.65619137  1
  Br  Br90  1  0.85643802  0.02792676  0.91674903  1
  Br  Br91  1  0.22294709  0.15461162  0.66283050  1
  Br  Br92  1  0.88924020  0.58678476  0.09334001  1
  Br  Br93  1  0.54412193  0.32627251  0.99898220  1
  Br  Br94  1  0.04632754  0.42600508  0.00144911  1
  Br  Br95  1  0.67254320  0.35524025  0.90619137  1
  Br  Br96  1  0.20806632  0.82591272  0.99793608  1
  Br  Br97  1  0.62162648  0.37318532  0.70020872  1
  Br  Br98  1  0.17372749  0.04412193  0.24898220  1
  Br  Br99  1  0.35524025  0.67254320  0.09380863  1
  Br  Br100  1  0.41321524  0.11075980  0.40665999  1
  Br  Br101  1  0.54632754  0.07399492  0.74855089  1
  Br  Br102  1  0.67372749  0.45587807  0.50101780  1
  Br  Br103  1  0.64356198  0.52792676  0.33325097  1
  Br  Br104  1  0.60449807  0.02408799  0.33100133  1
  Br  Br105  1  0.65461162  0.27705291  0.41283050  1
  Br  Br106  1  0.57644565  0.64712713  0.84389172  1
  Br  Br107  1  0.97207324  0.14356198  0.58325097  1
  Br  Br108  1  0.07644565  0.85287287  0.90610828  1
  Br  Br109  1  0.88785591  0.33408995  0.65895032  1
  Br  Br110  1  0.89550193  0.52408799  0.91899867  1
  Br  Br111  1  0.82627251  0.95587807  0.74898220  1
  Br  Br112  1  0.37318532  0.62162648  0.29979128  1
  Br  Br113  1  0.27502807  0.90537536  0.16281316  1
  Br  Br114  1  0.92708173  0.70697537  0.00163554  1
  Br  Br115  1  0.59462464  0.77502807  0.41281316  1
  Br  Br116  1  0.38785591  0.16591005  0.09104968  1
  Br  Br117  1  0.20697537  0.57291827  0.75163554  1
  Br  Br118  1  0.72294709  0.34538838  0.08716950  1
  Br  Br119  1  0.37837352  0.62681468  0.20020872  1
  Br  Br120  1  0.14475975  0.17254320  0.15619137  1
  Br  Br121  1  0.29302463  0.07291827  0.49836446  1
  Br  Br122  1  0.11214409  0.66591005  0.15895032  1
  Br  Br123  1  0.52792676  0.64356198  0.66674903  1
  Br  Br124  1  0.38924020  0.91321524  0.65665999  1
  Br  Br125  1  0.34538838  0.72294709  0.91283050  1
  Br  Br126  1  0.32745680  0.64475975  0.40619137  1
  Br  Br127  1  0.72497193  0.09462464  0.66281316  1
  Br  Br128  1  0.10449807  0.47591201  0.41899867  1
  Br  Br129  1  0.02792676  0.85643802  0.08325097  1
  Br  Br130  1  0.32591272  0.29193368  0.74793608  1
  Br  Br131  1  0.52408799  0.89550193  0.08100133  1
  Br  Br132  1  0.79193368  0.17408728  0.49793608  1
  Br  Br133  1  0.37201152  0.37744761  0.45020439  1
  Br  Br134  1  0.85287287  0.07644565  0.09389172  1
  Br  Br135  1  0.15461162  0.22294709  0.33716950  1
  Br  Br136  1  0.64475975  0.32745680  0.59380863  1
  Br  Br137  1  0.67408728  0.70806632  0.24793608  1
  Br  Br138  1  0.12798848  0.87744761  0.79979561  1
  Br  Br139  1  0.83408995  0.61214409  0.40895032  1
  Br  Br140  1  0.64712713  0.57644565  0.15610828  1
  Br  Br141  1  0.04412193  0.17372749  0.75101780  1
  Br  Br142  1  0.22497193  0.40537536  0.08718684  1
  Br  Br143  1  0.95367246  0.57399492  0.50144911  1
  Br  Br144  1  0.07399492  0.54632754  0.25144911  1
  Br  Br145  1  0.87201152  0.12255239  0.29979561  1
  Br  Br146  1  0.17408728  0.79193368  0.50206392  1
  Br  Br147  1  0.12681468  0.12162648  0.95020872  1
  Br  Br148  1  0.82591272  0.20806632  0.00206392  1
  Br  Br149  1  0.45587807  0.67372749  0.49898220  1
  Br  Br150  1  0.92600508  0.45367246  0.75144911  1
  Br  Br151  1  0.62798848  0.62255239  0.95020439  1
  Br  Br152  1  0.82745680  0.85524025  0.34380863  1
  Br  Br153  1  0.66591005  0.11214409  0.84104968  1
  Br  Br154  1  0.70697537  0.92708173  0.99836446  1
  Br  Br155  1  0.97591201  0.39550193  0.16899867  1
  Br  Br156  1  0.84538838  0.77705291  0.83716950  1
  Br  Br157  1  0.12255239  0.87201152  0.70020439  1
  Br  Br158  1  0.91321524  0.38924020  0.34334001  1
  Br  Br159  1  0.47207324  0.35643802  0.16674903  1
  Br  Br160  1  0.35643802  0.47207324  0.83325097  1
  Br  Br161  1  0.29193368  0.32591272  0.25206392  1
  Br  Br162  1  0.37744761  0.37201152  0.54979561  1
  Br  Br163  1  0.87744761  0.12798848  0.20020439  1
  Br  Br164  1  0.14712713  0.92355435  0.59389172  1
  Br  Br165  1  0.14356198  0.97207324  0.41674903  1
  Br  Br166  1  0.07291827  0.29302463  0.50163554  1
  Br  Br167  1  0.62681468  0.37837352  0.79979128  1
  Br  Br168  1  0.57291827  0.20697537  0.24836446  1
  Br  Br169  1  0.40537536  0.22497193  0.91281316  1
  Br  Br170  1  0.95587807  0.82627251  0.25101780  1
  Br  Br171  1  0.90537536  0.27502807  0.83718684  1
  Br  Br172  1  0.77502807  0.59462464  0.58718684  1
  Br  Br173  1  0.58678476  0.88924020  0.90665999  1
  Br  Br174  1  0.33408995  0.88785591  0.34104968  1
  Br  Br175  1  0.92355435  0.14712713  0.40610828  1
  Br  Br176  1  0.57399492  0.95367246  0.49855089  1
  Br  Br177  1  0.27705291  0.65461162  0.58716950  1
  Br  Br178  1  0.12162648  0.12681468  0.04979128  1
  Br  Br179  1  0.17254320  0.14475975  0.84380863  1
  Br  Br180  1  0.70806632  0.67408728  0.75206392  1
  Br  Br181  1  0.87837352  0.87318532  0.54979128  1
  Br  Br182  1  0.08678476  0.61075980  0.84334001  1
  Br  Br183  1  0.47591201  0.10449807  0.58100133  1
  Br  Br184  1  0.61214409  0.83408995  0.59104968  1
  Br  Br185  1  0.39550193  0.97591201  0.83100133  1
  Br  Br186  1  0.11075980  0.41321524  0.59334001  1
  Br  Br187  1  0.79302463  0.42708173  0.25163554  1
  Br  Br188  1  0.77705291  0.84538838  0.16283050  1
  Br  Br189  1  0.16591005  0.38785591  0.90895032  1
  Br  Br190  1  0.42355435  0.35287287  0.34389172  1
  Br  Br191  1  0.32627251  0.54412193  0.00101780  1
