# generated using pymatgen
data_Ag3TeIO4
_symmetry_space_group_name_H-M   'P 1'
_cell_length_a   7.26271277
_cell_length_b   13.56476619
_cell_length_c   19.99274037
_cell_angle_alpha   97.77192048
_cell_angle_beta   90.00000000
_cell_angle_gamma   90.00000000
_symmetry_Int_Tables_number   1
_chemical_formula_structural   Ag3TeIO4
_chemical_formula_sum   'Ag36 Te12 I12 O48'
_cell_volume   1951.53230115
_cell_formula_units_Z   12
loop_
 _symmetry_equiv_pos_site_id
 _symmetry_equiv_pos_as_xyz
  1  'x, y, z'
loop_
 _atom_site_type_symbol
 _atom_site_label
 _atom_site_symmetry_multiplicity
 _atom_site_fract_x
 _atom_site_fract_y
 _atom_site_fract_z
 _atom_site_occupancy
  Ag  Ag0  1  0.50998309  0.89800923  0.62879574  1
  Ag  Ag1  1  0.86818654  0.75832344  0.58183876  1
  Ag  Ag2  1  0.66889360  0.65128179  0.85918543  1
  Ag  Ag3  1  0.17177494  0.39350976  0.30080699  1
  Ag  Ag4  1  0.33359320  0.72345142  0.69563792  1
  Ag  Ag5  1  0.47594463  0.11205343  0.99045268  1
  Ag  Ag6  1  0.20177889  0.74245865  0.85711510  1
  Ag  Ag7  1  0.86365099  0.96889209  0.41735154  1
  Ag  Ag8  1  0.00998309  0.60199077  0.37120426  1
  Ag  Ag9  1  0.44537348  0.46222411  0.93496539  1
  Ag  Ag10  1  0.63634901  0.46889209  0.41735154  1
  Ag  Ag11  1  0.13634901  0.03110791  0.58264846  1
  Ag  Ag12  1  0.36365099  0.53110791  0.58264846  1
  Ag  Ag13  1  0.49001691  0.10199077  0.37120426  1
  Ag  Ag14  1  0.16640680  0.22345142  0.69563792  1
  Ag  Ag15  1  0.29822111  0.24245865  0.85711510  1
  Ag  Ag16  1  0.16889360  0.84871821  0.14081457  1
  Ag  Ag17  1  0.13181346  0.24167656  0.41816124  1
  Ag  Ag18  1  0.83359320  0.77654858  0.30436208  1
  Ag  Ag19  1  0.05462652  0.96222411  0.93496539  1
  Ag  Ag20  1  0.83110640  0.15128179  0.85918543  1
  Ag  Ag21  1  0.63181346  0.25832344  0.58183876  1
  Ag  Ag22  1  0.82822506  0.60649024  0.69919301  1
  Ag  Ag23  1  0.99001691  0.39800923  0.62879574  1
  Ag  Ag24  1  0.36818654  0.74167656  0.41816124  1
  Ag  Ag25  1  0.94537348  0.03777589  0.06503461  1
  Ag  Ag26  1  0.55462652  0.53777589  0.06503461  1
  Ag  Ag27  1  0.32822506  0.89350976  0.30080699  1
  Ag  Ag28  1  0.70177889  0.75754135  0.14288490  1
  Ag  Ag29  1  0.66640680  0.27654858  0.30436208  1
  Ag  Ag30  1  0.02405537  0.61205343  0.99045268  1
  Ag  Ag31  1  0.97594463  0.38794657  0.00954732  1
  Ag  Ag32  1  0.33110640  0.34871821  0.14081457  1
  Ag  Ag33  1  0.67177494  0.10649024  0.69919301  1
  Ag  Ag34  1  0.79822111  0.25754135  0.14288490  1
  Ag  Ag35  1  0.52405537  0.88794657  0.00954732  1
  Te  Te36  1  0.32694520  0.49951352  0.75386078  1
  Te  Te37  1  0.67305480  0.50048648  0.24613922  1
  Te  Te38  1  0.48995990  0.05482876  0.15868613  1
  Te  Te39  1  0.98995990  0.44517124  0.84131387  1
  Te  Te40  1  0.34558797  0.64931049  0.24355248  1
  Te  Te41  1  0.82694520  0.00048648  0.24613922  1
  Te  Te42  1  0.84558797  0.85068951  0.75644752  1
  Te  Te43  1  0.65441203  0.35068951  0.75644752  1
  Te  Te44  1  0.01004010  0.55482876  0.15868613  1
  Te  Te45  1  0.51004010  0.94517124  0.84131387  1
  Te  Te46  1  0.17305480  -0.00048648  0.75386078  1
  Te  Te47  1  0.15441203  0.14931049  0.24355248  1
  I  I48  1  0.39995511  0.67203560  0.98429234  1
  I  I49  1  0.74623069  0.02645910  0.56112672  1
  I  I50  1  0.89995511  0.82796440  0.01570766  1
  I  I51  1  0.10004489  0.17203560  0.98429234  1
  I  I52  1  0.60004489  0.32796440  0.01570766  1
  I  I53  1  0.25376931  0.97354090  0.43887328  1
  I  I54  1  0.25943927  0.74947669  0.56030030  1
  I  I55  1  0.75943927  0.75052331  0.43969970  1
  I  I56  1  0.24056073  0.24947669  0.56030030  1
  I  I57  1  0.24623069  0.47354090  0.43887328  1
  I  I58  1  0.74056073  0.25052331  0.43969970  1
  I  I59  1  0.75376931  0.52645910  0.56112672  1
  O  O60  1  0.53078505  0.38157286  0.23650411  1
  O  O61  1  0.31384061  0.03114725  0.67864441  1
  O  O62  1  0.98514217  0.73617321  0.76807061  1
  O  O63  1  0.81384061  0.46885275  0.32135559  1
  O  O64  1  0.86396437  0.61109615  0.09366252  1
  O  O65  1  0.34137668  0.88367662  0.76555959  1
  O  O66  1  0.50918592  0.58932218  0.30750987  1
  O  O67  1  0.34622431  0.96924075  0.09537162  1
  O  O68  1  0.65862332  0.11632338  0.23444041  1
  O  O69  1  0.50919883  0.55959999  0.17987621  1
  O  O70  1  0.96921495  0.88157286  0.23650411  1
  O  O71  1  0.51485783  0.23617321  0.76807061  1
  O  O72  1  0.00918592  0.91067782  0.69249013  1
  O  O73  1  0.18615939  0.53114725  0.67864441  1
  O  O74  1  0.84137668  0.61632338  0.23444041  1
  O  O75  1  0.70492469  0.78637841  0.68187867  1
  O  O76  1  0.15939833  0.55875221  0.82837557  1
  O  O77  1  0.49081408  0.41067782  0.69249013  1
  O  O78  1  0.03078505  0.11842714  0.76349589  1
  O  O79  1  0.63603563  0.11109615  0.09366252  1
  O  O80  1  0.46921495  0.61842714  0.76349589  1
  O  O81  1  0.17676837  0.52877910  0.23559655  1
  O  O82  1  0.20492469  0.71362159  0.31812133  1
  O  O83  1  0.32323163  0.02877910  0.23559655  1
  O  O84  1  0.15862332  0.38367662  0.76555959  1
  O  O85  1  0.67565180  0.82497500  0.83166041  1
  O  O86  1  0.84622431  0.53075925  0.90462838  1
  O  O87  1  0.49080117  0.44040001  0.82012379  1
  O  O88  1  0.00919883  0.94040001  0.82012379  1
  O  O89  1  0.36396437  0.88890385  0.90633748  1
  O  O90  1  0.29507531  0.21362159  0.31812133  1
  O  O91  1  0.84060167  0.44124779  0.17162443  1
  O  O92  1  0.48514217  0.76382679  0.23192939  1
  O  O93  1  0.32434820  0.17502500  0.16833959  1
  O  O94  1  0.65377569  0.03075925  0.90462838  1
  O  O95  1  0.13603563  0.38890385  0.90633748  1
  O  O96  1  0.15377569  0.46924075  0.09537162  1
  O  O97  1  0.17565180  0.67502500  0.16833959  1
  O  O98  1  0.82323163  0.47122090  0.76440345  1
  O  O99  1  0.79507531  0.28637841  0.68187867  1
  O  O100  1  0.99080117  0.05959999  0.17987621  1
  O  O101  1  0.67676837  0.97122090  0.76440345  1
  O  O102  1  0.68615939  0.96885275  0.32135559  1
  O  O103  1  0.34060167  0.05875221  0.82837557  1
  O  O104  1  0.82434820  0.32497500  0.83166041  1
  O  O105  1  0.99081408  0.08932218  0.30750987  1
  O  O106  1  0.01485783  0.26382679  0.23192939  1
  O  O107  1  0.65939833  0.94124779  0.17162443  1
