# generated using pymatgen
data_Ti(PCl6)4
_symmetry_space_group_name_H-M   'P 1'
_cell_length_a   14.49658026
_cell_length_b   15.08381987
_cell_length_c   15.15569408
_cell_angle_alpha   90.00000000
_cell_angle_beta   90.00000000
_cell_angle_gamma   90.00000000
_symmetry_Int_Tables_number   1
_chemical_formula_structural   Ti(PCl6)4
_chemical_formula_sum   'Ti4 P16 Cl96'
_cell_volume   3314.00174060
_cell_formula_units_Z   4
loop_
 _symmetry_equiv_pos_site_id
 _symmetry_equiv_pos_as_xyz
  1  'x, y, z'
loop_
 _atom_site_type_symbol
 _atom_site_label
 _atom_site_symmetry_multiplicity
 _atom_site_fract_x
 _atom_site_fract_y
 _atom_site_fract_z
 _atom_site_occupancy
  Ti  Ti0  1  0.00000000  0.62592060  0.24161841  1
  Ti  Ti1  1  0.00000000  0.87407940  0.74161841  1
  Ti  Ti2  1  0.50000000  0.24131234  0.37421798  1
  Ti  Ti3  1  0.50000000  0.25868766  0.87421798  1
  P  P4  1  0.00000000  0.12458885  0.25864061  1
  P  P5  1  0.00000000  0.37541115  0.75864061  1
  P  P6  1  0.25013468  0.00028898  0.99960427  1
  P  P7  1  0.25111214  0.12844507  0.62851530  1
  P  P8  1  0.25013468  0.49971102  0.49960427  1
  P  P9  1  0.24880633  0.87268380  0.37255693  1
  P  P10  1  0.25111214  0.37155493  0.12851530  1
  P  P11  1  0.24880633  0.62731620  0.87255693  1
  P  P12  1  0.50000000  0.74144850  0.12495154  1
  P  P13  1  0.50000000  0.75855150  0.62495154  1
  P  P14  1  0.74986532  0.00028898  0.99960427  1
  P  P15  1  0.74888786  0.12844507  0.62851530  1
  P  P16  1  0.74888786  0.37155493  0.12851530  1
  P  P17  1  0.75119367  0.62731620  0.87255693  1
  P  P18  1  0.75119367  0.87268380  0.37255693  1
  P  P19  1  0.74986532  0.49971102  0.49960427  1
  Cl  Cl20  1  0.00000000  0.01042008  0.17019904  1
  Cl  Cl21  1  0.00000000  0.21299640  0.14399290  1
  Cl  Cl22  1  0.00000000  0.03671219  0.37257196  1
  Cl  Cl23  1  0.00000000  0.23934850  0.34696798  1
  Cl  Cl24  1  0.00000000  0.28700360  0.64399290  1
  Cl  Cl25  1  0.00000000  0.26065150  0.84696798  1
  Cl  Cl26  1  0.00000000  0.48957992  0.67019904  1
  Cl  Cl27  1  0.00000000  0.46328781  0.87257196  1
  Cl  Cl28  1  0.00000000  0.96840342  0.61592118  1
  Cl  Cl29  1  0.00000000  0.78078418  0.86720661  1
  Cl  Cl30  1  0.00000000  0.00030311  0.83743159  1
  Cl  Cl31  1  0.14894615  0.12551808  0.25919423  1
  Cl  Cl32  1  0.14894615  0.37448192  0.75919423  1
  Cl  Cl33  1  0.16208585  0.62576858  0.24093974  1
  Cl  Cl34  1  0.16208585  0.87423142  0.74093974  1
  Cl  Cl35  1  0.17033722  0.12569272  0.73136662  1
  Cl  Cl36  1  0.16955142  0.87015206  0.26857832  1
  Cl  Cl37  1  0.17033722  0.37430728  0.23136662  1
  Cl  Cl38  1  0.16955142  0.62984794  0.76857832  1
  Cl  Cl39  1  0.17149900  0.62613349  0.97896010  1
  Cl  Cl40  1  0.17332119  0.12910835  0.52185945  1
  Cl  Cl41  1  0.17332119  0.37089165  0.02185945  1
  Cl  Cl42  1  0.17149900  0.87386651  0.47896010  1
  Cl  Cl43  1  0.17190953  0.10557529  0.99367308  1
  Cl  Cl44  1  0.17190953  0.39442471  0.49367308  1
  Cl  Cl45  1  0.17062433  0.60463454  0.50532953  1
  Cl  Cl46  1  0.17062433  0.89536546  0.00532953  1
  Cl  Cl47  1  0.32949989  0.50402516  0.39540863  1
  Cl  Cl48  1  0.32834587  0.49253106  0.60477516  1
  Cl  Cl49  1  0.32834587  0.00746894  0.10477516  1
  Cl  Cl50  1  0.32949989  0.99597484  0.89540863  1
  Cl  Cl51  1  0.32777307  0.97911954  0.37244009  1
  Cl  Cl52  1  0.32752173  0.47883004  0.12745230  1
  Cl  Cl53  1  0.32777307  0.52088046  0.87244009  1
  Cl  Cl54  1  0.32752173  0.02116996  0.62745230  1
  Cl  Cl55  1  0.33162344  0.26812238  0.12828748  1
  Cl  Cl56  1  0.33162344  0.23187762  0.62828748  1
  Cl  Cl57  1  0.32832105  0.76820494  0.37289088  1
  Cl  Cl58  1  0.32832105  0.73179506  0.87289088  1
  Cl  Cl59  1  0.33779879  0.25918790  0.87410437  1
  Cl  Cl60  1  0.35113976  0.74087215  0.12557685  1
  Cl  Cl61  1  0.33779879  0.24081210  0.37410437  1
  Cl  Cl62  1  0.35113976  0.75912785  0.62557685  1
  Cl  Cl63  1  0.50000000  0.11505602  0.46881762  1
  Cl  Cl64  1  0.50000000  0.33728967  0.49850971  1
  Cl  Cl65  1  0.50000000  0.38494398  0.96881762  1
  Cl  Cl66  1  0.50000000  0.14192107  0.25068395  1
  Cl  Cl67  1  0.50000000  0.36850184  0.28101645  1
  Cl  Cl68  1  0.50000000  0.13149816  0.78101645  1
  Cl  Cl69  1  0.50000000  0.16271033  0.99850971  1
  Cl  Cl70  1  0.50000000  0.35807893  0.75068395  1
  Cl  Cl71  1  0.50000000  0.62734069  0.03741964  1
  Cl  Cl72  1  0.50000000  0.65235460  0.23922274  1
  Cl  Cl73  1  0.50000000  0.83080601  0.01071036  1
  Cl  Cl74  1  0.50000000  0.85639682  0.21236412  1
  Cl  Cl75  1  0.50000000  0.64360318  0.71236412  1
  Cl  Cl76  1  0.50000000  0.84764540  0.73922274  1
  Cl  Cl77  1  0.50000000  0.66919399  0.51071036  1
  Cl  Cl78  1  0.50000000  0.87265931  0.53741964  1
  Cl  Cl79  1  0.66220121  0.24081210  0.37410437  1
  Cl  Cl80  1  0.64886024  0.75912785  0.62557685  1
  Cl  Cl81  1  0.66220121  0.25918790  0.87410437  1
  Cl  Cl82  1  0.64886024  0.74087215  0.12557685  1
  Cl  Cl83  1  0.66837656  0.23187762  0.62828748  1
  Cl  Cl84  1  0.66837656  0.26812238  0.12828748  1
  Cl  Cl85  1  0.67167895  0.73179506  0.87289088  1
  Cl  Cl86  1  0.67167895  0.76820494  0.37289088  1
  Cl  Cl87  1  0.67247827  0.47883004  0.12745230  1
  Cl  Cl88  1  0.67222693  0.52088046  0.87244009  1
  Cl  Cl89  1  0.67222693  0.97911954  0.37244009  1
  Cl  Cl90  1  0.67247827  0.02116996  0.62745230  1
  Cl  Cl91  1  0.67165413  0.00746894  0.10477516  1
  Cl  Cl92  1  0.67050011  0.99597484  0.89540863  1
  Cl  Cl93  1  0.67050011  0.50402516  0.39540863  1
  Cl  Cl94  1  0.67165413  0.49253106  0.60477516  1
  Cl  Cl95  1  0.82809047  0.10557529  0.99367308  1
  Cl  Cl96  1  0.82809047  0.39442471  0.49367308  1
  Cl  Cl97  1  0.82937567  0.60463454  0.50532953  1
  Cl  Cl98  1  0.82937567  0.89536546  0.00532953  1
  Cl  Cl99  1  0.82667881  0.12910835  0.52185945  1
  Cl  Cl100  1  0.82850100  0.62613349  0.97896010  1
  Cl  Cl101  1  0.82850100  0.87386651  0.47896010  1
  Cl  Cl102  1  0.82667881  0.37089165  0.02185945  1
  Cl  Cl103  1  0.82966278  0.37430728  0.23136662  1
  Cl  Cl104  1  0.83044858  0.62984794  0.76857832  1
  Cl  Cl105  1  0.82966278  0.12569272  0.73136662  1
  Cl  Cl106  1  0.83044858  0.87015206  0.26857832  1
  Cl  Cl107  1  0.85105385  0.12551808  0.25919423  1
  Cl  Cl108  1  0.85105385  0.37448192  0.75919423  1
  Cl  Cl109  1  0.83791415  0.62576858  0.24093974  1
  Cl  Cl110  1  0.83791415  0.87423142  0.74093974  1
  Cl  Cl111  1  0.00000000  0.49969689  0.33743159  1
  Cl  Cl112  1  0.00000000  0.53159658  0.11592118  1
  Cl  Cl113  1  0.00000000  0.71921582  0.36720661  1
  Cl  Cl114  1  0.00000000  0.75221016  0.14450896  1
  Cl  Cl115  1  0.00000000  0.74778984  0.64450896  1
