# generated using pymatgen
data_KH2I3O
_symmetry_space_group_name_H-M   'P 1'
_cell_length_a   4.69073894
_cell_length_b   10.17997678
_cell_length_c   9.77311939
_cell_angle_alpha   90.00000000
_cell_angle_beta   116.31482803
_cell_angle_gamma   90.00000000
_symmetry_Int_Tables_number   1
_chemical_formula_structural   KH2I3O
_chemical_formula_sum   'K2 H4 I6 O2'
_cell_volume   418.32075061
_cell_formula_units_Z   2
loop_
 _symmetry_equiv_pos_site_id
 _symmetry_equiv_pos_as_xyz
  1  'x, y, z'
loop_
 _atom_site_type_symbol
 _atom_site_label
 _atom_site_symmetry_multiplicity
 _atom_site_fract_x
 _atom_site_fract_y
 _atom_site_fract_z
 _atom_site_occupancy
  K  K0  1  0.02643831  0.23639290  0.62110286  1
  K  K1  1  0.02643831  0.76360710  0.12110286  1
  H  H2  1  0.75786336  0.20372632  0.87393550  1
  H  H3  1  0.75786336  0.79627368  0.37393550  1
  H  H4  1  0.71404415  0.35350059  0.83761473  1
  H  H5  1  0.71404415  0.64649941  0.33761473  1
  I  I6  1  0.33382409  0.54533395  0.90540103  1
  I  I7  1  0.33382409  0.45466605  0.40540103  1
  I  I8  1  0.36600229  0.75651704  0.70239578  1
  I  I9  1  0.36600229  0.24348296  0.20239578  1
  I  I10  1  0.38847699  0.96829592  0.49915592  1
  I  I11  1  0.38847699  0.03170408  0.99915592  1
  O  O12  1  0.68655082  0.26708116  0.78959419  1
  O  O13  1  0.68655082  0.73291884  0.28959419  1
