# generated using pymatgen
data_Ca3La5Mn7FeO24
_symmetry_space_group_name_H-M   'P 1'
_cell_length_a   5.53071681
_cell_length_b   11.06517970
_cell_length_c   7.78477811
_cell_angle_alpha   90.09274415
_cell_angle_beta   89.99963761
_cell_angle_gamma   90.06494802
_symmetry_Int_Tables_number   1
_chemical_formula_structural   Ca3La5Mn7FeO24
_chemical_formula_sum   'Ca3 La5 Mn7 Fe1 O24'
_cell_volume   476.41484249
_cell_formula_units_Z   1
loop_
 _symmetry_equiv_pos_site_id
 _symmetry_equiv_pos_as_xyz
  1  'x, y, z'
loop_
 _atom_site_type_symbol
 _atom_site_label
 _atom_site_symmetry_multiplicity
 _atom_site_fract_x
 _atom_site_fract_y
 _atom_site_fract_z
 _atom_site_occupancy
  Ca  Ca0  1  0.53045382  0.25359939  0.24934256  1
  Ca  Ca1  1  0.53185682  0.75654468  0.25086666  1
  Ca  Ca2  1  0.96698916  0.00478150  0.75028227  1
  La  La3  1  0.02275379  0.49703867  0.25045061  1
  La  La4  1  0.02351395  0.99615093  0.24996013  1
  La  La5  1  0.47551226  0.24185545  0.74934549  1
  La  La6  1  0.47980991  0.75198538  0.75067998  1
  La  La7  1  0.97739037  0.50284746  0.74914833  1
  Mn  Mn8  1  0.99953969  0.24753037  0.00132914  1
  Mn  Mn9  1  0.00064342  0.75192889  0.00132487  1
  Mn  Mn10  1  0.00116772  0.75253782  0.49907436  1
  Mn  Mn11  1  0.49929902  0.00016537  0.49867053  1
  Mn  Mn12  1  0.49968012  0.00033333  0.00215812  1
  Mn  Mn13  1  0.49993367  0.49987598  0.49717473  1
  Mn  Mn14  1  0.99912679  0.24733727  0.49807872  1
  Fe  Fe15  1  0.49995297  0.49952092  0.00386732  1
  O  O16  1  0.00835699  0.28599937  0.75153246  1
  O  O17  1  0.01345228  0.78778110  0.75089070  1
  O  O18  1  0.22032626  0.11058770  0.54158701  1
  O  O19  1  0.22326874  0.61336191  0.96006172  1
  O  O20  1  0.21650609  0.11364536  0.95814619  1
  O  O21  1  0.22649087  0.61289965  0.54001408  1
  O  O22  1  0.27228233  0.36107133  0.03984057  1
  O  O23  1  0.27376698  0.36309390  0.45982858  1
  O  O24  1  0.27526663  0.85873367  0.04224599  1
  O  O25  1  0.27893414  0.86131508  0.45804750  1
  O  O26  1  0.48674973  0.03936434  0.24795436  1
  O  O27  1  0.48896197  0.53987474  0.25365923  1
  O  O28  1  0.50692415  0.46355391  0.74563583  1
  O  O29  1  0.51525531  0.96642065  0.75273024  1
  O  O30  1  0.72309062  0.13596585  0.53801996  1
  O  O31  1  0.72768436  0.13921971  0.96174359  1
  O  O32  1  0.73141334  0.63530322  0.54217140  1
  O  O33  1  0.73212212  0.63588389  0.95742019  1
  O  O34  1  0.77863118  0.38697633  0.03595843  1
  O  O35  1  0.77519443  0.38801056  0.46298360  1
  O  O36  1  0.77746596  0.88328706  0.03918793  1
  O  O37  1  0.77373801  0.88628291  0.46150794  1
  O  O38  1  0.98313146  0.21355645  0.24828669  1
  O  O39  1  0.98336257  0.71377791  0.24879199  1
