# generated using pymatgen
data_Rb2U2Mo3O16
_symmetry_space_group_name_H-M   'P 1'
_cell_length_a   8.49418412
_cell_length_b   9.88120868
_cell_length_c   20.46415026
_cell_angle_alpha   90.00000000
_cell_angle_beta   90.00000000
_cell_angle_gamma   90.00000000
_symmetry_Int_Tables_number   1
_chemical_formula_structural   Rb2U2Mo3O16
_chemical_formula_sum   'Rb8 U8 Mo12 O64'
_cell_volume   1717.61355078
_cell_formula_units_Z   4
loop_
 _symmetry_equiv_pos_site_id
 _symmetry_equiv_pos_as_xyz
  1  'x, y, z'
loop_
 _atom_site_type_symbol
 _atom_site_label
 _atom_site_symmetry_multiplicity
 _atom_site_fract_x
 _atom_site_fract_y
 _atom_site_fract_z
 _atom_site_occupancy
  Rb  Rb0  1  0.48571075  0.89270462  0.39156345  1
  Rb  Rb1  1  0.69596411  0.93708190  0.14464067  1
  Rb  Rb2  1  0.51428925  0.39270462  0.60843655  1
  Rb  Rb3  1  0.30403589  0.43708190  0.85535933  1
  Rb  Rb4  1  0.19596411  0.43708190  0.35535933  1
  Rb  Rb5  1  0.01428925  0.89270462  0.89156345  1
  Rb  Rb6  1  0.80403589  0.93708190  0.64464067  1
  Rb  Rb7  1  0.98571075  0.39270462  0.10843655  1
  U  U8  1  0.82741503  0.17689479  0.47571797  1
  U  U9  1  0.78107421  0.59327435  0.78244367  1
  U  U10  1  0.21892579  0.09327435  0.21755633  1
  U  U11  1  0.67258497  0.17689479  0.97571797  1
  U  U12  1  0.32741503  0.67689479  0.02428203  1
  U  U13  1  0.28107421  0.09327435  0.71755633  1
  U  U14  1  0.71892579  0.59327435  0.28244367  1
  U  U15  1  0.17258497  0.67689479  0.52428203  1
  Mo  Mo16  1  0.51386056  0.37617565  0.13454054  1
  Mo  Mo17  1  0.48613944  0.87617565  0.86545946  1
  Mo  Mo18  1  0.24487358  0.06164947  0.03107789  1
  Mo  Mo19  1  0.74487358  0.56164947  0.46892211  1
  Mo  Mo20  1  0.75512642  0.56164947  0.96892211  1
  Mo  Mo21  1  0.98613944  0.37617565  0.63454054  1
  Mo  Mo22  1  0.25512642  0.06164947  0.53107789  1
  Mo  Mo23  1  0.92444761  0.23499371  0.80928590  1
  Mo  Mo24  1  0.42444761  0.73499371  0.69071410  1
  Mo  Mo25  1  0.07555239  0.73499371  0.19071410  1
  Mo  Mo26  1  0.01386056  0.87617565  0.36545946  1
  Mo  Mo27  1  0.57555239  0.23499371  0.30928590  1
  O  O28  1  0.35885643  0.77442219  0.91553903  1
  O  O29  1  0.88486954  0.77766454  0.31442803  1
  O  O30  1  0.67355272  0.65292476  0.53538691  1
  O  O31  1  0.04260579  0.07420297  0.53191808  1
  O  O32  1  0.17829899  0.57721605  0.98170878  1
  O  O33  1  0.68390879  0.18495669  0.24080230  1
  O  O34  1  0.07236257  0.22172700  0.23577391  1
  O  O35  1  0.83393222  0.63512266  0.89342384  1
  O  O36  1  0.85885643  0.27442219  0.58446097  1
  O  O37  1  0.18390879  0.68495669  0.25919770  1
  O  O38  1  0.32641518  0.67214039  0.61806889  1
  O  O39  1  0.57236257  0.72172700  0.26422609  1
  O  O40  1  0.89122552  0.97543836  0.41820267  1
  O  O41  1  0.54260579  0.57420297  0.96808192  1
  O  O42  1  0.31609121  0.68495669  0.75919770  1
  O  O43  1  0.95739421  0.57420297  0.46808192  1
  O  O44  1  0.17355272  0.15292476  0.96461309  1
  O  O45  1  0.18672017  0.88540056  0.01995056  1
  O  O46  1  0.04401118  0.91801707  0.18801121  1
  O  O47  1  0.67829899  0.07721605  0.51829122  1
  O  O48  1  0.88438243  0.65376309  0.19290862  1
  O  O49  1  0.36338003  0.98243700  0.81651405  1
  O  O50  1  0.61561757  0.65376309  0.69290862  1
  O  O51  1  0.11513046  0.27766454  0.68557197  1
  O  O52  1  0.54401118  0.41801707  0.31198879  1
  O  O53  1  0.38486954  0.27766454  0.18557197  1
  O  O54  1  0.82644728  0.65292476  0.03538691  1
  O  O55  1  0.95598882  0.41801707  0.81198879  1
  O  O56  1  0.81327983  0.38540056  0.98004944  1
  O  O57  1  0.82170101  0.07721605  0.01829122  1
  O  O58  1  0.12762023  0.97159619  0.69675940  1
  O  O59  1  0.61513046  0.77766454  0.81442803  1
  O  O60  1  0.67358482  0.17214039  0.38193111  1
  O  O61  1  0.45739421  0.07420297  0.03191808  1
  O  O62  1  0.60877448  0.97543836  0.91820267  1
  O  O63  1  0.11561757  0.15376309  0.80709138  1
  O  O64  1  0.62762023  0.47159619  0.80324060  1
  O  O65  1  0.10877448  0.47543836  0.58179733  1
  O  O66  1  0.17358482  0.67214039  0.11806889  1
  O  O67  1  0.82641518  0.17214039  0.88193111  1
  O  O68  1  0.13661997  0.98243700  0.31651405  1
  O  O69  1  0.63661997  0.48243700  0.18348595  1
  O  O70  1  0.14114357  0.77442219  0.41553903  1
  O  O71  1  0.66606778  0.63512266  0.39342384  1
  O  O72  1  0.38438243  0.15376309  0.30709138  1
  O  O73  1  0.45598882  0.91801707  0.68801121  1
  O  O74  1  0.47920301  0.77118598  0.06670580  1
  O  O75  1  0.42763743  0.22172700  0.73577391  1
  O  O76  1  0.02079699  0.77118598  0.56670580  1
  O  O77  1  0.86338003  0.48243700  0.68348595  1
  O  O78  1  0.52079699  0.27118598  0.93329420  1
  O  O79  1  0.97920301  0.27118598  0.43329420  1
  O  O80  1  0.32170101  0.57721605  0.48170878  1
  O  O81  1  0.68672017  0.38540056  0.48004944  1
  O  O82  1  0.39122552  0.47543836  0.08179733  1
  O  O83  1  0.32644728  0.15292476  0.46461309  1
  O  O84  1  0.16606778  0.13512266  0.10657616  1
  O  O85  1  0.92763743  0.72172700  0.76422609  1
  O  O86  1  0.37237977  0.97159619  0.19675940  1
  O  O87  1  0.87237977  0.47159619  0.30324060  1
  O  O88  1  0.64114357  0.27442219  0.08446097  1
  O  O89  1  0.31327983  0.88540056  0.51995056  1
  O  O90  1  0.81609121  0.18495669  0.74080230  1
  O  O91  1  0.33393222  0.13512266  0.60657616  1
