# generated using pymatgen
data_Na3Zr2Si2PO12
_symmetry_space_group_name_H-M   'P 1'
_cell_length_a   9.14256305
_cell_length_b   9.17178679
_cell_length_c   9.30179164
_cell_angle_alpha   61.40410859
_cell_angle_beta   61.09662262
_cell_angle_gamma   60.42078484
_symmetry_Int_Tables_number   1
_chemical_formula_structural   Na3Zr2Si2PO12
_chemical_formula_sum   'Na6 Zr4 Si4 P2 O24'
_cell_volume   563.55185891
_cell_formula_units_Z   2
loop_
 _symmetry_equiv_pos_site_id
 _symmetry_equiv_pos_as_xyz
  1  'x, y, z'
loop_
 _atom_site_type_symbol
 _atom_site_label
 _atom_site_symmetry_multiplicity
 _atom_site_fract_x
 _atom_site_fract_y
 _atom_site_fract_z
 _atom_site_occupancy
  Na  Na0  1  0.05792123  0.29239324  0.89311790  1
  Na  Na1  1  0.44534362  0.01374952  0.47579104  1
  Na  Na2  1  0.61604095  0.39584921  0.24337547  1
  Na  Na3  1  0.38794222  0.60329454  0.75499886  1
  Na  Na4  1  0.93518802  0.71241573  0.11017961  1
  Na  Na5  1  0.74905318  0.91635250  0.65990328  1
  Zr  Zr6  1  0.15910368  0.64455056  0.55385886  1
  Zr  Zr7  1  0.64262687  0.15602632  0.05444654  1
  Zr  Zr8  1  0.35562803  0.84431967  0.94776070  1
  Zr  Zr9  1  0.85159333  0.35397169  0.43876334  1
  Si  Si10  1  0.25239395  0.46439920  0.24040248  1
  Si  Si11  1  0.46759449  0.24744254  0.73599294  1
  Si  Si12  1  0.53428869  0.75200098  0.26515564  1
  Si  Si13  1  0.74894025  0.53641568  0.75558248  1
  P  P14  1  0.04394915  0.96305377  0.74595627  1
  P  P15  1  0.95398752  0.03980953  0.25229330  1
  O  O16  1  0.10642139  0.00224756  0.08511177  1
  O  O17  1  0.00249821  0.11692076  0.58579474  1
  O  O18  1  0.06843570  0.43627164  0.29463344  1
  O  O19  1  0.27056841  0.62675400  0.05509211  1
  O  O20  1  0.42713926  0.28289539  0.22895522  1
  O  O21  1  0.25188813  0.52041446  0.38417584  1
  O  O22  1  0.05638916  0.78804910  0.74432958  1
  O  O23  1  0.42759094  0.06927930  0.78946854  1
  O  O24  1  0.28528256  0.42008699  0.72326081  1
  O  O25  1  0.47922432  0.76254768  0.11468740  1
  O  O26  1  0.77701493  0.05645804  0.25134453  1
  O  O27  1  0.37427724  0.73079800  0.45096561  1
  O  O28  1  0.63614733  0.25526370  0.55630374  1
  O  O29  1  0.22253651  0.94037097  0.74876438  1
  O  O30  1  0.51909461  0.24024214  0.88685029  1
  O  O31  1  0.71462972  0.57552182  0.27537087  1
  O  O32  1  0.58308013  0.92445434  0.21183431  1
  O  O33  1  0.93397993  0.21834322  0.25095768  1
  O  O34  1  0.74778152  0.48119383  0.61291877  1
  O  O35  1  0.57689014  0.72037811  0.77016928  1
  O  O36  1  0.73549884  0.37251394  0.94012754  1
  O  O37  1  0.92727315  0.57748560  0.70113079  1
  O  O38  1  0.99641724  0.88766818  0.41413715  1
  O  O39  1  0.89234544  0.99779656  0.91403688  1
