# generated using pymatgen
data_ZnH4(NO4)2
_symmetry_space_group_name_H-M   'P 1'
_cell_length_a   5.71817658
_cell_length_b   6.23989194
_cell_length_c   8.63869502
_cell_angle_alpha   90.00000000
_cell_angle_beta   90.35707434
_cell_angle_gamma   90.00000000
_symmetry_Int_Tables_number   1
_chemical_formula_structural   ZnH4(NO4)2
_chemical_formula_sum   'Zn2 H8 N4 O16'
_cell_volume   308.22959748
_cell_formula_units_Z   2
loop_
 _symmetry_equiv_pos_site_id
 _symmetry_equiv_pos_as_xyz
  1  'x, y, z'
loop_
 _atom_site_type_symbol
 _atom_site_label
 _atom_site_symmetry_multiplicity
 _atom_site_fract_x
 _atom_site_fract_y
 _atom_site_fract_z
 _atom_site_occupancy
  Zn  Zn0  1  0.50000000  0.50000000  0.00000000  1
  Zn  Zn1  1  0.50000000  0.00000000  0.50000000  1
  H  H2  1  0.69839254  0.18225156  0.88876033  1
  H  H3  1  0.30160746  0.68225156  0.61123967  1
  H  H4  1  0.30160746  0.81774844  0.11123967  1
  H  H5  1  0.69839254  0.31774844  0.38876033  1
  H  H6  1  0.90166301  0.27936582  0.99166296  1
  H  H7  1  0.09833699  0.77936582  0.50833704  1
  H  H8  1  0.09833699  0.72063418  0.00833704  1
  H  H9  1  0.90166301  0.22063418  0.49166296  1
  N  N10  1  0.25013156  0.15899184  0.80118587  1
  N  N11  1  0.74986844  0.65899184  0.69881413  1
  N  N12  1  0.74986844  0.84100816  0.19881413  1
  N  N13  1  0.25013156  0.34100816  0.30118587  1
  O  O14  1  0.07133819  0.07983729  0.74386585  1
  O  O15  1  0.92866181  0.57983729  0.75613415  1
  O  O16  1  0.92866181  0.92016271  0.25613415  1
  O  O17  1  0.07133819  0.42016271  0.24386585  1
  O  O18  1  0.45253095  0.13100272  0.74095491  1
  O  O19  1  0.54746905  0.63100272  0.75904509  1
  O  O20  1  0.54746905  0.86899728  0.25904509  1
  O  O21  1  0.45253095  0.36899728  0.24095491  1
  O  O22  1  0.23656707  0.27327286  0.92539328  1
  O  O23  1  0.76343293  0.77327286  0.57460672  1
  O  O24  1  0.76343293  0.72672714  0.07460672  1
  O  O25  1  0.23656707  0.22672714  0.42539328  1
  O  O26  1  0.73204395  0.24931741  0.98960767  1
  O  O27  1  0.26795605  0.74931741  0.51039233  1
  O  O28  1  0.26795605  0.75068259  0.01039233  1
  O  O29  1  0.73204395  0.25068259  0.48960767  1
