# generated using pymatgen
data_V5S8
_symmetry_space_group_name_H-M   'P 1'
_cell_length_a   6.55066677
_cell_length_b   6.55066677
_cell_length_c   8.16058293
_cell_angle_alpha   128.05197961
_cell_angle_beta   128.05197961
_cell_angle_gamma   60.78393514
_symmetry_Int_Tables_number   1
_chemical_formula_structural   V5S8
_chemical_formula_sum   'V5 S8'
_cell_volume   213.80985791
_cell_formula_units_Z   1
loop_
 _symmetry_equiv_pos_site_id
 _symmetry_equiv_pos_as_xyz
  1  'x, y, z'
loop_
 _atom_site_type_symbol
 _atom_site_label
 _atom_site_symmetry_multiplicity
 _atom_site_fract_x
 _atom_site_fract_y
 _atom_site_fract_z
 _atom_site_occupancy
  V  V0  1  0.23136756  0.23136756  0.00811972  1
  V  V1  1  0.76863244  0.76863244  0.99188028  1
  V  V2  1  0.79615661  0.20384339  0.00000000  1
  V  V3  1  0.20384339  0.79615661  0.00000000  1
  V  V4  1  0.00000000  -0.00000000  0.50000000  1
  S  S5  1  0.30718078  0.30718078  0.79350797  1
  S  S6  1  0.69281922  0.69281922  0.20649203  1
  S  S7  1  0.22591265  0.22591265  0.28321829  1
  S  S8  1  0.77408735  0.77408735  0.71678171  1
  S  S9  1  0.78770607  0.28642088  0.74799402  1
  S  S10  1  0.28642088  0.78770607  0.74799402  1
  S  S11  1  0.21229393  0.71357912  0.25200598  1
  S  S12  1  0.71357912  0.21229393  0.25200598  1
