# generated using pymatgen
data_NaSi3BO8
_symmetry_space_group_name_H-M   'P 1'
_cell_length_a   7.26976357
_cell_length_b   7.50699998
_cell_length_c   6.87863913
_cell_angle_alpha   79.25240052
_cell_angle_beta   106.92387108
_cell_angle_gamma   64.75897888
_symmetry_Int_Tables_number   1
_chemical_formula_structural   NaSi3BO8
_chemical_formula_sum   'Na2 Si6 B2 O16'
_cell_volume   303.19956337
_cell_formula_units_Z   2
loop_
 _symmetry_equiv_pos_site_id
 _symmetry_equiv_pos_as_xyz
  1  'x, y, z'
loop_
 _atom_site_type_symbol
 _atom_site_label
 _atom_site_symmetry_multiplicity
 _atom_site_fract_x
 _atom_site_fract_y
 _atom_site_fract_z
 _atom_site_occupancy
  Na  Na0  1  0.73431357  0.25079346  0.86694604  1
  Na  Na1  1  0.26568643  0.74920654  0.13305396  1
  Si  Si2  1  0.18421588  0.19621207  0.79028980  1
  Si  Si3  1  0.81578412  0.80378793  0.20971020  1
  Si  Si4  1  0.19544707  0.60122982  0.67933141  1
  Si  Si5  1  0.80455293  0.39877018  0.32066859  1
  Si  Si6  1  0.45125027  0.82038446  0.64530142  1
  Si  Si7  1  0.54874973  0.17961554  0.35469858  1
  B  B8  1  0.82565630  0.85041796  0.77833846  1
  B  B9  1  0.17434370  0.14958204  0.22166154  1
  O  O10  1  0.85649103  0.87138827  0.99574427  1
  O  O11  1  0.14350897  0.12861173  0.00425573  1
  O  O12  1  0.42638554  0.61143569  0.72415986  1
  O  O13  1  0.57361446  0.38856431  0.27584014  1
  O  O14  1  0.05534891  0.74660681  0.78842264  1
  O  O15  1  0.94465109  0.25339319  0.21157736  1
  O  O16  1  0.34915108  0.98093731  0.76676824  1
  O  O17  1  0.65084892  0.01906269  0.23323176  1
  O  O18  1  0.71810457  0.72945663  0.72803005  1
  O  O19  1  0.28189543  0.27054337  0.27196995  1
  O  O20  1  0.29212810  0.34878377  0.79364103  1
  O  O21  1  0.70787190  0.65121623  0.20635897  1
  O  O22  1  0.68996992  0.07146016  0.61800541  1
  O  O23  1  0.31003008  0.92853984  0.38199459  1
  O  O24  1  0.93876725  0.32423775  0.58333375  1
  O  O25  1  0.06123275  0.67576225  0.41666625  1
