# generated using pymatgen
data_LaMg2NiH7
_symmetry_space_group_name_H-M   'P 1'
_cell_length_a   13.96806556
_cell_length_b   4.67481553
_cell_length_c   16.01520242
_cell_angle_alpha   90.00000000
_cell_angle_beta   125.41016252
_cell_angle_gamma   90.00000000
_symmetry_Int_Tables_number   1
_chemical_formula_structural   LaMg2NiH7
_chemical_formula_sum   'La8 Mg16 Ni8 H56'
_cell_volume   852.32283675
_cell_formula_units_Z   8
loop_
 _symmetry_equiv_pos_site_id
 _symmetry_equiv_pos_as_xyz
  1  'x, y, z'
loop_
 _atom_site_type_symbol
 _atom_site_label
 _atom_site_symmetry_multiplicity
 _atom_site_fract_x
 _atom_site_fract_y
 _atom_site_fract_z
 _atom_site_occupancy
  La  La0  1  0.21965225  0.23251088  0.50700075  1
  La  La1  1  0.78034775  0.73251088  0.99299925  1
  La  La2  1  0.78034775  0.76748912  0.49299925  1
  La  La3  1  0.21965225  0.26748912  0.00700075  1
  La  La4  1  0.28089887  0.24125097  0.78797722  1
  La  La5  1  0.71910113  0.74125097  0.71202278  1
  La  La6  1  0.71910113  0.75874903  0.21202278  1
  La  La7  1  0.28089887  0.25874903  0.28797722  1
  Mg  Mg8  1  0.09342853  0.74123116  0.59037297  1
  Mg  Mg9  1  0.90657147  0.24123116  0.90962703  1
  Mg  Mg10  1  0.90657147  0.25876884  0.40962703  1
  Mg  Mg11  1  0.09342853  0.75876884  0.09037297  1
  Mg  Mg12  1  0.10012486  0.74692170  0.78842355  1
  Mg  Mg13  1  0.89987514  0.24692170  0.71157645  1
  Mg  Mg14  1  0.89987514  0.25307830  0.21157645  1
  Mg  Mg15  1  0.10012486  0.75307830  0.28842355  1
  Mg  Mg16  1  0.40712362  0.76377153  0.49893738  1
  Mg  Mg17  1  0.59287638  0.26377153  0.00106262  1
  Mg  Mg18  1  0.59287638  0.23622847  0.50106262  1
  Mg  Mg19  1  0.40712362  0.73622847  0.99893738  1
  Mg  Mg20  1  0.40045924  0.73936857  0.69104944  1
  Mg  Mg21  1  0.59954076  0.23936857  0.80895056  1
  Mg  Mg22  1  0.59954076  0.26063143  0.30895056  1
  Mg  Mg23  1  0.40045924  0.76063143  0.19104944  1
  Ni  Ni24  1  0.00463991  0.22189147  0.61363509  1
  Ni  Ni25  1  0.99536009  0.72189147  0.88636491  1
  Ni  Ni26  1  0.99536009  0.77810853  0.38636491  1
  Ni  Ni27  1  0.00463991  0.27810853  0.11363509  1
  Ni  Ni28  1  0.49519056  0.27513746  0.60842806  1
  Ni  Ni29  1  0.50480944  0.77513746  0.89157194  1
  Ni  Ni30  1  0.50480944  0.72486254  0.39157194  1
  Ni  Ni31  1  0.49519056  0.22486254  0.10842806  1
  H  H32  1  0.10549692  0.27379069  0.59838848  1
  H  H33  1  0.89450308  0.77379069  0.90161152  1
  H  H34  1  0.89450308  0.72620931  0.40161152  1
  H  H35  1  0.10549692  0.22620931  0.09838848  1
  H  H36  1  0.87777038  0.30275941  0.51823947  1
  H  H37  1  0.12222962  0.80275941  0.98176053  1
  H  H38  1  0.12222962  0.69724059  0.48176053  1
  H  H39  1  0.87777038  0.19724059  0.01823947  1
  H  H40  1  0.98502758  0.90055070  0.63197987  1
  H  H41  1  0.01497242  0.40055070  0.86802013  1
  H  H42  1  0.01497242  0.09944930  0.36802013  1
  H  H43  1  0.98502758  0.59944930  0.13197987  1
  H  H44  1  0.04374874  0.36883864  0.71764091  1
  H  H45  1  0.95625126  0.86883864  0.78235909  1
  H  H46  1  0.95625126  0.63116136  0.28235909  1
  H  H47  1  0.04374874  0.13116136  0.21764091  1
  H  H48  1  0.39541202  0.27286867  0.48887814  1
  H  H49  1  0.60458798  0.77286867  0.01112186  1
  H  H50  1  0.60458798  0.72713133  0.51112186  1
  H  H51  1  0.39541202  0.22713133  0.98887814  1
  H  H52  1  0.62327026  0.21740730  0.64208383  1
  H  H53  1  0.37672974  0.71740730  0.85791617  1
  H  H54  1  0.37672974  0.78259270  0.35791617  1
  H  H55  1  0.62327026  0.28259270  0.14208383  1
  H  H56  1  0.51955082  0.59246699  0.65385989  1
  H  H57  1  0.48044918  0.09246699  0.84614011  1
  H  H58  1  0.48044918  0.40753301  0.34614011  1
  H  H59  1  0.51955082  0.90753301  0.15385989  1
  H  H60  1  0.44199760  0.13173528  0.66205994  1
  H  H61  1  0.55800240  0.63173528  0.83794006  1
  H  H62  1  0.55800240  0.86826472  0.33794006  1
  H  H63  1  0.44199760  0.36826472  0.16205994  1
  H  H64  1  0.29954976  0.73792415  0.53951671  1
  H  H65  1  0.70045024  0.23792415  0.96048329  1
  H  H66  1  0.70045024  0.26207585  0.46048329  1
  H  H67  1  0.29954976  0.76207585  0.03951671  1
  H  H68  1  0.26543157  0.98656014  0.65227200  1
  H  H69  1  0.73456843  0.48656014  0.84772800  1
  H  H70  1  0.73456843  0.01343986  0.34772800  1
  H  H71  1  0.26543157  0.51343986  0.15227200  1
  H  H72  1  0.20140260  0.73067916  0.73913223  1
  H  H73  1  0.79859740  0.23067916  0.76086777  1
  H  H74  1  0.79859740  0.26932084  0.26086777  1
  H  H75  1  0.20140260  0.76932084  0.23913223  1
  H  H76  1  0.23833775  0.50568477  0.88770413  1
  H  H77  1  0.76166225  0.00568477  0.61229587  1
  H  H78  1  0.76166225  0.49431523  0.11229587  1
  H  H79  1  0.23833775  0.99431523  0.38770413  1
  H  H80  1  0.28400603  0.46192383  0.65934715  1
  H  H81  1  0.71599397  0.96192383  0.84065285  1
  H  H82  1  0.71599397  0.53807617  0.34065285  1
  H  H83  1  0.28400603  0.03807617  0.15934715  1
  H  H84  1  0.21091175  0.03242561  0.87316553  1
  H  H85  1  0.78908825  0.53242561  0.62683447  1
  H  H86  1  0.78908825  0.96757439  0.12683447  1
  H  H87  1  0.21091175  0.46757439  0.37316553  1
