# generated using pymatgen
data_Na2Si3(HO4)2
_symmetry_space_group_name_H-M   'P 1'
_cell_length_a   7.40003499
_cell_length_b   12.83618023
_cell_length_c   9.24868981
_cell_angle_alpha   90.00000000
_cell_angle_beta   118.93927467
_cell_angle_gamma   90.00000000
_symmetry_Int_Tables_number   1
_chemical_formula_structural   Na2Si3(HO4)2
_chemical_formula_sum   'Na8 Si12 H8 O32'
_cell_volume   768.81859081
_cell_formula_units_Z   4
loop_
 _symmetry_equiv_pos_site_id
 _symmetry_equiv_pos_as_xyz
  1  'x, y, z'
loop_
 _atom_site_type_symbol
 _atom_site_label
 _atom_site_symmetry_multiplicity
 _atom_site_fract_x
 _atom_site_fract_y
 _atom_site_fract_z
 _atom_site_occupancy
  Na  Na0  1  0.14340671  0.66579298  0.48697253  1
  Na  Na1  1  0.85659329  0.16579298  0.01302747  1
  Na  Na2  1  0.85659329  0.33420702  0.51302747  1
  Na  Na3  1  0.14340671  0.83420702  0.98697253  1
  Na  Na4  1  0.29595163  0.07769504  0.96536164  1
  Na  Na5  1  0.70404837  0.57769504  0.53463836  1
  Na  Na6  1  0.70404837  0.92230496  0.03463836  1
  Na  Na7  1  0.29595163  0.42230496  0.46536164  1
  Si  Si8  1  0.25543076  0.89843885  0.67524622  1
  Si  Si9  1  0.74456924  0.39843885  0.82475378  1
  Si  Si10  1  0.74456924  0.10156115  0.32475378  1
  Si  Si11  1  0.25543076  0.60156115  0.17524622  1
  Si  Si12  1  0.35684804  0.19419837  0.30993977  1
  Si  Si13  1  0.64315196  0.69419837  0.19006023  1
  Si  Si14  1  0.64315196  0.80580163  0.69006023  1
  Si  Si15  1  0.35684804  0.30580163  0.80993977  1
  Si  Si16  1  0.21936185  0.13180502  0.56209545  1
  Si  Si17  1  0.78063815  0.63180502  0.93790455  1
  Si  Si18  1  0.78063815  0.86819498  0.43790455  1
  Si  Si19  1  0.21936185  0.36819498  0.06209545  1
  H  H20  1  0.17264459  0.51037910  0.71468323  1
  H  H21  1  0.82735541  0.01037910  0.78531677  1
  H  H22  1  0.82735541  0.48962090  0.28531677  1
  H  H23  1  0.17264459  0.98962090  0.21468323  1
  H  H24  1  0.20640600  0.61275169  0.82017176  1
  H  H25  1  0.79359400  0.11275169  0.67982824  1
  H  H26  1  0.79359400  0.38724831  0.17982824  1
  H  H27  1  0.20640600  0.88724831  0.32017176  1
  O  O28  1  0.31909240  0.91377480  0.86396989  1
  O  O29  1  0.68090760  0.41377480  0.63603011  1
  O  O30  1  0.68090760  0.08622520  0.13603011  1
  O  O31  1  0.31909240  0.58622520  0.36396989  1
  O  O32  1  0.26224504  0.00745083  0.58141210  1
  O  O33  1  0.73775496  0.50745083  0.91858790  1
  O  O34  1  0.73775496  0.99254917  0.41858790  1
  O  O35  1  0.26224504  0.49254917  0.08141210  1
  O  O36  1  0.21125546  0.11182144  0.17554385  1
  O  O37  1  0.78874454  0.61182144  0.32445615  1
  O  O38  1  0.78874454  0.88817856  0.82445615  1
  O  O39  1  0.21125546  0.38817856  0.67554385  1
  O  O40  1  0.02524033  0.84453642  0.55856383  1
  O  O41  1  0.97475967  0.34453642  0.94143617  1
  O  O42  1  0.97475967  0.15546358  0.44143617  1
  O  O43  1  0.02524033  0.65546358  0.05856383  1
  O  O44  1  0.35141452  0.19010633  0.48672899  1
  O  O45  1  0.64858548  0.69010633  0.01327101  1
  O  O46  1  0.64858548  0.80989367  0.51327101  1
  O  O47  1  0.35141452  0.30989367  0.98672899  1
  O  O48  1  0.39516237  0.81345784  0.63521321  1
  O  O49  1  0.60483763  0.31345784  0.86478679  1
  O  O50  1  0.60483763  0.18654216  0.36478679  1
  O  O51  1  0.39516237  0.68654216  0.13521321  1
  O  O52  1  0.29013270  0.31731074  0.24522919  1
  O  O53  1  0.70986730  0.81731074  0.25477081  1
  O  O54  1  0.70986730  0.68268926  0.75477081  1
  O  O55  1  0.29013270  0.18268926  0.74522919  1
  O  O56  1  0.13271099  0.58641699  0.70803536  1
  O  O57  1  0.86728901  0.08641699  0.79196464  1
  O  O58  1  0.86728901  0.41358301  0.29196464  1
  O  O59  1  0.13271099  0.91358301  0.20803536  1
