# generated using pymatgen
data_La2(GeO3)3
_symmetry_space_group_name_H-M   'P 1'
_cell_length_a   7.80835820
_cell_length_b   8.90980046
_cell_length_c   8.97469012
_cell_angle_alpha   37.86657223
_cell_angle_beta   108.76746984
_cell_angle_gamma   107.93278312
_symmetry_Int_Tables_number   1
_chemical_formula_structural   La2(GeO3)3
_chemical_formula_sum   'La4 Ge6 O18'
_cell_volume   361.31642937
_cell_formula_units_Z   2
loop_
 _symmetry_equiv_pos_site_id
 _symmetry_equiv_pos_as_xyz
  1  'x, y, z'
loop_
 _atom_site_type_symbol
 _atom_site_label
 _atom_site_symmetry_multiplicity
 _atom_site_fract_x
 _atom_site_fract_y
 _atom_site_fract_z
 _atom_site_occupancy
  La  La0  1  0.80025759  0.91435921  0.86618514  1
  La  La1  1  0.19974241  0.08564079  0.13381486  1
  La  La2  1  0.81970114  0.22487362  0.19288433  1
  La  La3  1  0.18029886  0.77512638  0.80711567  1
  Ge  Ge4  1  0.48820608  0.23599741  0.76264207  1
  Ge  Ge5  1  0.51179392  0.76400259  0.23735793  1
  Ge  Ge6  1  0.92672186  0.57390717  0.57254311  1
  Ge  Ge7  1  0.07327814  0.42609283  0.42745689  1
  Ge  Ge8  1  0.51837618  0.67737469  0.66207705  1
  Ge  Ge9  1  0.48162382  0.32262531  0.33792295  1
  O  O10  1  0.00549195  0.28983830  0.70908347  1
  O  O11  1  0.99450805  0.71016170  0.29091653  1
  O  O12  1  0.67608515  0.03297001  0.01186781  1
  O  O13  1  0.32391485  0.96702999  0.98813219  1
  O  O14  1  0.67298489  0.51509797  0.53104538  1
  O  O15  1  0.32701511  0.48490203  0.46895462  1
  O  O16  1  0.48656668  0.35338746  0.87052147  1
  O  O17  1  0.51343332  0.64661254  0.12947853  1
  O  O18  1  0.32376167  0.77595826  0.61019558  1
  O  O19  1  0.67623833  0.22404174  0.38980442  1
  O  O20  1  0.98882574  0.42092633  0.87993898  1
  O  O21  1  0.01117426  0.57907367  0.12006102  1
  O  O22  1  0.53414247  0.88309291  0.34977781  1
  O  O23  1  0.46585753  0.11690709  0.65022219  1
  O  O24  1  0.02739864  0.11659927  0.57818931  1
  O  O25  1  0.97260136  0.88340073  0.42181069  1
  O  O26  1  0.72205903  0.68359754  0.81210426  1
  O  O27  1  0.27794097  0.31640246  0.18789574  1
