# generated using pymatgen
data_Mn3(AgO2)4
_symmetry_space_group_name_H-M   'P 1'
_cell_length_a   12.82725998
_cell_length_b   12.82725972
_cell_length_c   15.73718356
_cell_angle_alpha   90.00000000
_cell_angle_beta   90.00000000
_cell_angle_gamma   120.00000068
_symmetry_Int_Tables_number   1
_chemical_formula_structural   Mn3(AgO2)4
_chemical_formula_sum   'Mn36 Ag48 O96'
_cell_volume   2242.46371414
_cell_formula_units_Z   12
loop_
 _symmetry_equiv_pos_site_id
 _symmetry_equiv_pos_as_xyz
  1  'x, y, z'
loop_
 _atom_site_type_symbol
 _atom_site_label
 _atom_site_symmetry_multiplicity
 _atom_site_fract_x
 _atom_site_fract_y
 _atom_site_fract_z
 _atom_site_occupancy
  Mn  Mn0  1  0.04187321  0.70581271  0.83331250  1
  Mn  Mn1  1  0.43177429  0.94627718  0.53083618  1
  Mn  Mn2  1  0.12168469  0.66791730  0.99983137  1
  Mn  Mn3  1  0.33606050  0.29418729  0.83335450  1
  Mn  Mn4  1  0.70581271  0.04187321  0.16668750  1
  Mn  Mn5  1  0.54623260  0.87831531  0.66649837  1
  Mn  Mn6  1  0.23684434  0.84792664  0.13800330  1
  Mn  Mn7  1  0.29418729  0.33606050  0.16664550  1
  Mn  Mn8  1  0.33208270  0.45376740  0.33316537  1
  Mn  Mn9  1  0.63010128  0.00000000  0.83333300  1
  Mn  Mn10  1  0.84792664  0.23684434  0.86199670  1
  Mn  Mn11  1  0.10024715  0.28131437  0.86349591  1
  Mn  Mn12  1  0.00000000  0.79062584  0.66666700  1
  Mn  Mn13  1  0.45376740  0.33208270  0.66683463  1
  Mn  Mn14  1  0.36989872  0.36989872  0.50000000  1
  Mn  Mn15  1  0.05372282  0.48549712  0.86417018  1
  Mn  Mn16  1  0.56822571  0.51450288  0.80249682  1
  Mn  Mn17  1  0.66791730  0.12168469  0.00016863  1
  Mn  Mn18  1  0.18106722  0.89975285  0.53016191  1
  Mn  Mn19  1  0.51450288  0.56822571  0.19750318  1
  Mn  Mn20  1  0.95812679  0.66393950  0.50002050  1
  Mn  Mn21  1  0.79062584  0.00000000  0.33333300  1
  Mn  Mn22  1  0.87831531  0.54623260  0.33350163  1
  Mn  Mn23  1  0.89975285  0.18106722  0.46983809  1
  Mn  Mn24  1  0.15207336  0.38891770  0.47133730  1
  Mn  Mn25  1  0.66393950  0.95812679  0.49997950  1
  Mn  Mn26  1  0.71868563  0.81893278  0.19682891  1
  Mn  Mn27  1  0.38891770  0.15207336  0.52866270  1
  Mn  Mn28  1  0.20937416  0.20937416  0.00000000  1
  Mn  Mn29  1  0.61108230  0.76315566  0.80467030  1
  Mn  Mn30  1  0.48549712  0.05372282  0.13582982  1
  Mn  Mn31  1  0.94627718  0.43177429  0.46916382  1
  Mn  Mn32  1  0.81893278  0.71868563  0.80317109  1
  Mn  Mn33  1  0.28131437  0.10024715  0.13650409  1
  Mn  Mn34  1  0.76315566  0.61108230  0.19532970  1
  Mn  Mn35  1  1.00000000  0.63010128  0.16666700  1
  Ag  Ag36  1  0.36948251  0.83327115  0.91354624  1
  Ag  Ag37  1  0.79450879  0.55502723  0.98123723  1
  Ag  Ag38  1  0.44497277  0.23948156  0.31457123  1
  Ag  Ag39  1  0.22844791  0.65447149  0.57738640  1
  Ag  Ag40  1  0.68293372  0.60129508  0.59251389  1
  Ag  Ag41  1  0.67897836  0.29712521  0.24109789  1
  Ag  Ag42  1  0.96152831  0.85623942  0.34644948  1
  Ag  Ag43  1  0.53621137  0.16672885  0.75312076  1
  Ag  Ag44  1  0.06511045  0.06511045  0.50000000  1
  Ag  Ag45  1  0.39870492  0.08163864  0.92584689  1
  Ag  Ag46  1  0.00000000  0.46821035  0.66666700  1
  Ag  Ag47  1  0.32102164  0.61814685  0.09223511  1
  Ag  Ag48  1  0.46821035  0.00000000  0.33333300  1
  Ag  Ag49  1  0.53178965  0.53178965  0.00000000  1
  Ag  Ag50  1  0.42602358  0.77155209  0.24405240  1
  Ag  Ag51  1  0.57397642  0.34552851  0.08928060  1
  Ag  Ag52  1  0.77155209  0.42602358  0.75594760  1
  Ag  Ag53  1  0.34552851  0.57397642  0.91071940  1
  Ag  Ag54  1  0.31706628  0.91836136  0.74082011  1
  Ag  Ag55  1  0.16982305  0.00000000  0.83333300  1
  Ag  Ag56  1  0.03847169  0.89471111  0.98688352  1
  Ag  Ag57  1  0.38185315  0.70287479  0.42556811  1
  Ag  Ag58  1  0.77110670  0.77110670  0.00000000  1
  Ag  Ag59  1  0.63051749  0.46378863  0.41978676  1
  Ag  Ag60  1  0.93488955  0.00000000  0.83333300  1
  Ag  Ag61  1  0.14376058  0.10528889  0.67978348  1
  Ag  Ag62  1  0.08163864  0.39870492  0.07415311  1
  Ag  Ag63  1  0.16672885  0.53621137  0.24687924  1
  Ag  Ag64  1  0.23948156  0.44497277  0.68542877  1
  Ag  Ag65  1  0.76051844  0.20549121  0.64790423  1
  Ag  Ag66  1  0.85623942  0.96152831  0.65355052  1
  Ag  Ag67  1  1.00000000  0.16982305  0.16666700  1
  Ag  Ag68  1  0.91836136  0.31706628  0.25917989  1
  Ag  Ag69  1  0.70287479  0.38185315  0.57443189  1
  Ag  Ag70  1  0.83327115  0.36948251  0.08645376  1
  Ag  Ag71  1  0.65447149  0.22844791  0.42261360  1
  Ag  Ag72  1  0.46378863  0.63051749  0.58021324  1
  Ag  Ag73  1  0.00000000  0.22889330  0.66666700  1
  Ag  Ag74  1  0.22889330  0.00000000  0.33333300  1
  Ag  Ag75  1  1.00000000  0.93488955  0.16666700  1
  Ag  Ag76  1  0.10528889  0.14376058  0.32021652  1
  Ag  Ag77  1  0.60129508  0.68293372  0.40748611  1
  Ag  Ag78  1  0.83017695  0.83017695  0.50000000  1
  Ag  Ag79  1  0.61814685  0.32102164  0.90776489  1
  Ag  Ag80  1  0.29712521  0.67897836  0.75890211  1
  Ag  Ag81  1  0.20549121  0.76051844  0.35209577  1
  Ag  Ag82  1  0.89471111  0.03847169  0.01311648  1
  Ag  Ag83  1  0.55502723  0.79450879  0.01876277  1
  O  O84  1  0.91166074  0.85151195  0.72734076  1
  O  O85  1  0.94556106  0.76407290  0.88539228  1
  O  O86  1  0.14848805  0.06014879  0.06067476  1
  O  O87  1  0.06014879  0.14848805  0.93932524  1
  O  O88  1  0.93985121  0.08833926  0.39400776  1
  O  O89  1  0.25917131  0.34841153  0.92178505  1
  O  O90  1  0.60537908  0.42528951  0.72326860  1
  O  O91  1  0.99991372  0.33345164  0.40435852  1
  O  O92  1  0.23592710  0.18148817  0.21872628  1
  O  O93  1  0.08833926  0.93985121  0.60599224  1
  O  O94  1  0.10595880  0.61294479  0.78222278  1
  O  O95  1  0.12025040  0.83916236  0.75529268  1
  O  O96  1  0.08924022  0.74082869  0.58845205  1
  O  O97  1  0.95494563  0.50226048  0.24691388  1
  O  O98  1  0.00008628  0.33353792  0.92897548  1
  O  O99  1  0.42528951  0.60537908  0.27673140  1
  O  O100  1  0.65158847  0.91075978  0.25511805  1
  O  O101  1  0.76407290  0.94556106  0.11460772  1
  O  O102  1  0.80760365  0.76016973  0.13465136  1
  O  O103  1  0.27205620  0.75393971  0.05907006  1
  O  O104  1  0.59236646  0.01619982  0.58664559  1
  O  O105  1  0.49301401  0.38705521  0.88444322  1
  O  O106  1  0.34841153  0.25917131  0.07821495  1
  O  O107  1  0.19239635  0.95256608  0.19868264  1
  O  O108  1  0.81851183  0.05443894  0.55205928  1
  O  O109  1  0.17025161  0.78707135  0.91280780  1
  O  O110  1  0.28042937  0.84958336  0.47404208  1
  O  O111  1  0.71786884  0.15723783  0.78215890  1
  O  O112  1  0.57471049  0.18008956  0.05660260  1
  O  O113  1  0.75393971  0.27205620  0.94092994  1
  O  O114  1  0.48188351  0.72794380  0.72573606  1
  O  O115  1  0.05443894  0.81851183  0.44794072  1
  O  O116  1  0.68382027  0.92281121  0.74656247  1
  O  O117  1  0.47691128  0.09144950  0.46786838  1
  O  O118  1  0.71891197  0.87974960  0.42195868  1
  O  O119  1  0.45268515  0.49773952  0.41975212  1
  O  O120  1  0.82974839  0.61681974  0.42052520  1
  O  O121  1  0.92281121  0.68382027  0.25343753  1
  O  O122  1  0.33353792  0.00008628  0.07102452  1
  O  O123  1  0.50698599  0.89404120  0.44888978  1
  O  O124  1  0.33345164  0.99991372  0.59564148  1
  O  O125  1  0.78707135  0.17025161  0.08719220  1
  O  O126  1  0.07718879  0.76100906  0.07989547  1
  O  O127  1  0.31617973  0.23899094  0.58677153  1
  O  O128  1  0.38705521  0.49301401  0.11555678  1
  O  O129  1  0.51811649  0.24606029  0.60759694  1
  O  O130  1  0.42383336  0.40763354  0.25331159  1
  O  O131  1  0.04743392  0.23983027  0.53201564  1
  O  O132  1  0.72794380  0.48188351  0.27426394  1
  O  O133  1  0.87974960  0.71891197  0.57804132  1
  O  O134  1  0.18148817  0.23592710  0.78127372  1
  O  O135  1  0.38318026  0.21292865  0.75385920  1
  O  O136  1  0.71957063  0.56915398  0.85929092  1
  O  O137  1  0.43084602  0.15041664  0.19262492  1
  O  O138  1  0.61453822  0.52308872  0.13453538  1
  O  O139  1  0.15723783  0.71786884  0.21784110  1
  O  O140  1  0.90855050  0.38546178  0.80120138  1
  O  O141  1  0.28108803  0.16083764  0.91137432  1
  O  O142  1  0.61681974  0.82974839  0.57947480  1
  O  O143  1  0.84958336  0.28042937  0.52595792  1
  O  O144  1  0.91075978  0.65158847  0.74488195  1
  O  O145  1  0.81991044  0.39462092  0.38993560  1
  O  O146  1  0.54731485  0.04505437  0.91358088  1
  O  O147  1  0.40763354  0.42383336  0.74668841  1
  O  O148  1  0.52308872  0.61453822  0.86546462  1
  O  O149  1  0.98380018  0.57616664  0.91997859  1
  O  O150  1  0.84276217  0.56063101  0.11549290  1
  O  O151  1  0.24606029  0.51811649  0.39240306  1
  O  O152  1  0.85151195  0.91166074  0.27265924  1
  O  O153  1  0.49773952  0.45268515  0.58024788  1
  O  O154  1  0.56915398  0.71957063  0.14070908  1
  O  O155  1  0.83916236  0.12025040  0.24470732  1
  O  O156  1  0.23983027  0.04743392  0.46798436  1
  O  O157  1  0.66646208  0.66654836  0.26230848  1
  O  O158  1  0.61294479  0.10595880  0.21777722  1
  O  O159  1  0.18008956  0.57471049  0.94339740  1
  O  O160  1  0.38546178  0.90855050  0.19879862  1
  O  O161  1  0.76100906  0.07718879  0.92010453  1
  O  O162  1  0.04505437  0.54731485  0.08641912  1
  O  O163  1  0.76016973  0.80760365  0.86534864  1
  O  O164  1  0.09144950  0.47691128  0.53213162  1
  O  O165  1  0.21292865  0.38318026  0.24614080  1
  O  O166  1  0.50226048  0.95494563  0.75308612  1
  O  O167  1  0.74082869  0.08924022  0.41154795  1
  O  O168  1  0.15041664  0.43084602  0.80737508  1
  O  O169  1  0.57616664  0.98380018  0.08002141  1
  O  O170  1  0.56063101  0.84276217  0.88450710  1
  O  O171  1  0.16083764  0.28108803  0.08862568  1
  O  O172  1  0.39462092  0.81991044  0.61006440  1
  O  O173  1  0.66654836  0.66646208  0.73769152  1
  O  O174  1  0.28213116  0.43936899  0.55117410  1
  O  O175  1  0.23899094  0.31617973  0.41322847  1
  O  O176  1  0.43936899  0.28213116  0.44882590  1
  O  O177  1  0.89404120  0.50698599  0.55111022  1
  O  O178  1  0.95256608  0.19239635  0.80131736  1
  O  O179  1  0.01619982  0.59236646  0.41335441  1
