# generated using pymatgen
data_Rb2YTi(PO4)3
_symmetry_space_group_name_H-M   'P 1'
_cell_length_a   10.36034504
_cell_length_b   10.38056580
_cell_length_c   20.68283328
_cell_angle_alpha   90.08917115
_cell_angle_beta   90.00000000
_cell_angle_gamma   90.00000000
_symmetry_Int_Tables_number   1
_chemical_formula_structural   Rb2YTi(PO4)3
_chemical_formula_sum   'Rb16 Y8 Ti8 P24 O96'
_cell_volume   2224.35832856
_cell_formula_units_Z   8
loop_
 _symmetry_equiv_pos_site_id
 _symmetry_equiv_pos_as_xyz
  1  'x, y, z'
loop_
 _atom_site_type_symbol
 _atom_site_label
 _atom_site_symmetry_multiplicity
 _atom_site_fract_x
 _atom_site_fract_y
 _atom_site_fract_z
 _atom_site_occupancy
  Rb  Rb0  1  0.06573692  0.42639692  0.28631396  1
  Rb  Rb1  1  0.07062313  0.42816440  0.78414398  1
  Rb  Rb2  1  0.20763878  0.79189182  0.14688994  1
  Rb  Rb3  1  0.20493646  0.79005193  0.64702739  1
  Rb  Rb4  1  0.28953325  0.20351899  0.39743546  1
  Rb  Rb5  1  0.29278519  0.20783668  0.89717040  1
  Rb  Rb6  1  0.42900504  0.57098255  0.03581823  1
  Rb  Rb7  1  0.42936379  0.56823812  0.53444086  1
  Rb  Rb8  1  0.56573692  0.07360308  0.71368604  1
  Rb  Rb9  1  0.57062313  0.07183560  0.21585602  1
  Rb  Rb10  1  0.70493646  0.70994807  0.35297261  1
  Rb  Rb11  1  0.70763878  0.70810818  0.85311006  1
  Rb  Rb12  1  0.79278519  0.29216332  0.10282960  1
  Rb  Rb13  1  0.78953325  0.29648101  0.60256454  1
  Rb  Rb14  1  0.92936379  0.93176188  0.46555914  1
  Rb  Rb15  1  0.92900504  0.92901745  0.96418177  1
  Y  Y16  1  0.08412401  0.58305167  0.95785083  1
  Y  Y17  1  0.14760448  0.14026099  0.57690324  1
  Y  Y18  1  0.41403839  0.41756975  0.21018024  1
  Y  Y19  1  0.41523132  0.41720459  0.70510246  1
  Y  Y20  1  0.58412401  0.91694833  0.04214917  1
  Y  Y21  1  0.64760448  0.35973901  0.42309676  1
  Y  Y22  1  0.91523132  0.08279541  0.29489754  1
  Y  Y23  1  0.91403839  0.08243025  0.78981976  1
  Ti  Ti24  1  0.08195382  0.58550742  0.45792331  1
  Ti  Ti25  1  0.14442478  0.14479752  0.07203751  1
  Ti  Ti26  1  0.35435610  0.85138597  0.32038420  1
  Ti  Ti27  1  0.35688797  0.85724380  0.82471530  1
  Ti  Ti28  1  0.58195382  0.91449258  0.54207669  1
  Ti  Ti29  1  0.64442478  0.35520248  0.92796249  1
  Ti  Ti30  1  0.85435610  0.64861403  0.67961580  1
  Ti  Ti31  1  0.85688797  0.64275620  0.17528470  1
  P  P32  1  0.04430007  0.75663748  0.31294876  1
  P  P33  1  0.04671813  0.76267854  0.80835559  1
  P  P34  1  0.11010586  0.47035002  0.61416436  1
  P  P35  1  0.11737315  0.45449466  0.11885905  1
  P  P36  1  0.23767498  0.11443810  0.22707279  1
  P  P37  1  0.24353598  0.11409333  0.73455167  1
  P  P38  1  0.27291110  0.86715121  0.47597150  1
  P  P39  1  0.26083112  0.88397161  0.97833401  1
  P  P40  1  0.36089883  0.54948701  0.36969984  1
  P  P41  1  0.38586666  0.54478894  0.86807337  1
  P  P42  1  0.45380763  0.23971523  0.05847004  1
  P  P43  1  0.46752683  0.22225130  0.56007825  1
  P  P44  1  0.54671813  0.73732146  0.19164441  1
  P  P45  1  0.54430007  0.74336252  0.68705124  1
  P  P46  1  0.61010586  0.02964998  0.38583564  1
  P  P47  1  0.61737315  0.04550534  0.88114095  1
  P  P48  1  0.74353598  0.38590667  0.26544833  1
  P  P49  1  0.73767498  0.38556190  0.77292721  1
  P  P50  1  0.76083112  0.61602839  0.02166599  1
  P  P51  1  0.77291110  0.63284879  0.52402850  1
  P  P52  1  0.86089883  0.95051299  0.63030016  1
  P  P53  1  0.88586666  0.95521106  0.13192663  1
  P  P54  1  0.96752683  0.27774870  0.43992175  1
  P  P55  1  0.95380763  0.26028477  0.94152996  1
  O  O56  1  0.00667619  0.39379087  0.92538907  1
  O  O57  1  0.00712445  0.42442048  0.43282422  1
  O  O58  1  0.00552202  0.55558786  0.64726290  1
  O  O59  1  0.99909781  0.53167274  0.14614908  1
  O  O60  1  0.02832258  0.66965062  0.37448905  1
  O  O61  1  0.02003172  0.66998452  0.86441816  1
  O  O62  1  0.02599107  0.20475347  0.00220543  1
  O  O63  1  0.05406931  0.21218806  0.48954065  1
  O  O64  1  0.06983340  0.32871040  0.61861659  1
  O  O65  1  0.08489547  0.30679711  0.11689463  1
  O  O66  1  0.10278984  0.14241190  0.25294023  1
  O  O67  1  0.10406178  0.14534647  0.75334668  1
  O  O68  1  0.12675039  0.51548554  0.54247550  1
  O  O69  1  0.15020649  0.50519275  0.05172391  1
  O  O70  1  0.19269921  0.74066352  0.48487064  1
  O  O71  1  0.16801947  0.77189391  0.99117679  1
  O  O72  1  0.18984500  0.76401997  0.29285083  1
  O  O73  1  0.19495105  0.76658111  0.79298037  1
  O  O74  1  0.20441350  0.97357043  0.51344035  1
  O  O75  1  0.20479343  0.00573062  0.01344840  1
  O  O76  1  0.23403003  0.08620380  0.15238520  1
  O  O77  1  0.25224526  0.06501446  0.66445022  1
  O  O78  1  0.22927359  0.47963027  0.16557720  1
  O  O79  1  0.23886800  0.49324700  0.65004727  1
  O  O80  1  0.23997676  0.52971492  0.41402382  1
  O  O81  1  0.27328823  0.52047313  0.91466617  1
  O  O82  1  0.27373073  0.90822455  0.40281786  1
  O  O83  1  0.26628438  0.91292192  0.90398207  1
  O  O84  1  0.29636062  0.99449458  0.26315310  1
  O  O85  1  0.29567121  0.00421279  0.77950446  1
  O  O86  1  0.30530452  0.23368109  0.04266619  1
  O  O87  1  0.32600384  0.23121166  0.53933888  1
  O  O88  1  0.32878902  0.22807242  0.24047158  1
  O  O89  1  0.32912806  0.23307529  0.74580337  1
  O  O90  1  0.33102339  0.49545010  0.30282028  1
  O  O91  1  0.35277382  0.49374308  0.80061638  1
  O  O92  1  0.39493758  0.85200947  0.00402625  1
  O  O93  1  0.41216262  0.84491860  0.50353047  1
  O  O94  1  0.40133625  0.69388621  0.36612722  1
  O  O95  1  0.41756490  0.69307140  0.86472173  1
  O  O96  1  0.47197669  0.79188641  0.25161111  1
  O  O97  1  0.46712879  0.80680243  0.74361942  1
  O  O98  1  0.47795680  0.33225917  0.11513219  1
  O  O99  1  0.48949778  0.28966843  0.62556518  1
  O  O100  1  0.50587107  0.47301126  0.89691783  1
  O  O101  1  0.47290288  0.47723891  0.40187576  1
  O  O102  1  0.49392599  0.60343116  0.17571825  1
  O  O103  1  0.49209923  0.60925169  0.67070033  1
  O  O104  1  0.50667619  0.10620913  0.07461093  1
  O  O105  1  0.50712445  0.07557952  0.56717578  1
  O  O106  1  0.50552202  0.94441214  0.35273710  1
  O  O107  1  0.49909781  0.96832726  0.85385092  1
  O  O108  1  0.52003172  0.83001548  0.13558184  1
  O  O109  1  0.52832258  0.83034938  0.62551095  1
  O  O110  1  0.52599107  0.29524653  0.99779457  1
  O  O111  1  0.55406931  0.28781194  0.51045935  1
  O  O112  1  0.56983340  0.17128960  0.38138341  1
  O  O113  1  0.58489547  0.19320289  0.88310537  1
  O  O114  1  0.60406178  0.35465353  0.24665332  1
  O  O115  1  0.60278984  0.35758810  0.74705977  1
  O  O116  1  0.62675039  0.98451446  0.45752450  1
  O  O117  1  0.65020649  0.99480725  0.94827609  1
  O  O118  1  0.66801947  0.72810609  0.00882321  1
  O  O119  1  0.69269921  0.75933648  0.51512936  1
  O  O120  1  0.69495105  0.73341889  0.20701963  1
  O  O121  1  0.68984500  0.73598003  0.70714917  1
  O  O122  1  0.70479343  0.49426938  0.98655160  1
  O  O123  1  0.70441350  0.52642957  0.48655965  1
  O  O124  1  0.75224526  0.43498554  0.33554978  1
  O  O125  1  0.73403003  0.41379620  0.84761480  1
  O  O126  1  0.73886800  0.00675300  0.34995273  1
  O  O127  1  0.72927359  0.02036973  0.83442280  1
  O  O128  1  0.73997676  0.97028508  0.58597618  1
  O  O129  1  0.77328823  0.97952687  0.08533383  1
  O  O130  1  0.77373073  0.59177545  0.59718214  1
  O  O131  1  0.76628438  0.58707808  0.09601793  1
  O  O132  1  0.79567121  0.49578721  0.22049554  1
  O  O133  1  0.79636062  0.50550542  0.73684690  1
  O  O134  1  0.82600384  0.26878834  0.46066112  1
  O  O135  1  0.80530452  0.26631891  0.95733381  1
  O  O136  1  0.82912806  0.26692471  0.25419663  1
  O  O137  1  0.82878902  0.27192758  0.75952842  1
  O  O138  1  0.83102339  0.00454990  0.69717972  1
  O  O139  1  0.85277382  0.00625692  0.19938362  1
  O  O140  1  0.91216262  0.65508140  0.49646953  1
  O  O141  1  0.89493758  0.64799053  0.99597375  1
  O  O142  1  0.90133625  0.80611379  0.63387278  1
  O  O143  1  0.91756490  0.80692860  0.13527827  1
  O  O144  1  0.96712879  0.69319757  0.25638058  1
  O  O145  1  0.97197669  0.70811359  0.74838889  1
  O  O146  1  0.98949778  0.21033157  0.37443482  1
  O  O147  1  0.97795680  0.16774083  0.88486781  1
  O  O148  1  0.97290288  0.02276109  0.59812424  1
  O  O149  1  0.00587107  0.02698874  0.10308217  1
  O  O150  1  0.99209923  0.89074831  0.32929967  1
  O  O151  1  0.99392599  0.89656884  0.82428175  1
