# generated using pymatgen
data_FePO4
_symmetry_space_group_name_H-M   'P 1'
_cell_length_a   10.29735392
_cell_length_b   10.38457923
_cell_length_c   17.17231814
_cell_angle_alpha   82.24640530
_cell_angle_beta   90.00000000
_cell_angle_gamma   60.27746971
_symmetry_Int_Tables_number   1
_chemical_formula_structural   FePO4
_chemical_formula_sum   'Fe16 P16 O64'
_cell_volume   1575.34855305
_cell_formula_units_Z   16
loop_
 _symmetry_equiv_pos_site_id
 _symmetry_equiv_pos_as_xyz
  1  'x, y, z'
loop_
 _atom_site_type_symbol
 _atom_site_label
 _atom_site_symmetry_multiplicity
 _atom_site_fract_x
 _atom_site_fract_y
 _atom_site_fract_z
 _atom_site_occupancy
  Fe  Fe0  1  0.81788441  0.48420059  0.99433881  1
  Fe  Fe1  1  0.31859123  0.04248651  0.99552068  1
  Fe  Fe2  1  0.13795520  0.54018221  0.49592735  1
  Fe  Fe3  1  0.82268232  0.98039048  0.99560843  1
  Fe  Fe4  1  0.07150185  0.67089943  0.74473255  1
  Fe  Fe5  1  0.63892227  0.04248651  0.49552068  1
  Fe  Fe6  1  0.75823165  0.16668424  0.24514707  1
  Fe  Fe7  1  0.57233439  0.22450169  0.74719121  1
  Fe  Fe8  1  0.25759872  0.67089943  0.24473255  1
  Fe  Fe9  1  0.20316393  0.22450169  0.24719121  1
  Fe  Fe10  1  0.70389729  0.72116557  0.24795616  1
  Fe  Fe11  1  0.19692720  0.98039048  0.49560843  1
  Fe  Fe12  1  0.32186259  0.54018221  0.99592735  1
  Fe  Fe13  1  0.57493714  0.72116557  0.74795616  1
  Fe  Fe14  1  0.07508411  0.16668424  0.74514707  1
  Fe  Fe15  1  0.69791500  0.48420059  0.49433881  1
  P  P16  1  0.10483009  0.98183244  0.31012063  1
  P  P17  1  0.66199424  0.79629179  0.05934339  1
  P  P18  1  0.98497536  0.85012980  0.56081424  1
  P  P19  1  0.04312644  0.29342693  0.55845724  1
  P  P20  1  0.91508866  0.48054865  0.80939465  1
  P  P21  1  0.66344662  0.29342693  0.05845724  1
  P  P22  1  0.41356914  0.53950428  0.81119861  1
  P  P23  1  0.16489383  0.85012980  0.06081424  1
  P  P24  1  0.60436269  0.48054865  0.30939465  1
  P  P25  1  0.91333747  0.98183244  0.81012063  1
  P  P26  1  0.48275376  0.35642304  0.56087338  1
  P  P27  1  0.04692658  0.53950428  0.31119861  1
  P  P28  1  0.54722225  0.03809373  0.31074698  1
  P  P29  1  0.54171397  0.79629179  0.55934339  1
  P  P30  1  0.16082320  0.35642304  0.06087338  1
  P  P31  1  0.41468402  0.03809373  0.81074698  1
  O  O32  1  0.27810842  0.60637799  0.74926262  1
  O  O33  1  0.66959336  0.15403854  0.03153231  1
  O  O34  1  0.23953762  0.27679152  0.14370139  1
  O  O35  1  0.94830574  0.00611132  0.28665757  1
  O  O36  1  0.05973480  0.39545911  0.28756652  1
  O  O37  1  0.74064011  0.76069277  0.14248555  1
  O  O38  1  0.13117792  0.50340907  0.39257878  1
  O  O39  1  0.74428813  0.85013453  0.99949861  1
  O  O40  1  0.17771134  0.99264284  0.03916416  1
  O  O41  1  0.96450833  0.81409634  0.81156645  1
  O  O42  1  0.54659608  0.89214182  0.78898707  1
  O  O43  1  0.77799558  0.08191119  0.74888783  1
  O  O44  1  0.66903245  0.65557775  0.03389150  1
  O  O45  1  0.96916074  0.31224202  0.81097392  1
  O  O46  1  0.58482434  0.91881889  0.56120696  1
  O  O47  1  0.17636811  0.15403854  0.53153231  1
  O  O48  1  0.74026473  0.35315298  0.99784946  1
  O  O49  1  0.14009323  0.08191119  0.24888783  1
  O  O50  1  0.49635677  0.91881889  0.06120696  1
  O  O51  1  0.86619003  0.52325719  0.89159352  1
  O  O52  1  0.32775908  0.49804965  0.53683491  1
  O  O53  1  0.11551358  0.60637799  0.24926262  1
  O  O54  1  0.23812489  0.24863286  0.00006052  1
  O  O55  1  0.64144160  0.57854977  0.24766675  1
  O  O56  1  0.49866712  0.76069277  0.64248555  1
  O  O57  1  0.10460986  0.89846733  0.56512545  1
  O  O58  1  0.63111072  0.00713839  0.39175596  1
  O  O59  1  0.78000863  0.57854977  0.74766675  1
  O  O60  1  0.40557734  0.85013453  0.49949861  1
  O  O61  1  0.04558293  0.00611132  0.78665757  1
  O  O62  1  0.60379960  0.40319102  0.56258627  1
  O  O63  1  0.23641719  0.74849129  0.99671645  1
  O  O64  1  0.04572880  0.50780631  0.78643547  1
  O  O65  1  0.99929072  0.25099030  0.63996928  1
  O  O66  1  0.67538980  0.65557775  0.53389150  1
  O  O67  1  0.86753526  0.02383170  0.89277767  1
  O  O68  1  0.82964483  0.99264284  0.53916416  1
  O  O69  1  0.10863304  0.02383170  0.39277767  1
  O  O70  1  0.51324225  0.24863286  0.50006052  1
  O  O71  1  0.46871400  0.65273403  0.81493883  1
  O  O72  1  0.99692280  0.89846733  0.06512545  1
  O  O73  1  0.48367086  0.27679152  0.64370139  1
  O  O74  1  0.46953343  0.15138819  0.81399214  1
  O  O75  1  0.28164835  0.10198075  0.74750115  1
  O  O76  1  0.99300938  0.40319102  0.06258627  1
  O  O77  1  0.37907838  0.15138819  0.31399214  1
  O  O78  1  0.90658229  0.35315298  0.49784946  1
  O  O79  1  0.36541302  0.50340907  0.89257878  1
  O  O80  1  0.17419127  0.49804965  0.03683491  1
  O  O81  1  0.54480609  0.39545911  0.78756652  1
  O  O82  1  0.01509152  0.74849129  0.49671645  1
  O  O83  1  0.22139532  0.81409634  0.31156645  1
  O  O84  1  0.08725955  0.41452303  0.56344360  1
  O  O85  1  0.61637090  0.10198075  0.24750115  1
  O  O86  1  0.71859724  0.31224202  0.31097392  1
  O  O87  1  0.25036470  0.76169110  0.14125394  1
  O  O88  1  0.87855197  0.65273403  0.31493883  1
  O  O89  1  0.98794419  0.76169110  0.64125394  1
  O  O90  1  0.49821743  0.41452303  0.06344360  1
  O  O91  1  0.61055277  0.52325719  0.39159352  1
  O  O92  1  0.44646389  0.50780631  0.28643547  1
  O  O93  1  0.56126109  0.89214182  0.28898707  1
  O  O94  1  0.36174989  0.00713839  0.89175596  1
  O  O95  1  0.74971798  0.25099030  0.13996928  1
