# generated using pymatgen
data_Cs2U2Mo3O16
_symmetry_space_group_name_H-M   'P 1'
_cell_length_a   10.34783771
_cell_length_b   10.34783771
_cell_length_c   16.98591416
_cell_angle_alpha   90.00000000
_cell_angle_beta   90.00000000
_cell_angle_gamma   90.00000000
_symmetry_Int_Tables_number   1
_chemical_formula_structural   Cs2U2Mo3O16
_chemical_formula_sum   'Cs8 U8 Mo12 O64'
_cell_volume   1818.81338964
_cell_formula_units_Z   4
loop_
 _symmetry_equiv_pos_site_id
 _symmetry_equiv_pos_as_xyz
  1  'x, y, z'
loop_
 _atom_site_type_symbol
 _atom_site_label
 _atom_site_symmetry_multiplicity
 _atom_site_fract_x
 _atom_site_fract_y
 _atom_site_fract_z
 _atom_site_occupancy
  Cs  Cs0  1  0.75000000  0.25000000  0.09719007  1
  Cs  Cs1  1  0.75000000  0.25000000  0.59719007  1
  Cs  Cs2  1  0.25000000  0.75000000  0.40280993  1
  Cs  Cs3  1  0.75000000  0.75000000  0.49663944  1
  Cs  Cs4  1  0.25000000  0.25000000  0.50336056  1
  Cs  Cs5  1  0.75000000  0.75000000  0.00336056  1
  Cs  Cs6  1  0.25000000  0.25000000  0.99663944  1
  Cs  Cs7  1  0.25000000  0.75000000  0.90280993  1
  U  U8  1  0.54243663  0.44442098  0.33394591  1
  U  U9  1  0.95756337  0.05557902  0.33394591  1
  U  U10  1  0.04243663  0.94442098  0.66605409  1
  U  U11  1  0.94442098  0.45756337  0.83394591  1
  U  U12  1  0.45756337  0.55557902  0.66605409  1
  U  U13  1  0.05557902  0.54243663  0.16605409  1
  U  U14  1  0.55557902  0.04243663  0.83394591  1
  U  U15  1  0.44442098  0.95756337  0.16605409  1
  Mo  Mo16  1  0.09284850  0.58164390  0.63151936  1
  Mo  Mo17  1  0.90715150  0.41835610  0.36848064  1
  Mo  Mo18  1  0.40715150  0.91835610  0.63151936  1
  Mo  Mo19  1  0.58164390  0.40715150  0.86848064  1
  Mo  Mo20  1  0.59284850  0.08164390  0.36848064  1
  Mo  Mo21  1  0.08164390  0.90715150  0.13151936  1
  Mo  Mo22  1  0.75000000  0.75000000  0.75000000  1
  Mo  Mo23  1  0.75000000  0.75000000  0.25000000  1
  Mo  Mo24  1  0.41835610  0.59284850  0.13151936  1
  Mo  Mo25  1  0.25000000  0.25000000  0.75000000  1
  Mo  Mo26  1  0.91835610  0.09284850  0.86848064  1
  Mo  Mo27  1  0.25000000  0.25000000  0.25000000  1
  O  O28  1  0.48406400  0.04651865  0.58360509  1
  O  O29  1  0.73420736  0.48358630  0.89554627  1
  O  O30  1  0.45348135  0.48406400  0.91639491  1
  O  O31  1  0.14269757  0.61202908  0.24845266  1
  O  O32  1  0.94544504  0.07621267  0.76369235  1
  O  O33  1  0.23420736  0.98358630  0.10445373  1
  O  O34  1  0.86932004  0.67901671  0.18693055  1
  O  O35  1  0.91477274  0.26178513  0.90035479  1
  O  O36  1  0.02921929  0.96537353  0.41484939  1
  O  O37  1  0.97078071  0.03462647  0.58515061  1
  O  O38  1  0.51641370  0.23420736  0.39554627  1
  O  O39  1  0.48358630  0.76579264  0.60445373  1
  O  O40  1  0.57621267  0.05455496  0.26369235  1
  O  O41  1  0.61202908  0.35730243  0.25154734  1
  O  O42  1  0.82098329  0.86932004  0.31306945  1
  O  O43  1  0.11202908  0.85730243  0.74845266  1
  O  O44  1  0.01593600  0.45348135  0.58360509  1
  O  O45  1  0.63067996  0.82098329  0.18693055  1
  O  O46  1  0.08522726  0.73821487  0.09964521  1
  O  O47  1  0.95348135  0.98406400  0.08360509  1
  O  O48  1  0.63333745  0.82773605  0.81204971  1
  O  O49  1  0.36666255  0.17226395  0.18795029  1
  O  O50  1  0.23821487  0.91477274  0.59964521  1
  O  O51  1  0.46537353  0.97078071  0.91484939  1
  O  O52  1  0.54651865  0.51593600  0.08360509  1
  O  O53  1  0.85730243  0.38797092  0.75154734  1
  O  O54  1  0.07621267  0.55455496  0.73630765  1
  O  O55  1  0.47078071  0.53462647  0.41484939  1
  O  O56  1  0.92378733  0.44544504  0.26369235  1
  O  O57  1  0.32773605  0.36666255  0.31204971  1
  O  O58  1  0.67226395  0.63333745  0.68795029  1
  O  O59  1  0.52921929  0.46537353  0.58515061  1
  O  O60  1  0.67901671  0.63067996  0.31306945  1
  O  O61  1  0.88797092  0.14269757  0.25154734  1
  O  O62  1  0.64269757  0.11202908  0.75154734  1
  O  O63  1  0.32098329  0.36932004  0.68693055  1
  O  O64  1  0.13067996  0.32098329  0.81306945  1
  O  O65  1  0.41477274  0.76178513  0.09964521  1
  O  O66  1  0.04651865  0.01593600  0.91639491  1
  O  O67  1  0.26579264  0.51641370  0.10445373  1
  O  O68  1  0.05455496  0.92378733  0.23630765  1
  O  O69  1  0.26178513  0.58522726  0.59964521  1
  O  O70  1  0.36932004  0.17901671  0.81306945  1
  O  O71  1  0.73821487  0.41477274  0.40035479  1
  O  O72  1  0.98406400  0.54651865  0.41639491  1
  O  O73  1  0.13333745  0.32773605  0.18795029  1
  O  O74  1  0.51593600  0.95348135  0.41639491  1
  O  O75  1  0.76178513  0.08522726  0.40035479  1
  O  O76  1  0.58522726  0.23821487  0.90035479  1
  O  O77  1  0.44544504  0.57621267  0.23630765  1
  O  O78  1  0.76579264  0.01641370  0.89554627  1
  O  O79  1  0.03462647  0.52921929  0.91484939  1
  O  O80  1  0.01641370  0.73420736  0.60445373  1
  O  O81  1  0.17226395  0.13333745  0.31204971  1
  O  O82  1  0.17901671  0.13067996  0.68693055  1
  O  O83  1  0.55455496  0.42378733  0.76369235  1
  O  O84  1  0.53462647  0.02921929  0.08515061  1
  O  O85  1  0.82773605  0.86666255  0.68795029  1
  O  O86  1  0.35730243  0.88797092  0.24845266  1
  O  O87  1  0.96537353  0.47078071  0.08515061  1
  O  O88  1  0.98358630  0.26579264  0.39554627  1
  O  O89  1  0.42378733  0.94544504  0.73630765  1
  O  O90  1  0.86666255  0.67226395  0.81204971  1
  O  O91  1  0.38797092  0.64269757  0.74845266  1
