# generated using pymatgen
data_V3P4PbO17
_symmetry_space_group_name_H-M   'P 1'
_cell_length_a   7.64880370
_cell_length_b   10.25324471
_cell_length_c   16.60114700
_cell_angle_alpha   90.00000000
_cell_angle_beta   90.00000000
_cell_angle_gamma   90.00000000
_symmetry_Int_Tables_number   1
_chemical_formula_structural   V3P4PbO17
_chemical_formula_sum   'V12 P16 Pb4 O68'
_cell_volume   1301.94588438
_cell_formula_units_Z   4
loop_
 _symmetry_equiv_pos_site_id
 _symmetry_equiv_pos_as_xyz
  1  'x, y, z'
loop_
 _atom_site_type_symbol
 _atom_site_label
 _atom_site_symmetry_multiplicity
 _atom_site_fract_x
 _atom_site_fract_y
 _atom_site_fract_z
 _atom_site_occupancy
  V  V0  1  0.21865252  0.32561231  0.15205614  1
  V  V1  1  0.21210676  0.25090738  0.50382814  1
  V  V2  1  0.21972399  0.17666778  0.84970530  1
  V  V3  1  0.71210676  0.24909262  0.49617186  1
  V  V4  1  0.78134748  0.82561231  0.34794386  1
  V  V5  1  0.28027601  0.82333222  0.34970530  1
  V  V6  1  0.28134748  0.67438769  0.65205614  1
  V  V7  1  0.71972399  0.32333222  0.15029470  1
  V  V8  1  0.78027601  0.67666778  0.65029470  1
  V  V9  1  0.78789324  0.75090738  0.99617186  1
  V  V10  1  0.28789324  0.74909262  0.00382814  1
  V  V11  1  0.71865252  0.17438769  0.84794386  1
  P  P12  1  0.69620091  0.36390461  0.68921524  1
  P  P13  1  0.19412680  0.63818169  0.18787710  1
  P  P14  1  0.80587320  0.13818169  0.31212290  1
  P  P15  1  0.29292839  0.93610150  0.53802743  1
  P  P16  1  0.20333254  0.56113564  0.46144677  1
  P  P17  1  0.80379909  0.63609539  0.18921524  1
  P  P18  1  0.19620091  0.13609539  0.31078476  1
  P  P19  1  0.70333254  0.93886436  0.53855323  1
  P  P20  1  0.30379909  0.86390461  0.81078476  1
  P  P21  1  0.69412680  0.86181831  0.81212290  1
  P  P22  1  0.30587320  0.36181831  0.68787710  1
  P  P23  1  0.70707161  0.43610150  0.96197257  1
  P  P24  1  0.79292839  0.56389850  0.46197257  1
  P  P25  1  0.20707161  0.06389850  0.03802743  1
  P  P26  1  0.79666746  0.06113564  0.03855323  1
  P  P27  1  0.29666746  0.43886436  0.96144677  1
  Pb  Pb28  1  0.49061205  0.43781470  0.32160910  1
  Pb  Pb29  1  0.99061205  0.06218530  0.67839090  1
  Pb  Pb30  1  0.00938795  0.56218530  0.82160910  1
  Pb  Pb31  1  0.50938795  0.93781470  0.17839090  1
  O  O32  1  0.21381025  0.25152876  0.73407210  1
  O  O33  1  0.71861154  0.11034824  0.96097127  1
  O  O34  1  0.21850081  0.74970935  0.76423952  1
  O  O35  1  0.75902704  0.35561512  0.88776320  1
  O  O36  1  0.49851484  0.73099676  0.02868830  1
  O  O37  1  0.75796027  0.86280739  0.61441643  1
  O  O38  1  0.75217971  0.91808830  0.05884936  1
  O  O39  1  0.74289492  0.42296171  0.44025402  1
  O  O40  1  0.28119942  0.11245952  0.95893323  1
  O  O41  1  0.00148516  0.26900324  0.52868830  1
  O  O42  1  0.50148516  0.23099676  0.47131170  1
  O  O43  1  0.24289492  0.07703829  0.55974598  1
  O  O44  1  0.49857381  0.92707746  0.52849588  1
  O  O45  1  0.19201945  0.15921249  0.40031807  1
  O  O46  1  0.74782029  0.08191170  0.55884936  1
  O  O47  1  0.72023544  0.50401846  0.21056321  1
  O  O48  1  0.50068929  0.33106721  0.14399456  1
  O  O49  1  0.78618975  0.75152876  0.76592790  1
  O  O50  1  0.99988331  0.62678399  0.22329991  1
  O  O51  1  0.31945318  0.33494671  0.59875164  1
  O  O52  1  0.78149919  0.24970935  0.73576048  1
  O  O53  1  0.74097296  0.64438488  0.38776320  1
  O  O54  1  0.24782029  0.41808830  0.44115064  1
  O  O55  1  0.71850081  0.75029065  0.23576048  1
  O  O56  1  0.81945318  0.16505329  0.40124836  1
  O  O57  1  0.77763813  0.99603479  0.79378113  1
  O  O58  1  0.99857381  0.57292254  0.47150412  1
  O  O59  1  0.49963513  0.66873635  0.66455498  1
  O  O60  1  0.69201945  0.34078751  0.59968193  1
  O  O61  1  0.75710508  0.57703829  0.94025402  1
  O  O62  1  0.28149919  0.25029065  0.26423952  1
  O  O63  1  0.99851484  0.76900324  0.97131170  1
  O  O64  1  0.25710508  0.92296171  0.05974598  1
  O  O65  1  0.25902704  0.14438488  0.11223680  1
  O  O66  1  0.00068929  0.16893279  0.85600544  1
  O  O67  1  0.30798055  0.84078751  0.90031807  1
  O  O68  1  0.77976456  0.49598154  0.71056321  1
  O  O69  1  0.24203973  0.36280739  0.88558357  1
  O  O70  1  0.27763813  0.50396521  0.20621887  1
  O  O71  1  0.78138846  0.88965176  0.46097127  1
  O  O72  1  0.22023544  0.99598154  0.78943679  1
  O  O73  1  0.28618975  0.74847124  0.23407210  1
  O  O74  1  0.25217971  0.58191170  0.94115064  1
  O  O75  1  0.99931071  0.66893279  0.64399456  1
  O  O76  1  0.68054682  0.83494671  0.90124836  1
  O  O77  1  0.49931071  0.83106721  0.35600544  1
  O  O78  1  0.00142619  0.07292254  0.02849588  1
  O  O79  1  0.00036487  0.33126365  0.16455498  1
  O  O80  1  0.21880058  0.88754048  0.45893323  1
  O  O81  1  0.18054682  0.66505329  0.09875164  1
  O  O82  1  0.71381025  0.24847124  0.26592790  1
  O  O83  1  0.80798055  0.65921249  0.09968193  1
  O  O84  1  0.74203973  0.13719261  0.11441643  1
  O  O85  1  0.27976456  0.00401846  0.28943679  1
  O  O86  1  0.99963513  0.83126365  0.33544502  1
  O  O87  1  0.25796027  0.63719261  0.38558357  1
  O  O88  1  0.72236187  0.00396521  0.29378113  1
  O  O89  1  0.78119942  0.38754048  0.04106677  1
  O  O90  1  0.50036487  0.16873635  0.83544502  1
  O  O91  1  0.71880058  0.61245952  0.54106677  1
  O  O92  1  0.50142619  0.42707746  0.97150412  1
  O  O93  1  0.49988331  0.87321601  0.77670009  1
  O  O94  1  0.00011669  0.12678399  0.27670009  1
  O  O95  1  0.22236187  0.49603479  0.70621887  1
  O  O96  1  0.21861154  0.38965176  0.03902873  1
  O  O97  1  0.24097296  0.85561512  0.61223680  1
  O  O98  1  0.28138846  0.61034824  0.53902873  1
  O  O99  1  0.50011669  0.37321601  0.72329991  1
