# generated using pymatgen
data_Ti2P2H4O11
_symmetry_space_group_name_H-M   'P 1'
_cell_length_a   5.17790473
_cell_length_b   8.92610167
_cell_length_c   9.80169922
_cell_angle_alpha   73.58549674
_cell_angle_beta   85.76326858
_cell_angle_gamma   85.74056712
_symmetry_Int_Tables_number   1
_chemical_formula_structural   Ti2P2H4O11
_chemical_formula_sum   'Ti4 P4 H8 O22'
_cell_volume   432.69278169
_cell_formula_units_Z   2
loop_
 _symmetry_equiv_pos_site_id
 _symmetry_equiv_pos_as_xyz
  1  'x, y, z'
loop_
 _atom_site_type_symbol
 _atom_site_label
 _atom_site_symmetry_multiplicity
 _atom_site_fract_x
 _atom_site_fract_y
 _atom_site_fract_z
 _atom_site_occupancy
  Ti  Ti0  1  0.73893209  0.72917538  0.33586691  1
  Ti  Ti1  1  0.26106791  0.27082462  0.66413309  1
  Ti  Ti2  1  0.04561325  0.88252687  0.79593210  1
  Ti  Ti3  1  0.95438675  0.11747313  0.20406790  1
  P  P4  1  0.21950854  0.66967510  0.56871962  1
  P  P5  1  0.78049146  0.33032490  0.43128038  1
  P  P6  1  0.25605862  0.81949895  0.11725652  1
  P  P7  1  0.74394138  0.18050105  0.88274348  1
  H  H8  1  0.82293327  0.67536271  0.02476123  1
  H  H9  1  0.17706673  0.32463729  0.97523877  1
  H  H10  1  0.60730974  0.70791948  0.91903596  1
  H  H11  1  0.39269026  0.29208052  0.08096404  1
  H  H12  1  0.39656956  0.01354245  0.35658083  1
  H  H13  1  0.60343044  0.98645755  0.64341917  1
  H  H14  1  0.76540504  0.85866999  0.57461760  1
  H  H15  1  0.23459496  0.14133001  0.42538240  1
  O  O16  1  0.95077902  0.70131760  0.50389355  1
  O  O17  1  0.04922098  0.29868240  0.49610645  1
  O  O18  1  0.70877728  0.50621562  0.38143970  1
  O  O19  1  0.29122272  0.49378438  0.61856030  1
  O  O20  1  0.52587359  0.76015958  0.17167050  1
  O  O21  1  0.47412641  0.23984042  0.82832950  1
  O  O22  1  0.42910134  0.75438459  0.45938211  1
  O  O23  1  0.57089866  0.24561541  0.54061789  1
  O  O24  1  0.04530042  0.71795742  0.21120177  1
  O  O25  1  0.95469958  0.28204258  0.78879823  1
  O  O26  1  0.77104017  0.95384913  0.29401778  1
  O  O27  1  0.22895983  0.04615087  0.70598222  1
  O  O28  1  0.20525698  0.73630976  0.69931422  1
  O  O29  1  0.79474302  0.26369024  0.30068578  1
  O  O30  1  0.25329297  0.80454322  0.96315209  1
  O  O31  1  0.74670703  0.19545678  0.03684791  1
  O  O32  1  0.79721348  0.00785614  0.88250387  1
  O  O33  1  0.20278652  0.99214386  0.11749613  1
  O  O34  1  0.79570006  0.68653604  0.92452661  1
  O  O35  1  0.20429994  0.31346396  0.07547339  1
  O  O36  1  0.76215942  0.91793796  0.64563517  1
  O  O37  1  0.23784058  0.08206204  0.35436483  1
