# generated using pymatgen
data_Na3B5H4O11
_symmetry_space_group_name_H-M   'P 1'
_cell_length_a   8.88094003
_cell_length_b   18.50689970
_cell_length_c   10.97757512
_cell_angle_alpha   90.00000000
_cell_angle_beta   90.00000000
_cell_angle_gamma   90.00000000
_symmetry_Int_Tables_number   1
_chemical_formula_structural   Na3B5H4O11
_chemical_formula_sum   'Na24 B40 H32 O88'
_cell_volume   1804.25960678
_cell_formula_units_Z   8
loop_
 _symmetry_equiv_pos_site_id
 _symmetry_equiv_pos_as_xyz
  1  'x, y, z'
loop_
 _atom_site_type_symbol
 _atom_site_label
 _atom_site_symmetry_multiplicity
 _atom_site_fract_x
 _atom_site_fract_y
 _atom_site_fract_z
 _atom_site_occupancy
  Na  Na0  1  0.93350282  0.56789394  0.09214495  1
  Na  Na1  1  0.43350282  0.93210606  0.90785505  1
  Na  Na2  1  0.06649718  0.06789394  0.40785505  1
  Na  Na3  1  0.56649718  0.43210606  0.59214495  1
  Na  Na4  1  0.06649718  0.43210606  0.90785505  1
  Na  Na5  1  0.56649718  0.06789394  0.09214495  1
  Na  Na6  1  0.93350282  0.93210606  0.59214495  1
  Na  Na7  1  0.43350282  0.56789394  0.40785505  1
  Na  Na8  1  0.91801032  0.74054876  0.07464946  1
  Na  Na9  1  0.41801032  0.75945124  0.92535054  1
  Na  Na10  1  0.08198968  0.24054876  0.42535054  1
  Na  Na11  1  0.58198968  0.25945124  0.57464946  1
  Na  Na12  1  0.08198968  0.25945124  0.92535054  1
  Na  Na13  1  0.58198968  0.24054876  0.07464946  1
  Na  Na14  1  0.91801032  0.75945124  0.57464946  1
  Na  Na15  1  0.41801032  0.74054876  0.42535054  1
  Na  Na16  1  0.62233601  0.45827786  0.09695013  1
  Na  Na17  1  0.12233601  0.04172214  0.90304987  1
  Na  Na18  1  0.37766399  0.95827786  0.40304987  1
  Na  Na19  1  0.87766399  0.54172214  0.59695013  1
  Na  Na20  1  0.37766399  0.54172214  0.90304987  1
  Na  Na21  1  0.87766399  0.95827786  0.09695013  1
  Na  Na22  1  0.62233601  0.04172214  0.59695013  1
  Na  Na23  1  0.12233601  0.45827786  0.40304987  1
  B  B24  1  0.67767684  0.68333160  0.21809953  1
  B  B25  1  0.17767684  0.81666840  0.78190047  1
  B  B26  1  0.32232316  0.18333160  0.28190047  1
  B  B27  1  0.82232316  0.31666840  0.71809953  1
  B  B28  1  0.32232316  0.31666840  0.78190047  1
  B  B29  1  0.82232316  0.18333160  0.21809953  1
  B  B30  1  0.67767684  0.81666840  0.71809953  1
  B  B31  1  0.17767684  0.68333160  0.28190047  1
  B  B32  1  0.41546589  0.65718867  0.15282715  1
  B  B33  1  0.91546589  0.84281133  0.84717285  1
  B  B34  1  0.58453411  0.15718867  0.34717285  1
  B  B35  1  0.08453411  0.34281133  0.65282715  1
  B  B36  1  0.58453411  0.34281133  0.84717285  1
  B  B37  1  0.08453411  0.15718867  0.15282715  1
  B  B38  1  0.41546589  0.84281133  0.65282715  1
  B  B39  1  0.91546589  0.65718867  0.34717285  1
  B  B40  1  0.62712969  0.63656088  0.00096036  1
  B  B41  1  0.12712969  0.86343912  0.99903964  1
  B  B42  1  0.37287031  0.13656088  0.49903964  1
  B  B43  1  0.87287031  0.36343912  0.50096036  1
  B  B44  1  0.37287031  0.36343912  0.99903964  1
  B  B45  1  0.87287031  0.13656088  0.00096036  1
  B  B46  1  0.62712969  0.86343912  0.50096036  1
  B  B47  1  0.12712969  0.63656088  0.49903964  1
  B  B48  1  0.71123053  0.68383968  0.79613901  1
  B  B49  1  0.21123053  0.81616032  0.20386099  1
  B  B50  1  0.28876947  0.18383968  0.70386099  1
  B  B51  1  0.78876947  0.31616032  0.29613901  1
  B  B52  1  0.28876947  0.31616032  0.20386099  1
  B  B53  1  0.78876947  0.18383968  0.79613901  1
  B  B54  1  0.71123053  0.81616032  0.29613901  1
  B  B55  1  0.21123053  0.68383968  0.70386099  1
  B  B56  1  0.74709912  0.55290717  0.84116236  1
  B  B57  1  0.24709912  0.94709283  0.15883764  1
  B  B58  1  0.25290088  0.05290717  0.65883764  1
  B  B59  1  0.75290088  0.44709283  0.34116236  1
  B  B60  1  0.25290088  0.44709283  0.15883764  1
  B  B61  1  0.75290088  0.05290717  0.84116236  1
  B  B62  1  0.74709912  0.94709283  0.34116236  1
  B  B63  1  0.24709912  0.55290717  0.65883764  1
  H  H64  1  0.72349436  0.44875523  0.78846447  1
  H  H65  1  0.22349436  0.05124477  0.21153553  1
  H  H66  1  0.27650564  0.94875523  0.71153553  1
  H  H67  1  0.77650564  0.55124477  0.28846447  1
  H  H68  1  0.27650564  0.55124477  0.21153553  1
  H  H69  1  0.77650564  0.94875523  0.78846447  1
  H  H70  1  0.72349436  0.05124477  0.28846447  1
  H  H71  1  0.22349436  0.44875523  0.71153553  1
  H  H72  1  0.97664647  0.55784026  0.84801614  1
  H  H73  1  0.47664647  0.94215974  0.15198386  1
  H  H74  1  0.02335353  0.05784026  0.65198386  1
  H  H75  1  0.52335353  0.44215974  0.34801614  1
  H  H76  1  0.02335353  0.44215974  0.15198386  1
  H  H77  1  0.52335353  0.05784026  0.84801614  1
  H  H78  1  0.97664647  0.94215974  0.34801614  1
  H  H79  1  0.47664647  0.55784026  0.65198386  1
  H  H80  1  0.15415254  0.65373762  0.04643473  1
  H  H81  1  0.65415254  0.84626238  0.95356527  1
  H  H82  1  0.84584746  0.15373762  0.45356527  1
  H  H83  1  0.34584746  0.34626238  0.54643473  1
  H  H84  1  0.84584746  0.34626238  0.95356527  1
  H  H85  1  0.34584746  0.15373762  0.04643473  1
  H  H86  1  0.15415254  0.84626238  0.54643473  1
  H  H87  1  0.65415254  0.65373762  0.45356527  1
  H  H88  1  0.12430614  0.68072282  0.91308891  1
  H  H89  1  0.62430614  0.81927718  0.08691109  1
  H  H90  1  0.87569386  0.18072282  0.58691109  1
  H  H91  1  0.37569386  0.31927718  0.41308891  1
  H  H92  1  0.87569386  0.31927718  0.08691109  1
  H  H93  1  0.37569386  0.18072282  0.91308891  1
  H  H94  1  0.12430614  0.81927718  0.41308891  1
  H  H95  1  0.62430614  0.68072282  0.58691109  1
  O  O96  1  0.76163397  0.65255970  0.32530396  1
  O  O97  1  0.26163397  0.84744030  0.67469604  1
  O  O98  1  0.23836603  0.15255970  0.17469604  1
  O  O99  1  0.73836603  0.34744030  0.82530396  1
  O  O100  1  0.23836603  0.34744030  0.67469604  1
  O  O101  1  0.73836603  0.15255970  0.32530396  1
  O  O102  1  0.76163397  0.84744030  0.82530396  1
  O  O103  1  0.26163397  0.65255970  0.17469604  1
  O  O104  1  0.51421189  0.67339394  0.24529435  1
  O  O105  1  0.01421189  0.82660606  0.75470565  1
  O  O106  1  0.48578811  0.17339394  0.25470565  1
  O  O107  1  0.98578811  0.32660606  0.74529435  1
  O  O108  1  0.48578811  0.32660606  0.75470565  1
  O  O109  1  0.98578811  0.17339394  0.24529435  1
  O  O110  1  0.51421189  0.82660606  0.74529435  1
  O  O111  1  0.01421189  0.67339394  0.25470565  1
  O  O112  1  0.71299708  0.76273999  0.20748698  1
  O  O113  1  0.21299708  0.73726001  0.79251302  1
  O  O114  1  0.28700292  0.26273999  0.29251302  1
  O  O115  1  0.78700292  0.23726001  0.70748698  1
  O  O116  1  0.28700292  0.23726001  0.79251302  1
  O  O117  1  0.78700292  0.26273999  0.20748698  1
  O  O118  1  0.71299708  0.73726001  0.70748698  1
  O  O119  1  0.21299708  0.76273999  0.29251302  1
  O  O120  1  0.72346505  0.64694481  0.10749426  1
  O  O121  1  0.22346505  0.85305519  0.89250574  1
  O  O122  1  0.27653495  0.14694481  0.39250574  1
  O  O123  1  0.77653495  0.35305519  0.60749426  1
  O  O124  1  0.27653495  0.35305519  0.89250574  1
  O  O125  1  0.77653495  0.14694481  0.10749426  1
  O  O126  1  0.72346505  0.85305519  0.60749426  1
  O  O127  1  0.22346505  0.64694481  0.39250574  1
  O  O128  1  0.46193330  0.64375113  0.03539716  1
  O  O129  1  0.96193330  0.85624887  0.96460284  1
  O  O130  1  0.53806670  0.14375113  0.46460284  1
  O  O131  1  0.03806670  0.35624887  0.53539716  1
  O  O132  1  0.53806670  0.35624887  0.96460284  1
  O  O133  1  0.03806670  0.14375113  0.03539716  1
  O  O134  1  0.46193330  0.85624887  0.53539716  1
  O  O135  1  0.96193330  0.64375113  0.46460284  1
  O  O136  1  0.65404679  0.69586697  0.91005269  1
  O  O137  1  0.15404679  0.80413303  0.08994731  1
  O  O138  1  0.34595321  0.19586697  0.58994731  1
  O  O139  1  0.84595321  0.30413303  0.41005269  1
  O  O140  1  0.34595321  0.30413303  0.08994731  1
  O  O141  1  0.84595321  0.19586697  0.91005269  1
  O  O142  1  0.65404679  0.80413303  0.41005269  1
  O  O143  1  0.15404679  0.69586697  0.58994731  1
  O  O144  1  0.64516352  0.56484332  0.94490534  1
  O  O145  1  0.14516352  0.93515668  0.05509466  1
  O  O146  1  0.35483648  0.06484332  0.55509466  1
  O  O147  1  0.85483648  0.43515668  0.44490534  1
  O  O148  1  0.35483648  0.43515668  0.05509466  1
  O  O149  1  0.85483648  0.06484332  0.94490534  1
  O  O150  1  0.64516352  0.93515668  0.44490534  1
  O  O151  1  0.14516352  0.56484332  0.55509466  1
  O  O152  1  0.76653741  0.61732678  0.76170081  1
  O  O153  1  0.26653741  0.88267322  0.23829919  1
  O  O154  1  0.23346259  0.11732678  0.73829919  1
  O  O155  1  0.73346259  0.38267322  0.26170081  1
  O  O156  1  0.23346259  0.38267322  0.23829919  1
  O  O157  1  0.73346259  0.11732678  0.76170081  1
  O  O158  1  0.76653741  0.88267322  0.26170081  1
  O  O159  1  0.26653741  0.61732678  0.73829919  1
  O  O160  1  0.68804583  0.49568519  0.75836862  1
  O  O161  1  0.18804583  0.00431481  0.24163138  1
  O  O162  1  0.31195417  0.99568519  0.74163138  1
  O  O163  1  0.81195417  0.50431481  0.25836862  1
  O  O164  1  0.31195417  0.50431481  0.24163138  1
  O  O165  1  0.81195417  0.99568519  0.75836862  1
  O  O166  1  0.68804583  0.00431481  0.25836862  1
  O  O167  1  0.18804583  0.49568519  0.74163138  1
  O  O168  1  0.89792254  0.52880805  0.88619476  1
  O  O169  1  0.39792254  0.97119195  0.11380524  1
  O  O170  1  0.10207746  0.02880805  0.61380524  1
  O  O171  1  0.60207746  0.47119195  0.38619476  1
  O  O172  1  0.10207746  0.47119195  0.11380524  1
  O  O173  1  0.60207746  0.02880805  0.88619476  1
  O  O174  1  0.89792254  0.97119195  0.38619476  1
  O  O175  1  0.39792254  0.52880805  0.61380524  1
  O  O176  1  0.07793710  0.65278093  0.97969851  1
  O  O177  1  0.57793710  0.84721907  0.02030149  1
  O  O178  1  0.92206290  0.15278093  0.52030149  1
  O  O179  1  0.42206290  0.34721907  0.47969851  1
  O  O180  1  0.92206290  0.34721907  0.02030149  1
  O  O181  1  0.42206290  0.15278093  0.97969851  1
  O  O182  1  0.07793710  0.84721907  0.47969851  1
  O  O183  1  0.57793710  0.65278093  0.52030149  1
