# generated using pymatgen
data_Mg5H10(C2O9)2
_symmetry_space_group_name_H-M   'P 1'
_cell_length_a   10.15475658
_cell_length_b   9.20406468
_cell_length_c   8.40983511
_cell_angle_alpha   90.00000000
_cell_angle_beta   114.48856975
_cell_angle_gamma   90.00000000
_symmetry_Int_Tables_number   1
_chemical_formula_structural   Mg5H10(C2O9)2
_chemical_formula_sum   'Mg10 H20 C8 O36'
_cell_volume   715.31781630
_cell_formula_units_Z   2
loop_
 _symmetry_equiv_pos_site_id
 _symmetry_equiv_pos_as_xyz
  1  'x, y, z'
loop_
 _atom_site_type_symbol
 _atom_site_label
 _atom_site_symmetry_multiplicity
 _atom_site_fract_x
 _atom_site_fract_y
 _atom_site_fract_z
 _atom_site_occupancy
  Mg  Mg0  1  0.34464600  0.43043779  0.85944247  1
  Mg  Mg1  1  0.65535400  0.93043779  0.64055753  1
  Mg  Mg2  1  0.65535400  0.56956221  0.14055753  1
  Mg  Mg3  1  0.34464600  0.06956221  0.35944247  1
  Mg  Mg4  1  0.34547466  0.06896621  0.99164714  1
  Mg  Mg5  1  0.65452534  0.56896621  0.50835286  1
  Mg  Mg6  1  0.65452534  0.93103379  0.00835286  1
  Mg  Mg7  1  0.34547466  0.43103379  0.49164714  1
  Mg  Mg8  1  0.00000000  0.50000000  0.50000000  1
  Mg  Mg9  1  0.00000000  0.00000000  0.00000000  1
  H  H10  1  0.23366533  0.62231553  0.61909889  1
  H  H11  1  0.76633467  0.12231553  0.88090111  1
  H  H12  1  0.76633467  0.37768447  0.38090111  1
  H  H13  1  0.23366533  0.87768447  0.11909889  1
  H  H14  1  0.14749992  0.87381166  0.79141739  1
  H  H15  1  0.85250008  0.37381166  0.70858261  1
  H  H16  1  0.85250008  0.12618834  0.20858261  1
  H  H17  1  0.14749992  0.62618834  0.29141739  1
  H  H18  1  0.30150863  0.80338966  0.85958720  1
  H  H19  1  0.69849137  0.30338966  0.64041280  1
  H  H20  1  0.69849137  0.19661034  0.14041280  1
  H  H21  1  0.30150863  0.69661034  0.35958720  1
  H  H22  1  0.13700280  0.59597044  0.86992715  1
  H  H23  1  0.86299720  0.09597044  0.63007285  1
  H  H24  1  0.86299720  0.40402956  0.13007285  1
  H  H25  1  0.13700280  0.90402956  0.36992715  1
  H  H26  1  0.24618767  0.58427458  0.07650500  1
  H  H27  1  0.75381233  0.08427458  0.42349500  1
  H  H28  1  0.75381233  0.41572542  0.92349500  1
  H  H29  1  0.24618767  0.91572542  0.57650500  1
  C  C30  1  0.07982197  0.23349081  0.77221162  1
  C  C31  1  0.92017803  0.73349081  0.72778838  1
  C  C32  1  0.92017803  0.76650919  0.22778838  1
  C  C33  1  0.07982197  0.26650919  0.27221162  1
  C  C34  1  0.47388127  0.16727580  0.73746832  1
  C  C35  1  0.52611873  0.66727580  0.76253168  1
  C  C36  1  0.52611873  0.83272420  0.26253168  1
  C  C37  1  0.47388127  0.33272420  0.23746832  1
  O  O38  1  0.22583167  0.51650162  0.61587803  1
  O  O39  1  0.77416833  0.01650162  0.88412197  1
  O  O40  1  0.77416833  0.48349838  0.38412197  1
  O  O41  1  0.22583167  0.98349838  0.11587803  1
  O  O42  1  0.24640982  0.88789969  0.79408107  1
  O  O43  1  0.75359018  0.38789969  0.70591893  1
  O  O44  1  0.75359018  0.11210031  0.20591893  1
  O  O45  1  0.24640982  0.61210031  0.29408107  1
  O  O46  1  0.23990699  0.57639137  0.95670092  1
  O  O47  1  0.76009301  0.07639137  0.54329908  1
  O  O48  1  0.76009301  0.42360863  0.04329908  1
  O  O49  1  0.23990699  0.92360863  0.45670092  1
  O  O50  1  0.00517562  0.33156583  0.66418166  1
  O  O51  1  0.99482438  0.83156583  0.83581834  1
  O  O52  1  0.99482438  0.66843417  0.33581834  1
  O  O53  1  0.00517562  0.16843417  0.16418166  1
  O  O54  1  0.01444891  0.12276320  0.80034643  1
  O  O55  1  0.98555109  0.62276320  0.69965357  1
  O  O56  1  0.98555109  0.87723680  0.19965357  1
  O  O57  1  0.01444891  0.37723680  0.30034643  1
  O  O58  1  0.22098717  0.24304255  0.85346273  1
  O  O59  1  0.77901283  0.74304255  0.64653727  1
  O  O60  1  0.77901283  0.75695745  0.14653727  1
  O  O61  1  0.22098717  0.25695745  0.35346273  1
  O  O62  1  0.43124233  0.30068052  0.71703460  1
  O  O63  1  0.56875767  0.80068052  0.78296540  1
  O  O64  1  0.56875767  0.69931948  0.28296540  1
  O  O65  1  0.43124233  0.19931948  0.21703460  1
  O  O66  1  0.49525128  0.09905013  0.88184484  1
  O  O67  1  0.50474872  0.59905013  0.61815516  1
  O  O68  1  0.50474872  0.90094987  0.11815516  1
  O  O69  1  0.49525128  0.40094987  0.38184484  1
  O  O70  1  0.49759818  0.10211286  0.61487515  1
  O  O71  1  0.50240182  0.60211286  0.88512485  1
  O  O72  1  0.50240182  0.89788714  0.38512485  1
  O  O73  1  0.49759818  0.39788714  0.11487515  1
