# generated using pymatgen
data_NaCa4Ti4Nb(SiO5)5
_symmetry_space_group_name_H-M   'P 1'
_cell_length_a   5.51399943
_cell_length_b   5.49742255
_cell_length_c   35.93581509
_cell_angle_alpha   104.18068177
_cell_angle_beta   104.48157405
_cell_angle_gamma   105.68709627
_symmetry_Int_Tables_number   1
_chemical_formula_structural   NaCa4Ti4Nb(SiO5)5
_chemical_formula_sum   'Na2 Ca8 Ti8 Nb2 Si10 O50'
_cell_volume   956.62322424
_cell_formula_units_Z   2
loop_
 _symmetry_equiv_pos_site_id
 _symmetry_equiv_pos_as_xyz
  1  'x, y, z'
loop_
 _atom_site_type_symbol
 _atom_site_label
 _atom_site_symmetry_multiplicity
 _atom_site_fract_x
 _atom_site_fract_y
 _atom_site_fract_z
 _atom_site_occupancy
  Na  Na0  1  0.15302825  0.82427481  0.74788947  1
  Na  Na1  1  0.15540557  0.82549905  0.54752082  1
  Ca  Ca2  1  0.16991392  0.83228987  0.95085093  1
  Ca  Ca3  1  0.17165616  0.83490517  0.35037206  1
  Ca  Ca4  1  0.83484444  0.17072885  0.85204794  1
  Ca  Ca5  1  0.16990576  0.83164046  0.15006429  1
  Ca  Ca6  1  0.84076364  0.17248193  0.65221396  1
  Ca  Ca7  1  0.83763875  0.17182622  0.45087782  1
  Ca  Ca8  1  0.83209679  0.17009085  0.25038720  1
  Ca  Ca9  1  0.83109359  0.16877155  0.05057038  1
  Ti  Ti10  1  0.50151300  0.49833441  0.00135491  1
  Ti  Ti11  1  0.50072943  0.50423235  0.90188072  1
  Ti  Ti12  1  0.50739965  0.50465493  0.69911904  1
  Ti  Ti13  1  0.50756896  0.50165723  0.49755752  1
  Ti  Ti14  1  0.50189955  0.50468248  0.39944624  1
  Ti  Ti15  1  0.50039139  0.50136018  0.30019709  1
  Ti  Ti16  1  0.50108471  0.49907684  0.20063725  1
  Ti  Ti17  1  0.49865594  0.50112129  0.10095331  1
  Nb  Nb18  1  0.49042518  0.49268178  0.79883561  1
  Nb  Nb19  1  0.49119790  0.49725318  0.59746228  1
  Si  Si20  1  0.18597558  0.82204516  0.85161221  1
  Si  Si21  1  0.18757148  0.82069922  0.65102767  1
  Si  Si22  1  0.18290938  0.81665975  0.44953421  1
  Si  Si23  1  0.81941557  0.18436675  0.95105690  1
  Si  Si24  1  0.18187154  0.81775439  0.24978979  1
  Si  Si25  1  0.81176997  0.17781437  0.74892208  1
  Si  Si26  1  0.18191275  0.81756764  0.05017694  1
  Si  Si27  1  0.81083683  0.17501368  0.54784751  1
  Si  Si28  1  0.81825899  0.18273873  0.34986621  1
  Si  Si29  1  0.81810604  0.18219724  0.15015897  1
  O  O30  1  0.12099326  0.24962976  0.98283450  1
  O  O31  1  0.18694543  0.60858301  0.87710289  1
  O  O32  1  0.11171624  0.25058391  0.78241750  1
  O  O33  1  0.42923097  0.57033856  0.95055754  1
  O  O34  1  0.25268603  0.12270972  0.88348616  1
  O  O35  1  0.40116641  0.81658301  0.82704269  1
  O  O36  1  0.18742897  0.59497548  0.67386059  1
  O  O37  1  0.11236026  0.25261430  0.58118213  1
  O  O38  1  0.42865681  0.57585623  0.75046473  1
  O  O39  1  0.60988275  0.18711902  0.97702253  1
  O  O40  1  0.25488052  0.12149942  0.68280163  1
  O  O41  1  0.74828800  0.88326476  0.91838259  1
  O  O42  1  0.40095796  0.81714513  0.62576585  1
  O  O43  1  0.57194813  0.42617726  0.85165912  1
  O  O44  1  0.18708285  0.59435956  0.47287492  1
  O  O45  1  0.81571632  0.39752446  0.92550753  1
  O  O46  1  0.12129132  0.25160802  0.38137837  1
  O  O47  1  0.42994836  0.57558940  0.54915093  1
  O  O48  1  0.61572990  0.18971206  0.77729830  1
  O  O49  1  0.25323699  0.11880115  0.48128749  1
  O  O50  1  0.73776442  0.87986429  0.71664446  1
  O  O51  1  0.38958540  0.81257225  0.42260334  1
  O  O52  1  0.57368905  0.42453117  0.65062630  1
  O  O53  1  0.88558782  0.75350881  0.81943401  1
  O  O54  1  0.18692727  0.60727859  0.27573107  1
  O  O55  1  0.80655360  0.39042563  0.72407338  1
  O  O56  1  0.12063951  0.25066595  0.18195919  1
  O  O57  1  0.42909596  0.56974032  0.34918968  1
  O  O58  1  0.61417491  0.19070243  0.57599226  1
  O  O59  1  0.25176167  0.11995120  0.28176533  1
  O  O60  1  0.73901830  0.87602232  0.51605600  1
  O  O61  1  0.39036821  0.81221176  0.22354424  1
  O  O62  1  0.57178344  0.42795707  0.44876673  1
  O  O63  1  0.88552709  0.75373244  0.61888615  1
  O  O64  1  0.18696490  0.60787384  0.07629042  1
  O  O65  1  0.80330106  0.38280153  0.52194876  1
  O  O66  1  0.43012399  0.56993769  0.14980126  1
  O  O67  1  0.60822238  0.18791623  0.37559690  1
  O  O68  1  0.25154061  0.11975920  0.08217238  1
  O  O69  1  0.74847870  0.87994242  0.31760808  1
  O  O70  1  0.39089658  0.81227943  0.02407536  1
  O  O71  1  0.56995446  0.43002287  0.24963826  1
  O  O72  1  0.87864667  0.75007522  0.41743594  1
  O  O73  1  0.81224916  0.39187711  0.32346579  1
  O  O74  1  0.60925394  0.18714157  0.17623965  1
  O  O75  1  0.74862999  0.88034334  0.11789545  1
  O  O76  1  0.57154372  0.43088639  0.05031516  1
  O  O77  1  0.87924010  0.74949498  0.21776612  1
  O  O78  1  0.81281490  0.39233136  0.12404040  1
  O  O79  1  0.87967402  0.74905797  0.01812862  1
