# generated using pymatgen
data_MgH18C4SN8O9
_symmetry_space_group_name_H-M   'P 1'
_cell_length_a   9.42091872
_cell_length_b   14.87309112
_cell_length_c   11.37356110
_cell_angle_alpha   90.00000000
_cell_angle_beta   93.28904141
_cell_angle_gamma   90.00000000
_symmetry_Int_Tables_number   1
_chemical_formula_structural   MgH18C4SN8O9
_chemical_formula_sum   'Mg4 H72 C16 S4 N32 O36'
_cell_volume   1591.01767609
_cell_formula_units_Z   4
loop_
 _symmetry_equiv_pos_site_id
 _symmetry_equiv_pos_as_xyz
  1  'x, y, z'
loop_
 _atom_site_type_symbol
 _atom_site_label
 _atom_site_symmetry_multiplicity
 _atom_site_fract_x
 _atom_site_fract_y
 _atom_site_fract_z
 _atom_site_occupancy
  Mg  Mg0  1  0.87839291  0.82428349  0.16100709  1
  Mg  Mg1  1  0.37839291  0.67571651  0.66100709  1
  Mg  Mg2  1  0.12160709  0.17571651  0.83899291  1
  Mg  Mg3  1  0.62160709  0.32428349  0.33899291  1
  H  H4  1  0.93177385  0.99556928  0.11129160  1
  H  H5  1  0.43177385  0.50443072  0.61129160  1
  H  H6  1  0.06822615  0.00443072  0.88870840  1
  H  H7  1  0.56822615  0.49556928  0.38870840  1
  H  H8  1  0.80137930  0.97881037  0.01957600  1
  H  H9  1  0.30137930  0.52118963  0.51957600  1
  H  H10  1  0.19862070  0.02118963  0.98042400  1
  H  H11  1  0.69862070  0.47881037  0.48042400  1
  H  H12  1  0.59367794  0.66403506  0.91139639  1
  H  H13  1  0.09367794  0.83596494  0.41139639  1
  H  H14  1  0.40632206  0.33596494  0.08860361  1
  H  H15  1  0.90632206  0.16403506  0.58860361  1
  H  H16  1  0.75206140  0.68954922  0.98488764  1
  H  H17  1  0.25206140  0.81045078  0.48488764  1
  H  H18  1  0.24793860  0.31045078  0.01511236  1
  H  H19  1  0.74793860  0.18954922  0.51511236  1
  H  H20  1  0.39148476  0.73818194  0.96171256  1
  H  H21  1  0.89148476  0.76181806  0.46171256  1
  H  H22  1  0.60851524  0.26181806  0.03828744  1
  H  H23  1  0.10851524  0.23818194  0.53828744  1
  H  H24  1  0.40317852  0.82625927  0.06534262  1
  H  H25  1  0.90317852  0.67374073  0.56534262  1
  H  H26  1  0.59682148  0.17374073  0.93465738  1
  H  H27  1  0.09682148  0.32625927  0.43465738  1
  H  H28  1  0.86992484  0.07024937  0.42041784  1
  H  H29  1  0.36992484  0.42975063  0.92041784  1
  H  H30  1  0.13007516  0.92975063  0.57958216  1
  H  H31  1  0.63007516  0.57024937  0.07958216  1
  H  H32  1  0.95189292  0.01741947  0.30489115  1
  H  H33  1  0.45189292  0.48258053  0.80489115  1
  H  H34  1  0.04810708  0.98258053  0.69510885  1
  H  H35  1  0.54810708  0.51741947  0.19510885  1
  H  H36  1  0.72742582  0.98560785  0.54690089  1
  H  H37  1  0.22742582  0.51439215  0.04690089  1
  H  H38  1  0.27257418  0.01439215  0.45309911  1
  H  H39  1  0.77257418  0.48560785  0.95309911  1
  H  H40  1  0.68085859  0.87746487  0.50342984  1
  H  H41  1  0.18085859  0.62253513  0.00342984  1
  H  H42  1  0.31914141  0.12253513  0.49657016  1
  H  H43  1  0.81914141  0.37746487  0.99657016  1
  H  H44  1  0.19942903  0.80978146  0.84742822  1
  H  H45  1  0.69942903  0.69021854  0.34742822  1
  H  H46  1  0.80057097  0.19021854  0.15257178  1
  H  H47  1  0.30057097  0.30978146  0.65257178  1
  H  H48  1  0.16063473  0.85642617  0.98256735  1
  H  H49  1  0.66063473  0.64357383  0.48256735  1
  H  H50  1  0.83936527  0.14357383  0.01743265  1
  H  H51  1  0.33936527  0.35642617  0.51743265  1
  H  H52  1  0.05879582  0.69767739  0.76309321  1
  H  H53  1  0.55879582  0.80232261  0.26309321  1
  H  H54  1  0.94120418  0.30232261  0.23690679  1
  H  H55  1  0.44120418  0.19767739  0.73690679  1
  H  H56  1  0.90851950  0.65933007  0.83088469  1
  H  H57  1  0.40851950  0.84066993  0.33088469  1
  H  H58  1  0.09148050  0.34066993  0.16911531  1
  H  H59  1  0.59148050  0.15933007  0.66911531  1
  H  H60  1  0.20551570  0.61096921  0.25421676  1
  H  H61  1  0.70551570  0.88903079  0.75421676  1
  H  H62  1  0.79448430  0.38903079  0.74578324  1
  H  H63  1  0.29448430  0.11096921  0.24578324  1
  H  H64  1  0.15004683  0.72054092  0.21845468  1
  H  H65  1  0.65004683  0.77945908  0.71845468  1
  H  H66  1  0.84995317  0.27945908  0.78154532  1
  H  H67  1  0.34995317  0.22054092  0.28154532  1
  H  H68  1  0.03285074  0.50660061  0.30902404  1
  H  H69  1  0.53285074  0.99339939  0.80902404  1
  H  H70  1  0.96714926  0.49339939  0.69097596  1
  H  H71  1  0.46714926  0.00660061  0.19097596  1
  H  H72  1  0.85370931  0.53832390  0.30484104  1
  H  H73  1  0.35370931  0.96167610  0.80484104  1
  H  H74  1  0.14629069  0.46167610  0.69515896  1
  H  H75  1  0.64629069  0.03832390  0.19515896  1
  C  C76  1  0.58758756  0.75615981  0.04572708  1
  C  C77  1  0.08758756  0.74384019  0.54572708  1
  C  C78  1  0.41241244  0.24384019  0.95427292  1
  C  C79  1  0.91241244  0.25615981  0.45427292  1
  C  C80  1  0.81469088  0.93691351  0.39276203  1
  C  C81  1  0.31469088  0.56308649  0.89276203  1
  C  C82  1  0.18530912  0.06308649  0.60723797  1
  C  C83  1  0.68530912  0.43691351  0.10723797  1
  C  C84  1  0.01480074  0.76286518  0.91760610  1
  C  C85  1  0.51480074  0.73713482  0.41760610  1
  C  C86  1  0.98519926  0.23713482  0.08239390  1
  C  C87  1  0.48519926  0.26286518  0.58239390  1
  C  C88  1  0.98812266  0.63711851  0.25401194  1
  C  C89  1  0.48812266  0.86288149  0.75401194  1
  C  C90  1  0.01187734  0.36288149  0.74598806  1
  C  C91  1  0.51187734  0.13711851  0.24598806  1
  S  S92  1  0.18842453  0.93755591  0.20473619  1
  S  S93  1  0.68842453  0.56244409  0.70473619  1
  S  S94  1  0.81157547  0.06244409  0.79526381  1
  S  S95  1  0.31157547  0.43755591  0.29526381  1
  N  N96  1  0.64423132  0.68446304  0.98876661  1
  N  N97  1  0.14423132  0.81553696  0.48876661  1
  N  N98  1  0.35576868  0.31553696  0.01123339  1
  N  N99  1  0.85576868  0.18446304  0.51123339  1
  N  N100  1  0.44816032  0.77204180  0.02691378  1
  N  N101  1  0.94816032  0.72795820  0.52691378  1
  N  N102  1  0.55183968  0.22795820  0.97308622  1
  N  N103  1  0.05183968  0.27204180  0.47308622  1
  N  N104  1  0.87824122  0.01504659  0.36742624  1
  N  N105  1  0.37824122  0.48495341  0.86742624  1
  N  N106  1  0.12175878  0.98495341  0.63257376  1
  N  N107  1  0.62175878  0.51504659  0.13257376  1
  N  N108  1  0.73152370  0.93536300  0.48570004  1
  N  N109  1  0.23152370  0.56463700  0.98570004  1
  N  N110  1  0.26847630  0.06463700  0.51429996  1
  N  N111  1  0.76847630  0.43536300  0.01429996  1
  N  N112  1  0.13050903  0.81641489  0.91312009  1
  N  N113  1  0.63050903  0.68358511  0.41312009  1
  N  N114  1  0.86949097  0.18358511  0.08687991  1
  N  N115  1  0.36949097  0.31641489  0.58687991  1
  N  N116  1  0.98764484  0.70609088  0.82693935  1
  N  N117  1  0.48764484  0.79390912  0.32693935  1
  N  N118  1  0.01235516  0.29390912  0.17306065  1
  N  N119  1  0.51235516  0.20609088  0.67306065  1
  N  N120  1  0.12549578  0.65484401  0.23204426  1
  N  N121  1  0.62549578  0.84515599  0.73204426  1
  N  N122  1  0.87450422  0.34515599  0.76795574  1
  N  N123  1  0.37450422  0.15484401  0.26795574  1
  N  N124  1  0.95652243  0.55379614  0.29196673  1
  N  N125  1  0.45652243  0.94620386  0.79196673  1
  N  N126  1  0.04347757  0.44620386  0.70803327  1
  N  N127  1  0.54347757  0.05379614  0.20803327  1
  O  O128  1  0.27935108  0.93814668  0.31577322  1
  O  O129  1  0.77935108  0.56185332  0.81577322  1
  O  O130  1  0.72064892  0.06185332  0.68422678  1
  O  O131  1  0.22064892  0.43814668  0.18422678  1
  O  O132  1  0.09332645  0.85624023  0.20334312  1
  O  O133  1  0.59332645  0.64375977  0.70334312  1
  O  O134  1  0.90667355  0.14375977  0.79665688  1
  O  O135  1  0.40667355  0.35624023  0.29665688  1
  O  O136  1  0.28021480  0.93327982  0.10137232  1
  O  O137  1  0.78021480  0.56672018  0.60137232  1
  O  O138  1  0.71978520  0.06672018  0.89862768  1
  O  O139  1  0.21978520  0.43327982  0.39862768  1
  O  O140  1  0.09993334  0.02092792  0.19531306  1
  O  O141  1  0.59993334  0.47907208  0.69531306  1
  O  O142  1  0.90006666  0.97907208  0.80468694  1
  O  O143  1  0.40006666  0.52092792  0.30468694  1
  O  O144  1  0.84434957  0.95953726  0.09623453  1
  O  O145  1  0.34434957  0.54046274  0.59623453  1
  O  O146  1  0.15565043  0.04046274  0.90376547  1
  O  O147  1  0.65565043  0.45953726  0.40376547  1
  O  O148  1  0.66340592  0.80295389  0.11876786  1
  O  O149  1  0.16340592  0.69704611  0.61876786  1
  O  O150  1  0.33659408  0.19704611  0.88123214  1
  O  O151  1  0.83659408  0.30295389  0.38123214  1
  O  O152  1  0.82968047  0.86564488  0.33188890  1
  O  O153  1  0.32968047  0.63435512  0.83188890  1
  O  O154  1  0.17031953  0.13435512  0.66811110  1
  O  O155  1  0.67031953  0.36564488  0.16811110  1
  O  O156  1  0.93313231  0.76554407  0.00319232  1
  O  O157  1  0.43313231  0.73445593  0.50319232  1
  O  O158  1  0.06686769  0.23445593  0.99680768  1
  O  O159  1  0.56686769  0.26554407  0.49680768  1
  O  O160  1  0.89224767  0.69644829  0.23885646  1
  O  O161  1  0.39224767  0.80355171  0.73885646  1
  O  O162  1  0.10775233  0.30355171  0.76114354  1
  O  O163  1  0.60775233  0.19644829  0.26114354  1
