# generated using pymatgen
data_SbH3SO6
_symmetry_space_group_name_H-M   'P 1'
_cell_length_a   6.69707330
_cell_length_b   13.52425638
_cell_length_c   6.82150610
_cell_angle_alpha   90.00000000
_cell_angle_beta   126.27997600
_cell_angle_gamma   90.00000000
_symmetry_Int_Tables_number   1
_chemical_formula_structural   SbH3SO6
_chemical_formula_sum   'Sb4 H12 S4 O24'
_cell_volume   498.06562399
_cell_formula_units_Z   4
loop_
 _symmetry_equiv_pos_site_id
 _symmetry_equiv_pos_as_xyz
  1  'x, y, z'
loop_
 _atom_site_type_symbol
 _atom_site_label
 _atom_site_symmetry_multiplicity
 _atom_site_fract_x
 _atom_site_fract_y
 _atom_site_fract_z
 _atom_site_occupancy
  Sb  Sb0  1  0.05170777  0.38642507  0.64970375  1
  Sb  Sb1  1  0.94829223  0.88642507  0.85029625  1
  Sb  Sb2  1  0.94829223  0.61357493  0.35029625  1
  Sb  Sb3  1  0.05170777  0.11357493  0.14970375  1
  H  H4  1  0.22774610  0.57204207  0.85579460  1
  H  H5  1  0.77225390  0.07204207  0.64420540  1
  H  H6  1  0.77225390  0.42795793  0.14420540  1
  H  H7  1  0.22774610  0.92795793  0.35579460  1
  H  H8  1  0.32063785  0.47205311  0.13230262  1
  H  H9  1  0.67936215  0.97205311  0.36769738  1
  H  H10  1  0.67936215  0.52794689  0.86769738  1
  H  H11  1  0.32063785  0.02794689  0.63230262  1
  H  H12  1  0.25948327  0.36458089  0.18186368  1
  H  H13  1  0.74051673  0.86458089  0.31813632  1
  H  H14  1  0.74051673  0.63541911  0.81813632  1
  H  H15  1  0.25948327  0.13541911  0.68186368  1
  S  S16  1  0.40045076  0.84089948  0.82471821  1
  S  S17  1  0.59954924  0.34089948  0.67528179  1
  S  S18  1  0.59954924  0.15910052  0.17528179  1
  S  S19  1  0.40045076  0.65910052  0.32471821  1
  O  O20  1  0.29293206  0.91421231  0.91694704  1
  O  O21  1  0.70706794  0.41421231  0.58305296  1
  O  O22  1  0.70706794  0.08578769  0.08305296  1
  O  O23  1  0.29293206  0.58578769  0.41694704  1
  O  O24  1  0.22227412  0.76042118  0.69645380  1
  O  O25  1  0.77772588  0.26042118  0.80354620  1
  O  O26  1  0.77772588  0.23957882  0.30354620  1
  O  O27  1  0.22227412  0.73957882  0.19645380  1
  O  O28  1  0.43517274  0.90035575  0.66100556  1
  O  O29  1  0.56482726  0.40035575  0.83899444  1
  O  O30  1  0.56482726  0.09964425  0.33899444  1
  O  O31  1  0.43517274  0.59964425  0.16100556  1
  O  O32  1  0.64398711  0.80904057  0.04089087  1
  O  O33  1  0.35601289  0.30904057  0.45910913  1
  O  O34  1  0.35601289  0.19095943  0.95910913  1
  O  O35  1  0.64398711  0.69095943  0.54089087  1
  O  O36  1  0.12377241  0.53801408  0.69515562  1
  O  O37  1  0.87622759  0.03801408  0.80484438  1
  O  O38  1  0.87622759  0.46198592  0.30484438  1
  O  O39  1  0.12377241  0.96198592  0.19515562  1
  O  O40  1  0.21868757  0.41232474  0.05209792  1
  O  O41  1  0.78131243  0.91232474  0.44790208  1
  O  O42  1  0.78131243  0.58767526  0.94790208  1
  O  O43  1  0.21868757  0.08767526  0.55209792  1
