# generated using pymatgen
data_K2TiCr(PO4)3
_symmetry_space_group_name_H-M   'P 1'
_cell_length_a   9.94057375
_cell_length_b   9.94316464
_cell_length_c   19.88672287
_cell_angle_alpha   89.98673154
_cell_angle_beta   89.96660710
_cell_angle_gamma   90.05931721
_symmetry_Int_Tables_number   1
_chemical_formula_structural   K2TiCr(PO4)3
_chemical_formula_sum   'K16 Ti8 Cr8 P24 O96'
_cell_volume   1965.61739067
_cell_formula_units_Z   8
loop_
 _symmetry_equiv_pos_site_id
 _symmetry_equiv_pos_as_xyz
  1  'x, y, z'
loop_
 _atom_site_type_symbol
 _atom_site_label
 _atom_site_symmetry_multiplicity
 _atom_site_fract_x
 _atom_site_fract_y
 _atom_site_fract_z
 _atom_site_occupancy
  K  K0  1  0.04200263  0.54435420  0.47905772  1
  K  K1  1  0.04174074  0.54261282  0.97797614  1
  K  K2  1  0.17941081  0.81910432  0.15869094  1
  K  K3  1  0.18305397  0.81662957  0.65818059  1
  K  K4  1  0.31982530  0.18248813  0.40958324  1
  K  K5  1  0.31580849  0.18302123  0.90880725  1
  K  K6  1  0.45826517  0.45714204  0.22906356  1
  K  K7  1  0.45652579  0.45600513  0.72769660  1
  K  K8  1  0.54414549  0.95721670  0.02084453  1
  K  K9  1  0.54421823  0.95710682  0.52196258  1
  K  K10  1  0.68402224  0.68173322  0.34173903  1
  K  K11  1  0.68384234  0.68337892  0.84150704  1
  K  K12  1  0.82008216  0.31881581  0.09093445  1
  K  K13  1  0.81563762  0.31678774  0.59073185  1
  K  K14  1  0.95669828  0.04126555  0.27165556  1
  K  K15  1  0.95614954  0.04374028  0.77177939  1
  Ti  Ti16  1  0.10737364  0.39245653  0.30462346  1
  Ti  Ti17  1  0.16504743  0.16489642  0.58179467  1
  Ti  Ti18  1  0.33582094  0.83653377  0.33293723  1
  Ti  Ti19  1  0.33608586  0.83690886  0.83093686  1
  Ti  Ti20  1  0.39168921  0.60874787  0.05360729  1
  Ti  Ti21  1  0.61161630  0.10745787  0.19624689  1
  Ti  Ti22  1  0.66703538  0.33556004  0.91794983  1
  Ti  Ti23  1  0.83565008  0.66337465  0.66715948  1
  Cr  Cr24  1  0.10447712  0.39428675  0.80261963  1
  Cr  Cr25  1  0.16139884  0.16288090  0.08117797  1
  Cr  Cr26  1  0.39522081  0.60497742  0.55288656  1
  Cr  Cr27  1  0.60513904  0.10563822  0.69701912  1
  Cr  Cr28  1  0.66249228  0.33713781  0.41914826  1
  Cr  Cr29  1  0.83766950  0.66297132  0.16812078  1
  Cr  Cr30  1  0.89442794  0.89443225  0.44770700  1
  Cr  Cr31  1  0.89416379  0.89523034  0.94729006  1
  P  P32  1  0.02148718  0.70902655  0.31172126  1
  P  P33  1  0.02193751  0.70682248  0.81244016  1
  P  P34  1  0.12192559  0.47546192  0.14621215  1
  P  P35  1  0.12523722  0.47766545  0.64665004  1
  P  P36  1  0.20669430  0.87472584  0.48920115  1
  P  P37  1  0.20535492  0.87751804  0.98859849  1
  P  P38  1  0.29284213  0.12306051  0.23725527  1
  P  P39  1  0.29335677  0.12556071  0.73873273  1
  P  P40  1  0.37754604  0.52215446  0.39728712  1
  P  P41  1  0.37589292  0.52240726  0.89562284  1
  P  P42  1  0.47463979  0.29237184  0.06149030  1
  P  P43  1  0.47911111  0.29296521  0.56207076  1
  P  P44  1  0.52538648  0.79262048  0.18863173  1
  P  P45  1  0.52256411  0.79326073  0.68731534  1
  P  P46  1  0.62430218  0.02496966  0.35473951  1
  P  P47  1  0.62513880  0.02249726  0.85324815  1
  P  P48  1  0.70918685  0.62427966  0.01237280  1
  P  P49  1  0.70689719  0.62402275  0.51041436  1
  P  P50  1  0.79233886  0.37869937  0.26258285  1
  P  P51  1  0.79311499  0.37485519  0.76087071  1
  P  P52  1  0.87500685  0.97789983  0.60339484  1
  P  P53  1  0.87785011  0.97526679  0.10280918  1
  P  P54  1  0.97438080  0.20563074  0.43835866  1
  P  P55  1  0.97930216  0.20689508  0.93786362  1
  O  O56  1  0.00828485  0.05361820  0.11651562  1
  O  O57  1  0.01212577  0.05187401  0.61395283  1
  O  O58  1  0.01666217  0.55805405  0.33431185  1
  O  O59  1  0.01313531  0.55986892  0.83634128  1
  O  O60  1  0.04760089  0.29782557  0.38533047  1
  O  O61  1  0.04733256  0.29839501  0.88650875  1
  O  O62  1  0.05051861  0.23188775  0.00528463  1
  O  O63  1  0.05428756  0.22930023  0.50486134  1
  O  O64  1  0.05985090  0.82728676  0.49349455  1
  O  O65  1  0.06004571  0.82649691  0.99355599  1
  O  O66  1  0.09997068  0.32948184  0.12647171  1
  O  O67  1  0.10203068  0.32832312  0.62558654  1
  O  O68  1  0.17027397  0.48474729  0.22092578  1
  O  O69  1  0.17254334  0.48673900  0.72015003  1
  O  O70  1  0.17208607  0.74877812  0.30165947  1
  O  O71  1  0.17185653  0.74890222  0.80131163  1
  O  O72  1  0.20311497  0.22903814  0.27378351  1
  O  O73  1  0.20137633  0.22542625  0.77405939  1
  O  O74  1  0.23121493  0.54684573  0.10170401  1
  O  O75  1  0.22541657  0.54813317  0.60066441  1
  O  O76  1  0.23282943  0.00898857  0.02618050  1
  O  O77  1  0.22860142  0.01189123  0.52559794  1
  O  O78  1  0.24897551  0.89746799  0.41423568  1
  O  O79  1  0.24968470  0.89647832  0.91435956  1
  O  O80  1  0.25226508  0.09893983  0.16474214  1
  O  O81  1  0.25109883  0.10184668  0.66428109  1
  O  O82  1  0.27083388  0.99010544  0.27709860  1
  O  O83  1  0.27182967  0.98818427  0.77592284  1
  O  O84  1  0.26990330  0.45382411  0.35093206  1
  O  O85  1  0.27357358  0.45206515  0.85130902  1
  O  O86  1  0.29785076  0.76988826  0.02305926  1
  O  O87  1  0.29866333  0.77417011  0.52384499  1
  O  O88  1  0.32938478  0.25243070  0.04949582  1
  O  O89  1  0.32793518  0.25101715  0.55184598  1
  O  O90  1  0.32620127  0.51277164  0.46985712  1
  O  O91  1  0.33101431  0.51605171  0.97090682  1
  O  O92  1  0.39643119  0.67128227  0.37521502  1
  O  O93  1  0.39792955  0.67171749  0.87582718  1
  O  O94  1  0.44170505  0.17007770  0.24237195  1
  O  O95  1  0.44026610  0.17245339  0.74364953  1
  O  O96  1  0.44535749  0.77095608  0.25487329  1
  O  O97  1  0.44806643  0.77184469  0.75601763  1
  O  O98  1  0.45248884  0.70297564  0.13545150  1
  O  O99  1  0.45168129  0.70134233  0.63741922  1
  O  O100  1  0.48488494  0.44156092  0.08497248  1
  O  O101  1  0.48644729  0.44013006  0.58641546  1
  O  O102  1  0.48876239  0.94602081  0.36341350  1
  O  O103  1  0.48799517  0.94823380  0.86420924  1
  O  O104  1  0.51148217  0.44772812  0.88602524  1
  O  O105  1  0.50902366  0.44815850  0.38335775  1
  O  O106  1  0.51456645  0.94142373  0.16490863  1
  O  O107  1  0.51275519  0.94010679  0.66380319  1
  O  O108  1  0.54726235  0.20314114  0.11473286  1
  O  O109  1  0.54731830  0.20175215  0.61350911  1
  O  O110  1  0.54995777  0.26817417  0.49465058  1
  O  O111  1  0.55412150  0.27083450  0.99512537  1
  O  O112  1  0.55772680  0.66869625  0.00808178  1
  O  O113  1  0.55967010  0.67264117  0.50667712  1
  O  O114  1  0.60210390  0.17164938  0.87464795  1
  O  O115  1  0.59796923  0.17070170  0.37321968  1
  O  O116  1  0.66846513  0.01572241  0.27887700  1
  O  O117  1  0.67242324  0.01324314  0.77988889  1
  O  O118  1  0.67029123  0.75228563  0.20053938  1
  O  O119  1  0.67146770  0.75110312  0.69914248  1
  O  O120  1  0.70343390  0.26945098  0.22662477  1
  O  O121  1  0.70126419  0.27433873  0.72612603  1
  O  O122  1  0.72516423  0.95201223  0.89939479  1
  O  O123  1  0.72631958  0.95125161  0.39825687  1
  O  O124  1  0.73169162  0.48957705  0.47466379  1
  O  O125  1  0.72733270  0.48897063  0.97330305  1
  O  O126  1  0.74661160  0.59810059  0.08540666  1
  O  O127  1  0.74881815  0.60367024  0.58597312  1
  O  O128  1  0.75265022  0.40003886  0.33526762  1
  O  O129  1  0.75110713  0.39772548  0.83577366  1
  O  O130  1  0.76816340  0.50828774  0.22286531  1
  O  O131  1  0.77149187  0.51202349  0.72430880  1
  O  O132  1  0.76908330  0.04652366  0.14878617  1
  O  O133  1  0.77442476  0.04785833  0.64929072  1
  O  O134  1  0.79841923  0.72703492  0.47631184  1
  O  O135  1  0.79671442  0.72633701  0.97556499  1
  O  O136  1  0.83004703  0.24772770  0.45057006  1
  O  O137  1  0.82826179  0.24893042  0.94818565  1
  O  O138  1  0.82604473  0.98832023  0.03004360  1
  O  O139  1  0.82765766  0.98687136  0.52996460  1
  O  O140  1  0.90039024  0.82997782  0.12393074  1
  O  O141  1  0.89784875  0.82841643  0.62451641  1
  O  O142  1  0.94185672  0.33019851  0.25773158  1
  O  O143  1  0.93997406  0.32741892  0.75645080  1
  O  O144  1  0.94886558  0.73102454  0.24484596  1
  O  O145  1  0.94858399  0.72849079  0.74403477  1
  O  O146  1  0.95291915  0.79711996  0.36381883  1
  O  O147  1  0.95217637  0.79858475  0.86291103  1
  O  O148  1  0.98854053  0.05998743  0.41314525  1
  O  O149  1  0.98665041  0.05977893  0.91369680  1
  O  O150  1  0.99204112  0.55380560  0.13389121  1
  O  O151  1  0.98822589  0.55151321  0.63585867  1
