# generated using pymatgen
data_ZnH8(O2F)2
_symmetry_space_group_name_H-M   'P 1'
_cell_length_a   12.70037613
_cell_length_b   5.34734963
_cell_length_c   7.59004644
_cell_angle_alpha   90.00000000
_cell_angle_beta   90.00000000
_cell_angle_gamma   90.00000000
_symmetry_Int_Tables_number   1
_chemical_formula_structural   ZnH8(O2F)2
_chemical_formula_sum   'Zn4 H32 O16 F8'
_cell_volume   515.46549254
_cell_formula_units_Z   4
loop_
 _symmetry_equiv_pos_site_id
 _symmetry_equiv_pos_as_xyz
  1  'x, y, z'
loop_
 _atom_site_type_symbol
 _atom_site_label
 _atom_site_symmetry_multiplicity
 _atom_site_fract_x
 _atom_site_fract_y
 _atom_site_fract_z
 _atom_site_occupancy
  Zn  Zn0  1  0.62427146  0.79454077  0.24730940  1
  Zn  Zn1  1  0.37572854  0.20545923  0.74730940  1
  Zn  Zn2  1  0.87572854  0.79454077  0.74730940  1
  Zn  Zn3  1  0.12427146  0.20545923  0.24730940  1
  H  H4  1  0.73326027  0.06598102  0.01379365  1
  H  H5  1  0.26673973  0.93401898  0.51379365  1
  H  H6  1  0.76673973  0.06598102  0.51379365  1
  H  H7  1  0.23326027  0.93401898  0.01379365  1
  H  H8  1  0.61787322  0.35375010  0.42647476  1
  H  H9  1  0.38212678  0.64624990  0.92647476  1
  H  H10  1  0.88212678  0.35375010  0.92647476  1
  H  H11  1  0.11787322  0.64624990  0.42647476  1
  H  H12  1  0.92356688  0.05282618  0.13665574  1
  H  H13  1  0.07643312  0.94717382  0.63665574  1
  H  H14  1  0.57643312  0.05282618  0.63665574  1
  H  H15  1  0.42356688  0.94717382  0.13665574  1
  H  H16  1  0.92249143  0.06889453  0.34811854  1
  H  H17  1  0.07750857  0.93110547  0.84811854  1
  H  H18  1  0.57750857  0.06889453  0.84811854  1
  H  H19  1  0.42249143  0.93110547  0.34811854  1
  H  H20  1  0.82530154  0.63089409  0.36351821  1
  H  H21  1  0.17469846  0.36910591  0.86351821  1
  H  H22  1  0.67469846  0.63089409  0.86351821  1
  H  H23  1  0.32530154  0.36910591  0.36351821  1
  H  H24  1  0.82593330  0.61424840  0.15326468  1
  H  H25  1  0.17406670  0.38575160  0.65326468  1
  H  H26  1  0.67406670  0.61424840  0.65326468  1
  H  H27  1  0.32593330  0.38575160  0.15326468  1
  H  H28  1  0.51745430  0.50697970  0.48448397  1
  H  H29  1  0.48254570  0.49302030  0.98448397  1
  H  H30  1  0.98254570  0.50697970  0.98448397  1
  H  H31  1  0.01745430  0.49302030  0.48448397  1
  H  H32  1  0.63986009  0.24850032  0.07663046  1
  H  H33  1  0.36013991  0.75149968  0.57663046  1
  H  H34  1  0.86013991  0.24850032  0.57663046  1
  H  H35  1  0.13986009  0.75149968  0.07663046  1
  O  O36  1  0.65711731  0.06969224  0.05136570  1
  O  O37  1  0.34288269  0.93030776  0.55136570  1
  O  O38  1  0.84288269  0.06969224  0.55136570  1
  O  O39  1  0.15711731  0.93030776  0.05136570  1
  O  O40  1  0.78332830  0.66386455  0.25606938  1
  O  O41  1  0.21667170  0.33613545  0.75606938  1
  O  O42  1  0.71667170  0.66386455  0.75606938  1
  O  O43  1  0.28332830  0.33613545  0.25606938  1
  O  O44  1  0.96724805  0.08336253  0.24224309  1
  O  O45  1  0.03275195  0.91663747  0.74224309  1
  O  O46  1  0.53275195  0.08336253  0.74224309  1
  O  O47  1  0.46724805  0.91663747  0.24224309  1
  O  O48  1  0.59339404  0.52792977  0.45039284  1
  O  O49  1  0.40660596  0.47207023  0.95039284  1
  O  O50  1  0.90660596  0.52792977  0.95039284  1
  O  O51  1  0.09339404  0.47207023  0.45039284  1
  F  F52  1  0.60268805  0.54119359  0.04325811  1
  F  F53  1  0.39731195  0.45880641  0.54325811  1
  F  F54  1  0.89731195  0.54119359  0.54325811  1
  F  F55  1  0.10268805  0.45880641  0.04325811  1
  F  F56  1  0.65008905  0.05689557  0.44842148  1
  F  F57  1  0.34991095  0.94310443  0.94842148  1
  F  F58  1  0.84991095  0.05689557  0.94842148  1
  F  F59  1  0.15008905  0.94310443  0.44842148  1
