# generated using pymatgen
data_B10H13
_symmetry_space_group_name_H-M   'P 1'
_cell_length_a   7.33463489
_cell_length_b   15.65612761
_cell_length_c   15.08693767
_cell_angle_alpha   90.00000000
_cell_angle_beta   91.45872295
_cell_angle_gamma   90.00000000
_symmetry_Int_Tables_number   1
_chemical_formula_structural   B10H13
_chemical_formula_sum   'B80 H104'
_cell_volume   1731.90147187
_cell_formula_units_Z   8
loop_
 _symmetry_equiv_pos_site_id
 _symmetry_equiv_pos_as_xyz
  1  'x, y, z'
loop_
 _atom_site_type_symbol
 _atom_site_label
 _atom_site_symmetry_multiplicity
 _atom_site_fract_x
 _atom_site_fract_y
 _atom_site_fract_z
 _atom_site_occupancy
  B  B0  1  0.37188538  0.91820877  0.15805634  1
  B  B1  1  0.87188538  0.58179123  0.65805634  1
  B  B2  1  0.62811462  0.08179123  0.84194366  1
  B  B3  1  0.12811462  0.41820877  0.34194366  1
  B  B4  1  0.54765565  0.95669824  0.23304471  1
  B  B5  1  0.04765565  0.54330176  0.73304471  1
  B  B6  1  0.45234435  0.04330176  0.76695529  1
  B  B7  1  0.95234435  0.45669824  0.26695529  1
  B  B8  1  0.46894871  0.02241687  0.14485700  1
  B  B9  1  0.96894871  0.47758313  0.64485700  1
  B  B10  1  0.53105129  0.97758313  0.85514300  1
  B  B11  1  0.03105129  0.52241687  0.35514300  1
  B  B12  1  0.24034154  0.00377457  0.10948885  1
  B  B13  1  0.74034154  0.49622543  0.60948885  1
  B  B14  1  0.75965846  0.99622543  0.89051115  1
  B  B15  1  0.25965846  0.50377457  0.39051115  1
  B  B16  1  0.34909672  0.90523171  0.27348779  1
  B  B17  1  0.84909672  0.59476829  0.77348779  1
  B  B18  1  0.65090328  0.09476829  0.72651221  1
  B  B19  1  0.15090328  0.40523171  0.22651221  1
  B  B20  1  0.45969953  0.99029825  0.33200630  1
  B  B21  1  0.95969953  0.50970175  0.83200630  1
  B  B22  1  0.54030047  0.00970175  0.66799370  1
  B  B23  1  0.04030047  0.49029825  0.16799370  1
  B  B24  1  0.50621626  0.06812298  0.24967689  1
  B  B25  1  0.00621626  0.43187702  0.74967689  1
  B  B26  1  0.49378374  0.93187702  0.75032311  1
  B  B27  1  0.99378374  0.56812298  0.25032311  1
  B  B28  1  0.30320727  0.09874779  0.16888612  1
  B  B29  1  0.80320727  0.40125221  0.66888612  1
  B  B30  1  0.69679273  0.90125221  0.83111388  1
  B  B31  1  0.19679273  0.59874779  0.33111388  1
  B  B32  1  0.09136578  0.04664560  0.18401511  1
  B  B33  1  0.59136578  0.45335440  0.68401511  1
  B  B34  1  0.90863422  0.95335440  0.81598489  1
  B  B35  1  0.40863422  0.54664560  0.31598489  1
  B  B36  1  0.14647872  0.93626461  0.19229140  1
  B  B37  1  0.64647872  0.56373539  0.69229140  1
  B  B38  1  0.85352128  0.06373539  0.80770860  1
  B  B39  1  0.35352128  0.43626461  0.30770860  1
  B  B40  1  0.27936788  0.73236257  0.10182065  1
  B  B41  1  0.77936788  0.76763743  0.60182065  1
  B  B42  1  0.72063212  0.26763743  0.89817935  1
  B  B43  1  0.22063212  0.23236257  0.39817935  1
  B  B44  1  0.51354086  0.72721058  0.13439049  1
  B  B45  1  0.01354086  0.77278942  0.63439049  1
  B  B46  1  0.48645914  0.27278942  0.86560951  1
  B  B47  1  0.98645914  0.22721058  0.36560951  1
  B  B48  1  0.41454295  0.64429393  0.06918145  1
  B  B49  1  0.91454295  0.85570607  0.56918145  1
  B  B50  1  0.58545705  0.35570607  0.93081855  1
  B  B51  1  0.08545705  0.14429393  0.43081855  1
  B  B52  1  0.22438872  0.67585519  0.00216359  1
  B  B53  1  0.72438872  0.82414481  0.50216359  1
  B  B54  1  0.77561128  0.32414481  0.99783641  1
  B  B55  1  0.27561128  0.17585519  0.49783641  1
  B  B56  1  0.41094662  0.82633828  0.09814010  1
  B  B57  1  0.91094662  0.67366172  0.59814010  1
  B  B58  1  0.58905338  0.17366172  0.90185990  1
  B  B59  1  0.08905338  0.32633828  0.40185990  1
  B  B60  1  0.63791310  0.79471241  0.06957842  1
  B  B61  1  0.13791310  0.70528759  0.56957842  1
  B  B62  1  0.36208690  0.20528759  0.93042158  1
  B  B63  1  0.86208690  0.29471241  0.43042158  1
  B  B64  1  0.62817146  0.68408131  0.04123396  1
  B  B65  1  0.12817146  0.81591869  0.54123396  1
  B  B66  1  0.37182854  0.31591869  0.95876604  1
  B  B67  1  0.87182854  0.18408131  0.45876604  1
  B  B68  1  0.43737856  0.64981210  0.95413087  1
  B  B69  1  0.93737856  0.85018790  0.45413087  1
  B  B70  1  0.56262144  0.35018790  0.04586913  1
  B  B71  1  0.06262144  0.14981210  0.54586913  1
  B  B72  1  0.29438144  0.73307500  0.91167614  1
  B  B73  1  0.79438144  0.76692500  0.41167614  1
  B  B74  1  0.70561856  0.26692500  0.08832386  1
  B  B75  1  0.20561856  0.23307500  0.58832386  1
  B  B76  1  0.21949005  0.78949551  0.00612959  1
  B  B77  1  0.71949005  0.71050449  0.50612959  1
  B  B78  1  0.78050995  0.21050449  0.99387041  1
  B  B79  1  0.28050995  0.28949551  0.49387041  1
  H  H80  1  0.69660269  0.92590036  0.23190402  1
  H  H81  1  0.19660269  0.57409964  0.73190402  1
  H  H82  1  0.30339731  0.07409964  0.76809598  1
  H  H83  1  0.80339731  0.42590036  0.26809598  1
  H  H84  1  0.57645149  0.04330329  0.09073221  1
  H  H85  1  0.07645149  0.45669671  0.59073221  1
  H  H86  1  0.42354851  0.95669671  0.90926779  1
  H  H87  1  0.92354851  0.54330329  0.40926779  1
  H  H88  1  0.20076955  0.00300482  0.03209548  1
  H  H89  1  0.70076955  0.49699518  0.53209548  1
  H  H90  1  0.79923045  0.99699518  0.96790452  1
  H  H91  1  0.29923045  0.50300482  0.46790452  1
  H  H92  1  0.34147666  0.83685775  0.30781306  1
  H  H93  1  0.84147666  0.66314225  0.80781306  1
  H  H94  1  0.65852334  0.16314225  0.69218694  1
  H  H95  1  0.15852334  0.33685775  0.19218694  1
  H  H96  1  0.29037739  0.95823099  0.33549617  1
  H  H97  1  0.79037739  0.54176901  0.83549617  1
  H  H98  1  0.70962261  0.04176901  0.66450383  1
  H  H99  1  0.20962261  0.45823099  0.16450383  1
  H  H100  1  0.52020533  0.98752593  0.40590865  1
  H  H101  1  0.02020533  0.51247407  0.90590865  1
  H  H102  1  0.47979467  0.01247407  0.59409135  1
  H  H103  1  0.97979467  0.48752593  0.09409135  1
  H  H104  1  0.61785084  0.12207569  0.26365198  1
  H  H105  1  0.11785084  0.37792431  0.76365198  1
  H  H106  1  0.38214916  0.87792431  0.73634802  1
  H  H107  1  0.88214916  0.62207569  0.23634802  1
  H  H108  1  0.40058401  0.07086366  0.31932370  1
  H  H109  1  0.90058401  0.42913634  0.81932370  1
  H  H110  1  0.59941599  0.92913634  0.68067630  1
  H  H111  1  0.09941599  0.57086366  0.18067630  1
  H  H112  1  0.30362830  0.16979103  0.14025902  1
  H  H113  1  0.80362830  0.33020897  0.64025902  1
  H  H114  1  0.69637170  0.83020897  0.85974098  1
  H  H115  1  0.19637170  0.66979103  0.35974098  1
  H  H116  1  0.18831005  0.10246108  0.23460108  1
  H  H117  1  0.68831005  0.39753892  0.73460108  1
  H  H118  1  0.81168995  0.89753892  0.76539892  1
  H  H119  1  0.31168995  0.60246108  0.26539892  1
  H  H120  1  0.94324177  0.07694007  0.17396408  1
  H  H121  1  0.44324177  0.42305993  0.67396408  1
  H  H122  1  0.05675823  0.92305993  0.82603592  1
  H  H123  1  0.55675823  0.57694007  0.32603592  1
  H  H124  1  0.02678246  0.88536467  0.18341742  1
  H  H125  1  0.52678246  0.61463533  0.68341742  1
  H  H126  1  0.97321754  0.11463533  0.81658258  1
  H  H127  1  0.47321754  0.38536467  0.31658258  1
  H  H128  1  0.08155976  0.99101428  0.25105355  1
  H  H129  1  0.58155976  0.50898572  0.75105355  1
  H  H130  1  0.91844024  0.00898572  0.74894645  1
  H  H131  1  0.41844024  0.49101428  0.24894645  1
  H  H132  1  0.55810040  0.71377465  0.20984030  1
  H  H133  1  0.05810040  0.78622535  0.70984030  1
  H  H134  1  0.44189960  0.28622535  0.79015970  1
  H  H135  1  0.94189960  0.21377465  0.29015970  1
  H  H136  1  0.16639343  0.73177004  0.15754379  1
  H  H137  1  0.66639343  0.76822996  0.65754379  1
  H  H138  1  0.83360657  0.26822996  0.84245621  1
  H  H139  1  0.33360657  0.23177004  0.34245621  1
  H  H140  1  0.41343003  0.57314803  0.09876906  1
  H  H141  1  0.91343003  0.92685197  0.59876906  1
  H  H142  1  0.58656997  0.42685197  0.90123094  1
  H  H143  1  0.08656997  0.07314803  0.40123094  1
  H  H144  1  0.09204365  0.63164288  0.99931056  1
  H  H145  1  0.59204365  0.86835712  0.49931056  1
  H  H146  1  0.90795635  0.36835712  0.00068944  1
  H  H147  1  0.40795635  0.13164288  0.50068944  1
  H  H148  1  0.51862562  0.84973152  0.03205508  1
  H  H149  1  0.01862562  0.65026848  0.53205508  1
  H  H150  1  0.48137438  0.15026848  0.96794492  1
  H  H151  1  0.98137438  0.34973152  0.46794492  1
  H  H152  1  0.77449271  0.83367788  0.08457144  1
  H  H153  1  0.27449271  0.66632212  0.58457144  1
  H  H154  1  0.22550729  0.16632212  0.91542856  1
  H  H155  1  0.72550729  0.33367788  0.41542856  1
  H  H156  1  0.76544294  0.64319166  0.04282491  1
  H  H157  1  0.26544294  0.85680834  0.54282491  1
  H  H158  1  0.23455706  0.35680834  0.95717509  1
  H  H159  1  0.73455706  0.14319166  0.45717509  1
  H  H160  1  0.66689313  0.75242374  0.99365809  1
  H  H161  1  0.16689313  0.74757626  0.49365809  1
  H  H162  1  0.33310687  0.24757626  0.00634191  1
  H  H163  1  0.83310687  0.25242374  0.50634191  1
  H  H164  1  0.46962343  0.58954015  0.90892991  1
  H  H165  1  0.96962343  0.91045985  0.40892991  1
  H  H166  1  0.53037657  0.41045985  0.09107009  1
  H  H167  1  0.03037657  0.08954015  0.59107009  1
  H  H168  1  0.47333517  0.71679857  0.90411599  1
  H  H169  1  0.97333517  0.78320143  0.40411599  1
  H  H170  1  0.52666483  0.28320143  0.09588401  1
  H  H171  1  0.02666483  0.21679857  0.59588401  1
  H  H172  1  0.23475936  0.73906106  0.83781474  1
  H  H173  1  0.73475936  0.76093894  0.33781474  1
  H  H174  1  0.76524064  0.26093894  0.16218526  1
  H  H175  1  0.26524064  0.23906106  0.66218526  1
  H  H176  1  0.08846187  0.83424761  0.99933792  1
  H  H177  1  0.58846187  0.66575239  0.49933792  1
  H  H178  1  0.91153813  0.16575239  0.00066208  1
  H  H179  1  0.41153813  0.33424761  0.50066208  1
  H  H180  1  0.32549929  0.81309942  0.94040082  1
  H  H181  1  0.82549929  0.68690058  0.44040082  1
  H  H182  1  0.67450071  0.18690058  0.05959918  1
  H  H183  1  0.17450071  0.31309942  0.55959918  1
