# generated using pymatgen
data_CaB3H7O9
_symmetry_space_group_name_H-M   'P 1'
_cell_length_a   6.67307665
_cell_length_b   8.43280493
_cell_length_c   6.52211907
_cell_angle_alpha   90.68891547
_cell_angle_beta   101.78209727
_cell_angle_gamma   86.77136480
_symmetry_Int_Tables_number   1
_chemical_formula_structural   CaB3H7O9
_chemical_formula_sum   'Ca2 B6 H14 O18'
_cell_volume   358.71466348
_cell_formula_units_Z   2
loop_
 _symmetry_equiv_pos_site_id
 _symmetry_equiv_pos_as_xyz
  1  'x, y, z'
loop_
 _atom_site_type_symbol
 _atom_site_label
 _atom_site_symmetry_multiplicity
 _atom_site_fract_x
 _atom_site_fract_y
 _atom_site_fract_z
 _atom_site_occupancy
  Ca  Ca0  1  0.98862940  0.62365675  0.75537121  1
  Ca  Ca1  1  0.01137060  0.37634325  0.24462879  1
  B  B2  1  0.68377444  0.20114450  0.51483211  1
  B  B3  1  0.31622556  0.79885550  0.48516789  1
  B  B4  1  0.71216517  0.36795587  0.83415007  1
  B  B5  1  0.28783483  0.63204413  0.16584993  1
  B  B6  1  0.96018088  0.73535519  0.30068602  1
  B  B7  1  0.03981912  0.26464481  0.69931398  1
  H  H8  1  0.43080980  0.10041872  0.34910894  1
  H  H9  1  0.56919020  0.89958128  0.65089106  1
  H  H10  1  0.54280705  0.57920016  0.85082382  1
  H  H11  1  0.45719295  0.42079984  0.14917618  1
  H  H12  1  0.68236142  0.65063876  0.35620919  1
  H  H13  1  0.31763858  0.34936124  0.64379081  1
  H  H14  1  0.74714470  0.93528273  0.26960019  1
  H  H15  1  0.25285530  0.06471727  0.73039981  1
  H  H16  1  0.62675710  0.22059295  0.05277454  1
  H  H17  1  0.37324290  0.77940705  0.94722546  1
  H  H18  1  0.94962638  0.97043741  0.77290423  1
  H  H19  1  0.05037362  0.02956259  0.22709577  1
  H  H20  1  0.83425621  0.89616208  0.93853276  1
  H  H21  1  0.16574379  0.10383792  0.06146724  1
  O  O22  1  0.59612019  0.26431850  0.67218535  1
  O  O23  1  0.40387981  0.73568150  0.32781465  1
  O  O24  1  0.57876881  0.10972404  0.35425552  1
  O  O25  1  0.42123119  0.89027596  0.64574448  1
  O  O26  1  0.88604687  0.22227781  0.50787505  1
  O  O27  1  0.11395313  0.77772219  0.49212495  1
  O  O28  1  0.66238400  0.53749820  0.79542300  1
  O  O29  1  0.33761600  0.46250180  0.20457700  1
  O  O30  1  0.93800792  0.34762361  0.85129839  1
  O  O31  1  0.06199208  0.65237639  0.14870161  1
  O  O32  1  0.83015371  0.62101620  0.38077699  1
  O  O33  1  0.16984629  0.37898380  0.61922301  1
  O  O34  1  0.84714235  0.89279265  0.78781355  1
  O  O35  1  0.15285765  0.10720735  0.21218645  1
  O  O36  1  0.84762660  0.87908202  0.19892231  1
  O  O37  1  0.15237340  0.12091798  0.80107769  1
  O  O38  1  0.66652389  0.32933512  0.04297822  1
  O  O39  1  0.33347611  0.67066488  0.95702178  1
