# generated using pymatgen
data_U(BH4)4
_symmetry_space_group_name_H-M   'P 1'
_cell_length_a   5.58075074
_cell_length_b   5.58075074
_cell_length_c   11.97349036
_cell_angle_alpha   90.00000000
_cell_angle_beta   90.00000000
_cell_angle_gamma   89.90020391
_symmetry_Int_Tables_number   1
_chemical_formula_structural   U(BH4)4
_chemical_formula_sum   'U2 B8 H32'
_cell_volume   372.91114316
_cell_formula_units_Z   2
loop_
 _symmetry_equiv_pos_site_id
 _symmetry_equiv_pos_as_xyz
  1  'x, y, z'
loop_
 _atom_site_type_symbol
 _atom_site_label
 _atom_site_symmetry_multiplicity
 _atom_site_fract_x
 _atom_site_fract_y
 _atom_site_fract_z
 _atom_site_occupancy
  U  U0  1  0.27930381  0.27930381  0.25000000  1
  U  U1  1  0.72069619  0.72069619  0.75000000  1
  B  B2  1  0.34674302  0.78070505  0.25000000  1
  B  B3  1  0.21929495  0.65325698  0.75000000  1
  B  B4  1  0.65325698  0.21929495  0.75000000  1
  B  B5  1  0.78070505  0.34674302  0.25000000  1
  B  B6  1  0.22585865  0.22585865  0.04318416  1
  B  B7  1  0.77414135  0.77414135  0.95681584  1
  B  B8  1  0.22585865  0.22585865  0.45681584  1
  B  B9  1  0.77414135  0.77414135  0.54318416  1
  H  H10  1  0.51651687  0.92200032  0.25000000  1
  H  H11  1  0.07799968  0.48348313  0.75000000  1
  H  H12  1  0.48348313  0.07799968  0.75000000  1
  H  H13  1  0.92200032  0.51651687  0.25000000  1
  H  H14  1  0.15102837  0.88629099  0.25000000  1
  H  H15  1  0.11370901  0.84897163  0.75000000  1
  H  H16  1  0.84897163  0.11370901  0.75000000  1
  H  H17  1  0.88629099  0.15102837  0.25000000  1
  H  H18  1  0.35650529  0.65980167  0.33612482  1
  H  H19  1  0.34019833  0.64349471  0.66387518  1
  H  H20  1  0.35650529  0.65980167  0.16387518  1
  H  H21  1  0.34019833  0.64349471  0.83612482  1
  H  H22  1  0.64349471  0.34019833  0.66387518  1
  H  H23  1  0.65980167  0.35650529  0.33612482  1
  H  H24  1  0.64349471  0.34019833  0.83612482  1
  H  H25  1  0.65980167  0.35650529  0.16387518  1
  H  H26  1  0.09587568  0.09587568  0.10269026  1
  H  H27  1  0.90412432  0.90412432  0.89730974  1
  H  H28  1  0.09587568  0.09587568  0.39730974  1
  H  H29  1  0.90412432  0.90412432  0.60269026  1
  H  H30  1  0.43236579  0.17926363  0.07646702  1
  H  H31  1  0.82073637  0.56763421  0.92353298  1
  H  H32  1  0.43236579  0.17926363  0.42353298  1
  H  H33  1  0.82073637  0.56763421  0.57646702  1
  H  H34  1  0.56763421  0.82073637  0.92353298  1
  H  H35  1  0.17926363  0.43236579  0.07646702  1
  H  H36  1  0.56763421  0.82073637  0.57646702  1
  H  H37  1  0.17926363  0.43236579  0.42353298  1
  H  H38  1  0.79984274  0.79984274  0.05521726  1
  H  H39  1  0.20015726  0.20015726  0.94478274  1
  H  H40  1  0.79984274  0.79984274  0.44478274  1
  H  H41  1  0.20015726  0.20015726  0.55521726  1
