# generated using pymatgen
data_RbNa3Mo2H18O17
_symmetry_space_group_name_H-M   'P 1'
_cell_length_a   9.72382397
_cell_length_b   9.72382665
_cell_length_c   12.29869153
_cell_angle_alpha   90.00000000
_cell_angle_beta   90.00000000
_cell_angle_gamma   119.99987659
_symmetry_Int_Tables_number   1
_chemical_formula_structural   RbNa3Mo2H18O17
_chemical_formula_sum   'Rb2 Na6 Mo4 H36 O34'
_cell_volume   1007.08094070
_cell_formula_units_Z   2
loop_
 _symmetry_equiv_pos_site_id
 _symmetry_equiv_pos_as_xyz
  1  'x, y, z'
loop_
 _atom_site_type_symbol
 _atom_site_label
 _atom_site_symmetry_multiplicity
 _atom_site_fract_x
 _atom_site_fract_y
 _atom_site_fract_z
 _atom_site_occupancy
  Rb  Rb0  1  0.00000036  0.00000113  0.25000000  1
  Rb  Rb1  1  -0.00000036  -0.00000113  0.75000000  1
  Na  Na2  1  0.16662388  0.70959826  0.75000000  1
  Na  Na3  1  0.54298608  0.83338763  0.75000000  1
  Na  Na4  1  0.29041001  0.45702538  0.75000000  1
  Na  Na5  1  0.83337612  0.29040174  0.25000000  1
  Na  Na6  1  0.45701392  0.16661237  0.25000000  1
  Na  Na7  1  0.70958999  0.54297462  0.25000000  1
  Mo  Mo8  1  0.33334940  0.66667486  0.02396471  1
  Mo  Mo9  1  0.66665060  0.33332514  0.52396471  1
  Mo  Mo10  1  0.66665060  0.33332514  0.97603529  1
  Mo  Mo11  1  0.33334940  0.66667486  0.47603529  1
  H  H12  1  0.42061282  0.04983790  0.81397083  1
  H  H13  1  0.62922504  0.57938476  0.81397103  1
  H  H14  1  0.95016027  0.37077627  0.81397069  1
  H  H15  1  0.57938718  0.95016210  0.31397083  1
  H  H16  1  0.37077496  0.42061524  0.31397103  1
  H  H17  1  0.04983973  0.62922373  0.31397069  1
  H  H18  1  0.57938718  0.95016210  0.18602917  1
  H  H19  1  0.37077496  0.42061524  0.18602897  1
  H  H20  1  0.04983973  0.62922373  0.18602931  1
  H  H21  1  0.42061282  0.04983790  0.68602917  1
  H  H22  1  0.62922504  0.57938476  0.68602897  1
  H  H23  1  0.95016027  0.37077627  0.68602931  1
  H  H24  1  0.74790209  0.66434655  0.04877349  1
  H  H25  1  0.91644591  0.25209767  0.04877484  1
  H  H26  1  0.33564900  0.08355213  0.04877580  1
  H  H27  1  0.25209791  0.33565345  0.54877349  1
  H  H28  1  0.08355409  0.74790233  0.54877484  1
  H  H29  1  0.66435100  0.91644787  0.54877580  1
  H  H30  1  0.25209791  0.33565345  0.95122651  1
  H  H31  1  0.08355409  0.74790233  0.95122516  1
  H  H32  1  0.66435100  0.91644787  0.95122420  1
  H  H33  1  0.74790209  0.66434655  0.45122651  1
  H  H34  1  0.91644591  0.25209767  0.45122516  1
  H  H35  1  0.33564900  0.08355213  0.45122420  1
  H  H36  1  0.67611727  0.76087424  0.10014415  1
  H  H37  1  0.08475998  0.32388826  0.10014270  1
  H  H38  1  0.23912675  0.91523824  0.10014208  1
  H  H39  1  0.32388273  0.23912576  0.60014415  1
  H  H40  1  0.91524002  0.67611174  0.60014270  1
  H  H41  1  0.76087325  0.08476176  0.60014208  1
  H  H42  1  0.32388273  0.23912576  0.89985585  1
  H  H43  1  0.91524002  0.67611174  0.89985730  1
  H  H44  1  0.76087325  0.08476176  0.89985792  1
  H  H45  1  0.67611727  0.76087424  0.39985585  1
  H  H46  1  0.08475998  0.32388826  0.39985730  1
  H  H47  1  0.23912675  0.91523824  0.39985792  1
  O  O48  1  0.33337406  0.66668675  0.87914614  1
  O  O49  1  0.66662594  0.33331325  0.37914614  1
  O  O50  1  0.66662594  0.33331325  0.12085386  1
  O  O51  1  0.33337406  0.66668675  0.62085386  1
  O  O52  1  0.18621175  0.71466788  0.07106539  1
  O  O53  1  0.52847973  0.81380841  0.07108084  1
  O  O54  1  0.28534341  0.47154138  0.07106953  1
  O  O55  1  0.81378825  0.28533212  0.57106539  1
  O  O56  1  0.47152027  0.18619159  0.57108084  1
  O  O57  1  0.71465659  0.52845862  0.57106953  1
  O  O58  1  0.81378825  0.28533212  0.92893461  1
  O  O59  1  0.47152027  0.18619159  0.92891916  1
  O  O60  1  0.71465659  0.52845862  0.92893047  1
  O  O61  1  0.18621175  0.71466788  0.42893461  1
  O  O62  1  0.52847973  0.81380841  0.42891916  1
  O  O63  1  0.28534341  0.47154138  0.42893047  1
  O  O64  1  0.39347152  0.97924549  0.75000000  1
  O  O65  1  0.58577673  0.60652731  0.75000000  1
  O  O66  1  0.02075190  0.41422608  0.75000000  1
  O  O67  1  0.60652848  0.02075451  0.25000000  1
  O  O68  1  0.41422327  0.39347269  0.25000000  1
  O  O69  1  0.97924810  0.58577392  0.25000000  1
  O  O70  1  0.75677131  0.72876297  0.11298326  1
  O  O71  1  0.97199177  0.24323152  0.11298230  1
  O  O72  1  0.27123638  0.02800903  0.11298132  1
  O  O73  1  0.24322869  0.27123703  0.61298326  1
  O  O74  1  0.02800823  0.75676848  0.61298230  1
  O  O75  1  0.72876362  0.97199097  0.61298132  1
  O  O76  1  0.24322869  0.27123703  0.88701674  1
  O  O77  1  0.02800823  0.75676848  0.88701770  1
  O  O78  1  0.72876362  0.97199097  0.88701868  1
  O  O79  1  0.75677131  0.72876297  0.38701674  1
  O  O80  1  0.97199177  0.24323152  0.38701770  1
  O  O81  1  0.27123638  0.02800903  0.38701868  1
