# generated using pymatgen
data_SbHC2NCl11
_symmetry_space_group_name_H-M   'P 1'
_cell_length_a   11.42278422
_cell_length_b   10.47163267
_cell_length_c   14.89337356
_cell_angle_alpha   90.00000000
_cell_angle_beta   106.30271027
_cell_angle_gamma   90.00000000
_symmetry_Int_Tables_number   1
_chemical_formula_structural   SbHC2NCl11
_chemical_formula_sum   'Sb4 H4 C8 N4 Cl44'
_cell_volume   1709.84438708
_cell_formula_units_Z   4
loop_
 _symmetry_equiv_pos_site_id
 _symmetry_equiv_pos_as_xyz
  1  'x, y, z'
loop_
 _atom_site_type_symbol
 _atom_site_label
 _atom_site_symmetry_multiplicity
 _atom_site_fract_x
 _atom_site_fract_y
 _atom_site_fract_z
 _atom_site_occupancy
  Sb  Sb0  1  0.99246909  0.28663959  0.69710673  1
  Sb  Sb1  1  0.49246909  0.21336041  0.19710673  1
  Sb  Sb2  1  0.00753091  0.71336041  0.30289327  1
  Sb  Sb3  1  0.50753091  0.78663959  0.80289327  1
  H  H4  1  0.31240235  0.18319724  0.68135810  1
  H  H5  1  0.81240235  0.31680276  0.18135810  1
  H  H6  1  0.68759765  0.81680276  0.31864190  1
  H  H7  1  0.18759765  0.68319724  0.81864190  1
  C  C8  1  0.40170174  0.23945917  0.57824956  1
  C  C9  1  0.90170174  0.26054083  0.07824956  1
  C  C10  1  0.59829826  0.76054083  0.42175044  1
  C  C11  1  0.09829826  0.73945917  0.92175044  1
  C  C12  1  0.46938054  0.26936299  0.75314369  1
  C  C13  1  0.96938054  0.23063701  0.25314369  1
  C  C14  1  0.53061946  0.73063701  0.24685631  1
  C  C15  1  0.03061946  0.76936299  0.74685631  1
  N  N16  1  0.39205530  0.22771639  0.67584784  1
  N  N17  1  0.89205530  0.27228361  0.17584784  1
  N  N18  1  0.60794470  0.77228361  0.32415216  1
  N  N19  1  0.10794470  0.72771639  0.82415216  1
  Cl  Cl20  1  0.13542486  0.10739016  0.71487949  1
  Cl  Cl21  1  0.63542486  0.39260984  0.21487949  1
  Cl  Cl22  1  0.86457514  0.89260984  0.28512051  1
  Cl  Cl23  1  0.36457514  0.60739016  0.78512051  1
  Cl  Cl24  1  0.85308367  0.46305845  0.67963517  1
  Cl  Cl25  1  0.35308367  0.03694155  0.17963517  1
  Cl  Cl26  1  0.14691633  0.53694155  0.32036483  1
  Cl  Cl27  1  0.64691633  0.96305845  0.82036483  1
  Cl  Cl28  1  0.12896134  0.38603045  0.83233646  1
  Cl  Cl29  1  0.62896134  0.11396955  0.33233646  1
  Cl  Cl30  1  0.87103866  0.61396955  0.16766354  1
  Cl  Cl31  1  0.37103866  0.88603045  0.66766354  1
  Cl  Cl32  1  0.09548043  0.39188758  0.59755957  1
  Cl  Cl33  1  0.59548043  0.10811242  0.09755957  1
  Cl  Cl34  1  0.90451957  0.60811242  0.40244043  1
  Cl  Cl35  1  0.40451957  0.89188758  0.90244043  1
  Cl  Cl36  1  0.89373044  0.17717316  0.79760738  1
  Cl  Cl37  1  0.39373044  0.32282684  0.29760738  1
  Cl  Cl38  1  0.10626956  0.82282684  0.20239262  1
  Cl  Cl39  1  0.60626956  0.67717316  0.70239262  1
  Cl  Cl40  1  0.86051838  0.17816846  0.56413844  1
  Cl  Cl41  1  0.36051838  0.32183154  0.06413844  1
  Cl  Cl42  1  0.13948162  0.82183154  0.43586156  1
  Cl  Cl43  1  0.63948162  0.67816846  0.93586156  1
  Cl  Cl44  1  0.53991303  0.17318153  0.56832001  1
  Cl  Cl45  1  0.03991303  0.32681847  0.06832001  1
  Cl  Cl46  1  0.46008697  0.82681847  0.43167999  1
  Cl  Cl47  1  0.96008697  0.67318153  0.93167999  1
  Cl  Cl48  1  0.39025663  0.40299053  0.54559561  1
  Cl  Cl49  1  0.89025663  0.09700947  0.04559561  1
  Cl  Cl50  1  0.60974337  0.59700947  0.45440439  1
  Cl  Cl51  1  0.10974337  0.90299053  0.95440439  1
  Cl  Cl52  1  0.27665189  0.15134477  0.50808712  1
  Cl  Cl53  1  0.77665189  0.34865523  0.00808712  1
  Cl  Cl54  1  0.72334811  0.84865523  0.49191288  1
  Cl  Cl55  1  0.22334811  0.65134477  0.99191288  1
  Cl  Cl56  1  0.43838403  0.24522680  0.85512305  1
  Cl  Cl57  1  0.93838403  0.25477320  0.35512305  1
  Cl  Cl58  1  0.56161597  0.75477320  0.14487695  1
  Cl  Cl59  1  0.06161597  0.74522680  0.64487695  1
  Cl  Cl60  1  0.59733499  0.34606492  0.75385967  1
  Cl  Cl61  1  0.09733499  0.15393508  0.25385967  1
  Cl  Cl62  1  0.40266501  0.65393508  0.24614033  1
  Cl  Cl63  1  0.90266501  0.84606492  0.74614033  1
