# generated using pymatgen
data_NaMg14Mn
_symmetry_space_group_name_H-M   'P 1'
_cell_length_a   6.39357139
_cell_length_b   6.39357086
_cell_length_c   10.24546203
_cell_angle_alpha   90.00000000
_cell_angle_beta   90.00000000
_cell_angle_gamma   120.00000267
_symmetry_Int_Tables_number   1
_chemical_formula_structural   NaMg14Mn
_chemical_formula_sum   'Na1 Mg14 Mn1'
_cell_volume   362.70134835
_cell_formula_units_Z   1
loop_
 _symmetry_equiv_pos_site_id
 _symmetry_equiv_pos_as_xyz
  1  'x, y, z'
loop_
 _atom_site_type_symbol
 _atom_site_label
 _atom_site_symmetry_multiplicity
 _atom_site_fract_x
 _atom_site_fract_y
 _atom_site_fract_z
 _atom_site_occupancy
  Na  Na0  1  0.16666700  0.33333300  0.62500000  1
  Mg  Mg1  1  0.16661956  0.83330928  0.12500000  1
  Mg  Mg2  1  0.17006509  0.83503204  0.62500000  1
  Mg  Mg3  1  0.66669072  0.33338044  0.12500000  1
  Mg  Mg4  1  0.66496796  0.32993491  0.62500000  1
  Mg  Mg5  1  0.66669072  0.83330928  0.12500000  1
  Mg  Mg6  1  0.66496796  0.83503204  0.62500000  1
  Mg  Mg7  1  0.33135116  0.16864884  0.36585600  1
  Mg  Mg8  1  0.33135116  0.16864884  0.88414400  1
  Mg  Mg9  1  0.33135116  0.66270332  0.36585600  1
  Mg  Mg10  1  0.33135116  0.66270332  0.88414400  1
  Mg  Mg11  1  0.83729668  0.16864884  0.36585600  1
  Mg  Mg12  1  0.83729668  0.16864884  0.88414400  1
  Mg  Mg13  1  0.83333300  0.66666700  0.37698199  1
  Mg  Mg14  1  0.83333300  0.66666700  0.87301801  1
  Mn  Mn15  1  0.16666700  0.33333300  0.12500000  1
