# generated using pymatgen
data_KSr3La8Mn12O36
_symmetry_space_group_name_H-M   'P 1'
_cell_length_a   5.52132196
_cell_length_b   33.11630106
_cell_length_c   9.53692047
_cell_angle_alpha   30.23720540
_cell_angle_beta   55.20735563
_cell_angle_gamma   60.46364241
_symmetry_Int_Tables_number   1
_chemical_formula_structural   KSr3La8Mn12O36
_chemical_formula_sum   'K1 Sr3 La8 Mn12 O36'
_cell_volume   721.14611899
_cell_formula_units_Z   1
loop_
 _symmetry_equiv_pos_site_id
 _symmetry_equiv_pos_as_xyz
  1  'x, y, z'
loop_
 _atom_site_type_symbol
 _atom_site_label
 _atom_site_symmetry_multiplicity
 _atom_site_fract_x
 _atom_site_fract_y
 _atom_site_fract_z
 _atom_site_occupancy
  K  K0  1  0.75000000  0.83336703  0.74989791  1
  Sr  Sr1  1  0.25000000  0.16727408  0.24817875  1
  Sr  Sr2  1  0.25000000  0.33243399  0.25269703  1
  Sr  Sr3  1  0.25000000  0.49949138  0.25152585  1
  La  La4  1  0.75000000  0.16623387  0.75129940  1
  La  La5  1  0.25000000  0.66792438  0.24622786  1
  La  La6  1  0.75000000  0.33340994  0.74976917  1
  La  La7  1  0.25000000  0.83423297  0.24730009  1
  La  La8  1  0.75000000  0.49805884  0.75582348  1
  La  La9  1  0.25000000  0.99857573  0.25427281  1
  La  La10  1  0.75000000  0.66796288  0.74611235  1
  La  La11  1  0.75000000  0.00092810  0.74721571  1
  Mn  Mn12  1  0.99893161  0.99947467  0.00214473  1
  Mn  Mn13  1  0.99864768  0.49983658  0.00120150  1
  Mn  Mn14  1  0.50014272  0.16733076  0.49748546  1
  Mn  Mn15  1  0.99985728  0.16733076  0.99853199  1
  Mn  Mn16  1  0.50019029  0.33330002  0.50002071  1
  Mn  Mn17  1  0.99980971  0.33330002  0.00017716  1
  Mn  Mn18  1  0.50135232  0.49983658  0.49977902  1
  Mn  Mn19  1  0.50016820  0.66707234  0.49816394  1
  Mn  Mn20  1  0.99983180  0.66707234  0.99940402  1
  Mn  Mn21  1  0.49723806  0.83303710  0.50394453  1
  Mn  Mn22  1  0.00276194  0.83303710  0.99783088  1
  Mn  Mn23  1  0.50106839  0.99947467  0.50100722  1
  O  O24  1  0.29884831  0.09004484  0.20177614  1
  O  O25  1  0.25000000  0.01265524  0.71203427  1
  O  O26  1  0.20115169  0.09004484  0.75795283  1
  O  O27  1  0.30101157  0.25797506  0.20042195  1
  O  O28  1  0.80195939  0.07459971  0.25118474  1
  O  O29  1  0.25000000  0.17784493  0.71646621  1
  O  O30  1  0.75000000  0.14986372  0.30040985  1
  O  O31  1  0.19898843  0.25797506  0.75172770  1
  O  O32  1  0.69804061  0.07459971  0.80121501  1
  O  O33  1  0.30005077  0.42536479  0.19776775  1
  O  O34  1  0.78863919  0.24278962  0.25282445  1
  O  O35  1  0.25000000  0.34616672  0.71149883  1
  O  O36  1  0.75000000  0.31672182  0.29983354  1
  O  O37  1  0.19994923  0.42536479  0.75004553  1
  O  O38  1  0.71136081  0.24278962  0.79043784  1
  O  O39  1  0.29697540  0.59237667  0.20352637  1
  O  O40  1  0.79003336  0.41062574  0.24789408  1
  O  O41  1  0.25000000  0.51791710  0.69624870  1
  O  O42  1  0.75000000  0.48331396  0.30005812  1
  O  O43  1  0.20302460  0.59237667  0.74221164  1
  O  O44  1  0.70996664  0.41062574  0.78835350  1
  O  O45  1  0.26883690  0.75353062  0.23152744  1
  O  O46  1  0.78571981  0.57702550  0.25181935  1
  O  O47  1  0.25000000  0.68310443  0.70068770  1
  O  O48  1  0.75000000  0.64803579  0.30589362  1
  O  O49  1  0.23116310  0.75353062  0.74728884  1
  O  O50  1  0.71428019  0.57702550  0.78602565  1
  O  O51  1  0.30481192  0.92604784  0.19384527  1
  O  O52  1  0.79502765  0.73867735  0.27026046  1
  O  O53  1  0.25000000  0.85013065  0.69960706  1
  O  O54  1  0.75000000  0.81816136  0.29551491  1
  O  O55  1  0.19518808  0.92604784  0.74986968  1
  O  O56  1  0.70497235  0.73867735  0.79767544  1
  O  O57  1  0.80138858  0.91219998  0.22696087  1
  O  O58  1  0.75000000  0.99357272  0.26928183  1
  O  O59  1  0.69861142  0.91219998  0.79984127  1
