# generated using pymatgen
data_MnH5SO7
_symmetry_space_group_name_H-M   'P 1'
_cell_length_a   10.77580553
_cell_length_b   7.27400822
_cell_length_c   7.20641592
_cell_angle_alpha   90.00000000
_cell_angle_beta   97.24148796
_cell_angle_gamma   90.00000000
_symmetry_Int_Tables_number   1
_chemical_formula_structural   MnH5SO7
_chemical_formula_sum   'Mn4 H20 S4 O28'
_cell_volume   560.35712513
_cell_formula_units_Z   4
loop_
 _symmetry_equiv_pos_site_id
 _symmetry_equiv_pos_as_xyz
  1  'x, y, z'
loop_
 _atom_site_type_symbol
 _atom_site_label
 _atom_site_symmetry_multiplicity
 _atom_site_fract_x
 _atom_site_fract_y
 _atom_site_fract_z
 _atom_site_occupancy
  Mn  Mn0  1  0.50000000  0.50000000  0.50000000  1
  Mn  Mn1  1  0.00000000  0.00000000  0.00000000  1
  Mn  Mn2  1  0.50000000  0.00000000  0.50000000  1
  Mn  Mn3  1  0.00000000  0.50000000  0.00000000  1
  H  H4  1  0.47324226  0.74998700  0.72862840  1
  H  H5  1  0.97324226  0.75001300  0.22862840  1
  H  H6  1  0.52675774  0.25001300  0.27137160  1
  H  H7  1  0.02675774  0.24998700  0.77137160  1
  H  H8  1  0.75368781  0.64204547  0.50467259  1
  H  H9  1  0.25368781  0.85795453  0.00467259  1
  H  H10  1  0.24631219  0.35795453  0.49532741  1
  H  H11  1  0.74631219  0.14204547  0.99532741  1
  H  H12  1  0.76107736  0.42709365  0.49306094  1
  H  H13  1  0.26107736  0.07290635  0.99306094  1
  H  H14  1  0.23892264  0.57290635  0.50693906  1
  H  H15  1  0.73892264  0.92709365  0.00693906  1
  H  H16  1  0.76029710  0.04071433  0.48918554  1
  H  H17  1  0.26029710  0.45928567  0.98918554  1
  H  H18  1  0.23970290  0.95928567  0.51081446  1
  H  H19  1  0.73970290  0.54071433  0.01081446  1
  H  H20  1  0.73740380  0.99224447  0.69477226  1
  H  H21  1  0.23740380  0.50775553  0.19477226  1
  H  H22  1  0.26259620  0.00775553  0.30522774  1
  H  H23  1  0.76259620  0.49224447  0.80522774  1
  S  S24  1  0.52100620  0.74597168  0.13381323  1
  S  S25  1  0.02100620  0.75402832  0.63381323  1
  S  S26  1  0.47899380  0.25402832  0.86618677  1
  S  S27  1  0.97899380  0.24597168  0.36618677  1
  O  O28  1  0.48121509  0.58263375  0.24300636  1
  O  O29  1  0.98121509  0.91736625  0.74300636  1
  O  O30  1  0.51878491  0.41736625  0.75699364  1
  O  O31  1  0.01878491  0.08263375  0.25699364  1
  O  O32  1  0.50076095  0.91748574  0.24458122  1
  O  O33  1  0.00076095  0.58251426  0.74458122  1
  O  O34  1  0.49923905  0.08251426  0.75541878  1
  O  O35  1  0.99923905  0.41748574  0.25541878  1
  O  O36  1  0.43671681  0.75450465  0.95986899  1
  O  O37  1  0.93671681  0.74549535  0.45986899  1
  O  O38  1  0.56328319  0.24549535  0.04013101  1
  O  O39  1  0.06328319  0.25450465  0.54013101  1
  O  O40  1  0.65372968  0.73081464  0.10983098  1
  O  O41  1  0.15372968  0.76918536  0.60983098  1
  O  O42  1  0.34627032  0.26918536  0.89016902  1
  O  O43  1  0.84627032  0.23081464  0.39016902  1
  O  O44  1  0.48208205  0.74906091  0.59253317  1
  O  O45  1  0.98208205  0.75093909  0.09253317  1
  O  O46  1  0.51791795  0.25093909  0.40746683  1
  O  O47  1  0.01791795  0.24906091  0.90746683  1
  O  O48  1  0.71721448  0.52887673  0.54948416  1
  O  O49  1  0.21721448  0.97112327  0.04948416  1
  O  O50  1  0.28278552  0.47112327  0.45051584  1
  O  O51  1  0.78278552  0.02887673  0.95051584  1
  O  O52  1  0.70639613  0.96707787  0.56225323  1
  O  O53  1  0.20639613  0.53292213  0.06225323  1
  O  O54  1  0.29360387  0.03292213  0.43774677  1
  O  O55  1  0.79360387  0.46707787  0.93774677  1
