# generated using pymatgen
data_Li2Ti4Ni(PO5)4
_symmetry_space_group_name_H-M   'P 1'
_cell_length_a   6.46792210
_cell_length_b   7.31638094
_cell_length_c   7.42793550
_cell_angle_alpha   90.19003736
_cell_angle_beta   90.26865056
_cell_angle_gamma   90.75905068
_symmetry_Int_Tables_number   1
_chemical_formula_structural   Li2Ti4Ni(PO5)4
_chemical_formula_sum   'Li2 Ti4 Ni1 P4 O20'
_cell_volume   351.46642859
_cell_formula_units_Z   1
loop_
 _symmetry_equiv_pos_site_id
 _symmetry_equiv_pos_as_xyz
  1  'x, y, z'
loop_
 _atom_site_type_symbol
 _atom_site_label
 _atom_site_symmetry_multiplicity
 _atom_site_fract_x
 _atom_site_fract_y
 _atom_site_fract_z
 _atom_site_occupancy
  Li  Li0  1  0.00000000  0.00000000  0.00000000  1
  Li  Li1  1  0.50000000  0.00000000  0.00000000  1
  Ti  Ti2  1  0.23558517  0.77365806  0.65958521  1
  Ti  Ti3  1  0.25061419  0.71943374  0.15981109  1
  Ti  Ti4  1  0.74938581  0.28056626  0.84018891  1
  Ti  Ti5  1  0.76441483  0.22634194  0.34041479  1
  Ni  Ni6  1  0.50000000  0.50000000  0.50000000  1
  P  P7  1  0.25417470  0.36875731  0.87162647  1
  P  P8  1  0.25031546  0.12542538  0.37260180  1
  P  P9  1  0.74968454  0.87457462  0.62739820  1
  P  P10  1  0.74582530  0.63124269  0.12837353  1
  O  O11  1  0.05615106  0.24911548  0.86186291  1
  O  O12  1  0.05811653  0.24730595  0.37062016  1
  O  O13  1  0.25092146  0.00983062  0.54586402  1
  O  O14  1  0.24767382  0.48588377  0.04523719  1
  O  O15  1  0.24478619  0.83646861  0.88559924  1
  O  O16  1  0.27861146  0.65640834  0.38439109  1
  O  O17  1  0.27213473  0.49557711  0.70443036  1
  O  O18  1  0.25140793  0.00012372  0.20261540  1
  O  O19  1  0.44187687  0.24159922  0.87963770  1
  O  O20  1  0.44183840  0.25395583  0.36886796  1
  O  O21  1  0.55816160  0.74604417  0.63113204  1
  O  O22  1  0.55812313  0.75840078  0.12036230  1
  O  O23  1  0.74859207  -0.00012372  0.79738460  1
  O  O24  1  0.72786527  0.50442289  0.29556964  1
  O  O25  1  0.72138854  0.34359166  0.61560891  1
  O  O26  1  0.75521381  0.16353139  0.11440076  1
  O  O27  1  0.75232618  0.51411623  0.95476281  1
  O  O28  1  0.74907854  0.99016938  0.45413598  1
  O  O29  1  0.94188347  0.75269405  0.62937984  1
  O  O30  1  0.94384894  0.75088452  0.13813709  1
