# generated using pymatgen
data_Sr20P12Br(O16F)3
_symmetry_space_group_name_H-M   'P 1'
_cell_length_a   9.90158101
_cell_length_b   9.90158404
_cell_length_c   29.35179198
_cell_angle_alpha   90.00000672
_cell_angle_beta   90.00000081
_cell_angle_gamma   120.00001596
_symmetry_Int_Tables_number   1
_chemical_formula_structural   Sr20P12Br(O16F)3
_chemical_formula_sum   'Sr40 P24 Br2 O96 F6'
_cell_volume   2492.15130403
_cell_formula_units_Z   2
loop_
 _symmetry_equiv_pos_site_id
 _symmetry_equiv_pos_as_xyz
  1  'x, y, z'
loop_
 _atom_site_type_symbol
 _atom_site_label
 _atom_site_symmetry_multiplicity
 _atom_site_fract_x
 _atom_site_fract_y
 _atom_site_fract_z
 _atom_site_occupancy
  Sr  Sr0  1  0.26117783  0.98836311  0.06260562  1
  Sr  Sr1  1  0.24360501  0.99244989  0.56166635  1
  Sr  Sr2  1  0.23942778  0.99375025  0.31359153  1
  Sr  Sr3  1  0.24390155  0.99241876  0.81169380  1
  Sr  Sr4  1  0.01163697  0.27281475  0.06260563  1
  Sr  Sr5  1  0.00625001  0.24567705  0.31359167  1
  Sr  Sr6  1  0.00755054  0.25115566  0.56166633  1
  Sr  Sr7  1  0.00758179  0.25148310  0.81169390  1
  Sr  Sr8  1  0.33333310  0.66666685  0.12619329  1
  Sr  Sr9  1  0.33333319  0.66666670  0.37516402  1
  Sr  Sr10  1  0.33333312  0.66666658  0.25094779  1
  Sr  Sr11  1  0.33333304  0.66666670  0.62464014  1
  Sr  Sr12  1  0.33333309  0.66666681  0.49941873  1
  Sr  Sr13  1  0.33333313  0.66666690  0.87462440  1
  Sr  Sr14  1  0.33333302  0.66666676  0.74921492  1
  Sr  Sr15  1  0.33333299  0.66666688  0.99941772  1
  Sr  Sr16  1  0.26809900  0.25682494  0.18717456  1
  Sr  Sr17  1  0.24955025  0.24212080  0.43653552  1
  Sr  Sr18  1  0.25144458  0.24388373  0.68669839  1
  Sr  Sr19  1  0.25090066  0.24349021  0.93703901  1
  Sr  Sr20  1  0.72718539  0.73882232  0.06260559  1
  Sr  Sr21  1  0.74851695  0.75609847  0.81169382  1
  Sr  Sr22  1  0.75432299  0.76057213  0.31359157  1
  Sr  Sr23  1  0.74884442  0.75639495  0.56166627  1
  Sr  Sr24  1  0.66666690  0.33333323  0.99750757  1
  Sr  Sr25  1  0.66666693  0.33333338  0.12437195  1
  Sr  Sr26  1  0.66666672  0.33333309  0.25188113  1
  Sr  Sr27  1  0.66666686  0.33333330  0.49992885  1
  Sr  Sr28  1  0.66666696  0.33333309  0.37545119  1
  Sr  Sr29  1  0.66666697  0.33333327  0.87376801  1
  Sr  Sr30  1  0.66666713  0.33333345  0.74954453  1
  Sr  Sr31  1  0.66666683  0.33333312  0.62422496  1
  Sr  Sr32  1  0.98872572  0.73190104  0.18717451  1
  Sr  Sr33  1  0.99257112  0.75045016  0.43653553  1
  Sr  Sr34  1  0.99243937  0.74855583  0.68669842  1
  Sr  Sr35  1  0.99258999  0.74909899  0.93703899  1
  Sr  Sr36  1  0.74317512  0.01127367  0.18717458  1
  Sr  Sr37  1  0.75787944  0.00742869  0.43653545  1
  Sr  Sr38  1  0.75611650  0.00756056  0.68669840  1
  Sr  Sr39  1  0.75650974  0.00740965  0.93703891  1
  P  P40  1  0.03490865  0.40570994  0.18774676  1
  P  P41  1  0.02963136  0.39864943  0.43776685  1
  P  P42  1  0.02930104  0.39780407  0.68756642  1
  P  P43  1  0.02970623  0.39770898  0.93737826  1
  P  P44  1  0.37080128  0.96509124  0.18774686  1
  P  P45  1  0.36901812  0.97036864  0.43776697  1
  P  P46  1  0.36850356  0.97069900  0.68756639  1
  P  P47  1  0.36800290  0.97029369  0.93737821  1
  P  P48  1  0.39808081  0.36528870  0.06189540  1
  P  P49  1  0.40444582  0.37330248  0.31292426  1
  P  P50  1  0.39775999  0.36849165  0.56253264  1
  P  P51  1  0.39771944  0.36848943  0.81258311  1
  P  P52  1  0.59429002  0.62919885  0.18774683  1
  P  P53  1  0.60135082  0.63098207  0.43776698  1
  P  P54  1  0.60219587  0.63149673  0.68756638  1
  P  P55  1  0.60229067  0.63199696  0.93737825  1
  P  P56  1  0.63471145  0.03279212  0.06189537  1
  P  P57  1  0.62669734  0.03114305  0.31292428  1
  P  P58  1  0.63150808  0.02926869  0.56253261  1
  P  P59  1  0.63151071  0.02922997  0.81258307  1
  P  P60  1  0.96720774  0.60191896  0.06189540  1
  P  P61  1  0.96885712  0.59555443  0.31292432  1
  P  P62  1  0.97073190  0.60224014  0.56253262  1
  P  P63  1  0.97077020  0.60228052  0.81258311  1
  Br  Br64  1  0.00000005  0.99999991  0.11102179  1
  Br  Br65  1  0.00000010  0.00000001  0.23672347  1
  O  O66  1  0.26511068  0.91290139  0.14457550  1
  O  O67  1  0.26796763  0.91016972  0.23087430  1
  O  O68  1  0.26185586  0.91860382  0.39506085  1
  O  O69  1  0.26125282  0.91933511  0.64489908  1
  O  O70  1  0.26194569  0.91792364  0.73053878  1
  O  O71  1  0.26224863  0.91721630  0.48062686  1
  O  O72  1  0.26080142  0.91831703  0.89471863  1
  O  O73  1  0.26131073  0.91698337  0.98026590  1
  O  O74  1  0.14682743  0.66726681  0.06286634  1
  O  O75  1  0.14906044  0.66792749  0.31285804  1
  O  O76  1  0.15044105  0.67023344  0.56284319  1
  O  O77  1  0.15045186  0.67015149  0.81286148  1
  O  O78  1  0.12307597  0.58781279  0.18650053  1
  O  O79  1  0.11734408  0.58075939  0.43757309  1
  O  O80  1  0.11754587  0.58000363  0.68746607  1
  O  O81  1  0.11693884  0.57987414  0.93757771  1
  O  O82  1  0.08709861  0.35220933  0.14457557  1
  O  O83  1  0.08139610  0.34325222  0.39506084  1
  O  O84  1  0.08982997  0.35779842  0.23087439  1
  O  O85  1  0.08066484  0.34191787  0.64489910  1
  O  O86  1  0.08278406  0.34503260  0.48062675  1
  O  O87  1  0.08168284  0.34248447  0.89471866  1
  O  O88  1  0.08207598  0.34402218  0.73053874  1
  O  O89  1  0.08301702  0.34432811  0.98026590  1
  O  O90  1  0.46341519  0.88265604  0.43757313  1
  O  O91  1  0.46473617  0.87692365  0.18650060  1
  O  O92  1  0.46293480  0.88306062  0.93757783  1
  O  O93  1  0.46245733  0.88245365  0.68746602  1
  O  O94  1  0.33273289  0.47956036  0.06286646  1
  O  O95  1  0.33207266  0.48113291  0.31285794  1
  O  O96  1  0.32976662  0.48020827  0.56284317  1
  O  O97  1  0.32984836  0.48030018  0.81286158  1
  O  O98  1  0.52043872  0.85317239  0.06286640  1
  O  O99  1  0.51886684  0.85093929  0.31285806  1
  O  O100  1  0.51969931  0.84954760  0.81286147  1
  O  O101  1  0.51979185  0.84955849  0.56284322  1
  O  O102  1  0.41218710  0.53526346  0.18650046  1
  O  O103  1  0.41924049  0.53658455  0.43757313  1
  O  O104  1  0.41999651  0.53754246  0.68746597  1
  O  O105  1  0.42012556  0.53706480  0.93757769  1
  O  O106  1  0.36617969  0.27087923  0.10649410  1
  O  O107  1  0.32489279  0.24907100  0.02148540  1
  O  O108  1  0.34758474  0.26400397  0.35517797  1
  O  O109  1  0.35756015  0.27032910  0.26930973  1
  O  O110  1  0.34198386  0.26137126  0.51983606  1
  O  O111  1  0.34397992  0.26187134  0.60549296  1
  O  O112  1  0.34188300  0.26133903  0.76989046  1
  O  O113  1  0.34398774  0.26186692  0.85554614  1
  O  O114  1  0.64779086  0.73488929  0.14457552  1
  O  O115  1  0.64220179  0.73203230  0.23087427  1
  O  O116  1  0.65674788  0.73814392  0.39506096  1
  O  O117  1  0.65496753  0.73775125  0.48062692  1
  O  O118  1  0.65808247  0.73874691  0.64489891  1
  O  O119  1  0.65597815  0.73805395  0.73053879  1
  O  O120  1  0.65751580  0.73919855  0.89471865  1
  O  O121  1  0.65567228  0.73868863  0.98026587  1
  O  O122  1  0.57922918  0.45863414  0.05611960  1
  O  O123  1  0.58625567  0.46945893  0.31427036  1
  O  O124  1  0.57999228  0.46248262  0.56246217  1
  O  O125  1  0.57996832  0.46243719  0.81244246  1
  O  O126  1  0.48337970  0.14506933  0.18728898  1
  O  O127  1  0.47995156  0.15016980  0.43801882  1
  O  O128  1  0.48022075  0.15042469  0.68782769  1
  O  O129  1  0.47877835  0.15015072  0.93739211  1
  O  O130  1  0.66168966  0.51662056  0.18728909  1
  O  O131  1  0.67021815  0.52004844  0.43801897  1
  O  O132  1  0.67020440  0.51977973  0.68782765  1
  O  O133  1  0.67137205  0.52122133  0.93739205  1
  O  O134  1  0.54136609  0.12059552  0.05611976  1
  O  O135  1  0.53054071  0.11679654  0.31427033  1
  O  O136  1  0.53756295  0.11753106  0.81244248  1
  O  O137  1  0.53751753  0.11750999  0.56246199  1
  O  O138  1  0.92417787  0.67510659  0.02148527  1
  O  O139  1  0.91276898  0.64243978  0.26930978  1
  O  O140  1  0.90469946  0.63382009  0.10649407  1
  O  O141  1  0.91945578  0.65811687  0.76989046  1
  O  O142  1  0.91641915  0.65241540  0.35517806  1
  O  O143  1  0.91938718  0.65801606  0.51983593  1
  O  O144  1  0.91789100  0.65602025  0.60549300  1
  O  O145  1  0.91787932  0.65601210  0.85554609  1
  O  O146  1  0.87940456  0.42077049  0.05611966  1
  O  O147  1  0.88320395  0.41374424  0.31427032  1
  O  O148  1  0.88249027  0.42000801  0.56246218  1
  O  O149  1  0.88246931  0.42003164  0.81244239  1
  O  O150  1  0.85493100  0.33831084  0.18728898  1
  O  O151  1  0.84983081  0.32978208  0.43801883  1
  O  O152  1  0.84984933  0.32862772  0.93739210  1
  O  O153  1  0.84957572  0.32979595  0.68782776  1
  O  O154  1  0.75092871  0.07582158  0.02148519  1
  O  O155  1  0.72912080  0.09529991  0.10649401  1
  O  O156  1  0.72967080  0.08723093  0.26930972  1
  O  O157  1  0.73862907  0.08061309  0.51983599  1
  O  O158  1  0.73599631  0.08358079  0.35517798  1
  O  O159  1  0.73812864  0.08210968  0.60549301  1
  O  O160  1  0.73866133  0.08054443  0.76989051  1
  O  O161  1  0.73813338  0.08212062  0.85554625  1
  F  F162  1  0.00000039  0.00000013  0.44276510  1
  F  F163  1  0.00000003  0.99999983  0.33756380  1
  F  F164  1  0.99999969  0.99999979  0.56359062  1
  F  F165  1  0.00000023  0.00000037  0.68829008  1
  F  F166  1  0.99999996  -0.00000006  0.81340711  1
  F  F167  1  0.00000015  0.99999965  0.93965399  1
