# generated using pymatgen
data_Na5H7(Se2O9)2
_symmetry_space_group_name_H-M   'P 1'
_cell_length_a   6.12147108
_cell_length_b   7.37897632
_cell_length_c   10.09850176
_cell_angle_alpha   102.19120937
_cell_angle_beta   99.60586044
_cell_angle_gamma   100.74783925
_symmetry_Int_Tables_number   1
_chemical_formula_structural   Na5H7(Se2O9)2
_chemical_formula_sum   'Na5 H7 Se4 O18'
_cell_volume   427.82007385
_cell_formula_units_Z   1
loop_
 _symmetry_equiv_pos_site_id
 _symmetry_equiv_pos_as_xyz
  1  'x, y, z'
loop_
 _atom_site_type_symbol
 _atom_site_label
 _atom_site_symmetry_multiplicity
 _atom_site_fract_x
 _atom_site_fract_y
 _atom_site_fract_z
 _atom_site_occupancy
  Na  Na0  1  0.00000000  0.00000000  0.00000000  1
  Na  Na1  1  0.13353930  0.17069780  0.39638006  1
  Na  Na2  1  0.86646070  0.82930220  0.60361994  1
  Na  Na3  1  0.64607431  0.74364840  0.19526794  1
  Na  Na4  1  0.35392569  0.25635160  0.80473206  1
  H  H5  1  0.50000000  0.00000000  0.50000000  1
  H  H6  1  0.27176515  0.55676859  0.61875506  1
  H  H7  1  0.72823485  0.44323141  0.38124494  1
  H  H8  1  0.97611086  0.33956748  0.90436043  1
  H  H9  1  0.02388914  0.66043252  0.09563957  1
  H  H10  1  0.15990697  0.40086521  0.04507875  1
  H  H11  1  0.84009303  0.59913479  0.95492125  1
  Se  Se12  1  0.24642925  0.69085357  0.37332617  1
  Se  Se13  1  0.75357075  0.30914643  0.62667383  1
  Se  Se14  1  0.41210372  0.79697733  0.82351861  1
  Se  Se15  1  0.58789628  0.20302267  0.17648139  1
  O  O16  1  0.51299048  0.83970311  0.44433988  1
  O  O17  1  0.48700952  0.16029689  0.55566012  1
  O  O18  1  0.05423603  0.82030265  0.39656310  1
  O  O19  1  0.94576397  0.17969735  0.60343690  1
  O  O20  1  0.22344198  0.51472976  0.45337675  1
  O  O21  1  0.77655802  0.48527024  0.54662325  1
  O  O22  1  0.24969445  0.61080974  0.20703019  1
  O  O23  1  0.75030555  0.38919026  0.79296981  1
  O  O24  1  0.30295748  0.55871846  0.72173769  1
  O  O25  1  0.69704252  0.44128154  0.27826231  1
  O  O26  1  0.22205159  0.91724275  0.77339737  1
  O  O27  1  0.77794841  0.08275725  0.22660263  1
  O  O28  1  0.41485904  0.77074973  0.98057389  1
  O  O29  1  0.58514096  0.22925027  0.01942611  1
  O  O30  1  0.66662124  0.87607515  0.79411227  1
  O  O31  1  0.33337876  0.12392485  0.20588773  1
  O  O32  1  0.10771587  0.30521920  0.95600652  1
  O  O33  1  0.89228413  0.69478080  0.04399348  1
