# generated using pymatgen
data_Na2TiSi4H4O13
_symmetry_space_group_name_H-M   'P 1'
_cell_length_a   9.02142356
_cell_length_b   8.82164582
_cell_length_c   7.46569388
_cell_angle_alpha   90.00000000
_cell_angle_beta   112.27384499
_cell_angle_gamma   90.00000000
_symmetry_Int_Tables_number   1
_chemical_formula_structural   Na2TiSi4H4O13
_chemical_formula_sum   'Na4 Ti2 Si8 H8 O26'
_cell_volume   549.81465436
_cell_formula_units_Z   2
loop_
 _symmetry_equiv_pos_site_id
 _symmetry_equiv_pos_as_xyz
  1  'x, y, z'
loop_
 _atom_site_type_symbol
 _atom_site_label
 _atom_site_symmetry_multiplicity
 _atom_site_fract_x
 _atom_site_fract_y
 _atom_site_fract_z
 _atom_site_occupancy
  Na  Na0  1  0.19493859  0.80946988  0.21124273  1
  Na  Na1  1  0.80506141  0.30946988  0.28875727  1
  Na  Na2  1  0.80506141  0.19053012  0.78875727  1
  Na  Na3  1  0.19493859  0.69053012  0.71124273  1
  Ti  Ti4  1  0.00000000  0.00000000  0.50000000  1
  Ti  Ti5  1  0.00000000  0.50000000  0.00000000  1
  Si  Si6  1  0.15966071  0.33946160  0.69747632  1
  Si  Si7  1  0.84033929  0.83946160  0.80252368  1
  Si  Si8  1  0.84033929  0.66053840  0.30252368  1
  Si  Si9  1  0.15966071  0.16053840  0.19747632  1
  Si  Si10  1  0.31482590  0.05946482  0.90605399  1
  Si  Si11  1  0.68517410  0.55946482  0.59394601  1
  Si  Si12  1  0.68517410  0.94053518  0.09394601  1
  Si  Si13  1  0.31482590  0.44053518  0.40605399  1
  H  H14  1  0.33394414  0.89685271  0.59651453  1
  H  H15  1  0.66605586  0.39685271  0.90348547  1
  H  H16  1  0.66605586  0.10314729  0.40348547  1
  H  H17  1  0.33394414  0.60314729  0.09651453  1
  H  H18  1  0.48466507  0.81306130  0.57734883  1
  H  H19  1  0.51533493  0.31306130  0.92265117  1
  H  H20  1  0.51533493  0.18693870  0.42265117  1
  H  H21  1  0.48466507  0.68693870  0.07734883  1
  O  O22  1  0.31460713  0.24078696  0.84815336  1
  O  O23  1  0.68539287  0.74078696  0.65184664  1
  O  O24  1  0.68539287  0.75921304  0.15184664  1
  O  O25  1  0.31460713  0.25921304  0.34815336  1
  O  O26  1  0.09915856  0.46234400  0.81603851  1
  O  O27  1  0.90084144  0.96234400  0.68396149  1
  O  O28  1  0.90084144  0.53765600  0.18396149  1
  O  O29  1  0.09915856  0.03765600  0.31603851  1
  O  O30  1  0.02250633  0.22067747  0.56899134  1
  O  O31  1  0.97749367  0.72067747  0.93100866  1
  O  O32  1  0.97749367  0.77932253  0.43100866  1
  O  O33  1  0.02250633  0.27932253  0.06899134  1
  O  O34  1  0.23536703  0.44907404  0.57127705  1
  O  O35  1  0.76463297  0.94907404  0.92872295  1
  O  O36  1  0.76463297  0.55092596  0.42872295  1
  O  O37  1  0.23536703  0.05092596  0.07127705  1
  O  O38  1  0.21353802  0.96327019  0.71357631  1
  O  O39  1  0.78646198  0.46327019  0.78642369  1
  O  O40  1  0.78646198  0.03672981  0.28642369  1
  O  O41  1  0.21353802  0.53672981  0.21357631  1
  O  O42  1  0.50000000  0.50000000  0.50000000  1
  O  O43  1  0.50000000  0.00000000  0.00000000  1
  O  O44  1  0.36758932  0.81997384  0.52276776  1
  O  O45  1  0.63241068  0.31997384  0.97723224  1
  O  O46  1  0.63241068  0.18002616  0.47723224  1
  O  O47  1  0.36758932  0.68002616  0.02276776  1
