# generated using pymatgen
data_NiSn2H12(OF)6
_symmetry_space_group_name_H-M   'P 1'
_cell_length_a   6.82189204
_cell_length_b   6.98886056
_cell_length_c   7.06164070
_cell_angle_alpha   77.45168902
_cell_angle_beta   72.56852334
_cell_angle_gamma   78.40944160
_symmetry_Int_Tables_number   1
_chemical_formula_structural   NiSn2H12(OF)6
_chemical_formula_sum   'Ni1 Sn2 H12 O6 F6'
_cell_volume   310.19200471
_cell_formula_units_Z   1
loop_
 _symmetry_equiv_pos_site_id
 _symmetry_equiv_pos_as_xyz
  1  'x, y, z'
loop_
 _atom_site_type_symbol
 _atom_site_label
 _atom_site_symmetry_multiplicity
 _atom_site_fract_x
 _atom_site_fract_y
 _atom_site_fract_z
 _atom_site_occupancy
  Ni  Ni0  1  0.00000000  0.00000000  0.00000000  1
  Sn  Sn1  1  0.66483161  0.63656363  0.66894563  1
  Sn  Sn2  1  0.33516839  0.36343637  0.33105437  1
  H  H3  1  0.90936744  0.25214075  0.25280080  1
  H  H4  1  0.09063256  0.74785925  0.74719920  1
  H  H5  1  0.74714837  0.73349247  0.07764018  1
  H  H6  1  0.25285163  0.26650753  0.92235982  1
  H  H7  1  0.76142883  0.05427899  0.74903702  1
  H  H8  1  0.23857117  0.94572101  0.25096298  1
  H  H9  1  0.79095325  0.06699530  0.36100288  1
  H  H10  1  0.20904675  0.93300470  0.63899712  1
  H  H11  1  0.92133274  0.64556975  0.19492694  1
  H  H12  1  0.07866726  0.35443025  0.80507306  1
  H  H13  1  0.64731389  0.19152455  0.91569323  1
  H  H14  1  0.35268611  0.80847545  0.08430677  1
  O  O15  1  0.82944534  0.15884760  0.23118479  1
  O  O16  1  0.17055466  0.84115240  0.76881521  1
  O  O17  1  0.83337926  0.76891816  0.15184361  1
  O  O18  1  0.16662074  0.23108184  0.84815639  1
  O  O19  1  0.78539397  0.13513333  0.83691286  1
  O  O20  1  0.21460603  0.86486667  0.16308714  1
  F  F21  1  0.72103821  0.93225338  0.58719332  1
  F  F22  1  0.27896179  0.06774662  0.41280668  1
  F  F23  1  0.57790671  0.69384422  0.96734206  1
  F  F24  1  0.42209329  0.30615578  0.03265794  1
  F  F25  1  0.96748060  0.57409672  0.71009305  1
  F  F26  1  0.03251940  0.42590328  0.28990695  1
