# generated using pymatgen
data_CuSiH12(OF)6
_symmetry_space_group_name_H-M   'P 1'
_cell_length_a   11.05998217
_cell_length_b   11.05998217
_cell_length_c   11.05998225
_cell_angle_alpha   111.41839631
_cell_angle_beta   111.41839632
_cell_angle_gamma   111.41839564
_symmetry_Int_Tables_number   1
_chemical_formula_structural   CuSiH12(OF)6
_chemical_formula_sum   'Cu4 Si4 H48 O24 F24'
_cell_volume   959.07134527
_cell_formula_units_Z   4
loop_
 _symmetry_equiv_pos_site_id
 _symmetry_equiv_pos_as_xyz
  1  'x, y, z'
loop_
 _atom_site_type_symbol
 _atom_site_label
 _atom_site_symmetry_multiplicity
 _atom_site_fract_x
 _atom_site_fract_y
 _atom_site_fract_z
 _atom_site_occupancy
  Cu  Cu0  1  0.00000000  0.00000000  0.00000000  1
  Cu  Cu1  1  0.50000000  0.00000000  0.50000000  1
  Cu  Cu2  1  0.00000000  0.50000000  0.50000000  1
  Cu  Cu3  1  0.50000000  0.50000000  0.00000000  1
  Si  Si4  1  0.50000000  0.50000000  0.50000000  1
  Si  Si5  1  0.00000000  0.50000000  0.00000000  1
  Si  Si6  1  0.50000000  0.00000000  0.00000000  1
  Si  Si7  1  0.00000000  0.00000000  0.50000000  1
  H  H8  1  0.79223643  0.86584341  0.69096543  1
  H  H9  1  0.86584341  0.69096543  0.79223643  1
  H  H10  1  0.69096543  0.79223643  0.86584341  1
  H  H11  1  0.20776357  0.13415659  0.30903457  1
  H  H12  1  0.13415659  0.30903457  0.20776357  1
  H  H13  1  0.30903457  0.20776357  0.13415659  1
  H  H14  1  0.95897006  0.00493580  0.75146764  1
  H  H15  1  0.00493580  0.75146764  0.95897006  1
  H  H16  1  0.75146764  0.95897006  0.00493580  1
  H  H17  1  0.04102994  0.99506420  0.24853236  1
  H  H18  1  0.99506420  0.24853236  0.04102994  1
  H  H19  1  0.24853236  0.04102994  0.99506420  1
  H  H20  1  0.27191435  0.88406971  0.22778675  1
  H  H21  1  0.88406971  0.22778675  0.27191435  1
  H  H22  1  0.22778675  0.27191435  0.88406971  1
  H  H23  1  0.72808565  0.11593029  0.77221325  1
  H  H24  1  0.11593029  0.77221325  0.72808565  1
  H  H25  1  0.77221325  0.72808565  0.11593029  1
  H  H26  1  0.43051211  0.98280632  0.24352691  1
  H  H27  1  0.98280632  0.24352691  0.43051211  1
  H  H28  1  0.24352691  0.43051211  0.98280632  1
  H  H29  1  0.56948789  0.01719368  0.75647309  1
  H  H30  1  0.01719368  0.75647309  0.56948789  1
  H  H31  1  0.75647309  0.56948789  0.01719368  1
  H  H32  1  0.25572390  0.95238655  0.50681005  1
  H  H33  1  0.95238655  0.50681005  0.25572390  1
  H  H34  1  0.50681005  0.25572390  0.95238655  1
  H  H35  1  0.74427610  0.04761345  0.49318995  1
  H  H36  1  0.04761345  0.49318995  0.74427610  1
  H  H37  1  0.49318995  0.74427610  0.04761345  1
  H  H38  1  0.27714708  0.81736789  0.51044749  1
  H  H39  1  0.81736789  0.51044749  0.27714708  1
  H  H40  1  0.51044749  0.27714708  0.81736789  1
  H  H41  1  0.72285292  0.18263211  0.48955251  1
  H  H42  1  0.18263211  0.48955251  0.72285292  1
  H  H43  1  0.48955251  0.72285292  0.18263211  1
  H  H44  1  0.33483781  0.67388549  0.27947133  1
  H  H45  1  0.67388549  0.27947133  0.33483781  1
  H  H46  1  0.27947133  0.33483781  0.67388549  1
  H  H47  1  0.66516219  0.32611451  0.72052867  1
  H  H48  1  0.32611451  0.72052867  0.66516219  1
  H  H49  1  0.72052867  0.66516219  0.32611451  1
  H  H50  1  0.50211723  0.72073331  0.39929762  1
  H  H51  1  0.72073331  0.39929762  0.50211723  1
  H  H52  1  0.39929762  0.50211723  0.72073331  1
  H  H53  1  0.49788277  0.27926669  0.60070238  1
  H  H54  1  0.27926669  0.60070238  0.49788277  1
  H  H55  1  0.60070238  0.49788277  0.27926669  1
  O  O56  1  0.88801032  0.97118527  0.78401194  1
  O  O57  1  0.97118527  0.78401194  0.88801032  1
  O  O58  1  0.78401194  0.88801032  0.97118527  1
  O  O59  1  0.11198968  0.02881473  0.21598806  1
  O  O60  1  0.02881473  0.21598806  0.11198968  1
  O  O61  1  0.21598806  0.11198968  0.02881473  1
  O  O62  1  0.38055090  0.98238388  0.30232799  1
  O  O63  1  0.98238388  0.30232799  0.38055090  1
  O  O64  1  0.30232799  0.38055090  0.98238388  1
  O  O65  1  0.61944910  0.01761612  0.69767201  1
  O  O66  1  0.01761612  0.69767201  0.61944910  1
  O  O67  1  0.69767201  0.61944910  0.01761612  1
  O  O68  1  0.29161599  0.88628121  0.47121974  1
  O  O69  1  0.88628121  0.47121974  0.29161599  1
  O  O70  1  0.47121974  0.29161599  0.88628121  1
  O  O71  1  0.70838401  0.11371879  0.52878026  1
  O  O72  1  0.11371879  0.52878026  0.70838401  1
  O  O73  1  0.52878026  0.70838401  0.11371879  1
  O  O74  1  0.44841180  0.74386161  0.32703563  1
  O  O75  1  0.74386161  0.32703563  0.44841180  1
  O  O76  1  0.32703563  0.44841180  0.74386161  1
  O  O77  1  0.55158820  0.25613839  0.67296437  1
  O  O78  1  0.25613839  0.67296437  0.55158820  1
  O  O79  1  0.67296437  0.55158820  0.25613839  1
  F  F80  1  0.60785114  0.67210676  0.51892583  1
  F  F81  1  0.67210676  0.51892583  0.60785114  1
  F  F82  1  0.51892583  0.60785114  0.67210676  1
  F  F83  1  0.39214886  0.32789324  0.48107417  1
  F  F84  1  0.32789324  0.48107417  0.39214886  1
  F  F85  1  0.48107417  0.39214886  0.32789324  1
  F  F86  1  0.91846698  0.92069620  0.30072435  1
  F  F87  1  0.92069620  0.30072435  0.91846698  1
  F  F88  1  0.30072435  0.91846698  0.92069620  1
  F  F89  1  0.08153302  0.07930380  0.69927565  1
  F  F90  1  0.07930380  0.69927565  0.08153302  1
  F  F91  1  0.69927565  0.08153302  0.07930380  1
  F  F92  1  0.81449213  0.89883573  0.45731981  1
  F  F93  1  0.89883573  0.45731981  0.81449213  1
  F  F94  1  0.45731981  0.81449213  0.89883573  1
  F  F95  1  0.18550787  0.10116427  0.54268019  1
  F  F96  1  0.10116427  0.54268019  0.18550787  1
  F  F97  1  0.54268019  0.18550787  0.10116427  1
  F  F98  1  0.01006659  0.84214002  0.47495391  1
  F  F99  1  0.84214002  0.47495391  0.01006659  1
  F  F100  1  0.47495391  0.01006659  0.84214002  1
  F  F101  1  0.98993341  0.15785998  0.52504609  1
  F  F102  1  0.15785998  0.52504609  0.98993341  1
  F  F103  1  0.52504609  0.98993341  0.15785998  1
