# generated using pymatgen
data_H6N4O9
_symmetry_space_group_name_H-M   'P 1'
_cell_length_a   6.10595932
_cell_length_b   16.03075140
_cell_length_c   4.57028544
_cell_angle_alpha   90.00000000
_cell_angle_beta   90.00000000
_cell_angle_gamma   90.00000000
_symmetry_Int_Tables_number   1
_chemical_formula_structural   H6N4O9
_chemical_formula_sum   'H12 N8 O18'
_cell_volume   447.35377950
_cell_formula_units_Z   2
loop_
 _symmetry_equiv_pos_site_id
 _symmetry_equiv_pos_as_xyz
  1  'x, y, z'
loop_
 _atom_site_type_symbol
 _atom_site_label
 _atom_site_symmetry_multiplicity
 _atom_site_fract_x
 _atom_site_fract_y
 _atom_site_fract_z
 _atom_site_occupancy
  H  H0  1  0.04045612  0.04357146  0.09589426  1
  H  H1  1  0.04045612  0.95642854  0.90410574  1
  H  H2  1  0.95954388  0.45642854  0.59589426  1
  H  H3  1  0.95954388  0.54357146  0.40410574  1
  H  H4  1  0.24605059  0.97539188  0.16067255  1
  H  H5  1  0.24605059  0.02460812  0.83932745  1
  H  H6  1  0.75394941  0.52460812  0.66067255  1
  H  H7  1  0.75394941  0.47539188  0.33932745  1
  H  H8  1  0.87194279  0.68060119  0.79009263  1
  H  H9  1  0.87194279  0.31939881  0.20990737  1
  H  H10  1  0.12805721  0.81939881  0.29009263  1
  H  H11  1  0.12805721  0.18060119  0.70990737  1
  N  N12  1  0.85956462  0.50000000  0.50000000  1
  N  N13  1  0.14043538  0.00000000  0.00000000  1
  N  N14  1  0.59050127  0.00000000  0.50000000  1
  N  N15  1  0.40949873  0.50000000  0.00000000  1
  N  N16  1  0.77001163  0.73394448  0.13535212  1
  N  N17  1  0.77001163  0.26605552  0.86464788  1
  N  N18  1  0.22998837  0.76605552  0.63535212  1
  N  N19  1  0.22998837  0.23394448  0.36464788  1
  O  O20  1  0.79706351  0.00000000  0.50000000  1
  O  O21  1  0.20293649  0.50000000  0.00000000  1
  O  O22  1  0.48659975  0.94946824  0.33599209  1
  O  O23  1  0.48659975  0.05053176  0.66400791  1
  O  O24  1  0.51340025  0.55053176  0.83599209  1
  O  O25  1  0.51340025  0.44946824  0.16400791  1
  O  O26  1  0.71668340  0.72080253  0.38881750  1
  O  O27  1  0.71668340  0.27919747  0.61118250  1
  O  O28  1  0.28331660  0.77919747  0.88881750  1
  O  O29  1  0.28331660  0.22080253  0.11118250  1
  O  O30  1  0.87024721  0.66454268  -0.00107492  1
  O  O31  1  0.87024721  0.33545732  0.00107492  1
  O  O32  1  0.12975279  0.83545732  0.49892508  1
  O  O33  1  0.12975279  0.16454268  0.50107492  1
  O  O34  1  0.75367596  0.79770113  0.99112125  1
  O  O35  1  0.75367596  0.20229887  0.00887875  1
  O  O36  1  0.24632404  0.70229887  0.49112125  1
  O  O37  1  0.24632404  0.29770113  0.50887875  1
