# generated using pymatgen
data_BaLu2O4
_symmetry_space_group_name_H-M   'P 1'
_cell_length_a   3.39359709
_cell_length_b   10.34711734
_cell_length_c   11.98955358
_cell_angle_alpha   90.00000000
_cell_angle_beta   90.00000000
_cell_angle_gamma   90.00000000
_symmetry_Int_Tables_number   1
_chemical_formula_structural   BaLu2O4
_chemical_formula_sum   'Ba4 Lu8 O16'
_cell_volume   421.00055250
_cell_formula_units_Z   4
loop_
 _symmetry_equiv_pos_site_id
 _symmetry_equiv_pos_as_xyz
  1  'x, y, z'
loop_
 _atom_site_type_symbol
 _atom_site_label
 _atom_site_symmetry_multiplicity
 _atom_site_fract_x
 _atom_site_fract_y
 _atom_site_fract_z
 _atom_site_occupancy
  Ba  Ba0  1  0.75000000  0.25445762  0.14918621  1
  Ba  Ba1  1  0.75000000  0.75445762  0.35081379  1
  Ba  Ba2  1  0.25000000  0.74554238  0.85081379  1
  Ba  Ba3  1  0.25000000  0.24554238  0.64918621  1
  Lu  Lu4  1  0.75000000  0.42210036  0.89182748  1
  Lu  Lu5  1  0.75000000  0.92210036  0.60817252  1
  Lu  Lu6  1  0.25000000  0.57789964  0.10817252  1
  Lu  Lu7  1  0.25000000  0.07789964  0.39182748  1
  Lu  Lu8  1  0.75000000  0.92822442  0.11037185  1
  Lu  Lu9  1  0.75000000  0.42822442  0.38962815  1
  Lu  Lu10  1  0.25000000  0.07177558  0.88962815  1
  Lu  Lu11  1  0.25000000  0.57177558  0.61037185  1
  O  O12  1  0.75000000  0.20936550  0.84533003  1
  O  O13  1  0.75000000  0.70936550  0.65466997  1
  O  O14  1  0.25000000  0.79063450  0.15466997  1
  O  O15  1  0.25000000  0.29063450  0.34533003  1
  O  O16  1  0.75000000  0.11233072  0.51602028  1
  O  O17  1  0.75000000  0.61233072  0.98397972  1
  O  O18  1  0.25000000  0.88766928  0.48397972  1
  O  O19  1  0.25000000  0.38766928  0.01602028  1
  O  O20  1  0.75000000  0.01898024  0.28288765  1
  O  O21  1  0.75000000  0.51898024  0.21711235  1
  O  O22  1  0.25000000  0.98101976  0.71711235  1
  O  O23  1  0.25000000  0.48101976  0.78288765  1
  O  O24  1  0.75000000  0.43191092  0.57323951  1
  O  O25  1  0.75000000  0.93191092  0.92676049  1
  O  O26  1  0.25000000  0.56808908  0.42676049  1
  O  O27  1  0.25000000  0.06808908  0.07323951  1
