# generated using pymatgen
data_Ba2GeO4
_symmetry_space_group_name_H-M   'P 1'
_cell_length_a   7.70913888
_cell_length_b   6.04681134
_cell_length_c   10.58978154
_cell_angle_alpha   90.00480818
_cell_angle_beta   90.00000000
_cell_angle_gamma   90.00000000
_symmetry_Int_Tables_number   1
_chemical_formula_structural   Ba2GeO4
_chemical_formula_sum   'Ba8 Ge4 O16'
_cell_volume   493.65016633
_cell_formula_units_Z   4
loop_
 _symmetry_equiv_pos_site_id
 _symmetry_equiv_pos_as_xyz
  1  'x, y, z'
loop_
 _atom_site_type_symbol
 _atom_site_label
 _atom_site_symmetry_multiplicity
 _atom_site_fract_x
 _atom_site_fract_y
 _atom_site_fract_z
 _atom_site_occupancy
  Ba  Ba0  1  0.00637756  0.74646345  0.30317168  1
  Ba  Ba1  1  0.16139303  0.25456984  0.08607583  1
  Ba  Ba2  1  0.33860697  0.75456984  0.58607583  1
  Ba  Ba3  1  0.49362244  0.24646345  0.80317168  1
  Ba  Ba4  1  0.50637756  0.75353655  0.19682832  1
  Ba  Ba5  1  0.66139303  0.24543016  0.41392417  1
  Ba  Ba6  1  0.83860697  0.74543016  0.91392417  1
  Ba  Ba7  1  0.99362244  0.25353655  0.69682832  1
  Ge  Ge8  1  0.22309259  0.25102757  0.42156929  1
  Ge  Ge9  1  0.27690741  0.75102757  0.92156929  1
  Ge  Ge10  1  0.72309259  0.24897243  0.07843071  1
  Ge  Ge11  1  0.77690741  0.74897243  0.57843071  1
  O  O12  1  0.00626798  0.74834674  0.57695418  1
  O  O13  1  0.19087265  0.49430679  0.86646366  1
  O  O14  1  0.18878322  0.78912260  0.07696485  1
  O  O15  1  0.20129510  0.96947726  0.82394826  1
  O  O16  1  0.29870490  0.46947726  0.32394826  1
  O  O17  1  0.31121678  0.28912260  0.57696485  1
  O  O18  1  0.30912735  0.99430679  0.36646366  1
  O  O19  1  0.49373202  0.24834674  0.07695418  1
  O  O20  1  0.50626798  0.75165326  0.92304582  1
  O  O21  1  0.69087265  0.00569321  0.63353634  1
  O  O22  1  0.68878322  0.71087740  0.42303515  1
  O  O23  1  0.70129510  0.53052274  0.67605174  1
  O  O24  1  0.79870490  0.03052274  0.17605174  1
  O  O25  1  0.81121678  0.21087740  0.92303515  1
  O  O26  1  0.80912735  0.50569321  0.13353634  1
  O  O27  1  0.99373202  0.25165326  0.42304582  1
