# generated using pymatgen
data_Ba2B2O5
_symmetry_space_group_name_H-M   'P 1'
_cell_length_a   4.22529096
_cell_length_b   6.76494913
_cell_length_c   11.07208827
_cell_angle_alpha   106.33148270
_cell_angle_beta   90.80447614
_cell_angle_gamma   90.11711668
_symmetry_Int_Tables_number   1
_chemical_formula_structural   Ba2B2O5
_chemical_formula_sum   'Ba4 B4 O10'
_cell_volume   303.67756183
_cell_formula_units_Z   2
loop_
 _symmetry_equiv_pos_site_id
 _symmetry_equiv_pos_as_xyz
  1  'x, y, z'
loop_
 _atom_site_type_symbol
 _atom_site_label
 _atom_site_symmetry_multiplicity
 _atom_site_fract_x
 _atom_site_fract_y
 _atom_site_fract_z
 _atom_site_occupancy
  Ba  Ba0  1  0.24377159  0.77628901  0.60576960  1
  Ba  Ba1  1  0.21316058  0.32269144  0.08213970  1
  Ba  Ba2  1  0.78683942  0.67730856  0.91786030  1
  Ba  Ba3  1  0.75622841  0.22371099  0.39423040  1
  B  B4  1  0.33720073  0.35213486  0.67483257  1
  B  B5  1  0.33788232  0.86431339  0.19631237  1
  B  B6  1  0.66211768  0.13568661  0.80368763  1
  B  B7  1  0.66279927  0.64786514  0.32516743  1
  O  O8  1  0.25592642  0.32834938  0.55107576  1
  O  O9  1  0.23404434  0.06379828  0.22240437  1
  O  O10  1  0.28726551  0.53215168  0.76734607  1
  O  O11  1  0.29876495  0.71880024  0.08286735  1
  O  O12  1  0.49261418  0.17885570  0.69983464  1
  O  O13  1  0.50738582  0.82114430  0.30016536  1
  O  O14  1  0.70123505  0.28119976  0.91713265  1
  O  O15  1  0.71273449  0.46784832  0.23265393  1
  O  O16  1  0.76595566  0.93620172  0.77759563  1
  O  O17  1  0.74407358  0.67165062  0.44892424  1
