# generated using pymatgen
data_CeTh2O6
_symmetry_space_group_name_H-M   'P 1'
_cell_length_a   3.94038945
_cell_length_b   6.81707083
_cell_length_c   5.56682344
_cell_angle_alpha   65.88888436
_cell_angle_beta   89.97956815
_cell_angle_gamma   73.20296586
_symmetry_Int_Tables_number   1
_chemical_formula_structural   CeTh2O6
_chemical_formula_sum   'Ce1 Th2 O6'
_cell_volume   129.47522802
_cell_formula_units_Z   1
loop_
 _symmetry_equiv_pos_site_id
 _symmetry_equiv_pos_as_xyz
  1  'x, y, z'
loop_
 _atom_site_type_symbol
 _atom_site_label
 _atom_site_symmetry_multiplicity
 _atom_site_fract_x
 _atom_site_fract_y
 _atom_site_fract_z
 _atom_site_occupancy
  Ce  Ce0  1  0.32942535  0.33407173  0.33363821  1
  Th  Th1  1  0.66361789  0.66466248  0.66789749  1
  Th  Th2  1  0.99518757  0.00186293  0.99929700  1
  O  O3  1  0.16400234  0.66390586  0.92158044  1
  O  O4  1  0.83000074  0.33288767  0.57984826  1
  O  O5  1  0.16477612  0.66265552  0.41818870  1
  O  O6  1  0.49455506  0.00394277  0.74526331  1
  O  O7  1  0.82865436  0.33378369  0.08752282  1
  O  O8  1  0.49383957  0.00392836  0.24902777  1
