# generated using pymatgen
data_Mn15Si26
_symmetry_space_group_name_H-M   'P 1'
_cell_length_a   5.49357938
_cell_length_b   5.49357937
_cell_length_c   32.76462282
_cell_angle_alpha   94.80897920
_cell_angle_beta   94.80897919
_cell_angle_gamma   89.99999997
_symmetry_Int_Tables_number   1
_chemical_formula_structural   Mn15Si26
_chemical_formula_sum   'Mn30 Si52'
_cell_volume   981.84298660
_cell_formula_units_Z   2
loop_
 _symmetry_equiv_pos_site_id
 _symmetry_equiv_pos_as_xyz
  1  'x, y, z'
loop_
 _atom_site_type_symbol
 _atom_site_label
 _atom_site_symmetry_multiplicity
 _atom_site_fract_x
 _atom_site_fract_y
 _atom_site_fract_z
 _atom_site_occupancy
  Si  Si0  1  0.37500000  0.77851980  0.25000000  1
  Si  Si1  1  0.52851980  0.62500000  0.75000000  1
  Si  Si2  1  0.22148020  0.12500000  0.75000000  1
  Si  Si3  1  0.87500000  0.47148020  0.25000000  1
  Si  Si4  1  0.64285516  0.20108343  0.70890229  1
  Si  Si5  1  0.06604713  0.50781885  0.70890229  1
  Si  Si6  1  0.25781885  0.31604713  0.20890229  1
  Si  Si7  1  0.79891657  0.93395287  0.29109771  1
  Si  Si8  1  0.49218115  0.35714484  0.29109771  1
  Si  Si9  1  0.10714484  0.74218115  0.79109771  1
  Si  Si10  1  0.68395287  0.04891657  0.79109771  1
  Si  Si11  1  0.95108343  0.89285516  0.20890229  1
  Si  Si12  1  0.99148401  0.01995552  0.67070848  1
  Si  Si13  1  0.67922447  0.65075296  0.67070848  1
  Si  Si14  1  0.40075296  0.92922447  0.17070848  1
  Si  Si15  1  0.98004448  0.32077553  0.32929152  1
  Si  Si16  1  0.34924704  0.00851599  0.32929152  1
  Si  Si17  1  0.75851599  0.59924704  0.82929152  1
  Si  Si18  1  0.07077553  0.23004448  0.82929152  1
  Si  Si19  1  0.76995552  0.24148401  0.17070848  1
  Si  Si20  1  0.48475977  0.97951370  0.63412363  1
  Si  Si21  1  0.14936387  0.65460994  0.63412363  1
  Si  Si22  1  0.40460994  0.39936387  0.13412363  1
  Si  Si23  1  0.02048630  0.85063613  0.36587637  1
  Si  Si24  1  0.34539006  0.51524023  0.36587637  1
  Si  Si25  1  0.26524023  0.59539006  0.86587637  1
  Si  Si26  1  0.60063613  0.27048630  0.86587637  1
  Si  Si27  1  0.72951370  0.73475977  0.13412363  1
  Si  Si28  1  0.12388054  0.14002996  0.59764713  1
  Si  Si29  1  0.47376659  0.45761717  0.59764713  1
  Si  Si30  1  0.66373643  0.24005699  0.02084932  1
  Si  Si31  1  0.21920767  0.33626357  0.97915068  1
  Si  Si32  1  0.75994301  0.64288711  0.97915068  1
  Si  Si33  1  0.39288711  0.00994301  0.47915068  1
  Si  Si34  1  0.08626357  0.46920767  0.47915068  1
  Si  Si35  1  0.35711289  0.78079233  0.02084932  1
  Si  Si36  1  0.53079233  0.60711289  0.52084932  1
  Si  Si37  1  0.99005699  0.91373643  0.52084932  1
  Si  Si38  1  0.83366477  0.87596638  0.06055799  1
  Si  Si39  1  0.81540839  0.16633523  0.93944201  1
  Si  Si40  1  0.12403362  0.77310678  0.93944201  1
  Si  Si41  1  0.52310678  0.37403362  0.43944201  1
  Si  Si42  1  0.91633523  0.06540839  0.43944201  1
  Si  Si43  1  0.22689322  0.18459161  0.06055799  1
  Si  Si44  1  0.93459161  0.47689322  0.56055799  1
  Si  Si45  1  0.62596638  0.08366477  0.56055799  1
  Si  Si46  1  0.89002996  0.37388054  0.09764713  1
  Si  Si47  1  0.27623341  0.10997004  0.90235287  1
  Si  Si48  1  0.62611946  0.79238283  0.90235287  1
  Si  Si49  1  0.54238283  0.87611946  0.40235287  1
  Si  Si50  1  0.85997004  0.52623341  0.40235287  1
  Si  Si51  1  0.20761717  0.72376659  0.09764713  1
  Mn  Mn52  1  0.21522516  0.71522516  0.43045032  1
  Mn  Mn53  1  0.28477484  0.78477484  0.56954968  1
  Mn  Mn54  1  0.53477484  0.53477484  0.06954968  1
  Mn  Mn55  1  0.46522516  0.46522516  0.93045032  1
  Mn  Mn56  1  0.15109139  0.65109139  0.30218278  1
  Mn  Mn57  1  0.34890861  0.84890861  0.69781722  1
  Mn  Mn58  1  0.59890861  0.59890861  0.19781722  1
  Mn  Mn59  1  0.40109139  0.40109139  0.80218278  1
  Mn  Mn60  1  0.08181097  0.58181097  0.16362195  1
  Mn  Mn61  1  0.41818903  0.91818903  0.83637805  1
  Mn  Mn62  1  0.66818903  0.66818903  0.33637805  1
  Mn  Mn63  1  0.33181097  0.33181097  0.66362195  1
  Mn  Mn64  1  0.01733315  0.51733315  0.03466631  1
  Mn  Mn65  1  0.48266685  0.98266685  0.96533369  1
  Mn  Mn66  1  0.73266685  0.73266685  0.46533369  1
  Mn  Mn67  1  0.26733315  0.26733315  0.53466631  1
  Mn  Mn68  1  0.94880804  0.44880804  0.89761608  1
  Mn  Mn69  1  0.55119196  0.05119196  0.10238392  1
  Mn  Mn70  1  0.80119196  0.80119196  0.60238392  1
  Mn  Mn71  1  0.19880804  0.19880804  0.39761608  1
  Mn  Mn72  1  0.88362667  0.38362667  0.76725334  1
  Mn  Mn73  1  0.61637333  0.11637333  0.23274666  1
  Mn  Mn74  1  0.86637333  0.86637333  0.73274666  1
  Mn  Mn75  1  0.13362667  0.13362667  0.26725334  1
  Mn  Mn76  1  0.81621003  0.31621003  0.63242007  1
  Mn  Mn77  1  0.68378997  0.18378997  0.36757993  1
  Mn  Mn78  1  0.93378997  0.93378997  0.86757993  1
  Mn  Mn79  1  0.06621003  0.06621003  0.13242007  1
  Mn  Mn80  1  0.75000000  0.25000000  0.50000000  1
  Mn  Mn81  1  0.00000000  0.00000000  0.00000000  1
