# generated using pymatgen
data_CsMnH24(SO10)2
_symmetry_space_group_name_H-M   'P 1'
_cell_length_a   12.42967679
_cell_length_b   12.53830659
_cell_length_c   12.37209162
_cell_angle_alpha   90.00000000
_cell_angle_beta   90.00000000
_cell_angle_gamma   90.00000000
_symmetry_Int_Tables_number   1
_chemical_formula_structural   CsMnH24(SO10)2
_chemical_formula_sum   'Cs4 Mn4 H96 S8 O80'
_cell_volume   1928.15458021
_cell_formula_units_Z   4
loop_
 _symmetry_equiv_pos_site_id
 _symmetry_equiv_pos_as_xyz
  1  'x, y, z'
loop_
 _atom_site_type_symbol
 _atom_site_label
 _atom_site_symmetry_multiplicity
 _atom_site_fract_x
 _atom_site_fract_y
 _atom_site_fract_z
 _atom_site_occupancy
  Cs  Cs0  1  0.00000000  0.50000000  0.00000000  1
  Cs  Cs1  1  0.50000000  0.00000000  0.00000000  1
  Cs  Cs2  1  0.00000000  0.00000000  0.50000000  1
  Cs  Cs3  1  0.50000000  0.50000000  0.50000000  1
  Mn  Mn4  1  0.50000000  0.00000000  0.50000000  1
  Mn  Mn5  1  0.00000000  0.50000000  0.50000000  1
  Mn  Mn6  1  0.50000000  0.50000000  0.00000000  1
  Mn  Mn7  1  0.00000000  0.00000000  0.00000000  1
  H  H8  1  0.51489608  0.22738082  0.22934086  1
  H  H9  1  0.01489608  0.27261918  0.77065914  1
  H  H10  1  0.48510392  0.72738082  0.27065914  1
  H  H11  1  0.98510392  0.77261918  0.72934086  1
  H  H12  1  0.48510392  0.77261918  0.77065914  1
  H  H13  1  0.98510392  0.72738082  0.22934086  1
  H  H14  1  0.51489608  0.27261918  0.72934086  1
  H  H15  1  0.01489608  0.22738082  0.27065914  1
  H  H16  1  0.63340102  0.21468685  0.19169517  1
  H  H17  1  0.13340102  0.28531315  0.80830483  1
  H  H18  1  0.36659898  0.71468685  0.30830483  1
  H  H19  1  0.86659898  0.78531315  0.69169517  1
  H  H20  1  0.36659898  0.78531315  0.80830483  1
  H  H21  1  0.86659898  0.71468685  0.19169517  1
  H  H22  1  0.63340102  0.28531315  0.69169517  1
  H  H23  1  0.13340102  0.21468685  0.30830483  1
  H  H24  1  0.78507657  0.01176213  0.26908142  1
  H  H25  1  0.28507657  0.48823787  0.73091858  1
  H  H26  1  0.21492343  0.51176213  0.23091858  1
  H  H27  1  0.71492343  0.98823787  0.76908142  1
  H  H28  1  0.21492343  0.98823787  0.73091858  1
  H  H29  1  0.71492343  0.51176213  0.26908142  1
  H  H30  1  0.78507657  0.48823787  0.76908142  1
  H  H31  1  0.28507657  0.01176213  0.23091858  1
  H  H32  1  0.82592789  0.12946785  0.27928908  1
  H  H33  1  0.32592789  0.37053215  0.72071092  1
  H  H34  1  0.17407211  0.62946785  0.22071092  1
  H  H35  1  0.67407211  0.87053215  0.77928908  1
  H  H36  1  0.17407211  0.87053215  0.72071092  1
  H  H37  1  0.67407211  0.62946785  0.27928908  1
  H  H38  1  0.82592789  0.37053215  0.77928908  1
  H  H39  1  0.32592789  0.12946785  0.22071092  1
  H  H40  1  0.73232232  0.27978499  0.49948834  1
  H  H41  1  0.23232232  0.22021501  0.50051166  1
  H  H42  1  0.26767768  0.77978499  0.00051166  1
  H  H43  1  0.76767768  0.72021501  0.99948834  1
  H  H44  1  0.26767768  0.72021501  0.50051166  1
  H  H45  1  0.76767768  0.77978499  0.49948834  1
  H  H46  1  0.73232232  0.22021501  0.99948834  1
  H  H47  1  0.23232232  0.27978499  0.00051166  1
  H  H48  1  0.72921489  0.31892964  0.37985984  1
  H  H49  1  0.22921489  0.18107036  0.62014016  1
  H  H50  1  0.27078511  0.81892964  0.12014016  1
  H  H51  1  0.77078511  0.68107036  0.87985984  1
  H  H52  1  0.27078511  0.68107036  0.62014016  1
  H  H53  1  0.77078511  0.81892964  0.37985984  1
  H  H54  1  0.72921489  0.18107036  0.87985984  1
  H  H55  1  0.22921489  0.31892964  0.12014016  1
  H  H56  1  0.70423248  0.93326156  0.48355946  1
  H  H57  1  0.20423248  0.56673844  0.51644054  1
  H  H58  1  0.29576752  0.43326156  0.01644054  1
  H  H59  1  0.79576752  0.06673844  0.98355946  1
  H  H60  1  0.29576752  0.06673844  0.51644054  1
  H  H61  1  0.79576752  0.43326156  0.48355946  1
  H  H62  1  0.70423248  0.56673844  0.98355946  1
  H  H63  1  0.20423248  0.93326156  0.01644054  1
  H  H64  1  0.69967970  0.06026885  0.53002024  1
  H  H65  1  0.19967970  0.43973115  0.46997976  1
  H  H66  1  0.30032030  0.56026885  0.96997976  1
  H  H67  1  0.80032030  0.93973115  0.03002024  1
  H  H68  1  0.30032030  0.93973115  0.46997976  1
  H  H69  1  0.80032030  0.56026885  0.53002024  1
  H  H70  1  0.69967970  0.43973115  0.03002024  1
  H  H71  1  0.19967970  0.06026885  0.96997976  1
  H  H72  1  0.52417931  0.21766800  0.56781962  1
  H  H73  1  0.02417931  0.28233200  0.43218038  1
  H  H74  1  0.47582069  0.71766800  0.93218038  1
  H  H75  1  0.97582069  0.78233200  0.06781962  1
  H  H76  1  0.47582069  0.78233200  0.43218038  1
  H  H77  1  0.97582069  0.71766800  0.56781962  1
  H  H78  1  0.52417931  0.28233200  0.06781962  1
  H  H79  1  0.02417931  0.21766800  0.93218038  1
  H  H80  1  0.47848795  0.21604666  0.44475408  1
  H  H81  1  0.97848795  0.28395334  0.55524592  1
  H  H82  1  0.52151205  0.71604666  0.05524592  1
  H  H83  1  0.02151205  0.78395334  0.94475408  1
  H  H84  1  0.52151205  0.78395334  0.55524592  1
  H  H85  1  0.02151205  0.71604666  0.44475408  1
  H  H86  1  0.47848795  0.28395334  0.94475408  1
  H  H87  1  0.97848795  0.21604666  0.05524592  1
  H  H88  1  0.43978253  0.02587310  0.29379868  1
  H  H89  1  0.93978253  0.47412690  0.70620132  1
  H  H90  1  0.56021747  0.52587310  0.20620132  1
  H  H91  1  0.06021747  0.97412690  0.79379868  1
  H  H92  1  0.56021747  0.97412690  0.70620132  1
  H  H93  1  0.06021747  0.52587310  0.29379868  1
  H  H94  1  0.43978253  0.47412690  0.79379868  1
  H  H95  1  0.93978253  0.02587310  0.20620132  1
  H  H96  1  0.56736738  0.98073643  0.30041090  1
  H  H97  1  0.06736738  0.51926357  0.69958910  1
  H  H98  1  0.43263262  0.48073643  0.19958910  1
  H  H99  1  0.93263262  0.01926357  0.80041090  1
  H  H100  1  0.43263262  0.01926357  0.69958910  1
  H  H101  1  0.93263262  0.48073643  0.30041090  1
  H  H102  1  0.56736738  0.51926357  0.80041090  1
  H  H103  1  0.06736738  0.98073643  0.19958910  1
  S  S104  1  0.82759796  0.33332368  0.17766504  1
  S  S105  1  0.32759796  0.16667632  0.82233496  1
  S  S106  1  0.17240204  0.83332368  0.32233496  1
  S  S107  1  0.67240204  0.66667632  0.67766504  1
  S  S108  1  0.17240204  0.66667632  0.82233496  1
  S  S109  1  0.67240204  0.83332368  0.17766504  1
  S  S110  1  0.82759796  0.16667632  0.67766504  1
  S  S111  1  0.32759796  0.33332368  0.32233496  1
  O  O112  1  0.76547120  0.25930081  0.24992637  1
  O  O113  1  0.26547120  0.24069919  0.75007363  1
  O  O114  1  0.23452880  0.75930081  0.25007363  1
  O  O115  1  0.73452880  0.74069919  0.74992637  1
  O  O116  1  0.23452880  0.74069919  0.75007363  1
  O  O117  1  0.73452880  0.75930081  0.24992637  1
  O  O118  1  0.76547120  0.24069919  0.74992637  1
  O  O119  1  0.26547120  0.25930081  0.25007363  1
  O  O120  1  0.77387852  0.33952596  0.06969197  1
  O  O121  1  0.27387852  0.16047404  0.93030803  1
  O  O122  1  0.22612148  0.83952596  0.43030803  1
  O  O123  1  0.72612148  0.66047404  0.56969197  1
  O  O124  1  0.22612148  0.66047404  0.93030803  1
  O  O125  1  0.72612148  0.83952596  0.06969197  1
  O  O126  1  0.77387852  0.16047404  0.56969197  1
  O  O127  1  0.27387852  0.33952596  0.43030803  1
  O  O128  1  0.93974345  0.29365969  0.16392513  1
  O  O129  1  0.43974345  0.20634031  0.83607487  1
  O  O130  1  0.06025655  0.79365969  0.33607487  1
  O  O131  1  0.56025655  0.70634031  0.66392513  1
  O  O132  1  0.06025655  0.70634031  0.83607487  1
  O  O133  1  0.56025655  0.79365969  0.16392513  1
  O  O134  1  0.93974345  0.20634031  0.66392513  1
  O  O135  1  0.43974345  0.29365969  0.33607487  1
  O  O136  1  0.83040046  0.44224314  0.22686010  1
  O  O137  1  0.33040046  0.05775686  0.77313990  1
  O  O138  1  0.16959954  0.94224314  0.27313990  1
  O  O139  1  0.66959954  0.55775686  0.72686010  1
  O  O140  1  0.16959954  0.55775686  0.77313990  1
  O  O141  1  0.66959954  0.94224314  0.22686010  1
  O  O142  1  0.83040046  0.05775686  0.72686010  1
  O  O143  1  0.33040046  0.44224314  0.27313990  1
  O  O144  1  0.55885960  0.20030804  0.16867293  1
  O  O145  1  0.05885960  0.29969196  0.83132707  1
  O  O146  1  0.44114040  0.70030804  0.33132707  1
  O  O147  1  0.94114040  0.79969196  0.66867293  1
  O  O148  1  0.44114040  0.79969196  0.83132707  1
  O  O149  1  0.94114040  0.70030804  0.16867293  1
  O  O150  1  0.55885960  0.29969196  0.66867293  1
  O  O151  1  0.05885960  0.20030804  0.33132707  1
  O  O152  1  0.84968385  0.05471217  0.28787246  1
  O  O153  1  0.34968385  0.44528783  0.71212754  1
  O  O154  1  0.15031615  0.55471217  0.21212754  1
  O  O155  1  0.65031615  0.94528783  0.78787246  1
  O  O156  1  0.15031615  0.94528783  0.71212754  1
  O  O157  1  0.65031615  0.55471217  0.28787246  1
  O  O158  1  0.84968385  0.44528783  0.78787246  1
  O  O159  1  0.34968385  0.05471217  0.21212754  1
  O  O160  1  0.71608872  0.34344122  0.45477818  1
  O  O161  1  0.21608872  0.15655878  0.54522182  1
  O  O162  1  0.28391128  0.84344122  0.04522182  1
  O  O163  1  0.78391128  0.65655878  0.95477818  1
  O  O164  1  0.28391128  0.65655878  0.54522182  1
  O  O165  1  0.78391128  0.84344122  0.45477818  1
  O  O166  1  0.71608872  0.15655878  0.95477818  1
  O  O167  1  0.21608872  0.34344122  0.04522182  1
  O  O168  1  0.65681693  0.99732663  0.50450589  1
  O  O169  1  0.15681693  0.50267337  0.49549411  1
  O  O170  1  0.34318307  0.49732663  0.99549411  1
  O  O171  1  0.84318307  0.00267337  0.00450589  1
  O  O172  1  0.34318307  0.00267337  0.49549411  1
  O  O173  1  0.84318307  0.49732663  0.50450589  1
  O  O174  1  0.65681693  0.50267337  0.00450589  1
  O  O175  1  0.15681693  0.99732663  0.99549411  1
  O  O176  1  0.49880671  0.17095069  0.50699437  1
  O  O177  1  0.99880671  0.32904931  0.49300563  1
  O  O178  1  0.50119329  0.67095069  0.99300563  1
  O  O179  1  0.00119329  0.82904931  0.00699437  1
  O  O180  1  0.50119329  0.82904931  0.49300563  1
  O  O181  1  0.00119329  0.67095069  0.50699437  1
  O  O182  1  0.49880671  0.32904931  0.00699437  1
  O  O183  1  0.99880671  0.17095069  0.99300563  1
  O  O184  1  0.50262216  0.00378469  0.34275573  1
  O  O185  1  0.00262216  0.49621531  0.65724427  1
  O  O186  1  0.49737784  0.50378469  0.15724427  1
  O  O187  1  0.99737784  0.99621531  0.84275573  1
  O  O188  1  0.49737784  0.99621531  0.65724427  1
  O  O189  1  0.99737784  0.50378469  0.34275573  1
  O  O190  1  0.50262216  0.49621531  0.84275573  1
  O  O191  1  0.00262216  0.00378469  0.15724427  1
