# generated using pymatgen
data_Sc(CuO2)2
_symmetry_space_group_name_H-M   'P 1'
_cell_length_a   6.13199300
_cell_length_b   6.11070210
_cell_length_c   6.13199300
_cell_angle_alpha   126.69847074
_cell_angle_beta   79.20081026
_cell_angle_gamma   126.43430510
_symmetry_Int_Tables_number   1
_chemical_formula_structural   Sc(CuO2)2
_chemical_formula_sum   'Sc2 Cu4 O8'
_cell_volume   143.13158555
_cell_formula_units_Z   2
loop_
 _symmetry_equiv_pos_site_id
 _symmetry_equiv_pos_as_xyz
  1  'x, y, z'
loop_
 _atom_site_type_symbol
 _atom_site_label
 _atom_site_symmetry_multiplicity
 _atom_site_fract_x
 _atom_site_fract_y
 _atom_site_fract_z
 _atom_site_occupancy
  Sc  Sc0  1  0.87527305  0.75000000  0.62527305  1
  Sc  Sc1  1  0.12472695  0.25000000  0.37472695  1
  Cu  Cu2  1  0.50000000  0.00000000  0.00000000  1
  Cu  Cu3  1  0.50000000  0.50000000  0.00000000  1
  Cu  Cu4  1  0.50000000  0.00000000  0.50000000  1
  Cu  Cu5  1  0.00000000  0.50000000  0.00000000  1
  O  O6  1  0.83312765  0.71067811  0.23402421  1
  O  O7  1  0.47665490  0.21067811  0.37755046  1
  O  O8  1  0.73519594  0.89873126  0.02080342  1
  O  O9  1  0.87792784  0.39873126  0.66353531  1
  O  O10  1  0.12207216  0.60126874  0.33646469  1
  O  O11  1  0.26480406  0.10126874  0.97919658  1
  O  O12  1  0.52334510  0.78932189  0.62244954  1
  O  O13  1  0.16687235  0.28932189  0.76597579  1
