# generated using pymatgen
data_Gd3NbO7
_symmetry_space_group_name_H-M   'P 1'
_cell_length_a   6.46712841
_cell_length_b   6.55834661
_cell_length_c   7.70015898
_cell_angle_alpha   73.19588027
_cell_angle_beta   89.69330247
_cell_angle_gamma   82.60797397
_symmetry_Int_Tables_number   1
_chemical_formula_structural   Gd3NbO7
_chemical_formula_sum   'Gd6 Nb2 O14'
_cell_volume   309.87326946
_cell_formula_units_Z   2
loop_
 _symmetry_equiv_pos_site_id
 _symmetry_equiv_pos_as_xyz
  1  'x, y, z'
loop_
 _atom_site_type_symbol
 _atom_site_label
 _atom_site_symmetry_multiplicity
 _atom_site_fract_x
 _atom_site_fract_y
 _atom_site_fract_z
 _atom_site_occupancy
  Gd  Gd0  1  0.26115523  0.46230845  0.88411904  1
  Gd  Gd1  1  0.26264422  0.46212319  0.38992774  1
  Gd  Gd2  1  0.45430127  0.99396689  0.25066893  1
  Gd  Gd3  1  0.54569873  0.00603311  0.74933107  1
  Gd  Gd4  1  0.73735578  0.53787681  0.61007226  1
  Gd  Gd5  1  0.73884477  0.53769155  0.11588096  1
  Nb  Nb6  1  0.00000000  0.00000000  0.00000000  1
  Nb  Nb7  1  0.00000000  0.00000000  0.50000000  1
  O  O8  1  0.28963523  0.06672986  0.51755340  1
  O  O9  1  0.07591941  0.68195361  0.04367238  1
  O  O10  1  0.29079329  0.07192825  0.95040236  1
  O  O11  1  0.07002401  0.67061850  0.61086861  1
  O  O12  1  0.08975846  0.94403050  0.26494730  1
  O  O13  1  0.44018812  0.35189299  0.16556955  1
  O  O14  1  0.45481376  0.36221908  0.65687919  1
  O  O15  1  0.54518624  0.63778092  0.34312081  1
  O  O16  1  0.55981188  0.64810701  0.83443045  1
  O  O17  1  0.91024154  0.05596950  0.73505270  1
  O  O18  1  0.92997599  0.32938150  0.38913139  1
  O  O19  1  0.70920671  0.92807175  0.04959764  1
  O  O20  1  0.92408059  0.31804639  0.95632762  1
  O  O21  1  0.71036477  0.93327014  0.48244660  1
