# generated using pymatgen
data_Rb3ErO3
_symmetry_space_group_name_H-M   'P 1'
_cell_length_a   11.72841068
_cell_length_b   7.36136088
_cell_length_c   7.97795418
_cell_angle_alpha   90.00000000
_cell_angle_beta   94.11901416
_cell_angle_gamma   90.00000000
_symmetry_Int_Tables_number   1
_chemical_formula_structural   Rb3ErO3
_chemical_formula_sum   'Rb12 Er4 O12'
_cell_volume   687.01398477
_cell_formula_units_Z   4
loop_
 _symmetry_equiv_pos_site_id
 _symmetry_equiv_pos_as_xyz
  1  'x, y, z'
loop_
 _atom_site_type_symbol
 _atom_site_label
 _atom_site_symmetry_multiplicity
 _atom_site_fract_x
 _atom_site_fract_y
 _atom_site_fract_z
 _atom_site_occupancy
  Rb  Rb0  1  0.07824348  0.32907859  0.64078352  1
  Rb  Rb1  1  0.15476517  0.62204081  0.06572531  1
  Rb  Rb2  1  0.19249902  0.80386725  0.62550223  1
  Rb  Rb3  1  0.30750098  0.30386725  0.37449777  1
  Rb  Rb4  1  0.34523483  0.12204081  0.93427469  1
  Rb  Rb5  1  0.42175652  0.82907859  0.35921648  1
  Rb  Rb6  1  0.57824348  0.17092141  0.64078352  1
  Rb  Rb7  1  0.65476517  0.87795919  0.06572531  1
  Rb  Rb8  1  0.69249902  0.69613275  0.62550223  1
  Rb  Rb9  1  0.80750098  0.19613275  0.37449777  1
  Rb  Rb10  1  0.84523483  0.37795919  0.93427469  1
  Rb  Rb11  1  0.92175652  0.67092141  0.35921648  1
  Er  Er12  1  0.06693018  0.08841566  0.16105401  1
  Er  Er13  1  0.43306982  0.58841566  0.83894599  1
  Er  Er14  1  0.56693018  0.41158434  0.16105401  1
  Er  Er15  1  0.93306982  0.91158434  0.83894599  1
  O  O16  1  0.04228720  0.35411021  0.25314393  1
  O  O17  1  0.09623874  0.04904241  0.89439287  1
  O  O18  1  0.18874238  0.94026834  0.31005255  1
  O  O19  1  0.31125762  0.44026834  0.68994745  1
  O  O20  1  0.40376126  0.54904241  0.10560713  1
  O  O21  1  0.45771280  0.85411021  0.74685607  1
  O  O22  1  0.54228720  0.14588979  0.25314393  1
  O  O23  1  0.59623874  0.45095759  0.89439287  1
  O  O24  1  0.68874238  0.55973166  0.31005255  1
  O  O25  1  0.81125762  0.05973166  0.68994745  1
  O  O26  1  0.90376126  0.95095759  0.10560713  1
  O  O27  1  0.95771280  0.64588979  0.74685607  1
