# generated using pymatgen
data_NbSb3O8
_symmetry_space_group_name_H-M   'P 1'
_cell_length_a   5.59148585
_cell_length_b   4.97231090
_cell_length_c   23.90823789
_cell_angle_alpha   89.99351594
_cell_angle_beta   89.88861392
_cell_angle_gamma   90.08233540
_symmetry_Int_Tables_number   1
_chemical_formula_structural   NbSb3O8
_chemical_formula_sum   'Nb4 Sb12 O32'
_cell_volume   664.70937146
_cell_formula_units_Z   4
loop_
 _symmetry_equiv_pos_site_id
 _symmetry_equiv_pos_as_xyz
  1  'x, y, z'
loop_
 _atom_site_type_symbol
 _atom_site_label
 _atom_site_symmetry_multiplicity
 _atom_site_fract_x
 _atom_site_fract_y
 _atom_site_fract_z
 _atom_site_occupancy
  Nb  Nb0  1  0.13095272  0.00279089  0.96377068  1
  Nb  Nb1  1  0.38762312  0.49191235  0.71442970  1
  Nb  Nb2  1  0.86896423  0.99776829  0.21366728  1
  Nb  Nb3  1  0.88713596  0.00654575  0.71435951  1
  Sb  Sb4  1  0.02429247  0.54387101  0.33987995  1
  Sb  Sb5  1  0.02906784  0.54672950  0.83917841  1
  Sb  Sb6  1  0.13280154  0.99955688  0.46429464  1
  Sb  Sb7  1  0.36875237  0.49549704  0.21577774  1
  Sb  Sb8  1  0.47255932  0.04648110  0.09036211  1
  Sb  Sb9  1  0.47576930  0.04438632  0.58935565  1
  Sb  Sb10  1  0.52916662  0.95742775  0.33979053  1
  Sb  Sb11  1  0.52705425  0.95040311  0.84032457  1
  Sb  Sb12  1  0.63263726  0.49992698  0.46448001  1
  Sb  Sb13  1  0.63070684  0.50513011  0.96565894  1
  Sb  Sb14  1  0.97487878  0.45518864  0.08929643  1
  Sb  Sb15  1  0.97659910  0.45537229  0.58938067  1
  O  O16  1  0.07901597  0.29594370  0.24293484  1
  O  O17  1  0.06975616  0.29733752  0.74375209  1
  O  O18  1  0.14251409  0.78673074  0.19049438  1
  O  O19  1  0.13492570  0.78447222  0.68984317  1
  O  O20  1  0.15295701  0.16265982  0.54364269  1
  O  O21  1  0.15317630  0.16690997  0.04441037  1
  O  O22  1  0.18208478  0.84248496  0.38764693  1
  O  O23  1  0.18389761  0.84000093  0.88791712  1
  O  O24  1  0.31619579  0.34230931  0.13801631  1
  O  O25  1  0.31405489  0.33527836  0.63775340  1
  O  O26  1  0.34761215  0.66732726  0.29445078  1
  O  O27  1  0.34695521  0.66898887  0.79342013  1
  O  O28  1  0.35567173  0.28977480  0.43629063  1
  O  O29  1  0.35982401  0.28786468  0.93839255  1
  O  O30  1  0.41842411  0.79152536  0.99432632  1
  O  O31  1  0.41823483  0.79385306  0.49506458  1
  O  O32  1  0.58094715  0.20881870  0.24440142  1
  O  O33  1  0.57031476  0.20307114  0.74358293  1
  O  O34  1  0.63511008  0.71583592  0.68976636  1
  O  O35  1  0.64035565  0.71247851  0.18841338  1
  O  O36  1  0.65211691  0.33429028  0.04400760  1
  O  O37  1  0.65288312  0.33712946  0.54373691  1
  O  O38  1  0.68219000  0.65690804  0.38803368  1
  O  O39  1  0.68443403  0.65710799  0.88784879  1
  O  O40  1  0.81672896  0.16102752  0.13764989  1
  O  O41  1  0.81442358  0.16472797  0.63782791  1
  O  O42  1  0.84677647  0.83208172  0.29421610  1
  O  O43  1  0.84685954  0.83052762  0.79399538  1
  O  O44  1  0.85567430  0.20990039  0.43639715  1
  O  O45  1  0.85794106  0.21379035  0.94060272  1
  O  O46  1  0.91840826  0.70585528  0.49508877  1
  O  O47  1  0.92057705  0.70400056  0.99286789  1
