# generated using pymatgen
data_LiCoPO4
_symmetry_space_group_name_H-M   'P 1'
_cell_length_a   10.08316420
_cell_length_b   13.66016131
_cell_length_c   5.05277650
_cell_angle_alpha   90.00000000
_cell_angle_beta   90.00000000
_cell_angle_gamma   90.00000000
_symmetry_Int_Tables_number   1
_chemical_formula_structural   LiCoPO4
_chemical_formula_sum   'Li8 Co8 P8 O32'
_cell_volume   695.95755849
_cell_formula_units_Z   8
loop_
 _symmetry_equiv_pos_site_id
 _symmetry_equiv_pos_as_xyz
  1  'x, y, z'
loop_
 _atom_site_type_symbol
 _atom_site_label
 _atom_site_symmetry_multiplicity
 _atom_site_fract_x
 _atom_site_fract_y
 _atom_site_fract_z
 _atom_site_occupancy
  Li  Li0  1  0.03206177  0.75139118  0.05862110  1
  Li  Li1  1  0.21758421  0.00269674  0.55038508  1
  Li  Li2  1  0.28241579  0.50269674  0.55038508  1
  Li  Li3  1  0.46793823  0.25139118  0.05862110  1
  Li  Li4  1  0.53206177  0.75139118  0.94137890  1
  Li  Li5  1  0.71758421  0.00269674  0.44961492  1
  Li  Li6  1  0.78241579  0.50269674  0.44961492  1
  Li  Li7  1  0.96793823  0.25139118  0.94137890  1
  Co  Co8  1  0.03030222  0.50079079  0.93132713  1
  Co  Co9  1  0.21924656  0.75191200  0.55248546  1
  Co  Co10  1  0.28075344  0.25191200  0.55248546  1
  Co  Co11  1  0.46969778  0.00079079  0.93132713  1
  Co  Co12  1  0.53030222  0.50079079  0.06867287  1
  Co  Co13  1  0.71924656  0.75191200  0.44751454  1
  Co  Co14  1  0.78075344  0.25191200  0.44751454  1
  Co  Co15  1  0.96969778  0.00079079  0.06867287  1
  P  P16  1  0.03046441  0.37609786  0.43778667  1
  P  P17  1  0.21713091  0.12750961  0.05460165  1
  P  P18  1  0.28286909  0.62750961  0.05460165  1
  P  P19  1  0.46953559  0.87609786  0.43778667  1
  P  P20  1  0.53046441  0.37609786  0.56221333  1
  P  P21  1  0.71713091  0.12750961  0.94539835  1
  P  P22  1  0.78286909  0.62750961  0.94539835  1
  P  P23  1  0.96953559  0.87609786  0.56221333  1
  O  O24  1  0.99948083  0.87834716  0.86503450  1
  O  O25  1  0.96981622  0.46986718  0.56297194  1
  O  O26  1  0.03295606  0.78228157  0.44329294  1
  O  O27  1  0.06559642  0.12600081  0.99639778  1
  O  O28  1  0.18176317  0.37504857  0.49455997  1
  O  O29  1  0.22229196  0.53412022  0.92642499  1
  O  O30  1  0.28033559  0.22155376  0.93633737  1
  O  O31  1  0.24497356  0.12798155  0.35715587  1
  O  O32  1  0.25502644  0.62798155  0.35715587  1
  O  O33  1  0.21966441  0.72155376  0.93633737  1
  O  O34  1  0.27770804  0.03412022  0.92642499  1
  O  O35  1  0.31823683  0.87504857  0.49455997  1
  O  O36  1  0.43440358  0.62600081  0.99639778  1
  O  O37  1  0.46704394  0.28228157  0.44329294  1
  O  O38  1  0.53018378  0.96986718  0.56297194  1
  O  O39  1  0.50051917  0.37834716  0.86503450  1
  O  O40  1  0.49948083  0.87834716  0.13496550  1
  O  O41  1  0.46981622  0.46986718  0.43702806  1
  O  O42  1  0.53295606  0.78228157  0.55670706  1
  O  O43  1  0.56559642  0.12600081  0.00360222  1
  O  O44  1  0.68176317  0.37504857  0.50544003  1
  O  O45  1  0.72229196  0.53412022  0.07357501  1
  O  O46  1  0.78033559  0.22155376  0.06366263  1
  O  O47  1  0.74497356  0.12798155  0.64284413  1
  O  O48  1  0.75502644  0.62798155  0.64284413  1
  O  O49  1  0.71966441  0.72155376  0.06366263  1
  O  O50  1  0.77770804  0.03412022  0.07357501  1
  O  O51  1  0.81823683  0.87504857  0.50544003  1
  O  O52  1  0.93440358  0.62600081  0.00360222  1
  O  O53  1  0.96704394  0.28228157  0.55670706  1
  O  O54  1  0.03018378  0.96986718  0.43702806  1
  O  O55  1  0.00051917  0.37834716  0.13496550  1
