# generated using pymatgen
data_Cs3ScO3
_symmetry_space_group_name_H-M   'P 1'
_cell_length_a   7.45224683
_cell_length_b   7.45224683
_cell_length_c   7.44461439
_cell_angle_alpha   83.05845799
_cell_angle_beta   96.94154201
_cell_angle_gamma   64.36900284
_symmetry_Int_Tables_number   1
_chemical_formula_structural   Cs3ScO3
_chemical_formula_sum   'Cs6 Sc2 O6'
_cell_volume   363.03838441
_cell_formula_units_Z   2
loop_
 _symmetry_equiv_pos_site_id
 _symmetry_equiv_pos_as_xyz
  1  'x, y, z'
loop_
 _atom_site_type_symbol
 _atom_site_label
 _atom_site_symmetry_multiplicity
 _atom_site_fract_x
 _atom_site_fract_y
 _atom_site_fract_z
 _atom_site_occupancy
  Cs  Cs0  1  0.36549345  0.63450655  0.65660352  1
  Cs  Cs1  1  0.20304258  0.20304258  0.50000000  1
  Cs  Cs2  1  0.79695742  0.79695742  0.50000000  1
  Cs  Cs3  1  0.26119046  0.26119046  0.00000000  1
  Cs  Cs4  1  0.73880954  0.73880954  0.00000000  1
  Cs  Cs5  1  0.63450655  0.36549345  0.34339648  1
  Sc  Sc6  1  0.16529969  0.83470031  0.14667690  1
  Sc  Sc7  1  0.83470031  0.16529969  0.85332310  1
  O  O8  1  0.09444311  0.90555689  0.86075488  1
  O  O9  1  0.41592341  0.84137215  0.26151055  1
  O  O10  1  0.15862785  0.58407659  0.26151055  1
  O  O11  1  0.84137215  0.41592341  0.73848945  1
  O  O12  1  0.58407659  0.15862785  0.73848945  1
  O  O13  1  0.90555689  0.09444311  0.13924512  1
