# generated using pymatgen
data_Bi3O2F5
_symmetry_space_group_name_H-M   'P 1'
_cell_length_a   5.73455124
_cell_length_b   18.11199312
_cell_length_c   5.90999299
_cell_angle_alpha   90.00000000
_cell_angle_beta   90.00000000
_cell_angle_gamma   90.00000000
_symmetry_Int_Tables_number   1
_chemical_formula_structural   Bi3O2F5
_chemical_formula_sum   'Bi12 O8 F20'
_cell_volume   613.83641381
_cell_formula_units_Z   4
loop_
 _symmetry_equiv_pos_site_id
 _symmetry_equiv_pos_as_xyz
  1  'x, y, z'
loop_
 _atom_site_type_symbol
 _atom_site_label
 _atom_site_symmetry_multiplicity
 _atom_site_fract_x
 _atom_site_fract_y
 _atom_site_fract_z
 _atom_site_occupancy
  Bi  Bi0  1  0.17034211  0.59998132  0.53924677  1
  Bi  Bi1  1  0.17034211  0.90001868  0.53924677  1
  Bi  Bi2  1  0.23956781  0.75000000  0.96303821  1
  Bi  Bi3  1  0.26043219  0.25000000  0.46303821  1
  Bi  Bi4  1  0.32965789  0.09998132  0.03924677  1
  Bi  Bi5  1  0.32965789  0.40001868  0.03924677  1
  Bi  Bi6  1  0.67034211  0.90001868  0.96075323  1
  Bi  Bi7  1  0.67034211  0.59998132  0.96075323  1
  Bi  Bi8  1  0.73956781  0.75000000  0.53696179  1
  Bi  Bi9  1  0.76043219  0.25000000  0.03696179  1
  Bi  Bi10  1  0.82965789  0.40001868  0.46075323  1
  Bi  Bi11  1  0.82965789  0.09998132  0.46075323  1
  O  O12  1  0.04524327  0.17120152  0.22700285  1
  O  O13  1  0.04524327  0.32879848  0.22700285  1
  O  O14  1  0.45475673  0.82879848  0.72700285  1
  O  O15  1  0.45475673  0.67120152  0.72700285  1
  O  O16  1  0.54524327  0.17120152  0.27299715  1
  O  O17  1  0.54524327  0.32879848  0.27299715  1
  O  O18  1  0.95475673  0.67120152  0.77299715  1
  O  O19  1  0.95475673  0.82879848  0.77299715  1
  F  F20  1  0.13515448  0.75000000  0.40165842  1
  F  F21  1  0.10862034  0.02167995  0.29031854  1
  F  F22  1  0.10862034  0.47832005  0.29031854  1
  F  F23  1  0.16815098  0.12979991  0.66782422  1
  F  F24  1  0.16815098  0.37020009  0.66782422  1
  F  F25  1  0.33184902  0.87020009  0.16782422  1
  F  F26  1  0.33184902  0.62979991  0.16782422  1
  F  F27  1  0.39137966  0.52167995  0.79031854  1
  F  F28  1  0.39137966  0.97832005  0.79031854  1
  F  F29  1  0.36484552  0.25000000  0.90165842  1
  F  F30  1  0.63515448  0.75000000  0.09834158  1
  F  F31  1  0.60862034  0.02167995  0.20968146  1
  F  F32  1  0.60862034  0.47832005  0.20968146  1
  F  F33  1  0.66815098  0.37020009  0.83217578  1
  F  F34  1  0.66815098  0.12979991  0.83217578  1
  F  F35  1  0.83184902  0.62979991  0.33217578  1
  F  F36  1  0.83184902  0.87020009  0.33217578  1
  F  F37  1  0.89137966  0.97832005  0.70968146  1
  F  F38  1  0.89137966  0.52167995  0.70968146  1
  F  F39  1  0.86484552  0.25000000  0.59834158  1
