# generated using pymatgen
data_CoPH16NO10
_symmetry_space_group_name_H-M   'P 1'
_cell_length_a   6.98591362
_cell_length_b   6.13774696
_cell_length_c   11.24202194
_cell_angle_alpha   90.00466930
_cell_angle_beta   89.99996995
_cell_angle_gamma   90.00006050
_symmetry_Int_Tables_number   1
_chemical_formula_structural   CoPH16NO10
_chemical_formula_sum   'Co2 P2 H32 N2 O20'
_cell_volume   482.03283001
_cell_formula_units_Z   2
loop_
 _symmetry_equiv_pos_site_id
 _symmetry_equiv_pos_as_xyz
  1  'x, y, z'
loop_
 _atom_site_type_symbol
 _atom_site_label
 _atom_site_symmetry_multiplicity
 _atom_site_fract_x
 _atom_site_fract_y
 _atom_site_fract_z
 _atom_site_occupancy
  Co  Co0  1  0.00000230  0.62272182  0.11101833  1
  Co  Co1  1  0.49999199  0.37739742  0.61107561  1
  P  P2  1  -0.00000010  0.00128952  0.48551177  1
  P  P3  1  0.50000021  0.99874854  0.98552158  1
  H  H4  1  0.99999946  0.17028747  0.14949451  1
  H  H5  1  0.00000011  0.27228117  0.28257376  1
  H  H6  1  0.00000009  0.78170992  0.70830374  1
  H  H7  1  -0.00000007  0.64639224  0.84493321  1
  H  H8  1  0.11718551  0.00832239  0.99265872  1
  H  H9  1  0.12004782  0.53876104  0.73211568  1
  H  H10  1  0.19849754  0.79097080  0.30566012  1
  H  H11  1  0.17935336  0.38185793  0.47002321  1
  H  H12  1  0.25008558  0.36822449  0.98058219  1
  H  H13  1  0.17966038  0.16980396  0.68545212  1
  H  H14  1  0.32024676  0.83017677  0.18543876  1
  H  H15  1  0.24988237  0.63181214  0.48051318  1
  H  H16  1  0.32058543  0.61819340  0.97000779  1
  H  H17  1  0.30147710  0.20894964  0.80565070  1
  H  H18  1  0.37993946  0.46122192  0.23211676  1
  H  H19  1  0.38277705  0.99162926  0.49264623  1
  H  H20  1  0.49999986  0.21829802  0.20830357  1
  H  H21  1  0.50000074  0.35361886  0.34492802  1
  H  H22  1  0.49999952  0.72772289  0.78258461  1
  H  H23  1  0.50000200  0.82978170  0.64947194  1
  H  H24  1  0.61722172  0.99163059  0.49264600  1
  H  H25  1  0.62006080  0.46122237  0.23211686  1
  H  H26  1  0.69852212  0.20894583  0.80564997  1
  H  H27  1  0.67941491  0.61819328  0.97000789  1
  H  H28  1  0.75012255  0.63181176  0.48051597  1
  H  H29  1  0.67975274  0.83017667  0.18543884  1
  H  H30  1  0.82034108  0.16980607  0.68545239  1
  H  H31  1  0.74991312  0.36822441  0.98058285  1
  H  H32  1  0.82064478  0.38185918  0.47002286  1
  H  H33  1  0.80150269  0.79097147  0.30566007  1
  H  H34  1  0.87995147  0.53875989  0.73211553  1
  H  H35  1  0.88281440  0.00832234  0.99265844  1
  N  N36  1  0.00000006  0.63075400  0.75361059  1
  N  N37  1  0.49999992  0.36924505  0.25360178  1
  O  O38  1  0.00000088  0.30741278  0.19532676  1
  O  O39  1  -0.00000003  0.95215904  0.03492351  1
  O  O40  1  0.00000037  0.23444076  0.43016968  1
  O  O41  1  0.99999956  0.02013499  0.62378774  1
  O  O42  1  0.18265571  0.87845899  0.44264129  1
  O  O43  1  0.20657008  0.52337232  0.99019556  1
  O  O44  1  0.22562025  0.72850469  0.22407624  1
  O  O45  1  0.27427874  0.27143579  0.72411285  1
  O  O46  1  0.29332175  0.47667239  0.49015473  1
  O  O47  1  0.31735742  0.12154946  0.94265562  1
  O  O48  1  0.49999953  0.04783774  0.53495083  1
  O  O49  1  0.50000015  0.97982898  0.12378531  1
  O  O50  1  0.49999988  0.69258764  0.69533595  1
  O  O51  1  0.49999974  0.76550562  0.93015774  1
  O  O52  1  0.68264279  0.12154914  0.94265528  1
  O  O53  1  0.70667700  0.47667500  0.49015185  1
  O  O54  1  0.72572773  0.27144349  0.72411476  1
  O  O55  1  0.77437743  0.72850262  0.22407681  1
  O  O56  1  0.79342980  0.52337197  0.99019477  1
  O  O57  1  0.81734433  0.87846036  0.44264062  1
