# generated using pymatgen
data_Mn2Fe3P6WO24
_symmetry_space_group_name_H-M   'P 1'
_cell_length_a   8.68598998
_cell_length_b   8.69174497
_cell_length_c   8.69174496
_cell_angle_alpha   59.99999776
_cell_angle_beta   59.97807990
_cell_angle_gamma   59.97807595
_symmetry_Int_Tables_number   1
_chemical_formula_structural   Mn2Fe3P6WO24
_chemical_formula_sum   'Mn2 Fe3 P6 W1 O24'
_cell_volume   463.84650066
_cell_formula_units_Z   1
loop_
 _symmetry_equiv_pos_site_id
 _symmetry_equiv_pos_as_xyz
  1  'x, y, z'
loop_
 _atom_site_type_symbol
 _atom_site_label
 _atom_site_symmetry_multiplicity
 _atom_site_fract_x
 _atom_site_fract_y
 _atom_site_fract_z
 _atom_site_occupancy
  Mn  Mn0  1  0.01359230  0.99546890  0.99546890  1
  Mn  Mn1  1  0.50175816  0.49941361  0.49941361  1
  Fe  Fe2  1  0.06583734  0.64472089  0.64472089  1
  Fe  Fe3  1  0.43863802  0.85378699  0.85378699  1
  Fe  Fe4  1  0.93400586  0.35533171  0.35533171  1
  P  P5  1  0.24388169  0.25329878  0.54719410  1
  P  P6  1  0.24388169  0.95562544  0.25329878  1
  P  P7  1  0.24388169  0.54719410  0.95562544  1
  P  P8  1  0.74941657  0.46225027  0.04294266  1
  P  P9  1  0.74941657  0.04294266  0.74539051  1
  P  P10  1  0.74941657  0.74539051  0.46225027  1
  W  W11  1  0.56896558  0.14367781  0.14367781  1
  O  O12  1  0.06992957  0.11255665  0.31508322  1
  O  O13  1  0.06992957  0.50243057  0.11255665  1
  O  O14  1  0.06992957  0.31508322  0.50243057  1
  O  O15  1  0.23648858  0.08705034  0.73535529  1
  O  O16  1  0.42879425  0.18488487  0.38721137  1
  O  O17  1  0.26898560  0.41349926  0.55371466  1
  O  O18  1  0.23648858  0.94110479  0.08705034  1
  O  O19  1  0.26898560  0.76380147  0.41349926  1
  O  O20  1  0.56989482  0.61271683  0.00428270  1
  O  O21  1  0.26898560  0.55371466  0.76380147  1
  O  O22  1  0.75972539  0.26248414  0.06503914  1
  O  O23  1  0.56989482  0.00428270  0.81310564  1
  O  O24  1  0.42879425  0.99910951  0.18488487  1
  O  O25  1  0.23648858  0.73535529  0.94110479  1
  O  O26  1  0.73555002  0.43839222  0.23769766  1
  O  O27  1  0.42879425  0.38721137  0.99910951  1
  O  O28  1  0.73555002  0.23769766  0.58836010  1
  O  O29  1  0.75972539  0.06503914  0.91275234  1
  O  O30  1  0.73555002  0.58836010  0.43839222  1
  O  O31  1  0.56989482  0.81310564  0.61271683  1
  O  O32  1  0.75972539  0.91275234  0.26248414  1
  O  O33  1  0.92973543  0.69625545  0.49065770  1
  O  O34  1  0.92973543  0.49065770  0.88335242  1
  O  O35  1  0.92973543  0.88335242  0.69625545  1
