# generated using pymatgen
data_Li4MnV3(PO4)4
_symmetry_space_group_name_H-M   'P 1'
_cell_length_a   4.77927707
_cell_length_b   10.54177794
_cell_length_c   6.15041129
_cell_angle_alpha   90.00000000
_cell_angle_beta   90.00000000
_cell_angle_gamma   89.98509430
_symmetry_Int_Tables_number   1
_chemical_formula_structural   Li4MnV3(PO4)4
_chemical_formula_sum   'Li4 Mn1 V3 P4 O16'
_cell_volume   309.87048831
_cell_formula_units_Z   1
loop_
 _symmetry_equiv_pos_site_id
 _symmetry_equiv_pos_as_xyz
  1  'x, y, z'
loop_
 _atom_site_type_symbol
 _atom_site_label
 _atom_site_symmetry_multiplicity
 _atom_site_fract_x
 _atom_site_fract_y
 _atom_site_fract_z
 _atom_site_occupancy
  Li  Li0  1  0.00004005  0.99969544  0.99924540  1
  Li  Li1  1  0.00004005  0.99969544  0.50075460  1
  Li  Li2  1  0.50063362  0.49906748  0.49892689  1
  Li  Li3  1  0.50063362  0.49906748  0.00107311  1
  Mn  Mn4  1  0.02235791  0.72020470  0.75000000  1
  V  V5  1  0.48214339  0.22376074  0.75000000  1
  V  V6  1  0.51775216  0.77721398  0.25000000  1
  V  V7  1  0.98301036  0.27539350  0.25000000  1
  P  P8  1  0.08540222  0.59289121  0.25000000  1
  P  P9  1  0.41471478  0.09328798  0.25000000  1
  P  P10  1  0.58522298  0.90870186  0.75000000  1
  P  P11  1  0.91389809  0.40577809  0.75000000  1
  O  O12  1  0.20588465  0.45620362  0.25000000  1
  O  O13  1  0.22055487  0.66288035  0.04940921  1
  O  O14  1  0.22055487  0.66288035  0.45059079  1
  O  O15  1  0.23606358  0.40331479  0.75000000  1
  O  O16  1  0.26298753  0.90453336  0.75000000  1
  O  O17  1  0.27931353  0.16295943  0.04908445  1
  O  O18  1  0.27931353  0.16295943  0.45091555  1
  O  O19  1  0.29357126  0.95654694  0.25000000  1
  O  O20  1  0.70789373  0.04527957  0.75000000  1
  O  O21  1  0.71866634  0.83893316  0.54910866  1
  O  O22  1  0.71866634  0.83893316  0.95089134  1
  O  O23  1  0.73666926  0.09709066  0.25000000  1
  O  O24  1  0.76331888  0.59698972  0.25000000  1
  O  O25  1  0.77930911  0.33658481  0.54869074  1
  O  O26  1  0.77930911  0.33658481  0.95130926  1
  O  O27  1  0.79207623  0.54256696  0.75000000  1
