# generated using pymatgen
data_Co21Cu3O32
_symmetry_space_group_name_H-M   'P 1'
_cell_length_a   5.76117919
_cell_length_b   5.76117919
_cell_length_c   19.08696434
_cell_angle_alpha   98.68019774
_cell_angle_beta   90.00000000
_cell_angle_gamma   120.00000000
_symmetry_Int_Tables_number   1
_chemical_formula_structural   Co21Cu3O32
_chemical_formula_sum   'Co21 Cu3 O32'
_cell_volume   540.24847711
_cell_formula_units_Z   1
loop_
 _symmetry_equiv_pos_site_id
 _symmetry_equiv_pos_as_xyz
  1  'x, y, z'
loop_
 _atom_site_type_symbol
 _atom_site_label
 _atom_site_symmetry_multiplicity
 _atom_site_fract_x
 _atom_site_fract_y
 _atom_site_fract_z
 _atom_site_occupancy
  Co  Co0  1  0.21885528  0.93760923  0.15646351  1
  Co  Co1  1  0.34374907  0.68749714  0.03124621  1
  Co  Co2  1  0.71875395  0.93760923  0.15646351  1
  Co  Co3  1  0.21885528  0.43770956  0.15646351  1
  Co  Co4  1  0.43778790  0.87557679  0.31336469  1
  Co  Co5  1  0.09377112  0.18754324  0.28131436  1
  Co  Co6  1  0.74968093  0.49936186  0.24904279  1
  Co  Co7  1  0.96860125  0.93720351  0.40607388  1
  Co  Co8  1  0.46887037  0.43747163  0.40607388  1
  Co  Co9  1  0.21861095  0.93743492  0.65625889  1
  Co  Co10  1  0.18735041  0.37470182  0.56205223  1
  Co  Co11  1  0.84370565  0.68741129  0.53111694  1
  Co  Co12  1  0.96860125  0.43747163  0.40607388  1
  Co  Co13  1  0.71882397  0.93743492  0.65625889  1
  Co  Co14  1  0.24998991  0.49997982  0.74996972  1
  Co  Co15  1  0.46881295  0.93762491  0.90618862  1
  Co  Co16  1  0.71882397  0.43764794  0.65625889  1
  Co  Co17  1  0.93768871  0.87537842  0.81306713  1
  Co  Co18  1  0.46881295  0.43737567  0.90618862  1
  Co  Co19  1  0.59369853  0.18739607  0.78109460  1
  Co  Co20  1  0.96856372  0.43737567  0.90618862  1
  Cu  Cu21  1  0.00024470  0.00049040  0.00073510  1
  Cu  Cu22  1  0.68742914  0.37485828  0.06228742  1
  Cu  Cu23  1  0.50004951  0.00009901  0.50014752  1
  O  O24  1  0.07031137  0.58394507  0.09757778  1
  O  O25  1  0.51363370  0.58394507  0.09757778  1
  O  O26  1  0.40312971  0.80625941  0.20938912  1
  O  O27  1  0.03497334  0.06994769  0.10492103  1
  O  O28  1  0.11730206  0.79109249  0.46488293  1
  O  O29  1  0.92318320  0.84636740  0.21574460  1
  O  O30  1  0.36937720  0.29256040  0.21574460  1
  O  O31  1  0.26438001  0.52876103  0.34695139  1
  O  O32  1  0.51363370  0.02726741  0.09757778  1
  O  O33  1  0.26438001  0.08257137  0.34695139  1
  O  O34  1  0.01462909  0.58249504  0.59712413  1
  O  O35  1  0.15280769  0.30561638  0.45842407  1
  O  O36  1  0.92318320  0.29256040  0.21574460  1
  O  O37  1  0.67379044  0.79109249  0.46488293  1
  O  O38  1  0.78437251  0.56874402  0.35311653  1
  O  O39  1  0.67379044  0.34758087  0.46488293  1
  O  O40  1  0.42288207  0.84576315  0.71552630  1
  O  O41  1  0.81819036  0.08257137  0.34695139  1
  O  O42  1  0.01462909  0.02925918  0.59712413  1
  O  O43  1  0.56786595  0.58249504  0.59712413  1
  O  O44  1  0.90299597  0.80599195  0.70898792  1
  O  O45  1  0.53488284  0.06976669  0.60464953  1
  O  O46  1  0.28451261  0.56902622  0.85353883  1
  O  O47  1  0.42288207  0.29264523  0.71552630  1
  O  O48  1  0.17375194  0.79125117  0.96500311  1
  O  O49  1  0.86976315  0.29264523  0.71552630  1
  O  O50  1  0.61749923  0.79125117  0.96500311  1
  O  O51  1  0.17375194  0.34750389  0.96500311  1
  O  O52  1  0.76432043  0.52864185  0.84676973  1
  O  O53  1  0.31812888  0.08244930  0.84676973  1
  O  O54  1  0.65261188  0.30522275  0.95783463  1
  O  O55  1  0.76432043  0.08244930  0.84676973  1
