# generated using pymatgen
data_Na3(NiO2)5
_symmetry_space_group_name_H-M   'P 1'
_cell_length_a   7.16270505
_cell_length_b   4.90058143
_cell_length_c   6.40358927
_cell_angle_alpha   74.46761296
_cell_angle_beta   110.15262631
_cell_angle_gamma   81.98939799
_symmetry_Int_Tables_number   1
_chemical_formula_structural   Na3(NiO2)5
_chemical_formula_sum   'Na3 Ni5 O10'
_cell_volume   196.52892319
_cell_formula_units_Z   1
loop_
 _symmetry_equiv_pos_site_id
 _symmetry_equiv_pos_as_xyz
  1  'x, y, z'
loop_
 _atom_site_type_symbol
 _atom_site_label
 _atom_site_symmetry_multiplicity
 _atom_site_fract_x
 _atom_site_fract_y
 _atom_site_fract_z
 _atom_site_occupancy
  Na  Na0  1  0.19508700  0.40423244  0.69866044  1
  Na  Na1  1  0.80000000  0.60000000  0.30000000  1
  Na  Na2  1  0.40491300  0.79576756  0.90133956  1
  Ni  Ni3  1  0.00211405  0.00391630  0.00037863  1
  Ni  Ni4  1  0.20380450  0.39971064  0.19926022  1
  Ni  Ni5  1  0.39619550  0.80028936  0.40073978  1
  Ni  Ni6  1  0.59788595  0.19608370  0.59962137  1
  Ni  Ni7  1  0.80000000  0.60000000  0.80000000  1
  O  O8  1  0.28866008  0.09726081  0.10025491  1
  O  O9  1  0.31133992  0.10273919  0.49974509  1
  O  O10  1  0.13247641  0.70576673  0.30891188  1
  O  O11  1  0.46752359  0.49423327  0.29108812  1
  O  O12  1  0.09194180  0.69496227  0.90069936  1
  O  O13  1  0.94405835  0.31810859  0.11359134  1
  O  O14  1  0.50805820  0.50503773  0.69930064  1
  O  O15  1  0.65594165  0.88189141  0.48640866  1
  O  O16  1  0.88334887  0.29766075  0.69563123  1
  O  O17  1  0.71665113  0.90233925  0.90436877  1
