# generated using pymatgen
data_NiP4O11
_symmetry_space_group_name_H-M   'P 1'
_cell_length_a   8.21310993
_cell_length_b   12.43007020
_cell_length_c   8.48241152
_cell_angle_alpha   90.00000000
_cell_angle_beta   96.56190383
_cell_angle_gamma   90.00000000
_symmetry_Int_Tables_number   1
_chemical_formula_structural   NiP4O11
_chemical_formula_sum   'Ni4 P16 O44'
_cell_volume   860.29246292
_cell_formula_units_Z   4
loop_
 _symmetry_equiv_pos_site_id
 _symmetry_equiv_pos_as_xyz
  1  'x, y, z'
loop_
 _atom_site_type_symbol
 _atom_site_label
 _atom_site_symmetry_multiplicity
 _atom_site_fract_x
 _atom_site_fract_y
 _atom_site_fract_z
 _atom_site_occupancy
  Ni  Ni0  1  0.22840299  0.46567001  0.73596417  1
  Ni  Ni1  1  0.27159701  0.96567001  0.76403583  1
  Ni  Ni2  1  0.72840299  0.03432999  0.23596417  1
  Ni  Ni3  1  0.77159701  0.53432999  0.26403583  1
  P  P4  1  0.10629645  0.21185020  0.60439061  1
  P  P5  1  0.11433633  0.16518831  0.26399062  1
  P  P6  1  0.17774504  0.49618573  0.34242159  1
  P  P7  1  0.25148485  0.84777382  0.40251098  1
  P  P8  1  0.24851515  0.34777382  0.09748902  1
  P  P9  1  0.32225496  0.99618573  0.15757841  1
  P  P10  1  0.39370355  0.71185020  0.89560939  1
  P  P11  1  0.38566367  0.66518831  0.23600938  1
  P  P12  1  0.61433633  0.33481169  0.76399062  1
  P  P13  1  0.60629645  0.28814980  0.10439061  1
  P  P14  1  0.67774504  0.00381427  0.84242159  1
  P  P15  1  0.75148485  0.65222618  0.90251098  1
  P  P16  1  0.74851515  0.15222618  0.59748902  1
  P  P17  1  0.82225496  0.50381427  0.65757841  1
  P  P18  1  0.88566367  0.83481169  0.73600938  1
  P  P19  1  0.89370355  0.78814980  0.39560939  1
  O  O20  1  0.03482896  0.89993994  0.75463543  1
  O  O21  1  0.00287194  0.46936185  0.29566535  1
  O  O22  1  0.09498509  0.78068424  0.42624361  1
  O  O23  1  0.15800140  0.10269615  0.65774914  1
  O  O24  1  0.15956165  0.31090371  0.69049015  1
  O  O25  1  0.18645671  0.41922193  0.96666125  1
  O  O26  1  0.14578706  0.23299424  0.42122550  1
  O  O27  1  0.11760443  0.25528234  0.12830822  1
  O  O28  1  0.20912521  0.90509825  0.23642564  1
  O  O29  1  0.21963305  0.60131459  0.23647108  1
  O  O30  1  0.25369578  0.51240178  0.50781273  1
  O  O31  1  0.24630422  0.01240178  0.99218727  1
  O  O32  1  0.28036695  0.10131459  0.26352892  1
  O  O33  1  0.31354329  0.91922193  0.53333875  1
  O  O34  1  0.34043835  0.81090371  0.80950985  1
  O  O35  1  0.29087479  0.40509825  0.26357436  1
  O  O36  1  0.34199860  0.60269615  0.84225086  1
  O  O37  1  0.38239557  0.75528234  0.37169178  1
  O  O38  1  0.35421294  0.73299424  0.07877450  1
  O  O39  1  0.40501491  0.28068424  0.07375639  1
  O  O40  1  0.46517104  0.39993994  0.74536457  1
  O  O41  1  0.50287194  0.03063815  0.79566535  1
  O  O42  1  0.49712806  0.96936185  0.20433465  1
  O  O43  1  0.53482896  0.60006006  0.25463543  1
  O  O44  1  0.59498509  0.71931576  0.92624361  1
  O  O45  1  0.64578706  0.26700576  0.92122550  1
  O  O46  1  0.61760443  0.24471766  0.62830822  1
  O  O47  1  0.65800140  0.39730385  0.15774914  1
  O  O48  1  0.70912521  0.59490175  0.73642564  1
  O  O49  1  0.65956165  0.18909629  0.19049015  1
  O  O50  1  0.68645671  0.08077807  0.46666125  1
  O  O51  1  0.71963305  0.89868541  0.73647108  1
  O  O52  1  0.75369578  0.98759822  0.00781273  1
  O  O53  1  0.74630422  0.48759822  0.49218727  1
  O  O54  1  0.78036695  0.39868541  0.76352892  1
  O  O55  1  0.79087479  0.09490175  0.76357436  1
  O  O56  1  0.88239557  0.74471766  0.87169178  1
  O  O57  1  0.85421294  0.76700576  0.57877450  1
  O  O58  1  0.81354329  0.58077807  0.03333875  1
  O  O59  1  0.84043835  0.68909629  0.30950985  1
  O  O60  1  0.84199860  0.89730385  0.34225086  1
  O  O61  1  0.90501491  0.21931576  0.57375639  1
  O  O62  1  0.99712806  0.53063815  0.70433465  1
  O  O63  1  0.96517104  0.10006006  0.24536457  1
