# generated using pymatgen
data_Li2CoSiO4
_symmetry_space_group_name_H-M   'P 1'
_cell_length_a   5.12597381
_cell_length_b   6.29900538
_cell_length_c   10.77594712
_cell_angle_alpha   90.09667261
_cell_angle_beta   90.00000000
_cell_angle_gamma   90.00000000
_symmetry_Int_Tables_number   1
_chemical_formula_structural   Li2CoSiO4
_chemical_formula_sum   'Li8 Co4 Si4 O16'
_cell_volume   347.93906768
_cell_formula_units_Z   4
loop_
 _symmetry_equiv_pos_site_id
 _symmetry_equiv_pos_as_xyz
  1  'x, y, z'
loop_
 _atom_site_type_symbol
 _atom_site_label
 _atom_site_symmetry_multiplicity
 _atom_site_fract_x
 _atom_site_fract_y
 _atom_site_fract_z
 _atom_site_occupancy
  Li  Li0  1  0.79646653  0.87006542  0.07469835  1
  Li  Li1  1  0.19285844  0.12141547  0.16147256  1
  Li  Li2  1  0.69182597  0.62170164  0.33683132  1
  Li  Li3  1  0.30111383  0.36980392  0.42513565  1
  Li  Li4  1  0.70353347  0.87006542  0.57469835  1
  Li  Li5  1  0.30714156  0.12141547  0.66147256  1
  Li  Li6  1  0.80817403  0.62170164  0.83683132  1
  Li  Li7  1  0.19888617  0.36980392  0.92513565  1
  Co  Co8  1  0.68945095  0.11633655  0.33330221  1
  Co  Co9  1  0.81054905  0.11633655  0.83330221  1
  Co  Co10  1  0.18771610  0.61627610  0.16515590  1
  Co  Co11  1  0.31228390  0.61627610  0.66515590  1
  Si  Si12  1  0.69086748  0.36962223  0.08722879  1
  Si  Si13  1  0.19145766  0.86848882  0.41131650  1
  Si  Si14  1  0.80913252  0.36962223  0.58722879  1
  Si  Si15  1  0.30854234  0.86848882  0.91131650  1
  O  O16  1  0.19831559  0.86752334  0.05469979  1
  O  O17  1  0.36819898  0.36980057  0.08864051  1
  O  O18  1  0.79519537  0.58480547  0.16009539  1
  O  O19  1  0.79859263  0.15460059  0.15962729  1
  O  O20  1  0.29693766  0.65252063  0.33898864  1
  O  O21  1  0.29734470  0.08293739  0.33838818  1
  O  O22  1  0.86856892  0.87021498  0.40989361  1
  O  O23  1  0.69831237  0.36833189  0.44389834  1
  O  O24  1  0.30168441  0.86752334  0.55469979  1
  O  O25  1  0.13180102  0.36980057  0.58864051  1
  O  O26  1  0.70480463  0.58480547  0.66009539  1
  O  O27  1  0.70140737  0.15460059  0.65962729  1
  O  O28  1  0.20306234  0.65252063  0.83898864  1
  O  O29  1  0.20265530  0.08293739  0.83838818  1
  O  O30  1  0.63143108  0.87021498  0.90989361  1
  O  O31  1  0.80168763  0.36833189  0.94389834  1
