# generated using pymatgen
data_Li2FeSiO4
_symmetry_space_group_name_H-M   'P 1'
_cell_length_a   6.35885223
_cell_length_b   10.79085683
_cell_length_c   5.13744383
_cell_angle_alpha   90.00000000
_cell_angle_beta   90.00000000
_cell_angle_gamma   90.00000000
_symmetry_Int_Tables_number   1
_chemical_formula_structural   Li2FeSiO4
_chemical_formula_sum   'Li8 Fe4 Si4 O16'
_cell_volume   352.51836714
_cell_formula_units_Z   4
loop_
 _symmetry_equiv_pos_site_id
 _symmetry_equiv_pos_as_xyz
  1  'x, y, z'
loop_
 _atom_site_type_symbol
 _atom_site_label
 _atom_site_symmetry_multiplicity
 _atom_site_fract_x
 _atom_site_fract_y
 _atom_site_fract_z
 _atom_site_occupancy
  Li  Li0  1  0.99338227  0.33088280  0.20619697  1
  Li  Li1  1  0.99338227  0.83088280  0.29380303  1
  Li  Li2  1  0.50661773  0.33088280  0.20619697  1
  Li  Li3  1  0.50661773  0.83088280  0.29380303  1
  Li  Li4  1  0.49338227  0.16911720  0.70619697  1
  Li  Li5  1  0.49338227  0.66911720  0.79380303  1
  Li  Li6  1  0.00661773  0.66911720  0.79380303  1
  Li  Li7  1  0.00661773  0.16911720  0.70619697  1
  Fe  Fe8  1  0.25000000  0.42004950  0.80188316  1
  Fe  Fe9  1  0.25000000  0.92004950  0.69811684  1
  Fe  Fe10  1  0.75000000  0.07995050  0.30188316  1
  Fe  Fe11  1  0.75000000  0.57995050  0.19811684  1
  Si  Si12  1  0.25000000  0.08335650  0.19509753  1
  Si  Si13  1  0.25000000  0.58335650  0.30490247  1
  Si  Si14  1  0.75000000  0.41664350  0.69509753  1
  Si  Si15  1  0.75000000  0.91664350  0.80490247  1
  O  O16  1  0.03862772  0.15616670  0.30514673  1
  O  O17  1  0.03862772  0.65616670  0.19485327  1
  O  O18  1  0.25000000  0.08848496  0.87356859  1
  O  O19  1  0.25000000  0.43737665  0.21143415  1
  O  O20  1  0.25000000  0.93737665  0.28856585  1
  O  O21  1  0.25000000  0.58848496  0.62643141  1
  O  O22  1  0.46137228  0.15616670  0.30514673  1
  O  O23  1  0.46137228  0.65616670  0.19485327  1
  O  O24  1  0.53862772  0.84383330  0.69485327  1
  O  O25  1  0.53862772  0.34383330  0.80514673  1
  O  O26  1  0.75000000  0.06262335  0.71143415  1
  O  O27  1  0.75000000  0.41151504  0.37356859  1
  O  O28  1  0.75000000  0.56262335  0.78856585  1
  O  O29  1  0.75000000  0.91151504  0.12643141  1
  O  O30  1  0.96137228  0.34383330  0.80514673  1
  O  O31  1  0.96137228  0.84383330  0.69485327  1
