# generated using pymatgen
data_Na5(WO3)13
_symmetry_space_group_name_H-M   'P 1'
_cell_length_a   9.55014277
_cell_length_b   9.54910434
_cell_length_c   8.71946730
_cell_angle_alpha   90.00210451
_cell_angle_beta   79.48397397
_cell_angle_gamma   99.58242909
_symmetry_Int_Tables_number   1
_chemical_formula_structural   Na5(WO3)13
_chemical_formula_sum   'Na5 W13 O39'
_cell_volume   770.53235168
_cell_formula_units_Z   1
loop_
 _symmetry_equiv_pos_site_id
 _symmetry_equiv_pos_as_xyz
  1  'x, y, z'
loop_
 _atom_site_type_symbol
 _atom_site_label
 _atom_site_symmetry_multiplicity
 _atom_site_fract_x
 _atom_site_fract_y
 _atom_site_fract_z
 _atom_site_occupancy
  Na  Na0  1  0.38473615  0.23114066  0.92337032  1
  Na  Na1  1  0.84603385  0.30732134  0.23047568  1
  Na  Na2  1  0.15407918  0.69202314  0.76982876  1
  Na  Na3  1  0.61538500  0.76923100  0.07692300  1
  Na  Na4  1  0.07668982  0.84643886  0.38401724  1
  W  W5  1  0.69426380  0.11658859  0.95873124  1
  W  W6  1  0.84485738  0.80900929  0.72963548  1
  W  W7  1  0.07688518  0.34490336  0.88287781  1
  W  W8  1  0.61538500  0.26923100  0.57692300  1
  W  W9  1  0.46385267  0.57621306  0.80560586  1
  W  W10  1  0.23202418  0.04083504  0.65224279  1
  W  W11  1  0.76691633  0.96224894  0.34824014  1
  W  W12  1  0.92228941  0.65349879  0.11556204  1
  W  W13  1  0.99874482  0.49762596  0.50160321  1
  W  W14  1  0.53650520  0.42187241  0.19511576  1
  W  W15  1  0.38591162  0.72945271  0.42421052  1
  W  W16  1  0.15388482  0.19355764  0.27096819  1
  W  W17  1  0.30847959  0.88496221  0.03828396  1
  O  O18  1  0.88465211  0.23167061  0.92582936  1
  O  O19  1  0.88446466  0.73077955  0.92319951  1
  O  O20  1  0.65131137  0.19266024  0.77081926  1
  O  O21  1  0.15620683  0.19264754  0.77049346  1
  O  O22  1  0.65375212  0.69333669  0.77186620  1
  O  O23  1  0.38475769  0.73086120  0.92306133  1
  O  O24  1  0.76772178  0.95964268  0.84826320  1
  O  O25  1  0.69375915  0.11719026  0.45928800  1
  O  O26  1  0.96142928  0.07690933  0.30794998  1
  O  O27  1  0.80828758  0.38384991  0.53564648  1
  O  O28  1  0.92673497  0.65623508  0.61473734  1
  O  O29  1  0.53700985  0.42127074  0.69455800  1
  O  O30  1  0.26934072  0.46155167  0.84589602  1
  O  O31  1  0.42248142  0.15461209  0.61819952  1
  O  O32  1  0.96133238  0.57685375  0.30749815  1
  O  O33  1  0.73072207  0.03861153  0.15363769  1
  O  O34  1  0.81013197  0.88441539  0.53678610  1
  O  O35  1  0.57945763  0.34580076  0.38302674  1
  O  O36  1  0.26943662  0.96160725  0.84634785  1
  O  O37  1  0.42063703  0.65404561  0.61705990  1
  O  O38  1  0.03943706  0.42544129  0.69330976  1
  O  O39  1  0.19133194  0.11301971  0.46053624  1
  O  O40  1  0.30403403  0.88222592  0.53910866  1
  O  O41  1  0.57701688  0.84512431  0.38198080  1
  O  O42  1  0.46304722  0.57881832  0.30558280  1
  O  O43  1  0.23090325  0.03830628  0.15382048  1
  O  O44  1  0.61538500  0.26923100  0.07692300  1
  O  O45  1  0.73075758  0.53852239  0.15394749  1
  O  O46  1  0.84601131  0.80759980  0.23078567  1
  O  O47  1  0.07456217  0.34581446  0.38335254  1
  O  O48  1  0.50001242  -0.00006139  0.99989851  1
  O  O49  1  0.34611689  0.30679139  0.22801664  1
  O  O50  1  0.19067078  0.61815716  0.46410311  1
  O  O51  1  0.04009822  0.92030384  0.68974289  1
  O  O52  1  0.50004693  0.49985047  0.00020831  1
  O  O53  1  0.11538500  0.26923100  0.07692300  1
  O  O54  1  0.34630434  0.80768145  0.23064649  1
  O  O55  1  0.99986575  0.50015472  0.00002552  1
  O  O56  1  0.11538500  0.76923100  0.07692300  1
