# generated using pymatgen
data_Li2FeSiO4
_symmetry_space_group_name_H-M   'P 1'
_cell_length_a   5.05774875
_cell_length_b   6.29576618
_cell_length_c   11.01063610
_cell_angle_alpha   89.86419746
_cell_angle_beta   90.00038917
_cell_angle_gamma   89.96499471
_symmetry_Int_Tables_number   1
_chemical_formula_structural   Li2FeSiO4
_chemical_formula_sum   'Li8 Fe4 Si4 O16'
_cell_volume   350.60406749
_cell_formula_units_Z   4
loop_
 _symmetry_equiv_pos_site_id
 _symmetry_equiv_pos_as_xyz
  1  'x, y, z'
loop_
 _atom_site_type_symbol
 _atom_site_label
 _atom_site_symmetry_multiplicity
 _atom_site_fract_x
 _atom_site_fract_y
 _atom_site_fract_z
 _atom_site_occupancy
  Li  Li0  1  0.73513491  0.24805007  0.92509206  1
  Li  Li1  1  0.23609516  0.00226803  0.84291711  1
  Li  Li2  1  0.73909788  0.49954997  0.66080794  1
  Li  Li3  1  0.23874671  0.74461017  0.57769083  1
  Li  Li4  1  0.73838108  0.25332471  0.42616371  1
  Li  Li5  1  0.23941129  0.49859678  0.34272749  1
  Li  Li6  1  0.73839271  0.99959041  0.16030891  1
  Li  Li7  1  0.23575795  0.75404250  0.07830075  1
  Fe  Fe8  1  0.73733254  0.98880117  0.66888656  1
  Fe  Fe9  1  0.73630785  0.50851972  0.16862377  1
  Fe  Fe10  1  0.23572234  0.49306961  0.83496393  1
  Fe  Fe11  1  0.23858170  0.00914825  0.33479090  1
  Si  Si12  1  0.74203545  0.75022993  0.91424276  1
  Si  Si13  1  0.24437567  0.24736276  0.58980285  1
  Si  Si14  1  0.74547592  0.75095914  0.41397776  1
  Si  Si15  1  0.24260427  0.25151875  0.08911088  1
  O  O16  1  0.13212227  0.25238519  0.94791632  1
  O  O17  1  0.06839952  0.74985007  0.91414730  1
  O  O18  1  0.63626002  0.96950460  0.84606216  1
  O  O19  1  0.64224577  0.53503067  0.83959555  1
  O  O20  1  0.13816740  0.46584291  0.65788941  1
  O  O21  1  0.14379589  0.03091477  0.66363235  1
  O  O22  1  0.57062150  0.24746640  0.59021248  1
  O  O23  1  0.63631504  0.75023581  0.55531141  1
  O  O24  1  0.13575984  0.24809156  0.44802517  1
  O  O25  1  0.07193386  0.75074875  0.41349459  1
  O  O26  1  0.63926485  0.53222115  0.34587762  1
  O  O27  1  0.64531506  0.96738512  0.33970667  1
  O  O28  1  0.13786875  0.03238976  0.15769044  1
  O  O29  1  0.14287538  0.46707286  0.16373802  1
  O  O30  1  0.56910422  0.25198056  0.08912225  1
  O  O31  1  0.63260922  0.74919486  0.05575903  1
