# generated using pymatgen
data_Na2In2P4H6O17
_symmetry_space_group_name_H-M   'P 1'
_cell_length_a   9.41861529
_cell_length_b   9.60377478
_cell_length_c   9.36900758
_cell_angle_alpha   90.00588379
_cell_angle_beta   99.19942010
_cell_angle_gamma   60.90855781
_symmetry_Int_Tables_number   1
_chemical_formula_structural   Na2In2P4H6O17
_chemical_formula_sum   'Na4 In4 P8 H12 O34'
_cell_volume   728.06312111
_cell_formula_units_Z   2
loop_
 _symmetry_equiv_pos_site_id
 _symmetry_equiv_pos_as_xyz
  1  'x, y, z'
loop_
 _atom_site_type_symbol
 _atom_site_label
 _atom_site_symmetry_multiplicity
 _atom_site_fract_x
 _atom_site_fract_y
 _atom_site_fract_z
 _atom_site_occupancy
  Na  Na0  1  0.88969054  0.19897580  0.25098006  1
  Na  Na1  1  0.52024775  0.70205108  0.69374972  1
  Na  Na2  1  0.47975225  0.29794892  0.30625028  1
  Na  Na3  1  0.11030946  0.80102420  0.74901994  1
  In  In4  1  0.75241705  0.70991155  0.13293572  1
  In  In5  1  0.73938695  0.21855324  0.63161008  1
  In  In6  1  0.26061305  0.78144676  0.36838992  1
  In  In7  1  0.24758295  0.29008845  0.86706428  1
  P  P8  1  0.84820195  0.91557549  0.40482290  1
  P  P9  1  0.83735494  0.41816216  0.88914542  1
  P  P10  1  0.69362973  0.54802445  0.42076636  1
  P  P11  1  0.33891741  0.99439289  0.13858547  1
  P  P12  1  0.66108259  0.00560711  0.86141453  1
  P  P13  1  0.30637027  0.45197555  0.57923364  1
  P  P14  1  0.16264506  0.58183784  0.11085458  1
  P  P15  1  0.15179805  0.08442451  0.59517710  1
  H  H16  1  0.95990776  0.79924987  0.99002392  1
  H  H17  1  0.87635388  0.73007704  0.55843436  1
  H  H18  1  0.87905307  0.49513843  0.63134334  1
  H  H19  1  0.45895269  0.01058344  0.70762278  1
  H  H20  1  0.60047898  0.39690665  0.09041307  1
  H  H21  1  0.59107558  0.24390231  0.04249751  1
  H  H22  1  0.40892442  0.75609769  0.95750249  1
  H  H23  1  0.39952102  0.60309335  0.90958693  1
  H  H24  1  0.54104731  0.98941656  0.29237722  1
  H  H25  1  0.12094693  0.50486157  0.36865666  1
  H  H26  1  0.12364612  0.26992296  0.44156564  1
  H  H27  1  0.04009224  0.20075013  0.00997608  1
  O  O28  1  0.98704366  0.91271743  0.33656711  1
  O  O29  1  0.93235014  0.79380013  0.54944369  1
  O  O30  1  0.73866320  0.86023981  0.30982596  1
  O  O31  1  0.97656611  0.41120504  0.81579318  1
  O  O32  1  0.91839347  0.27527447  0.01446990  1
  O  O33  1  0.77032053  0.87784680  0.99032647  1
  O  O34  1  0.81175492  0.57899422  0.54876531  1
  O  O35  1  0.76039470  0.53408207  0.27905912  1
  O  O36  1  0.57749466  0.92854222  0.74959832  1
  O  O37  1  0.47819930  0.84318448  0.08948461  1
  O  O38  1  0.73895958  0.57683789  0.95298196  1
  O  O39  1  0.70064127  0.38914515  0.45744150  1
  O  O40  1  0.52477674  0.69658614  0.41935315  1
  O  O41  1  0.70944998  0.40148629  0.77512944  1
  O  O42  1  0.62650177  0.29127472  0.12680164  1
  O  O43  1  0.73360426  0.08467698  0.44395578  1
  O  O44  1  0.78038151  0.03763539  0.79140283  1
  O  O45  1  0.21961849  0.96236461  0.20859717  1
  O  O46  1  0.26639574  0.91532302  0.55604422  1
  O  O47  1  0.37349823  0.70872528  0.87319836  1
  O  O48  1  0.29055002  0.59851371  0.22487056  1
  O  O49  1  0.47522326  0.30341386  0.58064685  1
  O  O50  1  0.29935873  0.61085485  0.54255850  1
  O  O51  1  0.26104042  0.42316211  0.04701804  1
  O  O52  1  0.52180070  0.15681552  0.91051539  1
  O  O53  1  0.42250534  0.07145778  0.25040168  1
  O  O54  1  0.23960530  0.46591793  0.72094088  1
  O  O55  1  0.18824508  0.42100578  0.45123469  1
  O  O56  1  0.22967947  0.12215320  0.00967353  1
  O  O57  1  0.08160653  0.72472553  0.98553010  1
  O  O58  1  0.02343389  0.58879496  0.18420682  1
  O  O59  1  0.26133680  0.13976019  0.69017404  1
  O  O60  1  0.06764986  0.20619987  0.45055631  1
  O  O61  1  0.01295634  0.08728257  0.66343289  1
