# generated using pymatgen
data_KLiH2WO5
_symmetry_space_group_name_H-M   'P 1'
_cell_length_a   10.83736173
_cell_length_b   7.86785751
_cell_length_c   13.02876873
_cell_angle_alpha   90.00000000
_cell_angle_beta   90.00000000
_cell_angle_gamma   90.00000000
_symmetry_Int_Tables_number   1
_chemical_formula_structural   KLiH2WO5
_chemical_formula_sum   'K8 Li8 H16 W8 O40'
_cell_volume   1110.92165045
_cell_formula_units_Z   8
loop_
 _symmetry_equiv_pos_site_id
 _symmetry_equiv_pos_as_xyz
  1  'x, y, z'
loop_
 _atom_site_type_symbol
 _atom_site_label
 _atom_site_symmetry_multiplicity
 _atom_site_fract_x
 _atom_site_fract_y
 _atom_site_fract_z
 _atom_site_occupancy
  K  K0  1  0.19714804  0.30697400  0.36866872  1
  K  K1  1  0.19714804  0.19302600  0.86866872  1
  K  K2  1  0.30285196  0.80697400  0.36866872  1
  K  K3  1  0.30285196  0.69302600  0.86866872  1
  K  K4  1  0.69714804  0.30697400  0.13133128  1
  K  K5  1  0.69714804  0.19302600  0.63133128  1
  K  K6  1  0.80285196  0.69302600  0.63133128  1
  K  K7  1  0.80285196  0.80697400  0.13133128  1
  Li  Li8  1  0.06930130  0.98230466  0.17716831  1
  Li  Li9  1  0.06930130  0.51769534  0.67716831  1
  Li  Li10  1  0.43069870  0.48230466  0.17716831  1
  Li  Li11  1  0.43069870  0.01769534  0.67716831  1
  Li  Li12  1  0.56930130  0.51769534  0.82283169  1
  Li  Li13  1  0.56930130  0.98230466  0.32283169  1
  Li  Li14  1  0.93069870  0.01769534  0.82283169  1
  Li  Li15  1  0.93069870  0.48230466  0.32283169  1
  H  H16  1  0.02490940  0.74458053  0.36151880  1
  H  H17  1  0.02490940  0.75541947  0.86151880  1
  H  H18  1  0.05328929  0.66180706  0.46939806  1
  H  H19  1  0.05328929  0.83819294  0.96939806  1
  H  H20  1  0.44671071  0.16180706  0.46939806  1
  H  H21  1  0.44671071  0.33819294  0.96939806  1
  H  H22  1  0.47509060  0.24458053  0.36151880  1
  H  H23  1  0.47509060  0.25541947  0.86151880  1
  H  H24  1  0.52490940  0.74458053  0.13848120  1
  H  H25  1  0.52490940  0.75541947  0.63848120  1
  H  H26  1  0.55328929  0.66180706  0.03060194  1
  H  H27  1  0.55328929  0.83819294  0.53060194  1
  H  H28  1  0.94671071  0.16180706  0.03060194  1
  H  H29  1  0.94671071  0.33819294  0.53060194  1
  H  H30  1  0.97509060  0.24458053  0.13848120  1
  H  H31  1  0.97509060  0.25541947  0.63848120  1
  W  W32  1  0.13056226  0.56140092  0.12448848  1
  W  W33  1  0.13056226  0.93859908  0.62448848  1
  W  W34  1  0.36943774  0.06140092  0.12448848  1
  W  W35  1  0.36943774  0.43859908  0.62448848  1
  W  W36  1  0.63056226  0.56140092  0.37551152  1
  W  W37  1  0.63056226  0.93859908  0.87551152  1
  W  W38  1  0.86943774  0.06140092  0.37551152  1
  W  W39  1  0.86943774  0.43859908  0.87551152  1
  O  O40  1  0.01867938  0.42970071  0.19368502  1
  O  O41  1  0.01867938  0.07029929  0.69368502  1
  O  O42  1  0.05039240  0.63558136  0.39481883  1
  O  O43  1  0.05039240  0.86441864  0.89481883  1
  O  O44  1  0.06600097  0.77241641  0.10055535  1
  O  O45  1  0.06600097  0.72758359  0.60055535  1
  O  O46  1  0.17016655  0.46691256  0.00363763  1
  O  O47  1  0.17016655  0.03308744  0.50363763  1
  O  O48  1  0.23158105  0.07878644  0.20371837  1
  O  O49  1  0.23158105  0.42121356  0.70371837  1
  O  O50  1  0.26841895  0.57878644  0.20371837  1
  O  O51  1  0.26841895  0.92121356  0.70371837  1
  O  O52  1  0.32983345  0.96691256  0.00363763  1
  O  O53  1  0.32983345  0.53308744  0.50363763  1
  O  O54  1  0.43399903  0.27241641  0.10055535  1
  O  O55  1  0.43399903  0.22758359  0.60055535  1
  O  O56  1  0.44960760  0.13558136  0.39481883  1
  O  O57  1  0.44960760  0.36441864  0.89481883  1
  O  O58  1  0.48132062  0.57029929  0.69368502  1
  O  O59  1  0.48132062  0.92970071  0.19368502  1
  O  O60  1  0.51867938  0.42970071  0.30631498  1
  O  O61  1  0.51867938  0.07029929  0.80631498  1
  O  O62  1  0.55039240  0.63558136  0.10518117  1
  O  O63  1  0.55039240  0.86441864  0.60518117  1
  O  O64  1  0.56600097  0.77241641  0.39944465  1
  O  O65  1  0.56600097  0.72758359  0.89944465  1
  O  O66  1  0.67016655  0.46691256  0.49636237  1
  O  O67  1  0.67016655  0.03308744  0.99636237  1
  O  O68  1  0.73158105  0.07878644  0.29628163  1
  O  O69  1  0.73158105  0.42121356  0.79628163  1
  O  O70  1  0.76841895  0.57878644  0.29628163  1
  O  O71  1  0.76841895  0.92121356  0.79628163  1
  O  O72  1  0.82983345  0.53308744  0.99636237  1
  O  O73  1  0.82983345  0.96691256  0.49636237  1
  O  O74  1  0.93399903  0.22758359  0.89944465  1
  O  O75  1  0.93399903  0.27241641  0.39944465  1
  O  O76  1  0.94960760  0.13558136  0.10518117  1
  O  O77  1  0.94960760  0.36441864  0.60518117  1
  O  O78  1  0.98132062  0.57029929  0.80631498  1
  O  O79  1  0.98132062  0.92970071  0.30631498  1
