# generated using pymatgen
data_CaMg14Mn
_symmetry_space_group_name_H-M   'P 1'
_cell_length_a   6.42306808
_cell_length_b   6.42306755
_cell_length_c   10.34122344
_cell_angle_alpha   90.00000000
_cell_angle_beta   90.00000000
_cell_angle_gamma   120.00000275
_symmetry_Int_Tables_number   1
_chemical_formula_structural   CaMg14Mn
_chemical_formula_sum   'Ca1 Mg14 Mn1'
_cell_volume   369.47712526
_cell_formula_units_Z   1
loop_
 _symmetry_equiv_pos_site_id
 _symmetry_equiv_pos_as_xyz
  1  'x, y, z'
loop_
 _atom_site_type_symbol
 _atom_site_label
 _atom_site_symmetry_multiplicity
 _atom_site_fract_x
 _atom_site_fract_y
 _atom_site_fract_z
 _atom_site_occupancy
  Ca  Ca0  1  0.16666700  0.33333300  0.12500000  1
  Mg  Mg1  1  0.17472944  0.83736422  0.12500000  1
  Mg  Mg2  1  0.16590844  0.83295372  0.62500000  1
  Mg  Mg3  1  0.66263578  0.32527056  0.12500000  1
  Mg  Mg4  1  0.66704628  0.33409156  0.62500000  1
  Mg  Mg5  1  0.66263578  0.83736422  0.12500000  1
  Mg  Mg6  1  0.66704628  0.83295372  0.62500000  1
  Mg  Mg7  1  0.33264154  0.16735846  0.38630892  1
  Mg  Mg8  1  0.33264154  0.16735846  0.86369108  1
  Mg  Mg9  1  0.33264154  0.66528408  0.38630892  1
  Mg  Mg10  1  0.33264154  0.66528408  0.86369108  1
  Mg  Mg11  1  0.83471592  0.16735846  0.38630892  1
  Mg  Mg12  1  0.83471592  0.16735846  0.86369108  1
  Mg  Mg13  1  0.83333300  0.66666700  0.37079162  1
  Mg  Mg14  1  0.83333300  0.66666700  0.87920838  1
  Mn  Mn15  1  0.16666700  0.33333300  0.62500000  1
