# generated using pymatgen
data_Li2MnV(P2O7)2
_symmetry_space_group_name_H-M   'P 1'
_cell_length_a   4.86871576
_cell_length_b   8.29607179
_cell_length_c   20.11759438
_cell_angle_alpha   90.46390394
_cell_angle_beta   95.43962161
_cell_angle_gamma   89.76541316
_symmetry_Int_Tables_number   1
_chemical_formula_structural   Li2MnV(P2O7)2
_chemical_formula_sum   'Li6 Mn3 V3 P12 O42'
_cell_volume   808.88375049
_cell_formula_units_Z   3
loop_
 _symmetry_equiv_pos_site_id
 _symmetry_equiv_pos_as_xyz
  1  'x, y, z'
loop_
 _atom_site_type_symbol
 _atom_site_label
 _atom_site_symmetry_multiplicity
 _atom_site_fract_x
 _atom_site_fract_y
 _atom_site_fract_z
 _atom_site_occupancy
  Li  Li0  1  0.05112991  0.35952410  0.77530968  1
  Li  Li1  1  0.28152808  0.85983155  0.89082999  1
  Li  Li2  1  0.38163853  0.36005663  0.44206587  1
  Li  Li3  1  0.61633838  0.86212527  0.55811214  1
  Li  Li4  1  0.71436402  0.36150419  0.10791298  1
  Li  Li5  1  0.95151863  0.86225122  0.22527364  1
  Mn  Mn6  1  0.02945386  0.99716240  0.75662211  1
  Mn  Mn7  1  0.30387124  0.49708422  0.90952429  1
  Mn  Mn8  1  0.36122332  -0.00084481  0.42316670  1
  V  V9  1  0.63858303  0.49925424  0.57588271  1
  V  V10  1  0.69448432  0.00119538  0.09035973  1
  V  V11  1  0.97240195  0.50107160  0.24297706  1
  P  P12  1  0.15065566  0.28695389  0.63752668  1
  P  P13  1  0.10772616  0.67986736  0.49401356  1
  P  P14  1  0.22626804  0.18044986  0.17436859  1
  P  P15  1  0.18359093  0.78717958  0.02921974  1
  P  P16  1  0.56066089  0.17634548  0.83878122  1
  P  P17  1  0.51819378  0.78347272  0.69620800  1
  P  P18  1  0.48444163  0.28785234  0.30444306  1
  P  P19  1  0.44072082  0.68184851  0.15891104  1
  P  P20  1  0.81587396  0.28401899  0.97078014  1
  P  P21  1  0.77283548  0.67730654  0.82798991  1
  P  P22  1  0.89393299  0.17869145  0.50745871  1
  P  P23  1  0.85085716  0.78429567  0.36248685  1
  O  O24  1  0.10595180  0.32515675  0.95198838  1
  O  O25  1  0.01412072  0.15280437  0.58420057  1
  O  O26  1  0.16424695  0.70290789  0.96157147  1
  O  O27  1  0.16910764  0.20289674  0.70466925  1
  O  O28  1  0.03438119  0.93414479  0.36083431  1
  O  O29  1  0.22714737  0.82539913  0.71491708  1
  O  O30  1  0.13878459  0.17672199  0.46394231  1
  O  O31  1  0.02527553  0.03953213  0.16070862  1
  O  O32  1  0.07919020  0.34435087  0.16892491  1
  O  O33  1  0.36183211  0.03277261  0.82720571  1
  O  O34  1  0.25282086  0.84222931  0.50192857  1
  O  O35  1  0.41739212  0.33947127  0.83164563  1
  O  O36  1  0.30615210  0.53621717  0.50563375  1
  O  O37  1  0.19416942  0.67826387  0.20151965  1
  O  O38  1  0.29520236  0.43709324  0.30421284  1
  O  O39  1  0.52400636  0.67195497  0.87003568  1
  O  O40  1  0.43259451  0.32772114  0.61529656  1
  O  O41  1  0.34581172  0.15410588  0.25136727  1
  O  O42  1  0.62999757  0.43398227  0.97233559  1
  O  O43  1  0.50456306  0.69371486  0.62964538  1
  O  O44  1  0.32184550  0.65411532  0.08187939  1
  O  O45  1  0.68052150  0.15388382  0.91630108  1
  O  O46  1  0.50344765  0.20465735  0.37178348  1
  O  O47  1  0.37059851  0.93603543  0.02980112  1
  O  O48  1  0.65313643  0.65408839  0.75020055  1
  O  O49  1  0.56031794  0.82474592  0.38136559  1
  O  O50  1  0.47248279  0.17707741  0.13189411  1
  O  O51  1  0.70319673  0.93333503  0.69508791  1
  O  O52  1  0.81054634  0.17091991  0.79661991  1
  O  O53  1  0.69527164  0.03615023  0.49416466  1
  O  O54  1  0.58677371  0.84509704  0.16410909  1
  O  O55  1  0.74736369  0.34231834  0.50263620  1
  O  O56  1  0.64207921  0.53970350  0.17218846  1
  O  O57  1  0.91578688  0.83993636  0.83540335  1
  O  O58  1  0.97102824  0.53316112  0.83917408  1
  O  O59  1  0.85691023  0.67409440  0.53502678  1
  O  O60  1  0.76605299  0.32718066  0.28171589  1
  O  O61  1  0.96198768  0.43597146  0.63731817  1
  O  O62  1  0.83638472  0.69546927  0.29564057  1
  O  O63  1  0.82907562  0.19550188  0.03706416  1
  O  O64  1  0.98896730  0.65559215  0.41616608  1
  O  O65  1  0.90118575  0.82776540  0.05165043  1
