# generated using pymatgen
data_Li2FeSiO4
_symmetry_space_group_name_H-M   'P 1'
_cell_length_a   6.29350361
_cell_length_b   5.49334788
_cell_length_c   5.05807885
_cell_angle_alpha   90.00000000
_cell_angle_beta   89.45543132
_cell_angle_gamma   90.00000000
_symmetry_Int_Tables_number   1
_chemical_formula_structural   Li2FeSiO4
_chemical_formula_sum   'Li4 Fe2 Si2 O8'
_cell_volume   174.86205074
_cell_formula_units_Z   2
loop_
 _symmetry_equiv_pos_site_id
 _symmetry_equiv_pos_as_xyz
  1  'x, y, z'
loop_
 _atom_site_type_symbol
 _atom_site_label
 _atom_site_symmetry_multiplicity
 _atom_site_fract_x
 _atom_site_fract_y
 _atom_site_fract_z
 _atom_site_occupancy
  Li  Li0  1  0.00189591  0.81580319  0.50312414  1
  Li  Li1  1  0.25327067  0.34177605  0.50036135  1
  Li  Li2  1  0.50189591  0.18419681  0.00312314  1
  Li  Li3  1  0.75327067  0.65822395  0.00036135  1
  Fe  Fe4  1  0.00982437  0.17143671  -0.00001363  1
  Fe  Fe5  1  0.50982437  0.82856329  0.49998637  1
  Si  Si6  1  0.25402854  0.67559294  0.00711547  1
  Si  Si7  1  0.75402854  0.32440706  0.50711547  1
  O  O8  1  0.03587912  0.81564380  0.90344013  1
  O  O9  1  0.25481869  0.39349687  0.89488514  1
  O  O10  1  0.25288403  0.67146216  0.33332580  1
  O  O11  1  0.47062766  0.82483266  0.90719261  1
  O  O12  1  0.53587912  0.18435620  0.40344013  1
  O  O13  1  0.75481869  0.60650313  0.39488514  1
  O  O14  1  0.75288403  0.32853784  0.83332580  1
  O  O15  1  0.97062766  0.17516734  0.40719261  1
