# generated using pymatgen
data_H20C3(N2O5)2
_symmetry_space_group_name_H-M   'P 1'
_cell_length_a   6.40083194
_cell_length_b   6.40062892
_cell_length_c   8.78555500
_cell_angle_alpha   76.39555037
_cell_angle_beta   103.35824828
_cell_angle_gamma   68.95689001
_symmetry_Int_Tables_number   1
_chemical_formula_structural   H20C3(N2O5)2
_chemical_formula_sum   'H20 C3 N4 O10'
_cell_volume   306.12450475
_cell_formula_units_Z   1
loop_
 _symmetry_equiv_pos_site_id
 _symmetry_equiv_pos_as_xyz
  1  'x, y, z'
loop_
 _atom_site_type_symbol
 _atom_site_label
 _atom_site_symmetry_multiplicity
 _atom_site_fract_x
 _atom_site_fract_y
 _atom_site_fract_z
 _atom_site_occupancy
  H  H0  1  0.92004503  0.29079479  0.29115858  1
  H  H1  1  0.44157743  0.34410016  0.09845788  1
  H  H2  1  0.78423860  0.09873503  0.68518285  1
  H  H3  1  0.22277056  0.20180851  0.33544439  1
  H  H4  1  0.87809062  0.54431212  0.66024514  1
  H  H5  1  0.04654315  0.22401484  0.14937774  1
  H  H6  1  0.90138174  0.37340866  0.84821672  1
  H  H7  1  0.57512926  0.62807339  0.28851978  1
  H  H8  1  0.47953970  0.02191505  0.80246795  1
  H  H9  1  0.67764192  0.82000434  0.20014495  1
  H  H10  1  0.02075505  0.47678367  0.19540952  1
  H  H11  1  0.82528019  0.67179784  0.80489111  1
  H  H12  1  0.62686387  0.57878958  0.71354578  1
  H  H13  1  0.22558409  0.06060921  0.84873980  1
  H  H14  1  0.37617777  0.90411828  0.15053883  1
  H  H15  1  0.54041699  0.88000022  0.33909735  1
  H  H16  1  0.20572697  0.21957381  0.65939540  1
  H  H17  1  0.10342231  0.78597931  0.31350811  1
  H  H18  1  0.33780358  0.44798636  0.89844819  1
  H  H19  1  0.29066741  0.91620333  0.71494615  1
  C  C20  1  0.92982875  0.92863518  0.00132162  1
  C  C21  1  0.63580825  0.19629036  0.44344002  1
  C  C22  1  0.19383022  0.63973796  0.55597036  1
  N  N23  1  0.05219555  0.29841362  0.24293301  1
  N  N24  1  0.80693369  0.54273446  0.75632563  1
  N  N25  1  0.30074127  0.05370986  0.75605426  1
  N  N26  1  0.54302299  0.80732382  0.24466755  1
  O  O27  1  0.04877822  0.05705926  0.99886856  1
  O  O28  1  0.52500373  0.06810732  0.46767145  1
  O  O29  1  0.34097520  0.33555124  0.99845356  1
  O  O30  1  0.62155756  0.32355763  0.30215247  1
  O  O31  1  0.78492539  0.20212411  0.57772972  1
  O  O32  1  0.94296868  0.79577876  0.14370282  1
  O  O33  1  0.06001383  0.53481071  0.53112481  1
  O  O34  1  0.20779891  0.78321571  0.42286979  1
  O  O35  1  0.32174481  0.62177987  0.69845016  1
  O  O36  1  0.79893675  0.93248457  0.86232101  1
