# generated using pymatgen
data_VF4
_symmetry_space_group_name_H-M   'P 1'
_cell_length_a   5.19914522
_cell_length_b   6.26897629
_cell_length_c   5.47520220
_cell_angle_alpha   86.60931474
_cell_angle_beta   89.96880711
_cell_angle_gamma   65.63775156
_symmetry_Int_Tables_number   1
_chemical_formula_structural   VF4
_chemical_formula_sum   'V2 F8'
_cell_volume   162.22418492
_cell_formula_units_Z   2
loop_
 _symmetry_equiv_pos_site_id
 _symmetry_equiv_pos_as_xyz
  1  'x, y, z'
loop_
 _atom_site_type_symbol
 _atom_site_label
 _atom_site_symmetry_multiplicity
 _atom_site_fract_x
 _atom_site_fract_y
 _atom_site_fract_z
 _atom_site_occupancy
  V  V0  1  0.00080643  0.49900119  0.00276130  1
  V  V1  1  0.50254471  0.49593398  0.50303564  1
  F  F2  1  0.04442604  0.20514838  0.00314012  1
  F  F3  1  0.24637724  0.41675553  0.30009197  1
  F  F4  1  0.33814871  0.41630949  0.79835214  1
  F  F5  1  0.25332280  0.79078529  0.50095173  1
  F  F6  1  0.75856500  0.20456413  0.50222460  1
  F  F7  1  0.66622958  0.58083435  0.20567801  1
  F  F8  1  0.75844087  0.57705896  0.70614543  1
  F  F9  1  0.97118163  0.79013871  0.99818506  1
