# generated using pymatgen
data_Na5(NiO2)8
_symmetry_space_group_name_H-M   'P 1'
_cell_length_a   5.85425856
_cell_length_b   6.86940303
_cell_length_c   8.19318159
_cell_angle_alpha   81.13364865
_cell_angle_beta   102.49978311
_cell_angle_gamma   101.20568340
_symmetry_Int_Tables_number   1
_chemical_formula_structural   Na5(NiO2)8
_chemical_formula_sum   'Na5 Ni8 O16'
_cell_volume   313.38037871
_cell_formula_units_Z   1
loop_
 _symmetry_equiv_pos_site_id
 _symmetry_equiv_pos_as_xyz
  1  'x, y, z'
loop_
 _atom_site_type_symbol
 _atom_site_label
 _atom_site_symmetry_multiplicity
 _atom_site_fract_x
 _atom_site_fract_y
 _atom_site_fract_z
 _atom_site_occupancy
  Na  Na0  1  0.90656372  0.35735514  0.14521574  1
  Na  Na1  1  0.62500000  0.12500000  0.37500000  1
  Na  Na2  1  0.34343628  0.89264486  0.60478426  1
  Na  Na3  1  0.62500000  0.62500000  0.87500000  1
  Na  Na4  1  0.12500000  0.62500000  0.87500000  1
  Ni  Ni5  1  0.75004276  0.74802988  0.24978524  1
  Ni  Ni6  1  0.50183445  0.99972305  0.99902947  1
  Ni  Ni7  1  0.25096485  0.74687288  0.24689711  1
  Ni  Ni8  1  0.74816555  0.25027695  0.75097053  1
  Ni  Ni9  1  0.49995724  0.50197012  0.50021476  1
  Ni  Ni10  1  0.00076852  0.99821351  0.99881212  1
  Ni  Ni11  1  0.24923148  0.25178649  0.75118788  1
  Ni  Ni12  1  0.99903515  0.50312712  0.50310289  1
  O  O13  1  0.96467088  0.72308126  0.07838681  1
  O  O14  1  0.78082365  0.01970376  0.16352270  1
  O  O15  1  0.71921703  0.47680418  0.33652816  1
  O  O16  1  0.46153920  0.72851337  0.08253006  1
  O  O17  1  0.94318760  0.23023628  0.59922698  1
  O  O18  1  0.53078297  0.77319582  0.41347184  1
  O  O19  1  0.78846080  0.52148663  0.66746994  1
  O  O20  1  0.30681240  0.01976372  0.15077302  1
  O  O21  1  0.69477318  0.97649901  0.84336303  1
  O  O22  1  0.20831685  0.47905739  0.34442429  1
  O  O23  1  0.46917635  0.23029624  0.58647730  1
  O  O24  1  0.28532912  0.52691874  0.67161319  1
  O  O25  1  0.55522682  0.27350099  0.90663697  1
  O  O26  1  0.04168315  0.77094261  0.40557571  1
  O  O27  1  0.22136383  0.97890452  0.83381159  1
  O  O28  1  0.02863617  0.27109548  0.91618841  1
