# generated using pymatgen
data_Ca3Tl4O9
_symmetry_space_group_name_H-M   'P 1'
_cell_length_a   11.28700073
_cell_length_b   6.75669228
_cell_length_c   12.49799027
_cell_angle_alpha   90.00000000
_cell_angle_beta   102.54178454
_cell_angle_gamma   90.00000000
_symmetry_Int_Tables_number   1
_chemical_formula_structural   Ca3Tl4O9
_chemical_formula_sum   'Ca12 Tl16 O36'
_cell_volume   930.38789671
_cell_formula_units_Z   4
loop_
 _symmetry_equiv_pos_site_id
 _symmetry_equiv_pos_as_xyz
  1  'x, y, z'
loop_
 _atom_site_type_symbol
 _atom_site_label
 _atom_site_symmetry_multiplicity
 _atom_site_fract_x
 _atom_site_fract_y
 _atom_site_fract_z
 _atom_site_occupancy
  Ca  Ca0  1  0.94802071  0.75275848  0.70668812  1
  Ca  Ca1  1  0.94998760  0.24757945  0.71364049  1
  Ca  Ca2  1  0.76442207  0.50125315  0.12784170  1
  Ca  Ca3  1  0.73557793  0.74874685  0.87215830  1
  Ca  Ca4  1  0.55001240  0.00242055  0.28635951  1
  Ca  Ca5  1  0.55197929  0.49724152  0.29331188  1
  Ca  Ca6  1  0.44998760  0.50242055  0.71364049  1
  Ca  Ca7  1  0.44802071  0.99724152  0.70668812  1
  Ca  Ca8  1  0.26442207  0.24874685  0.12784170  1
  Ca  Ca9  1  0.23557793  0.00125315  0.87215830  1
  Ca  Ca10  1  0.05197929  0.25275848  0.29331188  1
  Ca  Ca11  1  0.05001240  0.74757945  0.28635951  1
  Tl  Tl12  1  0.85100943  0.50028814  0.43512805  1
  Tl  Tl13  1  0.84895422  0.99953475  0.43732608  1
  Tl  Tl14  1  0.76030607  0.99725034  0.12917716  1
  Tl  Tl15  1  0.73969393  0.25274966  0.87082284  1
  Tl  Tl16  1  0.65104578  0.25046525  0.56267392  1
  Tl  Tl17  1  0.64899057  0.74971186  0.56487195  1
  Tl  Tl18  1  0.49765359  0.75063495  0.00048145  1
  Tl  Tl19  1  0.50234641  0.25063495  0.99951855  1
  Tl  Tl20  1  0.35100943  0.24971186  0.43512805  1
  Tl  Tl21  1  0.34895422  0.75046525  0.43732608  1
  Tl  Tl22  1  0.26030607  0.75274966  0.12917716  1
  Tl  Tl23  1  0.23969393  0.49725034  0.87082284  1
  Tl  Tl24  1  0.15104578  0.49953475  0.56267392  1
  Tl  Tl25  1  0.14899057  0.00028814  0.56487195  1
  Tl  Tl26  1  0.00234641  0.49936505  0.99951855  1
  Tl  Tl27  1  0.99765359  0.99936505  0.00048145  1
  O  O28  1  0.87139077  0.75417958  0.05353789  1
  O  O29  1  0.86744825  0.24756823  0.04729961  1
  O  O30  1  0.90923659  0.49880221  0.28336644  1
  O  O31  1  0.90461401  0.00146561  0.27978036  1
  O  O32  1  0.87401497  0.00426423  0.83720735  1
  O  O33  1  0.87513223  0.49892250  0.83827066  1
  O  O34  1  0.80543694  0.00177609  0.60289900  1
  O  O35  1  0.80736443  0.49831417  0.60125355  1
  O  O36  1  0.69263557  0.75168583  0.39874645  1
  O  O37  1  0.69456306  0.24822391  0.39710100  1
  O  O38  1  0.62598503  0.24573677  0.16279265  1
  O  O39  1  0.62486777  0.75107750  0.16172934  1
  O  O40  1  0.59538599  0.24853439  0.72021964  1
  O  O41  1  0.59076341  0.75119779  0.71663356  1
  O  O42  1  0.63255175  0.00243177  0.95270039  1
  O  O43  1  0.62860923  0.49582042  0.94646211  1
  O  O44  1  0.49881149  0.00004358  0.50144266  1
  O  O45  1  0.50118851  0.50004358  0.49855734  1
  O  O46  1  0.37139077  0.99582042  0.05353789  1
  O  O47  1  0.36744825  0.50243177  0.04729961  1
  O  O48  1  0.40923659  0.25119779  0.28336644  1
  O  O49  1  0.40461401  0.74853439  0.27978036  1
  O  O50  1  0.37401497  0.74573577  0.83720735  1
  O  O51  1  0.37513223  0.25107750  0.83827066  1
  O  O52  1  0.30736443  0.25168583  0.60125355  1
  O  O53  1  0.30543694  0.74822391  0.60289900  1
  O  O54  1  0.19456306  0.50177609  0.39710100  1
  O  O55  1  0.19263557  0.99831417  0.39874645  1
  O  O56  1  0.12598503  0.50426423  0.16279265  1
  O  O57  1  0.12486777  0.99892250  0.16172934  1
  O  O58  1  0.09538599  0.50146561  0.72021964  1
  O  O59  1  0.09076341  0.99880221  0.71663356  1
  O  O60  1  0.13255175  0.74756823  0.95270039  1
  O  O61  1  0.12860923  0.25417958  0.94646211  1
  O  O62  1  0.99881149  0.74995642  0.50144266  1
  O  O63  1  0.00118851  0.24995642  0.49855734  1
