# generated using pymatgen
data_VF5
_symmetry_space_group_name_H-M   'P 1'
_cell_length_a   5.34282224
_cell_length_b   18.17793695
_cell_length_c   7.77953892
_cell_angle_alpha   90.00000000
_cell_angle_beta   90.09693840
_cell_angle_gamma   90.00000000
_symmetry_Int_Tables_number   1
_chemical_formula_structural   VF5
_chemical_formula_sum   'V8 F40'
_cell_volume   755.55929799
_cell_formula_units_Z   8
loop_
 _symmetry_equiv_pos_site_id
 _symmetry_equiv_pos_as_xyz
  1  'x, y, z'
loop_
 _atom_site_type_symbol
 _atom_site_label
 _atom_site_symmetry_multiplicity
 _atom_site_fract_x
 _atom_site_fract_y
 _atom_site_fract_z
 _atom_site_occupancy
  V  V0  1  0.23735644  0.12101689  0.12130874  1
  V  V1  1  0.23849062  0.37507025  0.97319481  1
  V  V2  1  0.26264356  0.62101689  0.37869126  1
  V  V3  1  0.26150938  0.87507025  0.52680519  1
  V  V4  1  0.73849062  0.12492975  0.47319481  1
  V  V5  1  0.73735644  0.37898311  0.62130874  1
  V  V6  1  0.76150938  0.62492975  0.02680519  1
  V  V7  1  0.76264356  0.87898311  0.87869126  1
  F  F8  1  0.02045000  0.35529559  0.52383328  1
  F  F9  1  0.02382356  0.14951564  0.56674899  1
  F  F10  1  0.05345761  0.13696054  0.94064602  1
  F  F11  1  0.05519213  0.35671414  0.15233028  1
  F  F12  1  0.05293275  0.59743067  0.16461827  1
  F  F13  1  0.05618882  0.90402394  0.74101398  1
  F  F14  1  0.20191526  0.28938823  0.86721758  1
  F  F15  1  0.20076053  0.20813010  0.22078300  1
  F  F16  1  0.23547058  0.52491195  0.40740380  1
  F  F17  1  0.23631821  0.97039134  0.48943369  1
  F  F18  1  0.26368179  0.47039134  0.01056631  1
  F  F19  1  0.26452942  0.02491195  0.09259620  1
  F  F20  1  0.29923947  0.70813010  0.27921700  1
  F  F21  1  0.29808474  0.78938823  0.63278242  1
  F  F22  1  0.44381118  0.40402394  0.75898602  1
  F  F23  1  0.44706725  0.09743067  0.33538173  1
  F  F24  1  0.44480787  0.85671414  0.34766972  1
  F  F25  1  0.44654239  0.63696054  0.55935398  1
  F  F26  1  0.47617644  0.64951564  0.93325101  1
  F  F27  1  0.47955000  0.85529559  0.97616672  1
  F  F28  1  0.52045000  0.14470441  0.02383328  1
  F  F29  1  0.52382356  0.35048436  0.06674899  1
  F  F30  1  0.55345761  0.36303946  0.44064602  1
  F  F31  1  0.55519213  0.14328586  0.65233028  1
  F  F32  1  0.55293275  0.90256933  0.66461827  1
  F  F33  1  0.55618882  0.59597606  0.24101398  1
  F  F34  1  0.70191526  0.21061177  0.36721758  1
  F  F35  1  0.70076053  0.29186990  0.72078300  1
  F  F36  1  0.73547058  0.97508805  0.90740380  1
  F  F37  1  0.73631821  0.52960866  0.98943369  1
  F  F38  1  0.76368179  0.02960866  0.51056631  1
  F  F39  1  0.76452942  0.47508805  0.59259620  1
  F  F40  1  0.79923947  0.79186990  0.77921700  1
  F  F41  1  0.79808474  0.71061177  0.13278242  1
  F  F42  1  0.94381118  0.09597606  0.25898602  1
  F  F43  1  0.94706725  0.40256933  0.83538173  1
  F  F44  1  0.94480787  0.64328586  0.84766972  1
  F  F45  1  0.94654239  0.86303946  0.05935398  1
  F  F46  1  0.97617644  0.85048436  0.43325101  1
  F  F47  1  0.97955000  0.64470441  0.47616672  1
