# generated using pymatgen
data_LiMn2(PO4)2
_symmetry_space_group_name_H-M   'P 1'
_cell_length_a   6.13327715
_cell_length_b   10.18066115
_cell_length_c   4.86880817
_cell_angle_alpha   90.00000000
_cell_angle_beta   90.58148038
_cell_angle_gamma   90.00000000
_symmetry_Int_Tables_number   1
_chemical_formula_structural   LiMn2(PO4)2
_chemical_formula_sum   'Li2 Mn4 P4 O16'
_cell_volume   303.99670083
_cell_formula_units_Z   2
loop_
 _symmetry_equiv_pos_site_id
 _symmetry_equiv_pos_as_xyz
  1  'x, y, z'
loop_
 _atom_site_type_symbol
 _atom_site_label
 _atom_site_symmetry_multiplicity
 _atom_site_fract_x
 _atom_site_fract_y
 _atom_site_fract_z
 _atom_site_occupancy
  Li  Li0  1  0.25694029  0.79704845  0.75075721  1
  Li  Li1  1  0.74305971  0.29704845  0.24924279  1
  Mn  Mn2  1  0.00185081  0.51549807  0.71147189  1
  Mn  Mn3  1  0.49562969  0.07710055  0.78554306  1
  Mn  Mn4  1  0.50437031  0.57710055  0.21445694  1
  Mn  Mn5  1  0.99814919  0.01549807  0.28852811  1
  P  P6  1  0.00777191  0.69992578  0.17393279  1
  P  P7  1  0.49872429  0.39381894  0.67264442  1
  P  P8  1  0.50127571  0.89381894  0.32735558  1
  P  P9  1  0.99222809  0.19992578  0.82606721  1
  O  O10  1  0.99598393  0.34571051  0.91978958  1
  O  O11  1  0.01992346  0.68771429  0.49006796  1
  O  O12  1  0.18487873  0.12123311  0.95477311  1
  O  O13  1  0.21130847  0.63809847  0.02595573  1
  O  O14  1  0.30035212  0.96094068  0.47594895  1
  O  O15  1  0.30094496  0.47052472  0.54740465  1
  O  O16  1  0.49850791  0.25018279  0.57424879  1
  O  O17  1  0.51572649  0.40512863  0.98624085  1
  O  O18  1  0.48427351  0.90512863  0.01375915  1
  O  O19  1  0.50149209  0.75018279  0.42575121  1
  O  O20  1  0.69905504  0.97052472  0.45259535  1
  O  O21  1  0.69964788  0.46094068  0.52405105  1
  O  O22  1  0.78869153  0.13809847  0.97404427  1
  O  O23  1  0.81512127  0.62123311  0.04522689  1
  O  O24  1  0.98007654  0.18771429  0.50993204  1
  O  O25  1  0.00401607  0.84571051  0.08021042  1
