# generated using pymatgen
data_P2WO8
_symmetry_space_group_name_H-M   'P 1'
_cell_length_a   11.25366173
_cell_length_b   5.25589446
_cell_length_c   11.12564996
_cell_angle_alpha   90.00000000
_cell_angle_beta   90.00000000
_cell_angle_gamma   90.00000000
_symmetry_Int_Tables_number   1
_chemical_formula_structural   P2WO8
_chemical_formula_sum   'P8 W4 O32'
_cell_volume   658.06059292
_cell_formula_units_Z   4
loop_
 _symmetry_equiv_pos_site_id
 _symmetry_equiv_pos_as_xyz
  1  'x, y, z'
loop_
 _atom_site_type_symbol
 _atom_site_label
 _atom_site_symmetry_multiplicity
 _atom_site_fract_x
 _atom_site_fract_y
 _atom_site_fract_z
 _atom_site_occupancy
  P  P0  1  0.03897873  0.25458458  0.09587097  1
  P  P1  1  0.15568094  0.24970660  0.86120392  1
  P  P2  1  0.34431906  0.75029340  0.36120392  1
  P  P3  1  0.46102127  0.74541542  0.59587097  1
  P  P4  1  0.53897873  0.24541542  0.90412903  1
  P  P5  1  0.65568094  0.25029340  0.13879608  1
  P  P6  1  0.84431906  0.74970660  0.63879608  1
  P  P7  1  0.96102127  0.75458458  0.40412903  1
  W  W8  1  0.15875797  0.24968320  0.40083037  1
  W  W9  1  0.34124203  0.75031680  0.90083037  1
  W  W10  1  0.65875797  0.25031680  0.59916963  1
  W  W11  1  0.84124203  0.74968320  0.09916963  1
  O  O12  1  0.02953886  0.99930315  0.43621849  1
  O  O13  1  0.03914223  0.52144561  0.43325200  1
  O  O14  1  0.03950992  0.23208651  0.80367420  1
  O  O15  1  0.08440478  0.25386560  0.22274189  1
  O  O16  1  0.15044309  0.24476050  0.00912642  1
  O  O17  1  0.21585202  0.24531953  0.54477384  1
  O  O18  1  0.23289284  0.49394036  0.83680516  1
  O  O19  1  0.24651037  0.02737092  0.83612723  1
  O  O20  1  0.25348963  0.97262908  0.33612723  1
  O  O21  1  0.26710716  0.50605964  0.33680516  1
  O  O22  1  0.28414798  0.75468047  0.04477384  1
  O  O23  1  0.34955691  0.75523950  0.50912642  1
  O  O24  1  0.41559522  0.74613440  0.72274189  1
  O  O25  1  0.46049008  0.76791349  0.30367420  1
  O  O26  1  0.46085777  0.47855439  0.93325200  1
  O  O27  1  0.47046114  0.00069685  0.93621849  1
  O  O28  1  0.52953886  0.50069685  0.56378151  1
  O  O29  1  0.53914223  0.97855439  0.56674800  1
  O  O30  1  0.53950992  0.26791349  0.19632580  1
  O  O31  1  0.58440478  0.24613440  0.77725811  1
  O  O32  1  0.65044309  0.25523950  0.99087358  1
  O  O33  1  0.71585202  0.25468047  0.45522616  1
  O  O34  1  0.73289284  0.00605964  0.16319484  1
  O  O35  1  0.74651037  0.47262908  0.16387277  1
  O  O36  1  0.75348963  0.52737092  0.66387277  1
  O  O37  1  0.76710716  0.99394036  0.66319484  1
  O  O38  1  0.78414798  0.74531953  0.95522616  1
  O  O39  1  0.84955691  0.74476050  0.49087358  1
  O  O40  1  0.91559522  0.75386560  0.27725811  1
  O  O41  1  0.96049008  0.73208651  0.69632580  1
  O  O42  1  0.96085777  0.02144561  0.06674800  1
  O  O43  1  0.97046114  0.49930315  0.06378151  1
