# generated using pymatgen
data_Ba10Cu5O17
_symmetry_space_group_name_H-M   'P 1'
_cell_length_a   10.82128331
_cell_length_b   9.24274039
_cell_length_c   5.78843920
_cell_angle_alpha   109.90076764
_cell_angle_beta   87.91985915
_cell_angle_gamma   95.02233740
_symmetry_Int_Tables_number   1
_chemical_formula_structural   Ba10Cu5O17
_chemical_formula_sum   'Ba10 Cu5 O17'
_cell_volume   542.27398820
_cell_formula_units_Z   1
loop_
 _symmetry_equiv_pos_site_id
 _symmetry_equiv_pos_as_xyz
  1  'x, y, z'
loop_
 _atom_site_type_symbol
 _atom_site_label
 _atom_site_symmetry_multiplicity
 _atom_site_fract_x
 _atom_site_fract_y
 _atom_site_fract_z
 _atom_site_occupancy
  Ba  Ba0  1  0.98147685  0.72481742  0.11541088  1
  Ba  Ba1  1  0.78458737  0.92963505  0.69887865  1
  Ba  Ba2  1  0.81700949  0.47056203  0.49191234  1
  Ba  Ba3  1  0.61195537  0.67282251  0.07589500  1
  Ba  Ba4  1  0.41541263  0.87036495  0.70112135  1
  Ba  Ba5  1  0.38299051  0.32943797  0.90808766  1
  Ba  Ba6  1  0.58804463  0.12717749  0.32410500  1
  Ba  Ba7  1  0.18873562  0.52790333  0.52363465  1
  Ba  Ba8  1  0.21852315  0.07518258  0.28458912  1
  Ba  Ba9  1  0.01126438  0.27209667  0.87636535  1
  Cu  Cu10  1  0.89562234  0.10557049  0.29349832  1
  Cu  Cu11  1  0.49910429  0.50154879  0.50583454  1
  Cu  Cu12  1  0.70089571  0.29845121  0.89416546  1
  Cu  Cu13  1  0.30437766  0.69442951  0.10650168  1
  Cu  Cu14  1  0.10000000  0.90000000  0.70000000  1
  O  O15  1  0.98234749  0.72227486  0.61276606  1
  O  O16  1  0.79082058  0.91814142  0.17705126  1
  O  O17  1  0.81113556  0.48535574  0.00927814  1
  O  O18  1  0.62664059  0.67238778  0.56718627  1
  O  O19  1  0.40917942  0.88185858  0.22294874  1
  O  O20  1  0.80434330  0.19614737  0.59217175  1
  O  O21  1  0.79310904  0.20730113  0.08900392  1
  O  O22  1  0.60000000  0.40000000  0.70000000  1
  O  O23  1  0.39565670  0.60385263  0.80782825  1
  O  O24  1  0.40689096  0.59269887  0.31099608  1
  O  O25  1  0.18540890  0.81493548  0.89283302  1
  O  O26  1  0.57335941  0.12761222  0.83281373  1
  O  O27  1  0.17393464  0.53211235  0.04238933  1
  O  O28  1  0.38886444  0.31464426  0.39072186  1
  O  O29  1  0.21765251  0.07772514  0.78723394  1
  O  O30  1  0.02606536  0.26788765  0.35761067  1
  O  O31  1  0.01459110  0.98506452  0.50716698  1
