# generated using pymatgen
data_MgCr3Se2(SO6)4
_symmetry_space_group_name_H-M   'P 1'
_cell_length_a   8.43038999
_cell_length_b   8.93950243
_cell_length_c   8.41488457
_cell_angle_alpha   117.61376029
_cell_angle_beta   60.07218522
_cell_angle_gamma   117.68112517
_symmetry_Int_Tables_number   1
_chemical_formula_structural   MgCr3Se2(SO6)4
_chemical_formula_sum   'Mg1 Cr3 Se2 S4 O24'
_cell_volume   463.98736875
_cell_formula_units_Z   1
loop_
 _symmetry_equiv_pos_site_id
 _symmetry_equiv_pos_as_xyz
  1  'x, y, z'
loop_
 _atom_site_type_symbol
 _atom_site_label
 _atom_site_symmetry_multiplicity
 _atom_site_fract_x
 _atom_site_fract_y
 _atom_site_fract_z
 _atom_site_occupancy
  Mg  Mg0  1  0.13849128  0.43274735  0.14956238  1
  Cr  Cr1  1  0.35345673  0.07127179  0.36015965  1
  Cr  Cr2  1  0.65146311  0.93555330  0.64413172  1
  Cr  Cr3  1  0.84601104  0.54555841  0.84292199  1
  Se  Se4  1  0.53721097  0.74507705  0.25414308  1
  Se  Se5  1  0.25264447  0.74711729  0.95592477  1
  S  S6  1  0.03762758  0.25137483  0.47065379  1
  S  S7  1  0.73994559  0.25101129  0.03862877  1
  S  S8  1  0.46772975  0.24748335  0.74396051  1
  S  S9  1  0.96011885  0.75012286  0.53730418  1
  O  O10  1  0.29423493  0.94451485  0.11967083  1
  O  O11  1  0.11395838  0.92005902  0.51783458  1
  O  O12  1  0.01139874  0.29022571  0.33705294  1
  O  O13  1  0.01609892  0.39489986  0.66224807  1
  O  O14  1  0.02178302  0.69922670  0.98642190  1
  O  O15  1  0.32952649  0.59076017  0.29831428  1
  O  O16  1  0.52588419  0.94320291  0.29886124  1
  O  O17  1  0.23263092  0.23955909  0.39705844  1
  O  O18  1  0.68212767  0.69868709  0.01875059  1
  O  O19  1  0.39167755  0.76818947  0.73645172  1
  O  O20  1  0.65324070  0.77097695  0.38208415  1
  O  O21  1  0.29279633  0.59461214  0.97562492  1
  O  O22  1  0.71093937  0.39254453  0.01299226  1
  O  O23  1  0.38923272  0.23245637  0.61246289  1
  O  O24  1  0.60432189  0.23842594  0.23344890  1
  O  O25  1  0.33647671  0.29051758  0.94224523  1
  O  O26  1  0.76978282  0.77978771  0.63319774  1
  O  O27  1  0.50081651  0.07852869  0.68887407  1
  O  O28  1  0.66102297  0.38981917  0.70962003  1
  O  O29  1  0.93681737  0.29552182  0.01962788  1
  O  O30  1  0.97434904  0.61134487  0.35280298  1
  O  O31  1  0.98095225  0.69769762  0.67092557  1
  O  O32  1  0.89649072  0.08113993  0.50176894  1
  O  O33  1  0.68874144  0.07998427  0.89426601  1
