# generated using pymatgen
data_Sr4Ta2O9
_symmetry_space_group_name_H-M   'P 1'
_cell_length_a   10.22895584
_cell_length_b   5.81199344
_cell_length_c   14.84174923
_cell_angle_alpha   90.00000000
_cell_angle_beta   90.81570000
_cell_angle_gamma   90.00000000
_symmetry_Int_Tables_number   1
_chemical_formula_structural   Sr4Ta2O9
_chemical_formula_sum   'Sr16 Ta8 O36'
_cell_volume   882.26183936
_cell_formula_units_Z   4
loop_
 _symmetry_equiv_pos_site_id
 _symmetry_equiv_pos_as_xyz
  1  'x, y, z'
loop_
 _atom_site_type_symbol
 _atom_site_label
 _atom_site_symmetry_multiplicity
 _atom_site_fract_x
 _atom_site_fract_y
 _atom_site_fract_z
 _atom_site_occupancy
  Sr  Sr0  1  0.00000000  0.00000000  0.50000000  1
  Sr  Sr1  1  0.00000000  0.00000000  0.00000000  1
  Sr  Sr2  1  0.01131301  0.00036870  0.23379367  1
  Sr  Sr3  1  0.15246614  0.48306071  0.60389077  1
  Sr  Sr4  1  0.18945819  0.51446051  0.07648094  1
  Sr  Sr5  1  0.31054181  0.01446051  0.42351906  1
  Sr  Sr6  1  0.34753386  0.98306071  0.89610923  1
  Sr  Sr7  1  0.48868699  0.50036870  0.26620633  1
  Sr  Sr8  1  0.50000000  0.50000000  0.50000000  1
  Sr  Sr9  1  0.51131301  0.49963130  0.73379367  1
  Sr  Sr10  1  0.50000000  0.50000000  0.00000000  1
  Sr  Sr11  1  0.65246614  0.01693929  0.10389077  1
  Sr  Sr12  1  0.68945819  0.98553949  0.57648094  1
  Sr  Sr13  1  0.81054181  0.48553949  0.92351906  1
  Sr  Sr14  1  0.84753386  0.51693929  0.39610923  1
  Sr  Sr15  1  0.98868699  -0.00036870  0.76620633  1
  Ta  Ta16  1  0.16248644  0.49191971  0.83281964  1
  Ta  Ta17  1  0.16794879  0.50923333  0.33263360  1
  Ta  Ta18  1  0.33751356  0.99191971  0.66718036  1
  Ta  Ta19  1  0.33205121  0.00923333  0.16736640  1
  Ta  Ta20  1  0.66794879  0.99076667  0.83263360  1
  Ta  Ta21  1  0.66248644  0.00808029  0.33281964  1
  Ta  Ta22  1  0.83205121  0.49076667  0.66736640  1
  Ta  Ta23  1  0.83751356  0.50808029  0.16718036  1
  O  O24  1  0.00715647  0.56900269  0.73916545  1
  O  O25  1  0.03190009  0.31957867  0.89595442  1
  O  O26  1  0.07530389  0.78242169  0.37254467  1
  O  O27  1  0.11538967  0.32956947  0.43600393  1
  O  O28  1  0.13459478  0.77384450  0.89970809  1
  O  O29  1  0.17046446  0.10102292  0.10788489  1
  O  O30  1  0.19905971  0.90117199  0.58383079  1
  O  O31  1  0.21456236  0.21032978  0.75096476  1
  O  O32  1  0.24130571  0.72318460  0.22323381  1
  O  O33  1  0.25869429  0.22318460  0.27676619  1
  O  O34  1  0.28543764  0.71032978  0.74903524  1
  O  O35  1  0.30094029  0.40117199  0.91616921  1
  O  O36  1  0.32953554  0.60102292  0.39211511  1
  O  O37  1  0.36540522  0.27384450  0.60029191  1
  O  O38  1  0.38461033  0.82956947  0.06399607  1
  O  O39  1  0.42469611  0.28242169  0.12745533  1
  O  O40  1  0.46809991  0.81957867  0.60404558  1
  O  O41  1  0.49284353  0.06900269  0.76083455  1
  O  O42  1  0.50715647  0.93099731  0.23916545  1
  O  O43  1  0.53190009  0.18042133  0.39595442  1
  O  O44  1  0.57530389  0.71757831  0.87254467  1
  O  O45  1  0.61538967  0.17043053  0.93600393  1
  O  O46  1  0.63459478  0.72615550  0.39970809  1
  O  O47  1  0.67046446  0.39897708  0.60788489  1
  O  O48  1  0.69905971  0.59882801  0.08383079  1
  O  O49  1  0.71456236  0.28967022  0.25096476  1
  O  O50  1  0.74130571  0.77681540  0.72323381  1
  O  O51  1  0.75869429  0.27681540  0.77676619  1
  O  O52  1  0.78543764  0.78967022  0.24903524  1
  O  O53  1  0.80094029  0.09882801  0.41616921  1
  O  O54  1  0.82953554  0.89897708  0.89211511  1
  O  O55  1  0.86540522  0.22615550  0.10029191  1
  O  O56  1  0.88461033  0.67043053  0.56399607  1
  O  O57  1  0.92469611  0.21757831  0.62745533  1
  O  O58  1  0.96809991  0.68042133  0.10404558  1
  O  O59  1  0.99284353  0.43099731  0.26083455  1
