# generated using pymatgen
data_Bi2(SO4)3
_symmetry_space_group_name_H-M   'P 1'
_cell_length_a   9.36127779
_cell_length_b   12.94603035
_cell_length_c   9.34543216
_cell_angle_alpha   90.00000000
_cell_angle_beta   90.00000000
_cell_angle_gamma   90.14276737
_symmetry_Int_Tables_number   1
_chemical_formula_structural   Bi2(SO4)3
_chemical_formula_sum   'Bi8 S12 O48'
_cell_volume   1132.58236385
_cell_formula_units_Z   4
loop_
 _symmetry_equiv_pos_site_id
 _symmetry_equiv_pos_as_xyz
  1  'x, y, z'
loop_
 _atom_site_type_symbol
 _atom_site_label
 _atom_site_symmetry_multiplicity
 _atom_site_fract_x
 _atom_site_fract_y
 _atom_site_fract_z
 _atom_site_occupancy
  Bi  Bi0  1  0.24893270  0.61741611  0.53613416  1
  Bi  Bi1  1  0.25106730  0.88258389  0.03613416  1
  Bi  Bi2  1  0.24974750  0.11481801  0.46155925  1
  Bi  Bi3  1  0.25025250  0.38518199  0.96155925  1
  Bi  Bi4  1  0.74974750  0.61481801  0.03844075  1
  Bi  Bi5  1  0.75025250  0.88518199  0.53844075  1
  Bi  Bi6  1  0.74893270  0.11741611  0.96386584  1
  Bi  Bi7  1  0.75106730  0.38258389  0.46386584  1
  S  S8  1  0.03833808  0.49365249  0.24562782  1
  S  S9  1  0.10006792  0.84568135  0.38289249  1
  S  S10  1  0.10112752  0.15382630  0.10671844  1
  S  S11  1  0.39993208  0.65431865  0.88289249  1
  S  S12  1  0.39887248  0.34617370  0.60671844  1
  S  S13  1  0.46166192  0.00634751  0.74562782  1
  S  S14  1  0.53833808  0.99365249  0.25437218  1
  S  S15  1  0.60112752  0.65382630  0.39328156  1
  S  S16  1  0.60006792  0.34568135  0.11710751  1
  S  S17  1  0.89887248  0.84617370  0.89328156  1
  S  S18  1  0.89993208  0.15431865  0.61710751  1
  S  S19  1  0.96166192  0.50634751  0.75437218  1
  O  O20  1  0.03224716  0.44276816  0.86655002  1
  O  O21  1  0.05743371  0.85067038  0.87920542  1
  O  O22  1  0.06093806  0.58790817  0.70176345  1
  O  O23  1  0.05491984  0.17542544  0.59595682  1
  O  O24  1  0.08192316  0.56263797  0.36496957  1
  O  O25  1  0.13904914  0.80919154  0.23667686  1
  O  O26  1  0.12956035  0.95781722  0.39793580  1
  O  O27  1  0.13928893  0.22757591  0.98921528  1
  O  O28  1  0.16296404  0.19062810  0.24416665  1
  O  O29  1  0.16791458  0.44312455  0.18466925  1
  O  O30  1  0.15803617  0.05075980  0.06820721  1
  O  O31  1  0.18496639  0.78849658  0.49265097  1
  O  O32  1  0.31503361  0.71150342  0.99265097  1
  O  O33  1  0.34196383  0.44924020  0.56820721  1
  O  O34  1  0.33208542  0.05687545  0.68466925  1
  O  O35  1  0.33703596  0.30937190  0.74416665  1
  O  O36  1  0.37043965  0.54218278  0.89793580  1
  O  O37  1  0.36071107  0.27242409  0.48921528  1
  O  O38  1  0.36095086  0.69080846  0.73667686  1
  O  O39  1  0.41807684  0.93736203  0.86496957  1
  O  O40  1  0.43906194  0.91209183  0.20176345  1
  O  O41  1  0.44256629  0.64932962  0.37920542  1
  O  O42  1  0.44508016  0.32457456  0.09595682  1
  O  O43  1  0.46775284  0.05723184  0.36655002  1
  O  O44  1  0.53224716  0.94276816  0.63344998  1
  O  O45  1  0.55491984  0.67542544  0.90404318  1
  O  O46  1  0.55743371  0.35067038  0.62079458  1
  O  O47  1  0.56093806  0.08790817  0.79823655  1
  O  O48  1  0.58192316  0.06263797  0.13503043  1
  O  O49  1  0.63904914  0.30919154  0.26332314  1
  O  O50  1  0.63928893  0.72757591  0.51078472  1
  O  O51  1  0.62956035  0.45781722  0.10206420  1
  O  O52  1  0.66296404  0.69062810  0.25583335  1
  O  O53  1  0.66791458  0.94312455  0.31533075  1
  O  O54  1  0.65803617  0.55075980  0.43179279  1
  O  O55  1  0.68496639  0.28849658  0.00734903  1
  O  O56  1  0.81503361  0.21150342  0.50734903  1
  O  O57  1  0.84196383  0.94924020  0.93179279  1
  O  O58  1  0.83208542  0.55687545  0.81533075  1
  O  O59  1  0.83703596  0.80937190  0.75583335  1
  O  O60  1  0.86071107  0.77242409  0.01078472  1
  O  O61  1  0.87043965  0.04218278  0.60206420  1
  O  O62  1  0.86095086  0.19080846  0.76332314  1
  O  O63  1  0.91807684  0.43736203  0.63503043  1
  O  O64  1  0.94508016  0.82457456  0.40404318  1
  O  O65  1  0.93906194  0.41209183  0.29823655  1
  O  O66  1  0.94256629  0.14932962  0.12079458  1
  O  O67  1  0.96775284  0.55723184  0.13344998  1
