# generated using pymatgen
data_Li4Ni7O11
_symmetry_space_group_name_H-M   'P 1'
_cell_length_a   8.75652548
_cell_length_b   5.09576292
_cell_length_c   9.70008909
_cell_angle_alpha   84.07165544
_cell_angle_beta   113.78938931
_cell_angle_gamma   84.80161385
_symmetry_Int_Tables_number   1
_chemical_formula_structural   Li4Ni7O11
_chemical_formula_sum   'Li8 Ni14 O22'
_cell_volume   389.75354051
_cell_formula_units_Z   2
loop_
 _symmetry_equiv_pos_site_id
 _symmetry_equiv_pos_as_xyz
  1  'x, y, z'
loop_
 _atom_site_type_symbol
 _atom_site_label
 _atom_site_symmetry_multiplicity
 _atom_site_fract_x
 _atom_site_fract_y
 _atom_site_fract_z
 _atom_site_occupancy
  Li  Li0  1  0.95142997  0.63123769  0.22833912  1
  Li  Li1  1  0.77584303  0.18694431  0.13529688  1
  Li  Li2  1  0.67826994  0.45247182  0.59122998  1
  Li  Li3  1  0.50017614  0.99567138  0.50060757  1
  Li  Li4  1  0.40442408  0.26726175  0.95076240  1
  Li  Li5  1  0.32284892  0.55092025  0.41287360  1
  Li  Li6  1  0.22709686  0.82250962  0.86302943  1
  Li  Li7  1  0.04900306  0.36571018  0.77240602  1
  Ni  Ni8  1  0.91021586  0.27569309  0.45371624  1
  Ni  Ni9  1  0.86363600  0.90909100  0.68181800  1
  Ni  Ni10  1  0.81705714  0.54248891  0.90991976  1
  Ni  Ni11  1  0.63586234  0.09169014  0.81673988  1
  Ni  Ni12  1  0.72658981  0.81819868  0.36365717  1
  Ni  Ni13  1  0.59194693  0.72834530  0.04683570  1
  Ni  Ni14  1  0.45505286  0.63390885  0.72500773  1
  Ni  Ni15  1  0.54603548  0.36486435  0.27625197  1
  Ni  Ni16  1  0.36363600  0.90909100  0.18181800  1
  Ni  Ni17  1  0.27221914  0.18427315  0.63862827  1
  Ni  Ni18  1  0.18123752  0.45331765  0.08738403  1
  Ni  Ni19  1  0.13532507  0.08983670  0.31680030  1
  Ni  Ni20  1  0.09140966  0.72649186  0.54689612  1
  Ni  Ni21  1  0.00068319  -0.00001668  -0.00002117  1
  O  O22  1  0.94435917  0.94766645  0.35221009  1
  O  O23  1  0.89842587  0.60666281  0.56693910  1
  O  O24  1  0.82884613  0.21151919  0.79669690  1
  O  O25  1  0.97983782  0.32259062  0.10859840  1
  O  O26  1  0.78291383  0.87051555  0.01142691  1
  O  O27  1  0.66817304  0.76607885  0.71147457  1
  O  O28  1  0.74743518  0.49559138  0.25503760  1
  O  O29  1  0.71991538  0.14269345  0.47659622  1
  O  O30  1  0.62186060  0.42437345  0.93149151  1
  O  O31  1  0.44760521  0.95765930  0.83901344  1
  O  O32  1  0.55287508  0.03484437  0.16117217  1
  O  O33  1  0.51235247  0.69345419  0.37131498  1
  O  O34  1  0.48304905  0.30321431  0.62700594  1
  O  O35  1  0.34018774  0.20114405  0.28498655  1
  O  O36  1  0.38708526  0.61703795  0.07864945  1
  O  O37  1  0.24422295  0.51496769  0.73663006  1
  O  O38  1  0.21492053  0.12472781  0.99232102  1
  O  O39  1  0.27966779  0.86052170  0.52462356  1
  O  O40  1  0.10541240  0.39380855  0.43214449  1
  O  O41  1  0.05909996  0.05210315  0.65216143  1
  O  O42  1  0.00735762  0.67548755  0.88703978  1
  O  O43  1  0.17439792  0.78333763  0.20246383  1
