# generated using pymatgen
data_Li10Co3Ni7O20
_symmetry_space_group_name_H-M   'P 1'
_cell_length_a   2.81507437
_cell_length_b   11.49959933
_cell_length_c   11.50002831
_cell_angle_alpha   112.66122873
_cell_angle_beta   82.98008893
_cell_angle_gamma   89.89520522
_symmetry_Int_Tables_number   1
_chemical_formula_structural   Li10Co3Ni7O20
_chemical_formula_sum   'Li10 Co3 Ni7 O20'
_cell_volume   340.47911204
_cell_formula_units_Z   1
loop_
 _symmetry_equiv_pos_site_id
 _symmetry_equiv_pos_as_xyz
  1  'x, y, z'
loop_
 _atom_site_type_symbol
 _atom_site_label
 _atom_site_symmetry_multiplicity
 _atom_site_fract_x
 _atom_site_fract_y
 _atom_site_fract_z
 _atom_site_occupancy
  Li  Li0  1  0.59854705  0.55063884  0.79829327  1
  Li  Li1  1  0.59966073  0.05373478  0.80302296  1
  Li  Li2  1  0.79944431  0.15378586  0.40278644  1
  Li  Li3  1  0.79595596  0.64610695  0.39768676  1
  Li  Li4  1  0.40580609  0.94568274  0.19696694  1
  Li  Li5  1  0.40005182  0.45777717  0.20505232  1
  Li  Li6  1  0.20229823  0.84957353  0.60059915  1
  Li  Li7  1  0.19797706  0.34843544  0.59593323  1
  Li  Li8  1  0.00346035  0.24989513  0.99815157  1
  Li  Li9  1  0.00114333  0.75481491  0.00304164  1
  Co  Co10  1  0.79736477  0.39948672  0.39845753  1
  Co  Co11  1  0.40229560  0.70117531  0.20042136  1
  Co  Co12  1  0.00408143  0.00186650  0.00051844  1
  Ni  Ni13  1  0.80533245  0.89946223  0.39324440  1
  Ni  Ni14  1  0.59888680  0.30289998  0.80051618  1
  Ni  Ni15  1  0.59794235  0.80074101  0.80493179  1
  Ni  Ni16  1  0.20085612  0.60031552  0.59544003  1
  Ni  Ni17  1  0.40041190  0.20082422  0.19936261  1
  Ni  Ni18  1  0.20073867  0.09872316  0.59922680  1
  Ni  Ni19  1  0.99684296  0.50261747  0.00733039  1
  O  O20  1  0.70506367  0.71866991  0.60357840  1
  O  O21  1  0.88055190  0.32167096  0.21733844  1
  O  O22  1  0.50486443  0.11626963  0.00154710  1
  O  O23  1  0.69980088  0.47918270  0.58070455  1
  O  O24  1  0.70184421  0.98595348  0.59943778  1
  O  O25  1  0.90142709  0.58907231  0.20285225  1
  O  O26  1  0.90368187  0.81330621  0.19793463  1
  O  O27  1  0.49300225  0.61895917  0.01782277  1
  O  O28  1  0.69926200  0.21072343  0.59992060  1
  O  O29  1  0.92021313  0.08008389  0.18160966  1
  O  O30  1  0.30144889  0.01345170  0.39891096  1
  O  O31  1  0.10474881  0.92114879  0.81811215  1
  O  O32  1  0.29376285  0.51300066  0.39969395  1
  O  O33  1  0.31166398  0.78303965  0.38310046  1
  O  O34  1  0.49867425  0.38868508  0.00079571  1
  O  O35  1  0.08850322  0.68278455  0.79786000  1
  O  O36  1  0.09973878  0.19105116  0.80024538  1
  O  O37  1  0.09827242  0.41539478  0.80019460  1
  O  O38  1  0.50799822  0.88854356  0.99964308  1
  O  O39  1  0.29691613  0.28491392  0.39719871  1
