# generated using pymatgen
data_Li13Ni15O28
_symmetry_space_group_name_H-M   'P 1'
_cell_length_a   8.27517673
_cell_length_b   8.64331039
_cell_length_c   7.67450974
_cell_angle_alpha   104.38228101
_cell_angle_beta   74.93982806
_cell_angle_gamma   75.78638106
_symmetry_Int_Tables_number   1
_chemical_formula_structural   Li13Ni15O28
_chemical_formula_sum   'Li13 Ni15 O28'
_cell_volume   484.42068063
_cell_formula_units_Z   1
loop_
 _symmetry_equiv_pos_site_id
 _symmetry_equiv_pos_as_xyz
  1  'x, y, z'
loop_
 _atom_site_type_symbol
 _atom_site_label
 _atom_site_symmetry_multiplicity
 _atom_site_fract_x
 _atom_site_fract_y
 _atom_site_fract_z
 _atom_site_occupancy
  Li  Li0  1  0.92758962  0.42865782  0.85610820  1
  Li  Li1  1  0.78755999  0.28446197  0.56931419  1
  Li  Li2  1  0.64288887  0.64290907  0.78562371  1
  Li  Li3  1  0.21355870  0.21598664  0.92916261  1
  Li  Li4  1  0.07208283  0.06989914  0.64249314  1
  Li  Li5  1  0.49805572  0.00124447  0.00227302  1
  Li  Li6  1  0.49932095  0.50121390  0.50437933  1
  Li  Li7  1  0.93178606  0.92910347  0.35651197  1
  Li  Li8  1  0.35826350  0.85700450  0.71549657  1
  Li  Li9  1  0.35385661  0.35628724  0.21461141  1
  Li  Li10  1  0.78647238  0.78453673  0.06719261  1
  Li  Li11  1  0.21038833  0.71607882  0.43064652  1
  Li  Li12  1  0.07530502  0.56969698  0.14069286  1
  Ni  Ni13  1  0.71270282  0.21413864  0.93041618  1
  Ni  Ni14  1  0.57298022  0.07176755  0.64087683  1
  Ni  Ni15  1  0.85991814  0.35564600  0.21193833  1
  Ni  Ni16  1  0.64285571  0.14289440  0.28570338  1
  Ni  Ni17  1  0.85683704  0.85480450  0.71586483  1
  Ni  Ni18  1  0.42875727  0.43104485  0.85580517  1
  Ni  Ni19  1  0.28489892  0.28558960  0.57356663  1
  Ni  Ni20  1  0.71635934  0.71251227  0.42607756  1
  Ni  Ni21  1  0.14284576  0.14289058  0.28574929  1
  Ni  Ni22  1  0.56936261  0.57310613  0.14526070  1
  Ni  Ni23  1  0.14288321  0.64274904  0.78566392  1
  Ni  Ni24  1  0.00106652  0.00001889  0.99772577  1
  Ni  Ni25  1  0.42582819  0.92988824  0.35944611  1
  Ni  Ni26  1  0.99786896  0.49816919  0.49867414  1
  Ni  Ni27  1  0.28785340  0.78763750  0.07280263  1
  O  O28  1  0.74807692  0.01142259  0.99747372  1
  O  O29  1  0.95436222  0.22514167  0.94751877  1
  O  O30  1  0.81771517  0.06748593  0.66811050  1
  O  O31  1  0.89318950  0.14986012  0.27644704  1
  O  O32  1  0.46722021  0.21907165  0.90433926  1
  O  O33  1  0.88914775  0.65199692  0.78020261  1
  O  O34  1  0.66036912  0.42530222  0.87251925  1
  O  O35  1  0.33144013  0.06059981  0.62374958  1
  O  O36  1  0.95069579  0.69758162  0.42812068  1
  O  O37  1  0.76889131  0.48814198  0.47619297  1
  O  O38  1  0.53699269  0.27538934  0.57380783  1
  O  O39  1  0.19370846  0.43984479  0.85182242  1
  O  O40  1  0.39670093  0.63368302  0.79162401  1
  O  O41  1  0.39255003  0.13576734  0.29494820  1
  O  O42  1  0.61053934  0.34959332  0.19670264  1
  O  O43  1  0.80250482  0.56584611  0.15287117  1
  O  O44  1  0.62591532  0.85929422  0.69853460  1
  O  O45  1  0.03999724  0.29377877  0.55589259  1
  O  O46  1  0.67542636  0.93572173  0.37371389  1
  O  O47  1  0.48321883  0.71997175  0.41902548  1
  O  O48  1  0.22822781  0.51018100  0.51969365  1
  O  O49  1  0.33480128  0.58840230  0.14327829  1
  O  O50  1  0.11022490  0.34297206  0.21879723  1
  O  O51  1  0.09189960  0.84570825  0.71955809  1
  O  O52  1  0.51696199  0.79736393  0.09516814  1
  O  O53  1  0.17532015  0.94275355  0.35268757  1
  O  O54  1  0.05754091  0.77536829  0.05172622  1
  O  O55  1  0.24621250  0.99181557  0.01539497  1
