# generated using pymatgen
data_Y2Ge2O7
_symmetry_space_group_name_H-M   'P 1'
_cell_length_a   5.81447138
_cell_length_b   5.81447138
_cell_length_c   5.01658800
_cell_angle_alpha   82.60368494
_cell_angle_beta   97.39631506
_cell_angle_gamma   74.73749827
_symmetry_Int_Tables_number   1
_chemical_formula_structural   Y2Ge2O7
_chemical_formula_sum   'Y2 Ge2 O7'
_cell_volume   159.89671254
_cell_formula_units_Z   1
loop_
 _symmetry_equiv_pos_site_id
 _symmetry_equiv_pos_as_xyz
  1  'x, y, z'
loop_
 _atom_site_type_symbol
 _atom_site_label
 _atom_site_symmetry_multiplicity
 _atom_site_fract_x
 _atom_site_fract_y
 _atom_site_fract_z
 _atom_site_occupancy
  Y  Y0  1  0.69373334  0.69373334  0.00000000  1
  Y  Y1  1  0.30626666  0.30626666  0.00000000  1
  Ge  Ge2  1  0.22877324  0.77122676  0.40921040  1
  Ge  Ge3  1  0.77122676  0.22877324  0.59078960  1
  O  O4  1  0.08199945  0.60205470  0.21280871  1
  O  O5  1  0.39794530  0.91800055  0.21280871  1
  O  O6  1  0.39780418  0.60219582  0.72367054  1
  O  O7  1  0.00000000  0.00000000  0.50000000  1
  O  O8  1  0.60219582  0.39780418  0.27632946  1
  O  O9  1  0.91800055  0.39794530  0.78719129  1
  O  O10  1  0.60205470  0.08199945  0.78719129  1
