# generated using pymatgen
data_Li4VCr3O8
_symmetry_space_group_name_H-M   'P 1'
_cell_length_a   5.13407093
_cell_length_b   7.87012594
_cell_length_c   7.86984700
_cell_angle_alpha   82.08116031
_cell_angle_beta   70.98362438
_cell_angle_gamma   83.68505013
_symmetry_Int_Tables_number   1
_chemical_formula_structural   Li4VCr3O8
_chemical_formula_sum   'Li8 V2 Cr6 O16'
_cell_volume   297.04605663
_cell_formula_units_Z   2
loop_
 _symmetry_equiv_pos_site_id
 _symmetry_equiv_pos_as_xyz
  1  'x, y, z'
loop_
 _atom_site_type_symbol
 _atom_site_label
 _atom_site_symmetry_multiplicity
 _atom_site_fract_x
 _atom_site_fract_y
 _atom_site_fract_z
 _atom_site_occupancy
  Li  Li0  1  0.99885719  0.99958855  0.00073811  1
  Li  Li1  1  0.99910762  0.25014535  0.25050908  1
  Li  Li2  1  0.00134271  0.62538261  0.12409352  1
  Li  Li3  1  0.99907734  0.12633038  0.62442048  1
  Li  Li4  1  0.00091630  0.49844520  0.50067995  1
  Li  Li5  1  0.00226729  0.87753057  0.37189697  1
  Li  Li6  1  0.00086685  0.37483129  0.87449171  1
  Li  Li7  1  0.99752953  0.74765218  0.75315536  1
  V  V8  1  0.49999988  0.68898969  0.43902414  1
  V  V9  1  0.50000811  0.93601087  0.68597236  1
  Cr  Cr10  1  0.50001656  0.06440802  0.31067329  1
  Cr  Cr11  1  0.50002374  0.43804099  0.18795296  1
  Cr  Cr12  1  0.49998848  0.81251149  0.06251071  1
  Cr  Cr13  1  0.50002084  0.31250543  0.56250531  1
  Cr  Cr14  1  0.49991227  0.18698467  0.93706062  1
  Cr  Cr15  1  0.50001289  0.56061272  0.81431811  1
  O  O16  1  0.27508761  0.03097442  0.14919361  1
  O  O17  1  0.72463675  0.22055803  0.09832394  1
  O  O18  1  0.27529906  0.40446318  0.02670001  1
  O  O19  1  0.72708736  0.09627386  0.47038035  1
  O  O20  1  0.27461155  0.28214697  0.40039700  1
  O  O21  1  0.27457490  0.65663219  0.27597778  1
  O  O22  1  0.72535219  0.46983207  0.35023887  1
  O  O23  1  0.27467034  0.15514426  0.77473607  1
  O  O24  1  0.27299840  0.52875925  0.65455380  1
  O  O25  1  0.72723820  0.84775554  0.22221319  1
  O  O26  1  0.72537124  0.34284663  0.72461576  1
  O  O27  1  0.26891622  0.90830190  0.52450902  1
  O  O28  1  0.73110328  0.71672881  0.60051503  1
  O  O29  1  0.27277553  0.77721894  0.90280419  1
  O  O30  1  0.72490982  0.59402207  0.97582651  1
  O  O31  1  0.72541793  0.96837188  0.84901317  1
