# generated using pymatgen
data_LiCo2(SO4)3
_symmetry_space_group_name_H-M   'P 1'
_cell_length_a   8.48617577
_cell_length_b   8.74156783
_cell_length_c   12.02157884
_cell_angle_alpha   90.00000000
_cell_angle_beta   89.83458868
_cell_angle_gamma   90.00000000
_symmetry_Int_Tables_number   1
_chemical_formula_structural   LiCo2(SO4)3
_chemical_formula_sum   'Li4 Co8 S12 O48'
_cell_volume   891.78682927
_cell_formula_units_Z   4
loop_
 _symmetry_equiv_pos_site_id
 _symmetry_equiv_pos_as_xyz
  1  'x, y, z'
loop_
 _atom_site_type_symbol
 _atom_site_label
 _atom_site_symmetry_multiplicity
 _atom_site_fract_x
 _atom_site_fract_y
 _atom_site_fract_z
 _atom_site_occupancy
  Li  Li0  1  0.18951288  0.71894025  0.82087641  1
  Li  Li1  1  0.31048712  0.21894025  0.67912359  1
  Li  Li2  1  0.68951288  0.78105975  0.32087641  1
  Li  Li3  1  0.81048712  0.28105975  0.17912359  1
  Co  Co4  1  0.24397071  0.96668993  0.38285682  1
  Co  Co5  1  0.24650142  0.53864477  0.60918285  1
  Co  Co6  1  0.25602929  0.46668993  0.11714318  1
  Co  Co7  1  0.25349858  0.03864477  0.89081715  1
  Co  Co8  1  0.74650142  0.96135523  0.10918285  1
  Co  Co9  1  0.74397071  0.53331007  0.88285682  1
  Co  Co10  1  0.75349858  0.46135523  0.39081715  1
  Co  Co11  1  0.75602929  0.03331007  0.61714318  1
  S  S12  1  0.03593603  0.24789515  0.50655032  1
  S  S13  1  0.10253842  0.11940362  0.15072893  1
  S  S14  1  0.10921935  0.39066307  0.85569832  1
  S  S15  1  0.39078065  0.89066307  0.64430168  1
  S  S16  1  0.39746158  0.61940362  0.34927107  1
  S  S17  1  0.46406397  0.74789515  0.99344968  1
  S  S18  1  0.53593603  0.25210485  0.00655032  1
  S  S19  1  0.60253842  0.38059638  0.65072893  1
  S  S20  1  0.60921935  0.10933693  0.35569832  1
  S  S21  1  0.89078065  0.60933693  0.14430168  1
  S  S22  1  0.89746158  0.88059638  0.84927107  1
  S  S23  1  0.96406397  0.75210485  0.49344968  1
  O  O24  1  0.04246762  0.63460274  0.56072410  1
  O  O25  1  0.06258893  0.61951210  0.12233987  1
  O  O26  1  0.06643881  0.91439279  0.82442133  1
  O  O27  1  0.07162198  0.81200574  0.40376860  1
  O  O28  1  0.08756720  0.12365643  0.43103760  1
  O  O29  1  0.11843756  0.28785614  0.16991857  1
  O  O30  1  0.14102666  0.08037151  0.03602087  1
  O  O31  1  0.14421061  0.50984138  0.77050557  1
  O  O32  1  0.17482834  0.31449791  0.56450671  1
  O  O33  1  0.16893330  0.24071740  0.81447910  1
  O  O34  1  0.19615300  0.43602371  0.95793579  1
  O  O35  1  0.20434039  0.02641726  0.22684282  1
  O  O36  1  0.29565961  0.52641726  0.27315718  1
  O  O37  1  0.30384700  0.93602371  0.54206421  1
  O  O38  1  0.33106670  0.74071740  0.68552090  1
  O  O39  1  0.32517166  0.81449791  0.93549329  1
  O  O40  1  0.35897334  0.58037151  0.46397913  1
  O  O41  1  0.35578939  0.00984138  0.72949443  1
  O  O42  1  0.38156244  0.78785614  0.33008143  1
  O  O43  1  0.41243280  0.62365643  0.06896240  1
  O  O44  1  0.42837802  0.31200574  0.09623140  1
  O  O45  1  0.43741107  0.11951210  0.37766013  1
  O  O46  1  0.43356119  0.41439279  0.67557867  1
  O  O47  1  0.45753238  0.13460274  0.93927590  1
  O  O48  1  0.54246762  0.86539726  0.06072410  1
  O  O49  1  0.56643881  0.58560721  0.32442133  1
  O  O50  1  0.56258793  0.88048790  0.62233987  1
  O  O51  1  0.57162198  0.68799426  0.90376860  1
  O  O52  1  0.58756720  0.37634357  0.93103760  1
  O  O53  1  0.61843756  0.21214386  0.66991857  1
  O  O54  1  0.64421061  0.99015862  0.27050557  1
  O  O55  1  0.64102666  0.41962849  0.53602087  1
  O  O56  1  0.67482834  0.18550209  0.06450671  1
  O  O57  1  0.66893330  0.25928260  0.31447910  1
  O  O58  1  0.69615300  0.06397629  0.45793579  1
  O  O59  1  0.70434039  0.47358274  0.72684282  1
  O  O60  1  0.79565961  0.97358274  0.77315718  1
  O  O61  1  0.80384700  0.56397629  0.04206421  1
  O  O62  1  0.83106670  0.75928260  0.18552090  1
  O  O63  1  0.82517166  0.68550209  0.43549329  1
  O  O64  1  0.85578939  0.49015862  0.22949443  1
  O  O65  1  0.85897334  0.91962849  0.96397913  1
  O  O66  1  0.88156244  0.71214386  0.83008143  1
  O  O67  1  0.91243280  0.87634357  0.56896240  1
  O  O68  1  0.92837802  0.18799426  0.59623140  1
  O  O69  1  0.93356119  0.08560721  0.17557867  1
  O  O70  1  0.93741207  0.38048790  0.87766013  1
  O  O71  1  0.95753238  0.36539726  0.43927590  1
