# generated using pymatgen
data_Mn2PO5
_symmetry_space_group_name_H-M   'P 1'
_cell_length_a   7.84756730
_cell_length_b   8.17985184
_cell_length_c   6.27040359
_cell_angle_alpha   90.00000000
_cell_angle_beta   90.00000000
_cell_angle_gamma   90.00000000
_symmetry_Int_Tables_number   1
_chemical_formula_structural   Mn2PO5
_chemical_formula_sum   'Mn8 P4 O20'
_cell_volume   402.50935735
_cell_formula_units_Z   4
loop_
 _symmetry_equiv_pos_site_id
 _symmetry_equiv_pos_as_xyz
  1  'x, y, z'
loop_
 _atom_site_type_symbol
 _atom_site_label
 _atom_site_symmetry_multiplicity
 _atom_site_fract_x
 _atom_site_fract_y
 _atom_site_fract_z
 _atom_site_occupancy
  Mn  Mn0  1  0.00000000  0.00000000  0.00000000  1
  Mn  Mn1  1  0.00000000  0.00000000  0.50000000  1
  Mn  Mn2  1  0.13033624  0.34425642  0.25000000  1
  Mn  Mn3  1  0.36966376  0.84425642  0.25000000  1
  Mn  Mn4  1  0.50000000  0.50000000  0.00000000  1
  Mn  Mn5  1  0.50000000  0.50000000  0.50000000  1
  Mn  Mn6  1  0.63033624  0.15574358  0.75000000  1
  Mn  Mn7  1  0.86966376  0.65574358  0.75000000  1
  P  P8  1  0.16030876  0.32810154  0.75000000  1
  P  P9  1  0.33969124  0.82810154  0.75000000  1
  P  P10  1  0.66030876  0.17189846  0.25000000  1
  P  P11  1  0.83969124  0.67189846  0.25000000  1
  O  O12  1  0.04874795  0.47858395  0.75000000  1
  O  O13  1  0.12959015  0.22183098  0.95406862  1
  O  O14  1  0.12959015  0.22183098  0.54593138  1
  O  O15  1  0.14667120  0.87717391  0.75000000  1
  O  O16  1  0.13860642  0.95915201  0.25000000  1
  O  O17  1  0.36139358  0.45915201  0.25000000  1
  O  O18  1  0.35332880  0.37717391  0.75000000  1
  O  O19  1  0.37040985  0.72183098  0.54593138  1
  O  O20  1  0.37040985  0.72183098  0.95406862  1
  O  O21  1  0.45125205  0.97858395  0.75000000  1
  O  O22  1  0.54874795  0.02141605  0.25000000  1
  O  O23  1  0.62959015  0.27816902  0.04593138  1
  O  O24  1  0.62959015  0.27816902  0.45406862  1
  O  O25  1  0.64667120  0.62282609  0.25000000  1
  O  O26  1  0.63860642  0.54084799  0.75000000  1
  O  O27  1  0.86139358  0.04084799  0.75000000  1
  O  O28  1  0.85332880  0.12282609  0.25000000  1
  O  O29  1  0.87040985  0.77816902  0.04593138  1
  O  O30  1  0.87040985  0.77816902  0.45406862  1
  O  O31  1  0.95125205  0.52141605  0.25000000  1
