# generated using pymatgen
data_LiMnBO3
_symmetry_space_group_name_H-M   'P 1'
_cell_length_a   6.06429616
_cell_length_b   5.24501533
_cell_length_c   5.19376015
_cell_angle_alpha   60.87560249
_cell_angle_beta   113.07062009
_cell_angle_gamma   89.51704566
_symmetry_Int_Tables_number   1
_chemical_formula_structural   LiMnBO3
_chemical_formula_sum   'Li2 Mn2 B2 O6'
_cell_volume   128.63006692
_cell_formula_units_Z   2
loop_
 _symmetry_equiv_pos_site_id
 _symmetry_equiv_pos_as_xyz
  1  'x, y, z'
loop_
 _atom_site_type_symbol
 _atom_site_label
 _atom_site_symmetry_multiplicity
 _atom_site_fract_x
 _atom_site_fract_y
 _atom_site_fract_z
 _atom_site_occupancy
  Li  Li0  1  0.67105029  0.63237078  0.43537367  1
  Li  Li1  1  0.32894971  0.36762922  0.56462633  1
  Mn  Mn2  1  0.76656729  0.25373624  0.16027068  1
  Mn  Mn3  1  0.23343271  0.74626376  0.83972932  1
  B  B4  1  0.73749057  0.92776381  0.80743635  1
  B  B5  1  0.26250943  0.07223619  0.19256365  1
  O  O6  1  0.67583395  0.69752816  0.03252815  1
  O  O7  1  0.82615361  0.87067555  0.62295161  1
  O  O8  1  0.70268392  0.21328927  0.75404302  1
  O  O9  1  0.29731608  0.78671073  0.24595698  1
  O  O10  1  0.17384639  0.12932445  0.37704839  1
  O  O11  1  0.32416605  0.30247184  0.96747185  1
