# generated using pymatgen
data_CaMg14Mn
_symmetry_space_group_name_H-M   'P 1'
_cell_length_a   6.44554004
_cell_length_b   6.40553442
_cell_length_c   10.35216765
_cell_angle_alpha   90.00000000
_cell_angle_beta   90.00000000
_cell_angle_gamma   119.79490063
_symmetry_Int_Tables_number   1
_chemical_formula_structural   CaMg14Mn
_chemical_formula_sum   'Ca1 Mg14 Mn1'
_cell_volume   370.91164386
_cell_formula_units_Z   1
loop_
 _symmetry_equiv_pos_site_id
 _symmetry_equiv_pos_as_xyz
  1  'x, y, z'
loop_
 _atom_site_type_symbol
 _atom_site_label
 _atom_site_symmetry_multiplicity
 _atom_site_fract_x
 _atom_site_fract_y
 _atom_site_fract_z
 _atom_site_occupancy
  Ca  Ca0  1  0.16377777  0.33188839  0.12500000  1
  Mg  Mg1  1  0.16698287  0.33349094  0.62500000  1
  Mg  Mg2  1  0.16519378  0.83259639  0.62500000  1
  Mg  Mg3  1  0.65970781  0.32348863  0.12500000  1
  Mg  Mg4  1  0.66623181  0.33415774  0.62500000  1
  Mg  Mg5  1  0.65970781  0.83621818  0.12500000  1
  Mg  Mg6  1  0.66623181  0.83207306  0.62500000  1
  Mg  Mg7  1  0.33412372  0.15956392  0.37680187  1
  Mg  Mg8  1  0.33412372  0.15956392  0.87319813  1
  Mg  Mg9  1  0.33412372  0.67456079  0.37680187  1
  Mg  Mg10  1  0.33412372  0.67456079  0.87319813  1
  Mg  Mg11  1  0.82938864  0.16469482  0.38306964  1
  Mg  Mg12  1  0.82938864  0.16469482  0.86693036  1
  Mg  Mg13  1  0.84004922  0.67002511  0.36559310  1
  Mg  Mg14  1  0.84004922  0.67002511  0.88440690  1
  Mn  Mn15  1  0.17679575  0.83839737  0.12500000  1
