# generated using pymatgen
data_Li4VCr3O8
_symmetry_space_group_name_H-M   'P 1'
_cell_length_a   5.15105225
_cell_length_b   7.86954323
_cell_length_c   7.89497910
_cell_angle_alpha   81.66765360
_cell_angle_beta   70.64481822
_cell_angle_gamma   83.64627405
_symmetry_Int_Tables_number   1
_chemical_formula_structural   Li4VCr3O8
_chemical_formula_sum   'Li8 V2 Cr6 O16'
_cell_volume   298.08601223
_cell_formula_units_Z   2
loop_
 _symmetry_equiv_pos_site_id
 _symmetry_equiv_pos_as_xyz
  1  'x, y, z'
loop_
 _atom_site_type_symbol
 _atom_site_label
 _atom_site_symmetry_multiplicity
 _atom_site_fract_x
 _atom_site_fract_y
 _atom_site_fract_z
 _atom_site_occupancy
  Li  Li0  1  0.00175238  0.99985135  0.99898545  1
  Li  Li1  1  0.99943725  0.25159894  0.24967516  1
  Li  Li2  1  0.00166789  0.62478769  0.12388177  1
  Li  Li3  1  0.99811877  0.12526220  0.62620061  1
  Li  Li4  1  0.00054636  0.49845498  0.50032662  1
  Li  Li5  1  -0.00000026  0.87493497  0.37501741  1
  Li  Li6  1  0.00000320  0.37502007  0.87497733  1
  Li  Li7  1  0.99847678  0.75011872  0.75092022  1
  V  V8  1  0.49996494  0.06138781  0.31292830  1
  V  V9  1  0.50001827  0.68857302  0.43708552  1
  Cr  Cr10  1  0.49970870  0.43739270  0.18720577  1
  Cr  Cr11  1  0.49970070  0.81196648  0.06123563  1
  Cr  Cr12  1  0.50036265  0.31255196  0.56282083  1
  Cr  Cr13  1  0.49949908  0.18747193  0.93767937  1
  Cr  Cr14  1  0.50043963  0.56249908  0.81234296  1
  Cr  Cr15  1  0.50030964  0.93810913  0.68872679  1
  O  O16  1  0.27257983  0.02893033  0.14935559  1
  O  O17  1  0.72502755  0.21975419  0.09797733  1
  O  O18  1  0.27546926  0.40495917  0.02648628  1
  O  O19  1  0.72714657  0.09497547  0.47630385  1
  O  O20  1  0.27484437  0.28087098  0.40219687  1
  O  O21  1  0.27306509  0.65504193  0.27392731  1
  O  O22  1  0.72530874  0.46901774  0.34778461  1
  O  O23  1  0.27544455  0.15609075  0.77663800  1
  O  O24  1  0.27482928  0.53016007  0.65207010  1
  O  O25  1  0.72917206  0.84414847  0.22042960  1
  O  O26  1  0.72451132  0.34505830  0.72356261  1
  O  O27  1  0.27082003  0.90610103  0.52949872  1
  O  O28  1  0.72724275  0.72102247  0.60039261  1
  O  O29  1  0.27555229  0.77986097  0.90097712  1
  O  O30  1  0.72448985  0.59389107  0.97339752  1
  O  O31  1  0.72449148  0.97013699  0.84899411  1
