# generated using pymatgen
data_RbFeO2
_symmetry_space_group_name_H-M   'P 1'
_cell_length_a   5.94924526
_cell_length_b   5.94924946
_cell_length_c   8.32682118
_cell_angle_alpha   90.00028788
_cell_angle_beta   90.00009779
_cell_angle_gamma   89.99978302
_symmetry_Int_Tables_number   1
_chemical_formula_structural   RbFeO2
_chemical_formula_sum   'Rb4 Fe4 O8'
_cell_volume   294.71571306
_cell_formula_units_Z   4
loop_
 _symmetry_equiv_pos_site_id
 _symmetry_equiv_pos_as_xyz
  1  'x, y, z'
loop_
 _atom_site_type_symbol
 _atom_site_label
 _atom_site_symmetry_multiplicity
 _atom_site_fract_x
 _atom_site_fract_y
 _atom_site_fract_z
 _atom_site_occupancy
  Rb  Rb0  1  0.22283692  0.22284292  0.49999379  1
  Rb  Rb1  1  0.27718727  0.72286780  0.74999633  1
  Rb  Rb2  1  0.72282024  0.27713150  0.24999606  1
  Rb  Rb3  1  0.77721152  0.77712422  0.00001099  1
  Fe  Fe4  1  0.21160950  0.21161655  0.99999841  1
  Fe  Fe5  1  0.28839449  0.71161558  0.24999812  1
  Fe  Fe6  1  0.71161997  0.28837685  0.75000048  1
  Fe  Fe7  1  0.78838789  0.78836700  0.49999752  1
  O  O8  1  0.09366805  0.75618598  0.42886852  1
  O  O9  1  0.24382920  0.90634287  0.07113437  1
  O  O10  1  0.25617825  0.40633462  0.17886481  1
  O  O11  1  0.40633217  0.25623588  0.82112878  1
  O  O12  1  0.59367115  0.74377119  0.32113749  1
  O  O13  1  0.74381953  0.59366031  0.67887650  1
  O  O14  1  0.75620533  0.09365448  0.57113424  1
  O  O15  1  0.90632851  0.24377123  0.92886460  1
