# generated using pymatgen
data_Li4V3Cr3(WO8)2
_symmetry_space_group_name_H-M   'P 1'
_cell_length_a   5.98651802
_cell_length_b   5.98293335
_cell_length_c   9.71618447
_cell_angle_alpha   90.00359392
_cell_angle_beta   90.07562989
_cell_angle_gamma   119.95363803
_symmetry_Int_Tables_number   1
_chemical_formula_structural   Li4V3Cr3(WO8)2
_chemical_formula_sum   'Li4 V3 Cr3 W2 O16'
_cell_volume   301.52061811
_cell_formula_units_Z   1
loop_
 _symmetry_equiv_pos_site_id
 _symmetry_equiv_pos_as_xyz
  1  'x, y, z'
loop_
 _atom_site_type_symbol
 _atom_site_label
 _atom_site_symmetry_multiplicity
 _atom_site_fract_x
 _atom_site_fract_y
 _atom_site_fract_z
 _atom_site_occupancy
  Li  Li0  1  0.33170343  0.66585133  0.90293080  1
  Li  Li1  1  0.00111688  0.00058877  0.99311929  1
  Li  Li2  1  0.00386718  0.00196599  0.49197999  1
  Li  Li3  1  0.66622093  0.33307214  0.39996428  1
  V  V4  1  0.66170778  0.83095498  0.21294743  1
  V  V5  1  0.82850193  0.66142403  0.71281456  1
  V  V6  1  0.82849982  0.16717053  0.71267938  1
  Cr  Cr7  1  0.16703909  0.82811286  0.21362406  1
  Cr  Cr8  1  0.16697551  0.33885952  0.21363372  1
  Cr  Cr9  1  0.33908645  0.16975852  0.71477056  1
  W  W10  1  0.33293820  0.66664399  0.48640645  1
  W  W11  1  0.66513349  0.33260286  0.98695383  1
  O  O12  1  0.17135632  0.83257354  0.59524385  1
  O  O13  1  0.03849633  0.51933606  0.34050737  1
  O  O14  1  0.33429614  0.66708436  0.10831044  1
  O  O15  1  -0.00010580  -0.00001861  0.30616786  1
  O  O16  1  -0.00011041  0.99982165  0.80845009  1
  O  O17  1  0.17077138  0.33798516  0.59544012  1
  O  O18  1  0.47705925  0.95900125  0.34531903  1
  O  O19  1  0.47684133  0.51822908  0.34559895  1
  O  O20  1  0.34181705  0.17090281  0.09491660  1
  O  O21  1  0.66756103  0.83344165  0.59295417  1
  O  O22  1  0.51547711  0.47859150  0.84307489  1
  O  O23  1  0.51605879  0.03701491  0.84300335  1
  O  O24  1  0.66784971  0.33409918  0.60723098  1
  O  O25  1  0.83710958  0.66695323  0.09536959  1
  O  O26  1  0.95546621  0.47796104  0.84905717  1
  O  O27  1  0.83726526  0.17031869  0.09537321  1
