# generated using pymatgen
data_KHfPCO7
_symmetry_space_group_name_H-M   'P 1'
_cell_length_a   9.97619301
_cell_length_b   6.64734383
_cell_length_c   5.78318305
_cell_angle_alpha   90.00000000
_cell_angle_beta   89.07536290
_cell_angle_gamma   90.00000000
_symmetry_Int_Tables_number   1
_chemical_formula_structural   KHfPCO7
_chemical_formula_sum   'K2 Hf2 P2 C2 O14'
_cell_volume   383.46291546
_cell_formula_units_Z   2
loop_
 _symmetry_equiv_pos_site_id
 _symmetry_equiv_pos_as_xyz
  1  'x, y, z'
loop_
 _atom_site_type_symbol
 _atom_site_label
 _atom_site_symmetry_multiplicity
 _atom_site_fract_x
 _atom_site_fract_y
 _atom_site_fract_z
 _atom_site_occupancy
  K  K0  1  0.21786740  0.44951229  0.25249784  1
  K  K1  1  0.78213260  0.94951229  0.74750316  1
  Hf  Hf2  1  0.34658039  0.77498632  0.77757320  1
  Hf  Hf3  1  0.65341961  0.27498632  0.22242680  1
  P  P4  1  0.44876415  0.26918967  0.72947229  1
  P  P5  1  0.55123585  0.76918967  0.27052771  1
  C  C6  1  0.09497561  0.73178396  0.72134665  1
  C  C7  1  0.90502439  0.23178396  0.27865335  1
  O  O8  1  0.02594275  0.20517495  0.30626590  1
  O  O9  1  0.15567886  0.74275887  0.92757141  1
  O  O10  1  0.18651689  0.75213982  0.54895589  1
  O  O11  1  0.35908478  0.08251447  0.76957739  1
  O  O12  1  0.36207859  0.45781205  0.77094489  1
  O  O13  1  0.43340313  0.76294442  0.09916288  1
  O  O14  1  0.50630576  0.26903418  0.47903550  1
  O  O15  1  0.49369424  0.76903418  0.52096450  1
  O  O16  1  0.56659687  0.26294442  0.90083712  1
  O  O17  1  0.63792141  0.95781205  0.22905511  1
  O  O18  1  0.64091522  0.58251447  0.23042261  1
  O  O19  1  0.81348311  0.25213982  0.45104411  1
  O  O20  1  0.84432114  0.24275887  0.07242859  1
  O  O21  1  0.97405725  0.70517495  0.69373410  1
