# generated using pymatgen
data_Ti2Ni(PO5)2
_symmetry_space_group_name_H-M   'P 1'
_cell_length_a   6.50308096
_cell_length_b   7.36096596
_cell_length_c   7.36107871
_cell_angle_alpha   90.00000000
_cell_angle_beta   90.76580750
_cell_angle_gamma   90.00000000
_symmetry_Int_Tables_number   1
_chemical_formula_structural   Ti2Ni(PO5)2
_chemical_formula_sum   'Ti4 Ni2 P4 O20'
_cell_volume   352.33569059
_cell_formula_units_Z   2
loop_
 _symmetry_equiv_pos_site_id
 _symmetry_equiv_pos_as_xyz
  1  'x, y, z'
loop_
 _atom_site_type_symbol
 _atom_site_label
 _atom_site_symmetry_multiplicity
 _atom_site_fract_x
 _atom_site_fract_y
 _atom_site_fract_z
 _atom_site_occupancy
  Ti  Ti0  1  0.23630342  0.77601172  0.65913323  1
  Ti  Ti1  1  0.23630342  0.72398828  0.15913323  1
  Ti  Ti2  1  0.76369658  0.27601172  0.84086677  1
  Ti  Ti3  1  0.76369658  0.22398828  0.34086677  1
  Ni  Ni4  1  0.50000000  0.50000000  0.50000000  1
  Ni  Ni5  1  0.50000000  0.00000000  0.00000000  1
  P  P6  1  0.25560883  0.37411034  0.87250490  1
  P  P7  1  0.25560883  0.12588966  0.37250490  1
  P  P8  1  0.74439117  0.87411034  0.62749510  1
  P  P9  1  0.74439117  0.62588966  0.12749510  1
  O  O10  1  0.05737959  0.26100880  0.85725652  1
  O  O11  1  0.05737959  0.23899120  0.35725652  1
  O  O12  1  0.27291134  0.83994547  0.88617926  1
  O  O13  1  0.25000795  0.01055510  0.54739486  1
  O  O14  1  0.27291134  0.66005453  0.38617926  1
  O  O15  1  0.25000795  0.48944490  0.04739486  1
  O  O16  1  0.27868260  0.50125228  0.70520688  1
  O  O17  1  0.27868260  0.99874772  0.20520688  1
  O  O18  1  0.44039670  0.24385566  0.87741129  1
  O  O19  1  0.44039670  0.25614434  0.37741129  1
  O  O20  1  0.55960330  0.74385566  0.62258871  1
  O  O21  1  0.55960330  0.75614434  0.12258871  1
  O  O22  1  0.72131740  0.00125228  0.79479312  1
  O  O23  1  0.72131740  0.49874772  0.29479312  1
  O  O24  1  0.74999205  0.51055510  0.95260514  1
  O  O25  1  0.72708866  0.33994547  0.61382074  1
  O  O26  1  0.74999205  0.98944490  0.45260514  1
  O  O27  1  0.72708866  0.16005453  0.11382074  1
  O  O28  1  0.94262041  0.76100880  0.64274348  1
  O  O29  1  0.94262041  0.73899120  0.14274348  1
