# generated using pymatgen
data_Ba3LaBr9
_symmetry_space_group_name_H-M   'P 1'
_cell_length_a   8.10088380
_cell_length_b   31.53521202
_cell_length_c   7.53896065
_cell_angle_alpha   90.00000000
_cell_angle_beta   90.00000000
_cell_angle_gamma   92.06204057
_symmetry_Int_Tables_number   1
_chemical_formula_structural   Ba3LaBr9
_chemical_formula_sum   'Ba12 La4 Br36'
_cell_volume   1924.67903960
_cell_formula_units_Z   4
loop_
 _symmetry_equiv_pos_site_id
 _symmetry_equiv_pos_as_xyz
  1  'x, y, z'
loop_
 _atom_site_type_symbol
 _atom_site_label
 _atom_site_symmetry_multiplicity
 _atom_site_fract_x
 _atom_site_fract_y
 _atom_site_fract_z
 _atom_site_occupancy
  Ba  Ba0  1  0.31954511  0.93317920  0.97180428  1
  Ba  Ba1  1  0.29109829  0.69193067  0.00367129  1
  Ba  Ba2  1  0.31954511  0.43317920  0.02819572  1
  Ba  Ba3  1  0.29109829  0.19193067  0.99632871  1
  Ba  Ba4  1  0.68513401  0.56995108  0.98762602  1
  Ba  Ba5  1  0.71735374  0.80843715  0.98430052  1
  Ba  Ba6  1  0.68513401  0.06995108  0.01237398  1
  Ba  Ba7  1  0.71735374  0.30843715  0.01569948  1
  Ba  Ba8  1  0.78271705  0.69200688  0.52486940  1
  Ba  Ba9  1  0.81927314  0.93086462  0.51610164  1
  Ba  Ba10  1  0.78271705  0.19200688  0.47513060  1
  Ba  Ba11  1  0.81927314  0.43086462  0.48389836  1
  La  La12  1  0.20388875  0.80665950  0.51971300  1
  La  La13  1  0.17951966  0.56696346  0.54489718  1
  La  La14  1  0.20388875  0.30665950  0.48028700  1
  La  La15  1  0.17951966  0.06696346  0.45510282  1
  Br  Br16  1  0.02266148  0.86821680  0.79505234  1
  Br  Br17  1  0.01675146  0.75278220  0.81356815  1
  Br  Br18  1  0.00753435  0.62726773  0.80900358  1
  Br  Br19  1  0.02266148  0.36821680  0.20494766  1
  Br  Br20  1  0.01675146  0.25278220  0.18643185  1
  Br  Br21  1  0.10933918  0.99409017  0.70232020  1
  Br  Br22  1  0.00753435  0.12726773  0.19099642  1
  Br  Br23  1  0.15295352  0.89164505  0.33421345  1
  Br  Br24  1  0.10933918  0.49409017  0.29767980  1
  Br  Br25  1  0.15923995  0.70831042  0.40118008  1
  Br  Br26  1  0.15295352  0.39164505  0.66578655  1
  Br  Br27  1  0.15923995  0.20831042  0.59881992  1
  Br  Br28  1  0.35279219  0.79595151  0.16275930  1
  Br  Br29  1  0.34930465  0.59930113  0.21251203  1
  Br  Br30  1  0.35279219  0.29595151  0.83724070  1
  Br  Br31  1  0.34930465  0.09930113  0.78748797  1
  Br  Br32  1  0.41149619  0.51160163  0.74257194  1
  Br  Br33  1  0.49005764  0.86654525  0.67781168  1
  Br  Br34  1  0.48458219  0.75236306  0.69104635  1
  Br  Br35  1  0.47189272  0.62762335  0.69735813  1
  Br  Br36  1  0.41149619  0.01160163  0.25742806  1
  Br  Br37  1  0.49005764  0.36654525  0.32218832  1
  Br  Br38  1  0.48458219  0.25236306  0.30895365  1
  Br  Br39  1  0.47189272  0.12762335  0.30264187  1
  Br  Br40  1  0.60084941  0.99009516  0.76291823  1
  Br  Br41  1  0.60084941  0.49009516  0.23708177  1
  Br  Br42  1  0.65639114  0.90084557  0.14933995  1
  Br  Br43  1  0.67764567  0.69861764  0.10840748  1
  Br  Br44  1  0.65639114  0.40084557  0.85066005  1
  Br  Br45  1  0.67764567  0.19861764  0.89159252  1
  Br  Br46  1  0.85380379  0.79761616  0.39519974  1
  Br  Br47  1  0.87791418  0.59843249  0.35705614  1
  Br  Br48  1  0.85380379  0.29761616  0.60480026  1
  Br  Br49  1  0.87791418  0.09843249  0.64294386  1
  Br  Br50  1  0.93699852  0.51051713  0.75509433  1
  Br  Br51  1  0.93699852  0.01051713  0.24490567  1
