# generated using pymatgen
data_Li5NiO4
_symmetry_space_group_name_H-M   'P 1'
_cell_length_a   9.18443855
_cell_length_b   9.15284645
_cell_length_c   9.07108691
_cell_angle_alpha   90.00000000
_cell_angle_beta   90.00000000
_cell_angle_gamma   90.00000000
_symmetry_Int_Tables_number   1
_chemical_formula_structural   Li5NiO4
_chemical_formula_sum   'Li40 Ni8 O32'
_cell_volume   762.54963464
_cell_formula_units_Z   8
loop_
 _symmetry_equiv_pos_site_id
 _symmetry_equiv_pos_as_xyz
  1  'x, y, z'
loop_
 _atom_site_type_symbol
 _atom_site_label
 _atom_site_symmetry_multiplicity
 _atom_site_fract_x
 _atom_site_fract_y
 _atom_site_fract_z
 _atom_site_occupancy
  Li  Li0  1  0.10925261  0.61194385  0.14348709  1
  Li  Li1  1  0.10925261  0.88805615  0.64348709  1
  Li  Li2  1  0.11795081  0.10994732  0.84044160  1
  Li  Li3  1  0.11795081  0.39005268  0.34044160  1
  Li  Li4  1  0.11894477  0.85176860  0.37384616  1
  Li  Li5  1  0.11894477  0.64823140  0.87384616  1
  Li  Li6  1  0.14730133  0.87652786  0.10366365  1
  Li  Li7  1  0.14730133  0.62347214  0.60366365  1
  Li  Li8  1  0.15604116  0.11890525  0.39467207  1
  Li  Li9  1  0.15604116  0.38109475  0.89467207  1
  Li  Li10  1  0.34395884  0.88109475  0.89467207  1
  Li  Li11  1  0.34395884  0.61890525  0.39467207  1
  Li  Li12  1  0.35269867  0.37652786  0.10366365  1
  Li  Li13  1  0.35269867  0.12347214  0.60366365  1
  Li  Li14  1  0.38105523  0.35176860  0.37384616  1
  Li  Li15  1  0.38105523  0.14823140  0.87384616  1
  Li  Li16  1  0.38204919  0.89005268  0.34044160  1
  Li  Li17  1  0.38204919  0.60994732  0.84044160  1
  Li  Li18  1  0.39074739  0.11194385  0.14348709  1
  Li  Li19  1  0.39074739  0.38805615  0.64348709  1
  Li  Li20  1  0.60925261  0.61194385  0.35651291  1
  Li  Li21  1  0.60925261  0.88805615  0.85651291  1
  Li  Li22  1  0.61795081  0.10994732  0.65955840  1
  Li  Li23  1  0.61795081  0.39005268  0.15955840  1
  Li  Li24  1  0.61894477  0.64823140  0.62615384  1
  Li  Li25  1  0.61894477  0.85176860  0.12615384  1
  Li  Li26  1  0.64730133  0.62347214  0.89633635  1
  Li  Li27  1  0.64730133  0.87652786  0.39633635  1
  Li  Li28  1  0.65604116  0.11890525  0.10532793  1
  Li  Li29  1  0.65604116  0.38109475  0.60532793  1
  Li  Li30  1  0.84395884  0.61890525  0.10532793  1
  Li  Li31  1  0.84395884  0.88109475  0.60532793  1
  Li  Li32  1  0.85269867  0.37652786  0.39633635  1
  Li  Li33  1  0.85269867  0.12347214  0.89633635  1
  Li  Li34  1  0.88105523  0.14823140  0.62615384  1
  Li  Li35  1  0.88105523  0.35176860  0.12615384  1
  Li  Li36  1  0.88204919  0.60994732  0.65955840  1
  Li  Li37  1  0.88204919  0.89005268  0.15955840  1
  Li  Li38  1  0.89074739  0.11194385  0.35651291  1
  Li  Li39  1  0.89074739  0.38805615  0.85651291  1
  Ni  Ni40  1  0.11726755  0.14658567  0.11810786  1
  Ni  Ni41  1  0.11726755  0.35341433  0.61810786  1
  Ni  Ni42  1  0.38273245  0.64658567  0.11810786  1
  Ni  Ni43  1  0.38273245  0.85341433  0.61810786  1
  Ni  Ni44  1  0.61726755  0.14658567  0.38189214  1
  Ni  Ni45  1  0.61726755  0.35341433  0.88189214  1
  Ni  Ni46  1  0.88273245  0.64658567  0.38189214  1
  Ni  Ni47  1  0.88273245  0.85341433  0.88189214  1
  O  O48  1  0.00618554  0.25162188  0.48554979  1
  O  O49  1  0.00618554  0.24837812  0.98554979  1
  O  O50  1  0.03531995  0.00784896  0.24445099  1
  O  O51  1  0.03531995  0.49215104  0.74445099  1
  O  O52  1  0.24537533  0.03417926  0.00069321  1
  O  O53  1  0.24537533  0.46582074  0.50069321  1
  O  O54  1  0.24592282  0.24788385  0.23896518  1
  O  O55  1  0.24592282  0.25211615  0.73896518  1
  O  O56  1  0.25407718  0.74788385  0.23896518  1
  O  O57  1  0.25407718  0.75211615  0.73896518  1
  O  O58  1  0.25462467  0.53417926  0.00069321  1
  O  O59  1  0.25462467  0.96582074  0.50069321  1
  O  O60  1  0.46468005  0.50784896  0.24445099  1
  O  O61  1  0.46468005  0.99215104  0.74445099  1
  O  O62  1  0.49381446  0.75162188  0.48554979  1
  O  O63  1  0.49381446  0.74837812  0.98554979  1
  O  O64  1  0.50618554  0.25162188  0.01445021  1
  O  O65  1  0.50618554  0.24837812  0.51445021  1
  O  O66  1  0.53531995  0.00784896  0.25554901  1
  O  O67  1  0.53531995  0.49215104  0.75554901  1
  O  O68  1  0.74537533  0.03417926  0.49930679  1
  O  O69  1  0.74537533  0.46582074  0.99930679  1
  O  O70  1  0.74592282  0.24788385  0.26103482  1
  O  O71  1  0.74592282  0.25211615  0.76103482  1
  O  O72  1  0.75407718  0.74788385  0.26103482  1
  O  O73  1  0.75407718  0.75211615  0.76103482  1
  O  O74  1  0.75462467  0.53417926  0.49930679  1
  O  O75  1  0.75462467  0.96582074  0.99930679  1
  O  O76  1  0.96468005  0.99215104  0.75554901  1
  O  O77  1  0.96468005  0.50784896  0.25554901  1
  O  O78  1  0.99381446  0.75162188  0.01445021  1
  O  O79  1  0.99381446  0.74837812  0.51445021  1
