# generated using pymatgen
data_Rb2S2O7
_symmetry_space_group_name_H-M   'P 1'
_cell_length_a   13.19959837
_cell_length_b   7.73515004
_cell_length_c   7.84376063
_cell_angle_alpha   92.24587888
_cell_angle_beta   99.81936273
_cell_angle_gamma   91.69380425
_symmetry_Int_Tables_number   1
_chemical_formula_structural   Rb2S2O7
_chemical_formula_sum   'Rb8 S8 O28'
_cell_volume   787.98204311
_cell_formula_units_Z   4
loop_
 _symmetry_equiv_pos_site_id
 _symmetry_equiv_pos_as_xyz
  1  'x, y, z'
loop_
 _atom_site_type_symbol
 _atom_site_label
 _atom_site_symmetry_multiplicity
 _atom_site_fract_x
 _atom_site_fract_y
 _atom_site_fract_z
 _atom_site_occupancy
  Rb  Rb0  1  0.13222996  0.11597256  0.87546257  1
  Rb  Rb1  1  0.15477903  0.77673403  0.37855339  1
  Rb  Rb2  1  0.34248090  0.55633335  0.79579294  1
  Rb  Rb3  1  0.37193143  0.21503857  0.29442607  1
  Rb  Rb4  1  0.62806857  0.78496143  0.70557393  1
  Rb  Rb5  1  0.65751910  0.44366665  0.20420706  1
  Rb  Rb6  1  0.84522097  0.22326597  0.62144661  1
  Rb  Rb7  1  0.86777004  0.88402744  0.12453743  1
  S  S8  1  0.08480106  0.65837914  0.86111261  1
  S  S9  1  0.10711765  0.27849159  0.38645672  1
  S  S10  1  0.39104488  0.06548503  0.75989754  1
  S  S11  1  0.41735156  0.70238550  0.27537722  1
  S  S12  1  0.58264844  0.29761450  0.72462278  1
  S  S13  1  0.60895512  0.93451497  0.24010246  1
  S  S14  1  0.89288235  0.72150841  0.61354328  1
  S  S15  1  0.91519894  0.34162086  0.13888739  1
  O  O16  1  0.02394018  0.41044691  0.27100180  1
  O  O17  1  0.05033574  0.19168729  0.50416017  1
  O  O18  1  0.05404125  0.77208928  0.99487967  1
  O  O19  1  0.12657105  0.49517393  0.92055646  1
  O  O20  1  0.14677673  0.75009571  0.75278551  1
  O  O21  1  0.14259159  0.16023028  0.26075193  1
  O  O22  1  0.18527821  0.40713094  0.46841093  1
  O  O23  1  0.30869981  0.02999436  0.61199929  1
  O  O24  1  0.36173121  0.18095115  0.89385686  1
  O  O25  1  0.34321305  0.81933520  0.18732039  1
  O  O26  1  0.39688275  0.64907700  0.44314016  1
  O  O27  1  0.44747781  0.91589381  0.82201247  1
  O  O28  1  0.47153919  0.18440694  0.65719963  1
  O  O29  1  0.44208486  0.55883154  0.16403529  1
  O  O30  1  0.55791514  0.44116846  0.83596471  1
  O  O31  1  0.52846081  0.81559306  0.34280037  1
  O  O32  1  0.55252219  0.08410619  0.17798753  1
  O  O33  1  0.60311725  0.35092300  0.55685984  1
  O  O34  1  0.65678695  0.18066480  0.81267961  1
  O  O35  1  0.63826879  0.81904885  0.10614314  1
  O  O36  1  0.69130019  0.97000564  0.38800071  1
  O  O37  1  0.81472179  0.59286906  0.53158907  1
  O  O38  1  0.85740841  0.83976972  0.73924807  1
  O  O39  1  0.85322327  0.24990429  0.24721449  1
  O  O40  1  0.87342895  0.50482607  0.07944354  1
  O  O41  1  0.94595875  0.22791072  0.00512033  1
  O  O42  1  0.94966426  0.80831271  0.49583983  1
  O  O43  1  0.97605982  0.58955309  0.72899820  1
