# generated using pymatgen
data_Sr2WO5
_symmetry_space_group_name_H-M   'P 1'
_cell_length_a   5.61578403
_cell_length_b   7.38261573
_cell_length_c   11.09988547
_cell_angle_alpha   90.00000000
_cell_angle_beta   90.00000000
_cell_angle_gamma   90.00000000
_symmetry_Int_Tables_number   1
_chemical_formula_structural   Sr2WO5
_chemical_formula_sum   'Sr8 W4 O20'
_cell_volume   460.19209991
_cell_formula_units_Z   4
loop_
 _symmetry_equiv_pos_site_id
 _symmetry_equiv_pos_as_xyz
  1  'x, y, z'
loop_
 _atom_site_type_symbol
 _atom_site_label
 _atom_site_symmetry_multiplicity
 _atom_site_fract_x
 _atom_site_fract_y
 _atom_site_fract_z
 _atom_site_occupancy
  Sr  Sr0  1  0.75000000  0.48704986  0.72382175  1
  Sr  Sr1  1  0.75000000  0.98704986  0.77617825  1
  Sr  Sr2  1  0.25000000  0.51295014  0.27617825  1
  Sr  Sr3  1  0.25000000  0.01295014  0.22382175  1
  Sr  Sr4  1  0.75000000  0.17612173  0.41764754  1
  Sr  Sr5  1  0.75000000  0.67612173  0.08235246  1
  Sr  Sr6  1  0.25000000  0.82387827  0.58235246  1
  Sr  Sr7  1  0.25000000  0.32387827  0.91764754  1
  W  W8  1  0.75000000  0.18267095  0.06336393  1
  W  W9  1  0.75000000  0.68267095  0.43663607  1
  W  W10  1  0.25000000  0.81732905  0.93663607  1
  W  W11  1  0.25000000  0.31732905  0.56336393  1
  O  O12  1  0.00115767  0.16252006  0.60873089  1
  O  O13  1  0.49884233  0.66252006  0.89126911  1
  O  O14  1  0.50115767  0.83747994  0.39126911  1
  O  O15  1  0.99884233  0.33747994  0.10873089  1
  O  O16  1  0.99884233  0.83747994  0.39126911  1
  O  O17  1  0.50115767  0.33747994  0.10873089  1
  O  O18  1  0.49884233  0.16252006  0.60873089  1
  O  O19  1  0.00115767  0.66252006  0.89126911  1
  O  O20  1  0.00000000  0.50000000  0.50000000  1
  O  O21  1  0.50000000  -0.00000000  -0.00000000  1
  O  O22  1  0.50000000  0.50000000  0.50000000  1
  O  O23  1  0.00000000  -0.00000000  -0.00000000  1
  O  O24  1  0.75000000  0.27211449  0.89430468  1
  O  O25  1  0.75000000  0.77211449  0.60569532  1
  O  O26  1  0.25000000  0.72788551  0.10569532  1
  O  O27  1  0.25000000  0.22788551  0.39430468  1
  O  O28  1  0.75000000  0.04301325  0.20733109  1
  O  O29  1  0.75000000  0.54301325  0.29266891  1
  O  O30  1  0.25000000  0.95698675  0.79266891  1
  O  O31  1  0.25000000  0.45698675  0.70733109  1
