# generated using pymatgen
data_CsY3O5
_symmetry_space_group_name_H-M   'P 1'
_cell_length_a   10.56182206
_cell_length_b   3.52049126
_cell_length_c   17.56484552
_cell_angle_alpha   90.00000000
_cell_angle_beta   90.00000000
_cell_angle_gamma   90.00000000
_symmetry_Int_Tables_number   1
_chemical_formula_structural   CsY3O5
_chemical_formula_sum   'Cs4 Y12 O20'
_cell_volume   653.11017756
_cell_formula_units_Z   4
loop_
 _symmetry_equiv_pos_site_id
 _symmetry_equiv_pos_as_xyz
  1  'x, y, z'
loop_
 _atom_site_type_symbol
 _atom_site_label
 _atom_site_symmetry_multiplicity
 _atom_site_fract_x
 _atom_site_fract_y
 _atom_site_fract_z
 _atom_site_occupancy
  Cs  Cs0  1  0.02913819  0.75000000  0.62506415  1
  Cs  Cs1  1  0.47086181  0.25000000  0.12506415  1
  Cs  Cs2  1  0.52913819  0.75000000  0.87493585  1
  Cs  Cs3  1  0.97086181  0.25000000  0.37493585  1
  Y  Y4  1  0.10613515  0.75000000  0.16118663  1
  Y  Y5  1  0.15056383  0.25000000  0.98686581  1
  Y  Y6  1  0.18553722  0.75000000  0.81497223  1
  Y  Y7  1  0.31446278  0.25000000  0.31497223  1
  Y  Y8  1  0.34943617  0.75000000  0.48686581  1
  Y  Y9  1  0.39386485  0.25000000  0.66118663  1
  Y  Y10  1  0.60613515  0.75000000  0.33881337  1
  Y  Y11  1  0.65056383  0.25000000  0.51313419  1
  Y  Y12  1  0.68553722  0.75000000  0.68502777  1
  Y  Y13  1  0.81446278  0.25000000  0.18502777  1
  Y  Y14  1  0.84943617  0.75000000  0.01313419  1
  Y  Y15  1  0.89386485  0.25000000  0.83881337  1
  O  O16  1  0.02133061  0.75000000  0.91978229  1
  O  O17  1  0.06885008  0.25000000  0.77076677  1
  O  O18  1  0.19085312  0.25000000  0.21420004  1
  O  O19  1  0.22180224  0.75000000  0.05087980  1
  O  O20  1  0.23015939  0.75000000  0.38474400  1
  O  O21  1  0.26984061  0.25000000  0.88474400  1
  O  O22  1  0.27819776  0.25000000  0.55087980  1
  O  O23  1  0.30914688  0.75000000  0.71420004  1
  O  O24  1  0.43114992  0.75000000  0.27076677  1
  O  O25  1  0.47866939  0.25000000  0.41978229  1
  O  O26  1  0.52133061  0.75000000  0.58021771  1
  O  O27  1  0.56885008  0.25000000  0.72923323  1
  O  O28  1  0.69085312  0.25000000  0.28579996  1
  O  O29  1  0.72180224  0.75000000  0.44912020  1
  O  O30  1  0.73015939  0.75000000  0.11525600  1
  O  O31  1  0.76984061  0.25000000  0.61525600  1
  O  O32  1  0.77819776  0.25000000  0.94912020  1
  O  O33  1  0.80914688  0.75000000  0.78579996  1
  O  O34  1  0.93114992  0.75000000  0.22923323  1
  O  O35  1  0.97866939  0.25000000  0.08021771  1
