# generated using pymatgen
data_Y2HfO5
_symmetry_space_group_name_H-M   'P 1'
_cell_length_a   7.54264133
_cell_length_b   3.77754042
_cell_length_c   15.77406413
_cell_angle_alpha   90.00000000
_cell_angle_beta   90.00000000
_cell_angle_gamma   90.00000000
_symmetry_Int_Tables_number   1
_chemical_formula_structural   Y2HfO5
_chemical_formula_sum   'Y8 Hf4 O20'
_cell_volume   449.44461225
_cell_formula_units_Z   4
loop_
 _symmetry_equiv_pos_site_id
 _symmetry_equiv_pos_as_xyz
  1  'x, y, z'
loop_
 _atom_site_type_symbol
 _atom_site_label
 _atom_site_symmetry_multiplicity
 _atom_site_fract_x
 _atom_site_fract_y
 _atom_site_fract_z
 _atom_site_occupancy
  Y  Y0  1  0.08709733  0.25000000  0.08997292  1
  Y  Y1  1  0.15034325  0.25000000  0.73768319  1
  Y  Y2  1  0.34965675  0.75000000  0.23768319  1
  Y  Y3  1  0.41290267  0.75000000  0.58997292  1
  Y  Y4  1  0.58709733  0.25000000  0.41002708  1
  Y  Y5  1  0.65034325  0.25000000  0.76231681  1
  Y  Y6  1  0.84965675  0.75000000  0.26231681  1
  Y  Y7  1  0.91290267  0.75000000  0.91002708  1
  Hf  Hf8  1  0.11870353  0.25000000  0.42732979  1
  Hf  Hf9  1  0.38129647  0.75000000  0.92732979  1
  Hf  Hf10  1  0.61870353  0.25000000  0.07267021  1
  Hf  Hf11  1  0.88129647  0.75000000  0.57267021  1
  O  O12  1  0.08474546  0.75000000  0.17842980  1
  O  O13  1  0.07855446  0.75000000  0.46126975  1
  O  O14  1  0.10970824  0.75000000  0.65142677  1
  O  O15  1  0.14716271  0.75000000  0.00220400  1
  O  O16  1  0.28621528  0.25000000  0.32701446  1
  O  O17  1  0.21378472  0.75000000  0.82701446  1
  O  O18  1  0.35283729  0.25000000  0.50220400  1
  O  O19  1  0.39029176  0.25000000  0.15142677  1
  O  O20  1  0.42144554  0.25000000  0.96126975  1
  O  O21  1  0.41525454  0.25000000  0.67842980  1
  O  O22  1  0.58474546  0.75000000  0.32157020  1
  O  O23  1  0.57855446  0.75000000  0.03873025  1
  O  O24  1  0.60970824  0.75000000  0.84857323  1
  O  O25  1  0.64716271  0.75000000  0.49779600  1
  O  O26  1  0.78621528  0.25000000  0.17298554  1
  O  O27  1  0.71378472  0.75000000  0.67298554  1
  O  O28  1  0.85283729  0.25000000  0.99779600  1
  O  O29  1  0.89029176  0.25000000  0.34857323  1
  O  O30  1  0.92144554  0.25000000  0.53873025  1
  O  O31  1  0.91525454  0.25000000  0.82157020  1
