# generated using pymatgen
data_K2W3O10
_symmetry_space_group_name_H-M   'P 1'
_cell_length_a   11.29373238
_cell_length_b   3.88825919
_cell_length_c   31.33780691
_cell_angle_alpha   90.00000000
_cell_angle_beta   89.40694786
_cell_angle_gamma   90.00000000
_symmetry_Int_Tables_number   1
_chemical_formula_structural   K2W3O10
_chemical_formula_sum   'K12 W18 O60'
_cell_volume   1376.06210348
_cell_formula_units_Z   6
loop_
 _symmetry_equiv_pos_site_id
 _symmetry_equiv_pos_as_xyz
  1  'x, y, z'
loop_
 _atom_site_type_symbol
 _atom_site_label
 _atom_site_symmetry_multiplicity
 _atom_site_fract_x
 _atom_site_fract_y
 _atom_site_fract_z
 _atom_site_occupancy
  K  K0  1  0.08832655  0.48398421  0.54745867  1
  K  K1  1  0.13368828  0.49487463  0.15202761  1
  K  K2  1  0.23441369  0.46434395  0.65240136  1
  K  K3  1  0.26558631  0.46434395  0.84759864  1
  K  K4  1  0.36631172  0.49487463  0.34797239  1
  K  K5  1  0.41167345  0.48398421  0.95254133  1
  K  K6  1  0.58832655  0.51601579  0.04745867  1
  K  K7  1  0.63368828  0.50512537  0.65202761  1
  K  K8  1  0.73441369  0.53565605  0.15240136  1
  K  K9  1  0.76558631  0.53565605  0.34759864  1
  K  K10  1  0.86631172  0.50512537  0.84797239  1
  K  K11  1  0.91167345  0.51601579  0.45254133  1
  W  W12  1  0.05308104  0.03307307  0.34888566  1
  W  W13  1  0.05754648  0.96271178  0.94856277  1
  W  W14  1  0.08299244  0.96508001  0.76427476  1
  W  W15  1  0.23883241  0.96932578  0.05430586  1
  W  W16  1  0.25000000  0.97072686  0.25000000  1
  W  W17  1  0.26116759  0.96932578  0.44569414  1
  W  W18  1  0.44691896  0.03307307  0.15111434  1
  W  W19  1  0.41700756  0.96508001  0.73572524  1
  W  W20  1  0.44245352  0.96271178  0.55143723  1
  W  W21  1  0.55754648  0.03728822  0.44856277  1
  W  W22  1  0.58299244  0.03491999  0.26427476  1
  W  W23  1  0.55308104  0.96692693  0.84888566  1
  W  W24  1  0.73883241  0.03067422  0.55430586  1
  W  W25  1  0.75000000  0.02927314  0.75000000  1
  W  W26  1  0.76116759  0.03067422  0.94569414  1
  W  W27  1  0.91700756  0.03491999  0.23572524  1
  W  W28  1  0.94245352  0.03728822  0.05143723  1
  W  W29  1  0.94691896  0.96692693  0.65111434  1
  O  O30  1  0.07113053  0.00353140  0.08953488  1
  O  O31  1  0.06691411  0.51776696  0.34861696  1
  O  O32  1  0.05627323  0.98871059  0.60844188  1
  O  O33  1  0.08837090  0.00608271  0.22959893  1
  O  O34  1  0.05290592  0.98518148  0.69708725  1
  O  O35  1  0.11134956  0.99743117  0.00907089  1
  O  O36  1  0.05214022  0.48061549  0.95286436  1
  O  O37  1  0.08268012  0.47933978  0.75940196  1
  O  O38  1  0.10496656  0.97950823  0.82073203  1
  O  O39  1  0.13620672  0.98579763  0.48179022  1
  O  O40  1  0.19656448  0.00576039  0.30786518  1
  O  O41  1  0.18888971  0.00024327  0.39223357  1
  O  O42  1  0.22595588  0.48586651  0.05602581  1
  O  O43  1  0.18978952  0.98197690  0.91737397  1
  O  O44  1  0.25000000  0.49329542  0.25000000  1
  O  O45  1  0.25000000  0.98924567  0.75000000  1
  O  O46  1  0.27404412  0.48586651  0.44397419  1
  O  O47  1  0.31111029  0.00024327  0.10776643  1
  O  O48  1  0.30343552  0.00576039  0.19213482  1
  O  O49  1  0.31021048  0.98197690  0.58262603  1
  O  O50  1  0.36379328  0.98579763  0.01820978  1
  O  O51  1  0.38865044  0.99743117  0.49092911  1
  O  O52  1  0.41162910  0.00608271  0.27040107  1
  O  O53  1  0.43308589  0.51776696  0.15138304  1
  O  O54  1  0.39503344  0.97950823  0.67926797  1
  O  O55  1  0.41731988  0.47933978  0.74059804  1
  O  O56  1  0.42886947  0.00353140  0.41046512  1
  O  O57  1  0.44785978  0.48061549  0.54713564  1
  O  O58  1  0.44709408  0.98518148  0.80291275  1
  O  O59  1  0.44372677  0.98871059  0.89155812  1
  O  O60  1  0.55627323  0.01128941  0.10844188  1
  O  O61  1  0.55290592  0.01481852  0.19708725  1
  O  O62  1  0.55214022  0.51938451  0.45286436  1
  O  O63  1  0.57113053  0.99646860  0.58953488  1
  O  O64  1  0.58268012  0.52066022  0.25940196  1
  O  O65  1  0.60496656  0.02049177  0.32073203  1
  O  O66  1  0.56691411  0.48223304  0.84861696  1
  O  O67  1  0.58837090  0.99391729  0.72959893  1
  O  O68  1  0.61134956  0.00256883  0.50907089  1
  O  O69  1  0.63620672  0.01420237  0.98179022  1
  O  O70  1  0.68978952  0.01802310  0.41737397  1
  O  O71  1  0.69656448  0.99423961  0.80786518  1
  O  O72  1  0.68888971  0.99975673  0.89223357  1
  O  O73  1  0.72595588  0.51413349  0.55602581  1
  O  O74  1  0.75000000  0.01075433  0.25000000  1
  O  O75  1  0.75000000  0.50670458  0.75000000  1
  O  O76  1  0.81021048  0.01802310  0.08262603  1
  O  O77  1  0.77404412  0.51413349  0.94397419  1
  O  O78  1  0.81111029  0.99975673  0.60776643  1
  O  O79  1  0.80343552  0.99423961  0.69213482  1
  O  O80  1  0.86379328  0.01420237  0.51820978  1
  O  O81  1  0.89503344  0.02049177  0.17926797  1
  O  O82  1  0.91731988  0.52066022  0.24059804  1
  O  O83  1  0.94785978  0.51938451  0.04713564  1
  O  O84  1  0.88865044  0.00256883  0.99092911  1
  O  O85  1  0.94709408  0.01481852  0.30291275  1
  O  O86  1  0.91162910  0.99391729  0.77040107  1
  O  O87  1  0.94372677  0.01128941  0.39155812  1
  O  O88  1  0.93308589  0.48223304  0.65138304  1
  O  O89  1  0.92886947  0.99646860  0.91046512  1
