# generated using pymatgen
data_Li8Mn5Fe3(BO3)8
_symmetry_space_group_name_H-M   'P 1'
_cell_length_a   6.02796086
_cell_length_b   5.24304523
_cell_length_c   16.18618080
_cell_angle_alpha   91.22316192
_cell_angle_beta   98.21350511
_cell_angle_gamma   89.19914764
_symmetry_Int_Tables_number   1
_chemical_formula_structural   Li8Mn5Fe3(BO3)8
_chemical_formula_sum   'Li8 Mn5 Fe3 B8 O24'
_cell_volume   506.16861951
_cell_formula_units_Z   1
loop_
 _symmetry_equiv_pos_site_id
 _symmetry_equiv_pos_as_xyz
  1  'x, y, z'
loop_
 _atom_site_type_symbol
 _atom_site_label
 _atom_site_symmetry_multiplicity
 _atom_site_fract_x
 _atom_site_fract_y
 _atom_site_fract_z
 _atom_site_occupancy
  Li  Li0  1  0.06490886  0.84619481  0.61077564  1
  Li  Li1  1  0.43601768  0.15154662  0.89078901  1
  Li  Li2  1  0.18775013  0.65200763  0.13991951  1
  Li  Li3  1  0.31186156  0.35066124  0.35954977  1
  Li  Li4  1  0.68853576  0.65147613  0.64123439  1
  Li  Li5  1  0.81343404  0.34815160  0.85976081  1
  Li  Li6  1  0.56356493  0.84693148  0.11006233  1
  Li  Li7  1  0.93473881  0.15119108  0.38945578  1
  Mn  Mn8  1  0.02332150  0.16715633  0.21031671  1
  Mn  Mn9  1  0.22427579  0.33144542  0.53882855  1
  Mn  Mn10  1  0.52472175  0.16726011  0.70936759  1
  Mn  Mn11  1  0.77259586  0.66936808  0.45850147  1
  Mn  Mn12  1  0.72386675  0.33157028  0.03951392  1
  Fe  Fe13  1  0.27203589  0.66701434  0.95683521  1
  Fe  Fe14  1  0.47274513  0.83810951  0.28944866  1
  Fe  Fe15  1  0.97257582  0.83771529  0.79141432  1
  B  B16  1  0.03677964  0.32703026  0.70383595  1
  B  B17  1  0.28370142  0.82871382  0.45092945  1
  B  B18  1  0.46312802  0.67021662  0.79814096  1
  B  B19  1  0.21649385  0.17218052  0.04708903  1
  B  B20  1  0.78690028  0.82807402  0.95195788  1
  B  B21  1  0.53628048  0.32749281  0.20403970  1
  B  B22  1  0.71655962  0.17136673  0.54768255  1
  B  B23  1  0.96406671  0.67309443  0.29696233  1
  O  O24  1  0.01199921  0.58618676  0.69187749  1
  O  O25  1  0.17032474  0.18015085  0.65636027  1
  O  O26  1  0.16818416  0.71416008  0.50855522  1
  O  O27  1  0.33180938  0.29670124  0.99114848  1
  O  O28  1  0.08311418  0.78652527  0.24008206  1
  O  O29  1  0.32676912  0.81840710  0.84515898  1
  O  O30  1  0.08042298  0.31884328  0.09391880  1
  O  O31  1  0.26121051  0.08741471  0.43648462  1
  O  O32  1  0.48744019  0.41140917  0.81215207  1
  O  O33  1  0.24080573  0.91213887  0.05917556  1
  O  O34  1  0.41961463  0.67928611  0.40486606  1
  O  O35  1  0.42172237  0.20738862  0.26153836  1
  O  O36  1  0.57901532  0.78736038  0.74113897  1
  O  O37  1  0.58021176  0.32222914  0.59325691  1
  O  O38  1  0.76251854  0.08642416  0.93695184  1
  O  O39  1  0.51140707  0.58647239  0.19120655  1
  O  O40  1  0.73950612  0.91283423  0.56269291  1
  O  O41  1  0.92081231  0.67756772  0.90487349  1
  O  O42  1  0.66906640  0.17956756  0.15661028  1
  O  O43  1  0.92250813  0.20446836  0.76078755  1
  O  O44  1  0.67344404  0.71359900  0.01002484  1
  O  O45  1  0.83346439  0.28698150  0.49053291  1
  O  O46  1  0.82689395  0.82349381  0.34207535  1
  O  O47  1  0.98687354  0.41442055  0.31211893  1
