# generated using pymatgen
data_Na3Zn4P4H4NO16
_symmetry_space_group_name_H-M   'P 1'
_cell_length_a   8.32308802
_cell_length_b   10.49097261
_cell_length_c   17.58682557
_cell_angle_alpha   90.00000000
_cell_angle_beta   90.00000000
_cell_angle_gamma   90.00000000
_symmetry_Int_Tables_number   1
_chemical_formula_structural   Na3Zn4P4H4NO16
_chemical_formula_sum   'Na12 Zn16 P16 H16 N4 O64'
_cell_volume   1535.63392119
_cell_formula_units_Z   4
loop_
 _symmetry_equiv_pos_site_id
 _symmetry_equiv_pos_as_xyz
  1  'x, y, z'
loop_
 _atom_site_type_symbol
 _atom_site_label
 _atom_site_symmetry_multiplicity
 _atom_site_fract_x
 _atom_site_fract_y
 _atom_site_fract_z
 _atom_site_occupancy
  Na  Na0  1  0.00000000  0.02764775  0.25000000  1
  Na  Na1  1  0.00000000  0.97235225  0.75000000  1
  Na  Na2  1  0.01235918  0.68385654  0.49617209  1
  Na  Na3  1  0.01235918  0.31614346  0.99617209  1
  Na  Na4  1  0.48764082  0.18385654  0.49617209  1
  Na  Na5  1  0.48764082  0.81614346  0.99617209  1
  Na  Na6  1  0.50000000  0.52764775  0.25000000  1
  Na  Na7  1  0.50000000  0.47235225  0.75000000  1
  Na  Na8  1  0.51235918  0.18385654  0.00382791  1
  Na  Na9  1  0.51235918  0.81614346  0.50382791  1
  Na  Na10  1  0.98764082  0.31614346  0.50382791  1
  Na  Na11  1  0.98764082  0.68385654  0.00382791  1
  Zn  Zn12  1  0.17340594  0.05064144  0.42566146  1
  Zn  Zn13  1  0.17340594  0.94935856  0.92566146  1
  Zn  Zn14  1  0.19629393  0.32024998  0.16239502  1
  Zn  Zn15  1  0.19629393  0.67975002  0.66239502  1
  Zn  Zn16  1  0.30370607  0.82024998  0.16239502  1
  Zn  Zn17  1  0.30370607  0.17975002  0.66239502  1
  Zn  Zn18  1  0.32659406  0.55064144  0.42566146  1
  Zn  Zn19  1  0.32659406  0.44935856  0.92566146  1
  Zn  Zn20  1  0.67340594  0.55064144  0.07433854  1
  Zn  Zn21  1  0.67340594  0.44935856  0.57433854  1
  Zn  Zn22  1  0.69629393  0.17975002  0.83760498  1
  Zn  Zn23  1  0.69629393  0.82024998  0.33760498  1
  Zn  Zn24  1  0.80370607  0.32024998  0.33760498  1
  Zn  Zn25  1  0.80370607  0.67975002  0.83760498  1
  Zn  Zn26  1  0.82659406  0.05064144  0.07433854  1
  Zn  Zn27  1  0.82659406  0.94935856  0.57433854  1
  P  P28  1  0.20505521  0.31388952  0.34277763  1
  P  P29  1  0.20505521  0.68611048  0.84277763  1
  P  P30  1  0.21117440  0.06894565  0.08004096  1
  P  P31  1  0.21117440  0.93105435  0.58004096  1
  P  P32  1  0.28882560  0.56894565  0.08004096  1
  P  P33  1  0.28882560  0.43105435  0.58004096  1
  P  P34  1  0.29494479  0.18611048  0.84277763  1
  P  P35  1  0.29494479  0.81388952  0.34277763  1
  P  P36  1  0.70505521  0.18611048  0.65722237  1
  P  P37  1  0.70505521  0.81388952  0.15722237  1
  P  P38  1  0.71117440  0.43105435  0.91995904  1
  P  P39  1  0.71117440  0.56894565  0.41995904  1
  P  P40  1  0.78882560  0.06894565  0.41995904  1
  P  P41  1  0.78882560  0.93105435  0.91995904  1
  P  P42  1  0.79494479  0.31388952  0.15722237  1
  P  P43  1  0.79494479  0.68611048  0.65722237  1
  H  H44  1  0.02433790  0.52558597  0.29636566  1
  H  H45  1  0.02433790  0.47441403  0.79636566  1
  H  H46  1  0.10050340  0.63958844  0.23958155  1
  H  H47  1  0.10050340  0.36041156  0.73958155  1
  H  H48  1  0.39949660  0.13958844  0.23958155  1
  H  H49  1  0.39949660  0.86041156  0.73958155  1
  H  H50  1  0.47566210  0.02558597  0.29636566  1
  H  H51  1  0.47566210  0.97441403  0.79636566  1
  H  H52  1  0.52433790  0.02558597  0.20363434  1
  H  H53  1  0.52433790  0.97441403  0.70363434  1
  H  H54  1  0.60050340  0.13958844  0.26041845  1
  H  H55  1  0.60050340  0.86041156  0.76041845  1
  H  H56  1  0.89949660  0.63958844  0.26041845  1
  H  H57  1  0.89949660  0.36041156  0.76041845  1
  H  H58  1  0.97566210  0.47441403  0.70363434  1
  H  H59  1  0.97566210  0.52558597  0.20363434  1
  N  N60  1  0.99999900  0.58309367  0.25000100  1
  N  N61  1  0.00000100  0.41690633  0.74999900  1
  N  N62  1  0.50000100  0.08309367  0.25000100  1
  N  N63  1  0.50000100  0.91690633  0.75000100  1
  O  O64  1  0.03134709  0.36080185  0.36180643  1
  O  O65  1  0.03134709  0.63919815  0.86180643  1
  O  O66  1  0.04367882  0.10974001  0.05050271  1
  O  O67  1  0.04367882  0.89025999  0.55050271  1
  O  O68  1  0.18652904  0.06519184  0.83834113  1
  O  O69  1  0.18652904  0.93480816  0.33834113  1
  O  O70  1  0.19176638  0.69235864  0.09864510  1
  O  O71  1  0.19176638  0.30764136  0.59864510  1
  O  O72  1  0.19482030  0.01420758  0.65289005  1
  O  O73  1  0.19482030  0.98579242  0.15289005  1
  O  O74  1  0.19646140  0.49571171  0.01636967  1
  O  O75  1  0.19646140  0.50428829  0.51636967  1
  O  O76  1  0.20863586  0.24296443  0.26466676  1
  O  O77  1  0.20863586  0.75703557  0.76466676  1
  O  O78  1  0.23122461  0.72244058  0.40502195  1
  O  O79  1  0.23122461  0.27755942  0.90502195  1
  O  O80  1  0.26877539  0.22244058  0.40502195  1
  O  O81  1  0.26877539  0.77755942  0.90502195  1
  O  O82  1  0.29136414  0.25703557  0.76466676  1
  O  O83  1  0.29136414  0.74296443  0.26466676  1
  O  O84  1  0.30353860  0.00428829  0.51636967  1
  O  O85  1  0.30353860  0.99571171  0.01636967  1
  O  O86  1  0.30517970  0.48579242  0.15289005  1
  O  O87  1  0.30517970  0.51420758  0.65289005  1
  O  O88  1  0.30823362  0.19235864  0.09864510  1
  O  O89  1  0.30823362  0.80764136  0.59864510  1
  O  O90  1  0.31347096  0.43480816  0.33834113  1
  O  O91  1  0.31347096  0.56519184  0.83834113  1
  O  O92  1  0.45632218  0.60974001  0.05050271  1
  O  O93  1  0.45632218  0.39025999  0.55050271  1
  O  O94  1  0.46865291  0.13919815  0.86180643  1
  O  O95  1  0.46865291  0.86080185  0.36180643  1
  O  O96  1  0.53134709  0.13919815  0.63819357  1
  O  O97  1  0.53134709  0.86080185  0.13819357  1
  O  O98  1  0.54367782  0.39025999  0.94949729  1
  O  O99  1  0.54367782  0.60974001  0.44949729  1
  O  O100  1  0.68652904  0.43480816  0.16165887  1
  O  O101  1  0.68652904  0.56519184  0.66165887  1
  O  O102  1  0.69176638  0.19235864  0.40135490  1
  O  O103  1  0.69176638  0.80764136  0.90135490  1
  O  O104  1  0.69482030  0.48579242  0.34710995  1
  O  O105  1  0.69482030  0.51420758  0.84710995  1
  O  O106  1  0.69646140  0.00428829  0.98363033  1
  O  O107  1  0.69646140  0.99571171  0.48363033  1
  O  O108  1  0.70863586  0.25703557  0.73533324  1
  O  O109  1  0.70863586  0.74296443  0.23533324  1
  O  O110  1  0.73122461  0.22244058  0.09497805  1
  O  O111  1  0.73122461  0.77755942  0.59497805  1
  O  O112  1  0.76877539  0.27755942  0.59497805  1
  O  O113  1  0.76877539  0.72244058  0.09497805  1
  O  O114  1  0.79136414  0.24296443  0.23533324  1
  O  O115  1  0.79136414  0.75703557  0.73533324  1
  O  O116  1  0.80353860  0.49571171  0.48363033  1
  O  O117  1  0.80353860  0.50428829  0.98363033  1
  O  O118  1  0.80517970  0.01420758  0.84710995  1
  O  O119  1  0.80517970  0.98579242  0.34710995  1
  O  O120  1  0.80823362  0.69235864  0.40135490  1
  O  O121  1  0.80823362  0.30764136  0.90135490  1
  O  O122  1  0.81347096  0.06519184  0.66165887  1
  O  O123  1  0.81347096  0.93480816  0.16165887  1
  O  O124  1  0.95632218  0.10974001  0.44949729  1
  O  O125  1  0.95632218  0.89025999  0.94949729  1
  O  O126  1  0.96865291  0.63919815  0.63819357  1
  O  O127  1  0.96865291  0.36080185  0.13819357  1
