# generated using pymatgen
data_Li6MnFe5(BO3)6
_symmetry_space_group_name_H-M   'P 1'
_cell_length_a   8.24492773
_cell_length_b   8.81545093
_cell_length_c   6.27663765
_cell_angle_alpha   69.14512474
_cell_angle_beta   90.00000000
_cell_angle_gamma   62.23677076
_symmetry_Int_Tables_number   1
_chemical_formula_structural   Li6MnFe5(BO3)6
_chemical_formula_sum   'Li6 Mn1 Fe5 B6 O18'
_cell_volume   369.57404861
_cell_formula_units_Z   1
loop_
 _symmetry_equiv_pos_site_id
 _symmetry_equiv_pos_as_xyz
  1  'x, y, z'
loop_
 _atom_site_type_symbol
 _atom_site_label
 _atom_site_symmetry_multiplicity
 _atom_site_fract_x
 _atom_site_fract_y
 _atom_site_fract_z
 _atom_site_occupancy
  Li  Li0  1  0.71432911  0.98398086  0.75784754  1
  Li  Li1  1  0.71432911  0.98398086  0.25817161  1
  Li  Li2  1  0.98368620  0.30192382  0.59863180  1
  Li  Li3  1  0.98368620  0.30192382  0.09944338  1
  Li  Li4  1  0.30194752  0.71533685  0.89323302  1
  Li  Li5  1  0.30194752  0.71533685  0.39143013  1
  Mn  Mn6  1  0.01297438  0.62709660  0.68645170  1
  Fe  Fe7  1  0.63210330  0.36017838  0.81991031  1
  Fe  Fe8  1  0.63249426  0.35948370  0.32025815  1
  Fe  Fe9  1  0.35924485  0.00718089  0.49640956  1
  Fe  Fe10  1  0.36036613  0.00835462  0.99582269  1
  Fe  Fe11  1  0.00771911  0.63218652  0.18390674  1
  B  B12  1  0.66569771  0.66658947  0.41493975  1
  B  B13  1  0.66569771  0.66658947  0.91847078  1
  B  B14  1  0.33501495  0.33224334  0.58238577  1
  B  B15  1  0.33501495  0.33224334  0.08537089  1
  B  B16  1  -0.00002315  0.00022025  0.99988937  1
  B  B17  1  0.99791637  0.00214295  0.49892853  1
  O  O18  1  0.88623996  0.92040485  0.53979757  1
  O  O19  1  0.89097009  0.91470857  0.04264572  1
  O  O20  1  0.85894949  0.58113476  0.96311576  1
  O  O21  1  0.85894949  0.58113476  0.45574948  1
  O  O22  1  0.91499563  0.19437530  0.90281235  1
  O  O23  1  0.91600217  0.19625213  0.40187443  1
  O  O24  1  0.55747218  0.86075374  0.31966109  1
  O  O25  1  0.55747218  0.86075374  0.81958617  1
  O  O26  1  0.57977007  0.55824426  0.97102698  1
  O  O27  1  0.57977007  0.55824426  0.47072876  1
  O  O28  1  0.52840059  0.25319383  0.62397020  1
  O  O29  1  0.52840059  0.25319383  0.12283598  1
  O  O30  1  0.19223496  0.89087023  0.55456439  1
  O  O31  1  0.19383374  0.89140955  0.05429572  1
  O  O32  1  0.22135944  0.52597486  0.48351891  1
  O  O33  1  0.22135944  0.52597486  0.99050623  1
  O  O34  1  0.25483835  0.21819245  0.64049387  1
  O  O35  1  0.25483835  0.21819245  0.14131368  1
