# generated using pymatgen
data_Mg14MnAl
_symmetry_space_group_name_H-M   'P 1'
_cell_length_a   6.25149989
_cell_length_b   6.25149940
_cell_length_c   10.26431674
_cell_angle_alpha   90.00000000
_cell_angle_beta   90.00000000
_cell_angle_gamma   120.00000256
_symmetry_Int_Tables_number   1
_chemical_formula_structural   Mg14MnAl
_chemical_formula_sum   'Mg14 Mn1 Al1'
_cell_volume   347.39941852
_cell_formula_units_Z   1
loop_
 _symmetry_equiv_pos_site_id
 _symmetry_equiv_pos_as_xyz
  1  'x, y, z'
loop_
 _atom_site_type_symbol
 _atom_site_label
 _atom_site_symmetry_multiplicity
 _atom_site_fract_x
 _atom_site_fract_y
 _atom_site_fract_z
 _atom_site_occupancy
  Mg  Mg0  1  0.16572341  0.83286120  0.12500000  1
  Mg  Mg1  1  0.16711443  0.83355671  0.62500000  1
  Mg  Mg2  1  0.66713880  0.33427659  0.12500000  1
  Mg  Mg3  1  0.66644329  0.33288557  0.62500000  1
  Mg  Mg4  1  0.66713880  0.83286120  0.12500000  1
  Mg  Mg5  1  0.66644329  0.83355671  0.62500000  1
  Mg  Mg6  1  0.33021320  0.16978680  0.37624333  1
  Mg  Mg7  1  0.33021320  0.16978680  0.87375667  1
  Mg  Mg8  1  0.33021320  0.66042741  0.37624333  1
  Mg  Mg9  1  0.33021320  0.66042741  0.87375667  1
  Mg  Mg10  1  0.83957259  0.16978680  0.37624333  1
  Mg  Mg11  1  0.83957259  0.16978680  0.87375667  1
  Mg  Mg12  1  0.83333300  0.66666700  0.37544721  1
  Mg  Mg13  1  0.83333300  0.66666700  0.87455279  1
  Mn  Mn14  1  0.16666700  0.33333300  0.62500000  1
  Al  Al15  1  0.16666700  0.33333300  0.12500000  1
