# generated using pymatgen
data_Li4Mn3Fe(BO3)4
_symmetry_space_group_name_H-M   'P 1'
_cell_length_a   6.05437656
_cell_length_b   9.15977678
_cell_length_c   5.17870276
_cell_angle_alpha   89.44365047
_cell_angle_beta   113.08401956
_cell_angle_gamma   103.61036135
_symmetry_Int_Tables_number   1
_chemical_formula_structural   Li4Mn3Fe(BO3)4
_chemical_formula_sum   'Li4 Mn3 Fe1 B4 O12'
_cell_volume   255.68260908
_cell_formula_units_Z   1
loop_
 _symmetry_equiv_pos_site_id
 _symmetry_equiv_pos_as_xyz
  1  'x, y, z'
loop_
 _atom_site_type_symbol
 _atom_site_label
 _atom_site_symmetry_multiplicity
 _atom_site_fract_x
 _atom_site_fract_y
 _atom_site_fract_z
 _atom_site_occupancy
  Li  Li0  1  0.67254023  0.18436304  0.25260107  1
  Li  Li1  1  0.66919349  0.68328826  0.74951069  1
  Li  Li2  1  0.32970904  0.31632034  0.24947216  1
  Li  Li3  1  0.32728662  0.81404214  0.74674741  1
  Mn  Mn4  1  0.76807044  0.37528995  0.78856665  1
  Mn  Mn5  1  0.76632353  0.87238965  0.28795182  1
  Mn  Mn6  1  0.23423392  0.12665157  0.71333150  1
  Fe  Fe7  1  0.23417117  0.62867300  0.20733751  1
  B  B8  1  0.73700835  0.03653297  0.77136371  1
  B  B9  1  0.73960433  0.53690867  0.27193176  1
  B  B10  1  0.26289888  0.46540596  0.72827149  1
  B  B11  1  0.26050781  0.96183335  0.22996254  1
  O  O12  1  0.82547188  0.06494915  0.55766937  1
  O  O13  1  0.82972094  0.56668028  0.05982492  1
  O  O14  1  0.70370351  0.39329402  0.36004673  1
  O  O15  1  0.67614650  0.15182389  0.88199556  1
  O  O16  1  0.67517235  0.65060183  0.38191095  1
  O  O17  1  0.29825667  0.10453590  0.14037751  1
  O  O18  1  0.70152269  0.89331929  0.86060001  1
  O  O19  1  0.32346180  0.34897040  0.61999715  1
  O  O20  1  0.31877007  0.84488917  0.11832500  1
  O  O21  1  0.29414008  0.60625161  0.63125889  1
  O  O22  1  0.17873754  0.43879094  0.94680250  1
  O  O23  1  0.17334814  0.93419360  0.44414210  1
