# generated using pymatgen
data_Li2MnFe(BO3)2
_symmetry_space_group_name_H-M   'P 1'
_cell_length_a   6.04055212
_cell_length_b   9.15566157
_cell_length_c   5.15682500
_cell_angle_alpha   89.52557081
_cell_angle_beta   112.96482063
_cell_angle_gamma   103.90707469
_symmetry_Int_Tables_number   1
_chemical_formula_structural   Li2MnFe(BO3)2
_chemical_formula_sum   'Li4 Mn2 Fe2 B4 O12'
_cell_volume   253.72946134
_cell_formula_units_Z   2
loop_
 _symmetry_equiv_pos_site_id
 _symmetry_equiv_pos_as_xyz
  1  'x, y, z'
loop_
 _atom_site_type_symbol
 _atom_site_label
 _atom_site_symmetry_multiplicity
 _atom_site_fract_x
 _atom_site_fract_y
 _atom_site_fract_z
 _atom_site_occupancy
  Li  Li0  1  0.67994720  0.18884624  0.25740074  1
  Li  Li1  1  0.66590232  0.68462318  0.74852365  1
  Li  Li2  1  0.33409768  0.31537682  0.25147635  1
  Li  Li3  1  0.32005280  0.81115376  0.74259926  1
  Mn  Mn4  1  0.76358686  0.87359562  0.28593511  1
  Mn  Mn5  1  0.23641314  0.12640438  0.71406489  1
  Fe  Fe6  1  0.76981089  0.37495119  0.79605970  1
  Fe  Fe7  1  0.23018911  0.62504881  0.20394030  1
  B  B8  1  0.73882340  0.03991003  0.77194036  1
  B  B9  1  0.74006136  0.53711857  0.27403878  1
  B  B10  1  0.25993864  0.46288143  0.72596122  1
  B  B11  1  0.26117660  0.96008997  0.22805964  1
  O  O12  1  0.82754905  0.06622274  0.55749877  1
  O  O13  1  0.82276649  0.56357549  0.05240521  1
  O  O14  1  0.70740431  0.39585189  0.36941131  1
  O  O15  1  0.68640510  0.15871255  0.88507043  1
  O  O16  1  0.68116690  0.65329040  0.38419350  1
  O  O17  1  0.30468223  0.10318450  0.14188079  1
  O  O18  1  0.69531777  0.89681550  0.85811921  1
  O  O19  1  0.31883310  0.34670960  0.61580650  1
  O  O20  1  0.31359490  0.84128745  0.11492957  1
  O  O21  1  0.29259569  0.60414811  0.63058869  1
  O  O22  1  0.17723351  0.43642451  0.94759479  1
  O  O23  1  0.17245095  0.93377726  0.44250123  1
