# generated using pymatgen
data_Li4Mn3Fe3(SbO8)2
_symmetry_space_group_name_H-M   'P 1'
_cell_length_a   6.00984162
_cell_length_b   5.99900637
_cell_length_c   9.80115871
_cell_angle_alpha   90.00152959
_cell_angle_beta   90.64901287
_cell_angle_gamma   119.94778581
_symmetry_Int_Tables_number   1
_chemical_formula_structural   Li4Mn3Fe3(SbO8)2
_chemical_formula_sum   'Li4 Mn3 Fe3 Sb2 O16'
_cell_volume   306.15507680
_cell_formula_units_Z   1
loop_
 _symmetry_equiv_pos_site_id
 _symmetry_equiv_pos_as_xyz
  1  'x, y, z'
loop_
 _atom_site_type_symbol
 _atom_site_label
 _atom_site_symmetry_multiplicity
 _atom_site_fract_x
 _atom_site_fract_y
 _atom_site_fract_z
 _atom_site_occupancy
  Li  Li0  1  0.33539673  0.66768344  0.90534769  1
  Li  Li1  1  0.99755244  0.99876423  0.98796778  1
  Li  Li2  1  0.99896320  0.99954240  0.48746713  1
  Li  Li3  1  0.66782508  0.33392635  0.40356261  1
  Mn  Mn4  1  0.65967159  0.82989799  0.21052802  1
  Mn  Mn5  1  0.83221631  0.66159277  0.71155024  1
  Mn  Mn6  1  0.83213529  0.17060037  0.71154812  1
  Fe  Fe7  1  0.17104936  0.83164912  0.21379450  1
  Fe  Fe8  1  0.17114000  0.33941427  0.21380843  1
  Fe  Fe9  1  0.34046273  0.17027175  0.71515232  1
  Sb  Sb10  1  0.33278231  0.66645094  0.48470822  1
  Sb  Sb11  1  0.66823555  0.33407960  0.98573458  1
  O  O12  1  0.17357594  0.83825904  0.59423298  1
  O  O13  1  0.03405378  0.51699137  0.34592404  1
  O  O14  1  0.34016726  0.67009072  0.11059046  1
  O  O15  1  0.98946599  0.99472903  0.30032943  1
  O  O16  1  0.99072099  0.99538994  0.79895146  1
  O  O17  1  0.17379139  0.33546382  0.59418924  1
  O  O18  1  0.47317964  0.96372643  0.34874949  1
  O  O19  1  0.47334953  0.50970671  0.34871133  1
  O  O20  1  0.33560090  0.16781136  0.09562260  1
  O  O21  1  0.66694813  0.83362611  0.58964497  1
  O  O22  1  0.51140937  0.47625945  0.84775671  1
  O  O23  1  0.51107991  0.03506419  0.84782871  1
  O  O24  1  0.67847663  0.33923984  0.61429204  1
  O  O25  1  0.83725436  0.66566475  0.09375214  1
  O  O26  1  0.96628307  0.48294160  0.85230169  1
  O  O27  1  0.83721350  0.17146144  0.09379109  1
