# generated using pymatgen
data_Li4Mn3Fe(BO3)4
_symmetry_space_group_name_H-M   'P 1'
_cell_length_a   7.96155311
_cell_length_b   5.28293566
_cell_length_c   6.24850943
_cell_angle_alpha   88.72725505
_cell_angle_beta   77.55414990
_cell_angle_gamma   88.06124180
_symmetry_Int_Tables_number   1
_chemical_formula_structural   Li4Mn3Fe(BO3)4
_chemical_formula_sum   'Li4 Mn3 Fe1 B4 O12'
_cell_volume   256.46163823
_cell_formula_units_Z   1
loop_
 _symmetry_equiv_pos_site_id
 _symmetry_equiv_pos_as_xyz
  1  'x, y, z'
loop_
 _atom_site_type_symbol
 _atom_site_label
 _atom_site_symmetry_multiplicity
 _atom_site_fract_x
 _atom_site_fract_y
 _atom_site_fract_z
 _atom_site_occupancy
  Li  Li0  1  0.80272651  0.56620497  0.87015035  1
  Li  Li1  1  0.69729468  0.93277569  0.63043383  1
  Li  Li2  1  0.30155152  0.06533206  0.36848060  1
  Li  Li3  1  0.19779711  0.43206130  0.13035395  1
  Mn  Mn4  1  0.82377310  0.42840673  0.41030815  1
  Mn  Mn5  1  0.67686845  0.06913680  0.09169847  1
  Mn  Mn6  1  0.17723309  0.57318556  0.59086411  1
  Fe  Fe7  1  0.32669929  0.93195137  0.90749346  1
  B  B8  1  0.49593261  0.43059889  0.76527178  1
  B  B9  1  0.00004942  0.92638844  0.26156185  1
  B  B10  1  0.00238164  0.07292633  0.73764262  1
  B  B11  1  0.50099429  0.57167713  0.23553169  1
  O  O12  1  0.97397742  0.33096681  0.70362408  1
  O  O13  1  0.86730609  0.92117584  0.83407042  1
  O  O14  1  0.83489941  0.03527349  0.34021997  1
  O  O15  1  0.51976305  0.16924102  0.79482501  1
  O  O16  1  0.63219452  0.57688549  0.66624420  1
  O  O17  1  0.33297887  0.54388628  0.84507185  1
  O  O18  1  0.66628213  0.46335110  0.15833075  1
  O  O19  1  0.36767157  0.41959180  0.33553821  1
  O  O20  1  0.47278245  0.82996301  0.20292414  1
  O  O21  1  0.16759912  0.96492864  0.66225159  1
  O  O22  1  0.13391920  0.07580291  0.16030186  1
  O  O23  1  0.02732344  0.66828836  0.29680504  1
