# generated using pymatgen
data_Li8Mn3Fe5(BO3)8
_symmetry_space_group_name_H-M   'P 1'
_cell_length_a   6.02453042
_cell_length_b   5.23012918
_cell_length_c   16.17475357
_cell_angle_alpha   90.77468380
_cell_angle_beta   98.19615862
_cell_angle_gamma   89.04694380
_symmetry_Int_Tables_number   1
_chemical_formula_structural   Li8Mn3Fe5(BO3)8
_chemical_formula_sum   'Li8 Mn3 Fe5 B8 O24'
_cell_volume   504.34400058
_cell_formula_units_Z   1
loop_
 _symmetry_equiv_pos_site_id
 _symmetry_equiv_pos_as_xyz
  1  'x, y, z'
loop_
 _atom_site_type_symbol
 _atom_site_label
 _atom_site_symmetry_multiplicity
 _atom_site_fract_x
 _atom_site_fract_y
 _atom_site_fract_z
 _atom_site_occupancy
  Li  Li0  1  0.06514897  0.84725743  0.60956333  1
  Li  Li1  1  0.43152933  0.15196700  0.88742310  1
  Li  Li2  1  0.18638908  0.65210513  0.14130548  1
  Li  Li3  1  0.31597414  0.34552906  0.36174801  1
  Li  Li4  1  0.68485537  0.65270108  0.63860465  1
  Li  Li5  1  0.81292986  0.34958777  0.85793285  1
  Li  Li6  1  0.56701022  0.84529493  0.11147373  1
  Li  Li7  1  0.93653251  0.15265091  0.39164868  1
  Mn  Mn8  1  0.27158608  0.67082867  0.95912404  1
  Mn  Mn9  1  0.02809311  0.16896260  0.21089900  1
  Mn  Mn10  1  0.72355508  0.32987801  0.03942831  1
  Fe  Fe11  1  0.22726204  0.33031767  0.54319118  1
  Fe  Fe12  1  0.52447872  0.17207522  0.71051304  1
  Fe  Fe13  1  0.47725763  0.82500663  0.29360638  1
  Fe  Fe14  1  0.77606558  0.66105268  0.45840637  1
  Fe  Fe15  1  0.96937106  0.82875475  0.78765218  1
  B  B16  1  0.03529802  0.33022738  0.70287158  1
  B  B17  1  0.28929132  0.82869577  0.45465479  1
  B  B18  1  0.46098338  0.67474140  0.79436381  1
  B  B19  1  0.21614477  0.17108160  0.04748589  1
  B  B20  1  0.78323627  0.83095689  0.95105731  1
  B  B21  1  0.53741849  0.32793685  0.20507375  1
  B  B22  1  0.71207482  0.16967829  0.54605306  1
  B  B23  1  0.96532163  0.66981318  0.29895514  1
  O  O24  1  0.01146167  0.59251099  0.69222864  1
  O  O25  1  0.16784720  0.18804428  0.65334116  1
  O  O26  1  0.17830905  0.70297173  0.51186988  1
  O  O27  1  0.33187529  0.28820334  0.98954462  1
  O  O28  1  0.07754413  0.78741506  0.24074084  1
  O  O29  1  0.32678970  0.81699995  0.84239763  1
  O  O30  1  0.08175161  0.32119584  0.09390755  1
  O  O31  1  0.26271240  0.08954830  0.44256748  1
  O  O32  1  0.48554026  0.41215468  0.80547838  1
  O  O33  1  0.23890825  0.91096377  0.06140400  1
  O  O34  1  0.42033146  0.68549311  0.40468557  1
  O  O35  1  0.42182731  0.20410617  0.26135841  1
  O  O36  1  0.57745518  0.79715114  0.73792331  1
  O  O37  1  0.58082050  0.31472375  0.59526616  1
  O  O38  1  0.76078014  0.09094987  0.93699160  1
  O  O39  1  0.51381784  0.58995223  0.19287888  1
  O  O40  1  0.74061590  0.90979412  0.55725118  1
  O  O41  1  0.91627393  0.68194912  0.90348703  1
  O  O42  1  0.66967940  0.18183168  0.15640006  1
  O  O43  1  0.92373092  0.20724938  0.75992805  1
  O  O44  1  0.66961695  0.71352976  0.00918028  1
  O  O45  1  0.82315469  0.29617473  0.48881994  1
  O  O46  1  0.83246247  0.82003541  0.34683600  1
  O  O47  1  0.98889028  0.40995171  0.31247870  1
