# generated using pymatgen
data_Li4Mn3Fe(BO3)4
_symmetry_space_group_name_H-M   'P 1'
_cell_length_a   6.05099129
_cell_length_b   5.24173591
_cell_length_c   16.29698929
_cell_angle_alpha   90.90809277
_cell_angle_beta   98.08210635
_cell_angle_gamma   89.26555605
_symmetry_Int_Tables_number   1
_chemical_formula_structural   Li4Mn3Fe(BO3)4
_chemical_formula_sum   'Li8 Mn6 Fe2 B8 O24'
_cell_volume   511.67535343
_cell_formula_units_Z   2
loop_
 _symmetry_equiv_pos_site_id
 _symmetry_equiv_pos_as_xyz
  1  'x, y, z'
loop_
 _atom_site_type_symbol
 _atom_site_label
 _atom_site_symmetry_multiplicity
 _atom_site_fract_x
 _atom_site_fract_y
 _atom_site_fract_z
 _atom_site_occupancy
  Li  Li0  1  0.06441305  0.84695500  0.61142452  1
  Li  Li1  1  0.43564597  0.15281535  0.89081436  1
  Li  Li2  1  0.18558695  0.65304500  0.13857548  1
  Li  Li3  1  0.31409163  0.34836493  0.35927715  1
  Li  Li4  1  0.68675754  0.65247318  0.64236682  1
  Li  Li5  1  0.81435403  0.34718465  0.85918564  1
  Li  Li6  1  0.56324246  0.84752682  0.10763318  1
  Li  Li7  1  0.93590837  0.15163507  0.39072285  1
  Mn  Mn8  1  0.02397628  0.16932148  0.20986917  1
  Mn  Mn9  1  0.22602372  0.33067852  0.54013083  1
  Mn  Mn10  1  0.52605698  0.16746093  0.71005781  1
  Mn  Mn11  1  0.47516445  0.83052871  0.28981506  1
  Mn  Mn12  1  0.77483555  0.66947129  0.46018494  1
  Mn  Mn13  1  0.72394302  0.33253907  0.03994219  1
  Fe  Fe14  1  0.27120784  0.66399391  0.95727442  1
  Fe  Fe15  1  0.97879216  0.83600609  0.79272558  1
  B  B16  1  0.03768782  0.32803123  0.70397977  1
  B  B17  1  0.28546182  0.83067368  0.45249667  1
  B  B18  1  0.46381113  0.66814288  0.79828213  1
  B  B19  1  0.21231218  0.17196877  0.04602023  1
  B  B20  1  0.78618887  0.83185712  0.95171787  1
  B  B21  1  0.53435063  0.33095847  0.20178659  1
  B  B22  1  0.71564937  0.16904153  0.54821341  1
  B  B23  1  0.96453818  0.66932632  0.29750333  1
  O  O24  1  0.01146105  0.58748935  0.69334141  1
  O  O25  1  0.16981343  0.18329011  0.65587327  1
  O  O26  1  0.16942758  0.71402263  0.50965657  1
  O  O27  1  0.32521350  0.29906261  0.98956317  1
  O  O28  1  0.08057242  0.78597737  0.24034343  1
  O  O29  1  0.33082560  0.81660978  0.84594907  1
  O  O30  1  0.08018657  0.31670989  0.09412673  1
  O  O31  1  0.26350629  0.09025086  0.43860463  1
  O  O32  1  0.48750358  0.40835541  0.81128024  1
  O  O33  1  0.23853895  0.91251065  0.05665859  1
  O  O34  1  0.41920415  0.68097044  0.40615137  1
  O  O35  1  0.41886852  0.21384266  0.25886199  1
  O  O36  1  0.57678437  0.78614145  0.74102459  1
  O  O37  1  0.58197026  0.31899698  0.59453650  1
  O  O38  1  0.76249642  0.09164459  0.93871976  1
  O  O39  1  0.51236463  0.59071159  0.18789897  1
  O  O40  1  0.73763537  0.90928841  0.56210103  1
  O  O41  1  0.91917440  0.68339022  0.90405093  1
  O  O42  1  0.66802974  0.18100302  0.15546350  1
  O  O43  1  0.92478650  0.20093739  0.76043683  1
  O  O44  1  0.67321563  0.71385855  0.00897541  1
  O  O45  1  0.83113148  0.28615734  0.49113801  1
  O  O46  1  0.83079585  0.81902956  0.34384863  1
  O  O47  1  0.98649371  0.40974914  0.31139537  1
