# generated using pymatgen
data_Li4Mn3Cr3(SbO8)2
_symmetry_space_group_name_H-M   'P 1'
_cell_length_a   5.99287100
_cell_length_b   5.94136506
_cell_length_c   9.75710443
_cell_angle_alpha   90.00049024
_cell_angle_beta   91.39426907
_cell_angle_gamma   119.71441224
_symmetry_Int_Tables_number   1
_chemical_formula_structural   Li4Mn3Cr3(SbO8)2
_chemical_formula_sum   'Li4 Mn3 Cr3 Sb2 O16'
_cell_volume   301.60935463
_cell_formula_units_Z   1
loop_
 _symmetry_equiv_pos_site_id
 _symmetry_equiv_pos_as_xyz
  1  'x, y, z'
loop_
 _atom_site_type_symbol
 _atom_site_label
 _atom_site_symmetry_multiplicity
 _atom_site_fract_x
 _atom_site_fract_y
 _atom_site_fract_z
 _atom_site_occupancy
  Li  Li0  1  0.32655963  0.66329599  0.90700923  1
  Li  Li1  1  0.00139984  0.00070819  0.98866037  1
  Li  Li2  1  0.00760256  0.00382205  0.48856803  1
  Li  Li3  1  0.66808467  0.33405711  0.40136447  1
  Mn  Mn4  1  0.66405020  0.83203232  0.21130526  1
  Mn  Mn5  1  0.83272834  0.66260179  0.71253490  1
  Mn  Mn6  1  0.83274063  0.17016741  0.71253206  1
  Cr  Cr7  1  0.17121406  0.83119806  0.21413585  1
  Cr  Cr8  1  0.17120141  0.34001314  0.21414353  1
  Cr  Cr9  1  0.34126012  0.17063812  0.71499603  1
  Sb  Sb10  1  0.33738047  0.66869933  0.48484352  1
  Sb  Sb11  1  0.65800767  0.32901615  0.98728483  1
  O  O12  1  0.17801399  0.83979859  0.59180732  1
  O  O13  1  0.03729311  0.51866278  0.33956764  1
  O  O14  1  0.34082638  0.67041269  0.11362860  1
  O  O15  1  0.99392272  0.99697212  0.30279161  1
  O  O16  1  0.99938205  0.99970098  0.80077306  1
  O  O17  1  0.17801270  0.33823775  0.59180559  1
  O  O18  1  0.47697990  0.96583242  0.34686663  1
  O  O19  1  0.47698904  0.51118142  0.34685871  1
  O  O20  1  0.32994524  0.16497506  0.09928230  1
  O  O21  1  0.67754986  0.83878454  0.59192247  1
  O  O22  1  0.49916303  0.47066760  0.84954219  1
  O  O23  1  0.49920256  0.02852024  0.84953674  1
  O  O24  1  0.66957611  0.33480524  0.61530480  1
  O  O25  1  0.83751101  0.66853250  0.09160289  1
  O  O26  1  0.95590381  0.47797498  0.84756835  1
  O  O27  1  0.83749987  0.16898841  0.09160201  1
