# generated using pymatgen
data_Li8Mn3Fe5(BO3)8
_symmetry_space_group_name_H-M   'P 1'
_cell_length_a   6.00471722
_cell_length_b   5.23466277
_cell_length_c   16.23777984
_cell_angle_alpha   90.59711755
_cell_angle_beta   97.95674295
_cell_angle_gamma   89.42916788
_symmetry_Int_Tables_number   1
_chemical_formula_structural   Li8Mn3Fe5(BO3)8
_chemical_formula_sum   'Li8 Mn3 Fe5 B8 O24'
_cell_volume   505.43695098
_cell_formula_units_Z   1
loop_
 _symmetry_equiv_pos_site_id
 _symmetry_equiv_pos_as_xyz
  1  'x, y, z'
loop_
 _atom_site_type_symbol
 _atom_site_label
 _atom_site_symmetry_multiplicity
 _atom_site_fract_x
 _atom_site_fract_y
 _atom_site_fract_z
 _atom_site_occupancy
  Li  Li0  1  0.06971732  0.84747811  0.61071307  1
  Li  Li1  1  0.43110196  0.15377368  0.88722946  1
  Li  Li2  1  0.18500505  0.65087019  0.13953199  1
  Li  Li3  1  0.31427514  0.34849581  0.36129951  1
  Li  Li4  1  0.68386847  0.65223118  0.64060677  1
  Li  Li5  1  0.80948733  0.34758244  0.85764001  1
  Li  Li6  1  0.56888552  0.84724848  0.11117422  1
  Li  Li7  1  0.93091614  0.15225778  0.38899486  1
  Mn  Mn8  1  0.27422329  0.66909763  0.95936124  1
  Mn  Mn9  1  0.77243715  0.66914477  0.45952517  1
  Mn  Mn10  1  0.72662360  0.32778439  0.04061513  1
  Fe  Fe11  1  0.02992932  0.16411284  0.21170881  1
  Fe  Fe12  1  0.22322708  0.32357472  0.54128757  1
  Fe  Fe13  1  0.52516567  0.16741207  0.70791324  1
  Fe  Fe14  1  0.47188220  0.82520697  0.28812112  1
  Fe  Fe15  1  0.96901034  0.82853393  0.78970179  1
  B  B16  1  0.03849925  0.33183711  0.70354731  1
  B  B17  1  0.28452102  0.83018896  0.45372056  1
  B  B18  1  0.46216559  0.67266545  0.79587761  1
  B  B19  1  0.21720512  0.16826389  0.04875905  1
  B  B20  1  0.78357333  0.83100252  0.95146808  1
  B  B21  1  0.53799283  0.32611679  0.20575017  1
  B  B22  1  0.71574530  0.16898211  0.54781198  1
  B  B23  1  0.96298270  0.67242675  0.29597402  1
  O  O24  1  0.01480466  0.59407530  0.69196346  1
  O  O25  1  0.16918855  0.18867366  0.65374251  1
  O  O26  1  0.17622263  0.70626906  0.51177652  1
  O  O27  1  0.33077184  0.28706176  0.99061748  1
  O  O28  1  0.07855975  0.79455323  0.23841964  1
  O  O29  1  0.32600999  0.81832100  0.84250469  1
  O  O30  1  0.08392591  0.31548308  0.09639081  1
  O  O31  1  0.26016035  0.09200354  0.44137314  1
  O  O32  1  0.48611187  0.41333199  0.80738600  1
  O  O33  1  0.23991480  0.90806995  0.06153507  1
  O  O34  1  0.41521908  0.68707073  0.40389391  1
  O  O35  1  0.42057378  0.20759721  0.26239203  1
  O  O36  1  0.58060383  0.79984319  0.74027919  1
  O  O37  1  0.58427713  0.31799672  0.59570891  1
  O  O38  1  0.76098246  0.09047753  0.93798487  1
  O  O39  1  0.51456602  0.58830972  0.19257011  1
  O  O40  1  0.73988071  0.90896715  0.56127386  1
  O  O41  1  0.91557599  0.68405325  0.90322501  1
  O  O42  1  0.67204196  0.18166955  0.15808379  1
  O  O43  1  0.92586953  0.20914397  0.76042966  1
  O  O44  1  0.67140795  0.71189046  0.00985906  1
  O  O45  1  0.82738342  0.28742717  0.48901428  1
  O  O46  1  0.82996783  0.81852548  0.34324757  1
  O  O47  1  0.98754019  0.41289875  0.30799466  1
