# generated using pymatgen
data_Li2Cr3WO8
_symmetry_space_group_name_H-M   'P 1'
_cell_length_a   5.96332398
_cell_length_b   5.96270323
_cell_length_c   9.63673533
_cell_angle_alpha   89.91665846
_cell_angle_beta   90.04166226
_cell_angle_gamma   119.99656471
_symmetry_Int_Tables_number   1
_chemical_formula_structural   Li2Cr3WO8
_chemical_formula_sum   'Li4 Cr6 W2 O16'
_cell_volume   296.76093823
_cell_formula_units_Z   2
loop_
 _symmetry_equiv_pos_site_id
 _symmetry_equiv_pos_as_xyz
  1  'x, y, z'
loop_
 _atom_site_type_symbol
 _atom_site_label
 _atom_site_symmetry_multiplicity
 _atom_site_fract_x
 _atom_site_fract_y
 _atom_site_fract_z
 _atom_site_occupancy
  Li  Li0  1  0.33365893  0.66680625  0.90195808  1
  Li  Li1  1  0.00026607  0.00080528  0.99231090  1
  Li  Li2  1  0.99973393  0.00053921  0.49231090  1
  Li  Li3  1  0.66634107  0.33314732  0.40195808  1
  Cr  Cr4  1  0.16781122  0.82919843  0.21244148  1
  Cr  Cr5  1  0.17063478  0.33867704  0.21467043  1
  Cr  Cr6  1  0.66086710  0.82815192  0.21331584  1
  Cr  Cr7  1  0.33913290  0.16728582  0.71331584  1
  Cr  Cr8  1  0.83218878  0.66138720  0.71244148  1
  Cr  Cr9  1  0.82936522  0.16804226  0.71467043  1
  W  W10  1  0.33304480  0.66621318  0.48732479  1
  W  W11  1  0.66695520  0.33316838  0.98732479  1
  O  O12  1  0.16678481  0.83526661  0.59582562  1
  O  O13  1  0.03894359  0.51997172  0.34301732  1
  O  O14  1  0.33276536  0.66584940  0.10779837  1
  O  O15  1  0.99935656  0.99905100  0.30725268  1
  O  O16  1  0.00064344  0.99969544  0.80725268  1
  O  O17  1  0.17030903  0.33966609  0.59505587  1
  O  O18  1  0.47823705  0.95771553  0.34495211  1
  O  O19  1  0.48106589  0.51930626  0.34161762  1
  O  O20  1  0.33433288  0.16750733  0.09637687  1
  O  O21  1  0.66566712  0.83317446  0.59637687  1
  O  O22  1  0.52176295  0.47947848  0.84495211  1
  O  O23  1  0.51893311  0.03823937  0.84161762  1
  O  O24  1  0.66723464  0.33308403  0.60779837  1
  O  O25  1  0.83321519  0.66848280  0.09582562  1
  O  O26  1  0.96105641  0.48102814  0.84301732  1
  O  O27  1  0.82969097  0.16935806  0.09505587  1
