# generated using pymatgen
data_Li6MnFe5(BO3)6
_symmetry_space_group_name_H-M   'P 1'
_cell_length_a   8.24405512
_cell_length_b   14.29396127
_cell_length_c   3.13955914
_cell_angle_alpha   90.00000000
_cell_angle_beta   90.00000000
_cell_angle_gamma   89.89862863
_symmetry_Int_Tables_number   1
_chemical_formula_structural   Li6MnFe5(BO3)6
_chemical_formula_sum   'Li6 Mn1 Fe5 B6 O18'
_cell_volume   369.96571216
_cell_formula_units_Z   1
loop_
 _symmetry_equiv_pos_site_id
 _symmetry_equiv_pos_as_xyz
  1  'x, y, z'
loop_
 _atom_site_type_symbol
 _atom_site_label
 _atom_site_symmetry_multiplicity
 _atom_site_fract_x
 _atom_site_fract_y
 _atom_site_fract_z
 _atom_site_occupancy
  Li  Li0  1  0.29271060  0.99094518  0.50000000  1
  Li  Li1  1  0.34020241  0.35834766  0.50000000  1
  Li  Li2  1  0.36499814  0.65123585  0.50000000  1
  Li  Li3  1  0.79387125  0.49310514  0.50000000  1
  Li  Li4  1  0.84094396  0.85734030  0.50000000  1
  Li  Li5  1  0.86622633  0.15033156  0.50000000  1
  Mn  Mn6  1  0.67398415  0.31383148  0.00000000  1
  Fe  Fe7  1  0.13721896  0.50431322  0.00000000  1
  Fe  Fe8  1  0.17591563  0.81565572  0.00000000  1
  Fe  Fe9  1  0.18813117  0.18004076  0.00000000  1
  Fe  Fe10  1  0.63552840  0.00338252  0.00000000  1
  Fe  Fe11  1  0.68752828  0.68010947  0.00000000  1
  B  B12  1  0.99984039  0.66696090  0.50000000  1
  B  B13  1  0.00016935  0.99991133  0.00000000  1
  B  B14  1  0.00223828  0.33343568  0.50000000  1
  B  B15  1  0.49765814  0.16506019  0.50000000  1
  B  B16  1  0.50097869  0.50132148  0.00000000  1
  B  B17  1  0.49981488  0.83330621  0.50000000  1
  O  O18  1  0.01254016  0.43066869  0.50000000  1
  O  O19  1  0.01816401  0.76387438  0.50000000  1
  O  O20  1  0.13639692  0.60914819  0.50000000  1
  O  O21  1  0.14278968  0.27936416  0.50000000  1
  O  O22  1  0.15201425  0.95721951  0.00000000  1
  O  O23  1  0.34388023  0.12519377  0.50000000  1
  O  O24  1  0.34825092  0.79066418  0.50000000  1
  O  O25  1  0.36213306  0.44558699  0.00000000  1
  O  O26  1  0.48582561  0.59837915  0.00000000  1
  O  O27  1  0.51123698  0.93045809  0.50000000  1
  O  O28  1  0.51318193  0.26229673  0.50000000  1
  O  O29  1  0.63600160  0.10877094  0.50000000  1
  O  O30  1  0.64008971  0.77912503  0.50000000  1
  O  O31  1  0.65396039  0.46030499  0.00000000  1
  O  O32  1  0.84524436  0.62775923  0.50000000  1
  O  O33  1  0.85184028  0.29000548  0.50000000  1
  O  O34  1  0.86041460  0.94540925  0.00000000  1
  O  O35  1  0.98807630  0.09713758  0.00000000  1
