# generated using pymatgen
data_Na3Li2Fe5(SiO3)10
_symmetry_space_group_name_H-M   'P 1'
_cell_length_a   6.60789149
_cell_length_b   7.45725990
_cell_length_c   22.56542555
_cell_angle_alpha   85.50274747
_cell_angle_beta   86.47107902
_cell_angle_gamma   85.59155716
_symmetry_Int_Tables_number   1
_chemical_formula_structural   Na3Li2Fe5(SiO3)10
_chemical_formula_sum   'Na6 Li4 Fe10 Si20 O60'
_cell_volume   1103.52206961
_cell_formula_units_Z   2
loop_
 _symmetry_equiv_pos_site_id
 _symmetry_equiv_pos_as_xyz
  1  'x, y, z'
loop_
 _atom_site_type_symbol
 _atom_site_label
 _atom_site_symmetry_multiplicity
 _atom_site_fract_x
 _atom_site_fract_y
 _atom_site_fract_z
 _atom_site_occupancy
  Na  Na0  1  0.81476714  0.92346531  0.89116211  1
  Na  Na1  1  0.01477500  0.32367832  0.69118319  1
  Na  Na2  1  0.21487902  0.72344838  0.49125066  1
  Na  Na3  1  0.41489077  0.12335222  0.29117296  1
  Na  Na4  1  0.18551418  0.07649281  0.10878586  1
  Na  Na5  1  0.61456491  0.52378036  0.09114287  1
  Li  Li6  1  0.37012163  0.46526762  0.90496273  1
  Li  Li7  1  0.57004010  0.86504688  0.70504124  1
  Li  Li8  1  0.77011472  0.26489630  0.50507229  1
  Li  Li9  1  0.97003707  0.66506479  0.30505630  1
  Fe  Fe10  1  0.13113334  0.16217921  0.97006690  1
  Fe  Fe11  1  0.06951958  0.23995407  0.82977586  1
  Fe  Fe12  1  0.33235564  0.56178218  0.77053886  1
  Fe  Fe13  1  0.26949110  0.63983529  0.62989525  1
  Fe  Fe14  1  0.53239922  0.96180857  0.57062613  1
  Fe  Fe15  1  0.46962531  0.03981678  0.43002327  1
  Fe  Fe16  1  0.73260978  0.36172202  0.37073677  1
  Fe  Fe17  1  0.67037102  0.43840767  0.23005301  1
  Fe  Fe18  1  0.93205045  0.76028279  0.17066056  1
  Fe  Fe19  1  0.86833343  0.84015602  0.02959368  1
  Si  Si20  1  0.07095897  0.92751857  0.72696252  1
  Si  Si21  1  0.33044321  0.87107668  0.87293591  1
  Si  Si22  1  0.62584533  0.22170010  0.99116852  1
  Si  Si23  1  0.87042235  0.52727974  0.92698230  1
  Si  Si24  1  0.82673757  0.62158510  0.79090220  1
  Si  Si25  1  0.02674177  0.02166234  0.59097145  1
  Si  Si26  1  0.57272074  0.18036465  0.80879139  1
  Si  Si27  1  0.27107102  0.32740261  0.52705739  1
  Si  Si28  1  0.53026333  0.27135176  0.67318706  1
  Si  Si29  1  0.22688346  0.42133151  0.39108186  1
  Si  Si30  1  0.77262349  0.58037079  0.60884742  1
  Si  Si31  1  0.47146810  0.72715498  0.32758830  1
  Si  Si32  1  0.73031275  0.67139297  0.47326761  1
  Si  Si33  1  0.42820525  0.81794722  0.19202443  1
  Si  Si34  1  0.97287210  0.98010023  0.40886605  1
  Si  Si35  1  0.17275334  0.38195323  0.20896616  1
  Si  Si36  1  0.12923688  0.47474468  0.07264817  1
  Si  Si37  1  0.37277151  0.77991246  0.00790503  1
  Si  Si38  1  0.66974253  0.12581276  0.12741936  1
  Si  Si39  1  0.93084101  0.07151058  0.27317934  1
  O  O40  1  0.06032220  0.37838443  0.91088412  1
  O  O41  1  0.42220457  0.77527209  0.93546466  1
  O  O42  1  0.26871314  0.70074424  0.83970758  1
  O  O43  1  0.02514972  0.47855079  0.77850379  1
  O  O44  1  0.51430369  0.97474224  0.83452950  1
  O  O45  1  0.26082295  0.77839990  0.71139414  1
  O  O46  1  0.14676325  0.02517866  0.88908627  1
  O  O47  1  0.42138008  0.19330260  0.95820074  1
  O  O48  1  0.68368185  0.42644893  0.96480472  1
  O  O49  1  0.22512658  0.87860212  0.57859365  1
  O  O50  1  0.37810844  0.32592228  0.82327927  1
  O  O51  1  0.13340018  0.09288648  0.76274796  1
  O  O52  1  0.93211463  0.69237129  0.96264558  1
  O  O53  1  0.78005036  0.62099869  0.86385462  1
  O  O54  1  0.34640066  0.42533907  0.68926198  1
  O  O55  1  0.62233935  0.59339422  0.75799245  1
  O  O56  1  0.02012069  0.97722507  0.33617249  1
  O  O57  1  0.82429986  0.07937352  0.97861863  1
  O  O58  1  0.08463912  0.22651903  0.56480944  1
  O  O59  1  0.88449506  0.82639868  0.76476222  1
  O  O60  1  0.57786462  0.72587596  0.62324864  1
  O  O61  1  0.33352005  0.49280402  0.56279012  1
  O  O62  1  0.77821841  0.21569345  0.84010580  1
  O  O63  1  0.18014874  0.42084731  0.46397321  1
  O  O64  1  0.61969007  0.17690960  0.73634100  1
  O  O65  1  0.54661130  0.82529163  0.48932751  1
  O  O66  1  0.82229008  0.99361351  0.55803758  1
  O  O67  1  0.02255637  0.39317082  0.35803645  1
  O  O68  1  0.46956031  0.10074416  0.63990023  1
  O  O69  1  0.28463591  0.62634340  0.36505767  1
  O  O70  1  0.71422318  0.37479982  0.63470957  1
  O  O71  1  0.53368316  0.89290191  0.36297207  1
  O  O72  1  0.17830681  0.01543828  0.44009089  1
  O  O73  1  0.97815117  0.61608724  0.64008481  1
  O  O74  1  0.46092192  0.17831527  0.51142369  1
  O  O75  1  0.38076873  0.82071625  0.26450413  1
  O  O76  1  0.81984666  0.57693715  0.53634012  1
  O  O77  1  0.22427975  0.78340175  0.15989361  1
  O  O78  1  0.66936891  0.50054586  0.43995905  1
  O  O79  1  0.42541172  0.27852735  0.37863978  1
  O  O80  1  0.11421527  0.17526148  0.23403092  1
  O  O81  1  0.91423743  0.77456341  0.43462117  1
  O  O82  1  0.17515024  0.92321023  0.02049262  1
  O  O83  1  0.98022003  0.02121816  0.66396802  1
  O  O84  1  0.37843618  0.41548226  0.24017337  1
  O  O85  1  0.66112268  0.57812569  0.31168492  1
  O  O86  1  0.21884107  0.38123824  0.13595606  1
  O  O87  1  0.87041651  0.90064243  0.23968451  1
  O  O88  1  0.06550897  0.30841696  0.03772725  1
  O  O89  1  0.62685145  0.67659451  0.17907149  1
  O  O90  1  0.77822715  0.12575023  0.42327053  1
  O  O91  1  0.31556392  0.57514974  0.03446342  1
  O  O92  1  0.57596763  0.81719453  0.03980207  1
  O  O93  1  0.85404880  0.97324199  0.11131907  1
  O  O94  1  0.74690407  0.22496202  0.28928396  1
  O  O95  1  0.48523297  0.02431609  0.16625175  1
  O  O96  1  0.97662375  0.52503909  0.22383647  1
  O  O97  1  0.73423618  0.29103977  0.16254449  1
  O  O98  1  0.57760362  0.21988491  0.06420500  1
  O  O99  1  0.94558770  0.62703864  0.08931122  1
