# generated using pymatgen
data_Li2TiV3O8
_symmetry_space_group_name_H-M   'P 1'
_cell_length_a   8.35539147
_cell_length_b   8.52062274
_cell_length_c   8.50524319
_cell_angle_alpha   89.99872408
_cell_angle_beta   90.00145185
_cell_angle_gamma   90.00148274
_symmetry_Int_Tables_number   1
_chemical_formula_structural   Li2TiV3O8
_chemical_formula_sum   'Li8 Ti4 V12 O32'
_cell_volume   605.51495665
_cell_formula_units_Z   4
loop_
 _symmetry_equiv_pos_site_id
 _symmetry_equiv_pos_as_xyz
  1  'x, y, z'
loop_
 _atom_site_type_symbol
 _atom_site_label
 _atom_site_symmetry_multiplicity
 _atom_site_fract_x
 _atom_site_fract_y
 _atom_site_fract_z
 _atom_site_occupancy
  Li  Li0  1  0.00094452  0.99927609  0.00041446  1
  Li  Li1  1  0.24587771  0.24814423  0.24695308  1
  Li  Li2  1  0.25416498  0.75175680  0.74687593  1
  Li  Li3  1  0.49906721  0.00066336  0.50042612  1
  Li  Li4  1  0.50095195  0.50074253  0.99959748  1
  Li  Li5  1  0.74592040  0.25184684  0.75308363  1
  Li  Li6  1  0.75409270  0.74821410  0.25309583  1
  Li  Li7  1  0.99907258  0.49926977  0.49961247  1
  Ti  Ti8  1  0.13018659  0.87212235  0.37599762  1
  Ti  Ti9  1  0.36979116  0.12792126  0.87607387  1
  Ti  Ti10  1  0.63022750  0.62793379  0.62397329  1
  Ti  Ti11  1  0.86972310  0.37208956  0.12391084  1
  V  V12  1  0.11823329  0.12377866  0.62292622  1
  V  V13  1  0.12181330  0.37410524  0.87161454  1
  V  V14  1  0.12379878  0.62585647  0.12376020  1
  V  V15  1  0.37610193  0.37413736  0.62369361  1
  V  V16  1  0.37823236  0.62581985  0.37152154  1
  V  V17  1  0.38184655  0.87616859  0.12290159  1
  V  V18  1  0.61816944  0.37622299  0.37709581  1
  V  V19  1  0.62177163  0.12587904  0.12843227  1
  V  V20  1  0.62382913  0.87411543  0.87632786  1
  V  V21  1  0.87606583  0.12584177  0.37621586  1
  V  V22  1  0.87830771  0.87420820  0.62848027  1
  V  V23  1  0.88187581  0.62388005  0.87708032  1
  O  O24  1  0.11746037  0.11141139  0.38846015  1
  O  O25  1  0.12123549  0.88803427  0.60809297  1
  O  O26  1  0.10465612  0.61924017  0.87826845  1
  O  O27  1  0.13705251  0.13085883  0.85981355  1
  O  O28  1  0.10690293  0.38921869  0.11207601  1
  O  O29  1  0.13297939  0.35791985  0.63566356  1
  O  O30  1  0.13647417  0.64258163  0.36705910  1
  O  O31  1  0.14316477  0.86599867  0.13911154  1
  O  O32  1  0.35678498  0.13398953  0.63911372  1
  O  O33  1  0.36354005  0.35740606  0.86709307  1
  O  O34  1  0.36697098  0.64203394  0.13553195  1
  O  O35  1  0.39304041  0.61078585  0.61195100  1
  O  O36  1  0.36298991  0.86904883  0.35975514  1
  O  O37  1  0.39540469  0.38073936  0.37826008  1
  O  O38  1  0.37891550  0.11204657  0.10805052  1
  O  O39  1  0.38241271  0.88848325  0.88857767  1
  O  O40  1  0.61752360  0.38857581  0.61148964  1
  O  O41  1  0.62111902  0.61205358  0.39193267  1
  O  O42  1  0.60459750  0.88078538  0.12180117  1
  O  O43  1  0.63700683  0.36911480  0.14020033  1
  O  O44  1  0.60696059  0.11075926  0.88796627  1
  O  O45  1  0.63295057  0.14204778  0.36438550  1
  O  O46  1  0.63650492  0.85743831  0.63300217  1
  O  O47  1  0.64323446  0.63399975  0.86087533  1
  O  O48  1  0.85674387  0.36600912  0.36088743  1
  O  O49  1  0.86348582  0.14259122  0.13287246  1
  O  O50  1  0.86702765  0.85799216  0.86447620  1
  O  O51  1  0.89305409  0.88914705  0.38806565  1
  O  O52  1  0.86303142  0.63100607  0.64021689  1
  O  O53  1  0.89540108  0.11931817  0.62164527  1
  O  O54  1  0.87892666  0.38799707  0.89193840  1
  O  O55  1  0.88238182  0.61151327  0.11143944  1
