# generated using pymatgen
data_Nb3Ni(PO4)6
_symmetry_space_group_name_H-M   'P 1'
_cell_length_a   9.00886017
_cell_length_b   9.00886030
_cell_length_c   9.00886009
_cell_angle_alpha   58.49838602
_cell_angle_beta   58.49838486
_cell_angle_gamma   58.49838889
_symmetry_Int_Tables_number   1
_chemical_formula_structural   Nb3Ni(PO4)6
_chemical_formula_sum   'Nb3 Ni1 P6 O24'
_cell_volume   499.24512717
_cell_formula_units_Z   1
loop_
 _symmetry_equiv_pos_site_id
 _symmetry_equiv_pos_as_xyz
  1  'x, y, z'
loop_
 _atom_site_type_symbol
 _atom_site_label
 _atom_site_symmetry_multiplicity
 _atom_site_fract_x
 _atom_site_fract_y
 _atom_site_fract_z
 _atom_site_occupancy
  Nb  Nb0  1  0.14034989  0.14034989  0.14034989  1
  Nb  Nb1  1  0.35848166  0.35848166  0.35848166  1
  Nb  Nb2  1  0.64011226  0.64011226  0.64011226  1
  Ni  Ni3  1  0.85686740  0.85686740  0.85686740  1
  P  P4  1  0.03210712  0.75068537  0.47250895  1
  P  P5  1  0.47250895  0.03210712  0.75068537  1
  P  P6  1  0.75068537  0.47250895  0.03210712  1
  P  P7  1  0.24148465  0.54036296  0.96564438  1
  P  P8  1  0.54036296  0.96564438  0.24148465  1
  P  P9  1  0.96564438  0.24148465  0.54036296  1
  O  O10  1  0.13274645  0.28418648  0.49904419  1
  O  O11  1  0.28418648  0.49904419  0.13274645  1
  O  O12  1  0.06200195  0.92011309  0.28949136  1
  O  O13  1  0.49904419  0.13274645  0.28418648  1
  O  O14  1  0.20953905  0.58061250  0.43241215  1
  O  O15  1  0.01206178  0.77600517  0.63430625  1
  O  O16  1  0.28949136  0.06200195  0.92011309  1
  O  O17  1  0.43241215  0.20953905  0.58061250  1
  O  O18  1  0.58061250  0.43241215  0.20953905  1
  O  O19  1  0.21962494  0.36459046  0.99705206  1
  O  O20  1  0.07826076  0.71544579  0.94002310  1
  O  O21  1  0.36459046  0.99705206  0.21962494  1
  O  O22  1  0.63430625  0.01206178  0.77600517  1
  O  O23  1  0.92011309  0.28949136  0.06200195  1
  O  O24  1  0.77600517  0.63430625  0.01206178  1
  O  O25  1  0.42053133  0.56098272  0.79069287  1
  O  O26  1  0.56098272  0.79069287  0.42053133  1
  O  O27  1  0.71544579  0.94002310  0.07826076  1
  O  O28  1  0.99705206  0.21962494  0.36459046  1
  O  O29  1  0.79069287  0.42053133  0.56098272  1
  O  O30  1  0.49773541  0.86469409  0.71924144  1
  O  O31  1  0.94002310  0.07826076  0.71544579  1
  O  O32  1  0.71924144  0.49773541  0.86469409  1
  O  O33  1  0.86469409  0.71924144  0.49773541  1
