# generated using pymatgen
data_CaMg14Si
_symmetry_space_group_name_H-M   'P 1'
_cell_length_a   6.44874946
_cell_length_b   6.24072152
_cell_length_c   10.39981638
_cell_angle_alpha   90.00000000
_cell_angle_beta   90.00000000
_cell_angle_gamma   118.93851396
_symmetry_Int_Tables_number   1
_chemical_formula_structural   CaMg14Si
_chemical_formula_sum   'Ca1 Mg14 Si1'
_cell_volume   366.28003780
_cell_formula_units_Z   1
loop_
 _symmetry_equiv_pos_site_id
 _symmetry_equiv_pos_as_xyz
  1  'x, y, z'
loop_
 _atom_site_type_symbol
 _atom_site_label
 _atom_site_symmetry_multiplicity
 _atom_site_fract_x
 _atom_site_fract_y
 _atom_site_fract_z
 _atom_site_occupancy
  Ca  Ca0  1  0.15616527  0.32808213  0.12500000  1
  Mg  Mg1  1  0.16704228  0.33352064  0.62500000  1
  Mg  Mg2  1  0.16128320  0.83064110  0.62500000  1
  Mg  Mg3  1  0.65410568  0.32055434  0.12500000  1
  Mg  Mg4  1  0.66434279  0.33592391  0.62500000  1
  Mg  Mg5  1  0.65410568  0.83355034  0.12500000  1
  Mg  Mg6  1  0.66434279  0.82841788  0.62500000  1
  Mg  Mg7  1  0.33621031  0.16352665  0.37839444  1
  Mg  Mg8  1  0.33621031  0.16352665  0.87160556  1
  Mg  Mg9  1  0.33621031  0.67268466  0.37839444  1
  Mg  Mg10  1  0.33621031  0.67268466  0.87160556  1
  Mg  Mg11  1  0.83072287  0.16536193  0.38582126  1
  Mg  Mg12  1  0.83072287  0.16536193  0.86417874  1
  Mg  Mg13  1  0.84216388  0.67108244  0.36315137  1
  Mg  Mg14  1  0.84216388  0.67108244  0.88684863  1
  Si  Si15  1  0.18799757  0.84399828  0.12500000  1
