# generated using pymatgen
data_MnV2(PO4)3
_symmetry_space_group_name_H-M   'P 1'
_cell_length_a   8.63937032
_cell_length_b   8.63937010
_cell_length_c   8.63937027
_cell_angle_alpha   59.98629706
_cell_angle_beta   59.98629942
_cell_angle_gamma   59.98629996
_symmetry_Int_Tables_number   1
_chemical_formula_structural   MnV2(PO4)3
_chemical_formula_sum   'Mn2 V4 P6 O24'
_cell_volume   455.82308582
_cell_formula_units_Z   2
loop_
 _symmetry_equiv_pos_site_id
 _symmetry_equiv_pos_as_xyz
  1  'x, y, z'
loop_
 _atom_site_type_symbol
 _atom_site_label
 _atom_site_symmetry_multiplicity
 _atom_site_fract_x
 _atom_site_fract_y
 _atom_site_fract_z
 _atom_site_occupancy
  Mn  Mn0  1  0.00000000  0.00000000  0.00000000  1
  Mn  Mn1  1  0.50000000  0.50000000  0.50000000  1
  V  V2  1  0.14382282  0.14382282  0.14382282  1
  V  V3  1  0.35617718  0.35617718  0.35617718  1
  V  V4  1  0.64382282  0.64382282  0.64382282  1
  V  V5  1  0.85617718  0.85617718  0.85617718  1
  P  P6  1  0.04137922  0.75000000  0.45862078  1
  P  P7  1  0.45862078  0.04137922  0.75000000  1
  P  P8  1  0.75000000  0.45862078  0.04137922  1
  P  P9  1  0.25000000  0.54137922  0.95862078  1
  P  P10  1  0.54137922  0.95862078  0.25000000  1
  P  P11  1  0.95862078  0.25000000  0.54137922  1
  O  O12  1  0.11842205  0.30757368  0.50487161  1
  O  O13  1  0.30757368  0.50487161  0.11842205  1
  O  O14  1  0.05906166  0.91424384  0.26428355  1
  O  O15  1  0.50487161  0.11842205  0.30757368  1
  O  O16  1  0.00487161  0.80757368  0.61842205  1
  O  O17  1  0.23571645  0.58575616  0.44093834  1
  O  O18  1  0.26428355  0.05906166  0.91424384  1
  O  O19  1  0.44093834  0.23571645  0.58575616  1
  O  O20  1  0.19242632  0.38157795  0.99512839  1
  O  O21  1  0.58575616  0.44093834  0.23571645  1
  O  O22  1  0.08575616  0.73571645  0.94093834  1
  O  O23  1  0.38157795  0.99512839  0.19242632  1
  O  O24  1  0.61842205  0.00487161  0.80757368  1
  O  O25  1  0.91424384  0.26428355  0.05906166  1
  O  O26  1  0.41424384  0.55906166  0.76428355  1
  O  O27  1  0.80757368  0.61842205  0.00487161  1
  O  O28  1  0.55906166  0.76428355  0.41424384  1
  O  O29  1  0.73571645  0.94093834  0.08575616  1
  O  O30  1  0.76428355  0.41424384  0.55906166  1
  O  O31  1  0.99512839  0.19242632  0.38157795  1
  O  O32  1  0.49512839  0.88157795  0.69242632  1
  O  O33  1  0.94093834  0.08575616  0.73571645  1
  O  O34  1  0.69242632  0.49512839  0.88157795  1
  O  O35  1  0.88157795  0.69242632  0.49512839  1
