# generated using pymatgen
data_Li8MnFe7(BO3)8
_symmetry_space_group_name_H-M   'P 1'
_cell_length_a   6.01245714
_cell_length_b   10.46062529
_cell_length_c   8.18898606
_cell_angle_alpha   89.90828622
_cell_angle_beta   77.12311591
_cell_angle_gamma   89.24661195
_symmetry_Int_Tables_number   1
_chemical_formula_structural   Li8MnFe7(BO3)8
_chemical_formula_sum   'Li8 Mn1 Fe7 B8 O24'
_cell_volume   502.04210884
_cell_formula_units_Z   1
loop_
 _symmetry_equiv_pos_site_id
 _symmetry_equiv_pos_as_xyz
  1  'x, y, z'
loop_
 _atom_site_type_symbol
 _atom_site_label
 _atom_site_symmetry_multiplicity
 _atom_site_fract_x
 _atom_site_fract_y
 _atom_site_fract_z
 _atom_site_occupancy
  Li  Li0  1  0.04398710  0.32472929  0.28099780  1
  Li  Li1  1  0.04353119  0.82699474  0.27992634  1
  Li  Li2  1  0.45536344  0.42523713  0.21982376  1
  Li  Li3  1  0.45515431  0.92422116  0.22082972  1
  Li  Li4  1  0.54335862  0.07487327  0.78134522  1
  Li  Li5  1  0.54463526  0.57463306  0.77840614  1
  Li  Li6  1  0.95514539  0.17424762  0.71968075  1
  Li  Li7  1  0.95624961  0.67515209  0.71975828  1
  Mn  Mn8  1  0.81464985  0.58588843  0.41957341  1
  Fe  Fe9  1  0.18600023  0.41053685  0.57815032  1
  Fe  Fe10  1  0.18398842  0.91780179  0.57957333  1
  Fe  Fe11  1  0.31312572  0.33679553  0.92368899  1
  Fe  Fe12  1  0.31500729  0.83341940  0.92291355  1
  Fe  Fe13  1  0.68463684  0.16563905  0.07600219  1
  Fe  Fe14  1  0.68454529  0.66483911  0.07491301  1
  Fe  Fe15  1  0.81425970  0.08776383  0.41979207  1
  B  B16  1  0.16754602  0.08639167  0.09232742  1
  B  B17  1  0.16748606  0.58627269  0.09100275  1
  B  B18  1  0.33545540  0.16413106  0.40597310  1
  B  B19  1  0.33131397  0.66456221  0.40670509  1
  B  B20  1  0.66802437  0.33325394  0.59409261  1
  B  B21  1  0.66502471  0.83651582  0.59516986  1
  B  B22  1  0.83380314  0.41486447  0.90748876  1
  B  B23  1  0.83355496  0.91397715  0.90766436  1
  O  O24  1  0.17844979  0.45518704  0.11529354  1
  O  O25  1  0.18048533  0.95589447  0.11451316  1
  O  O26  1  0.01361774  0.34366108  0.81015089  1
  O  O27  1  0.01405907  0.84289503  0.81123507  1
  O  O28  1  0.16357351  0.10322412  0.52149967  1
  O  O29  1  0.16122626  0.60168443  0.52105864  1
  O  O30  1  0.32328319  0.29526636  0.38328600  1
  O  O31  1  0.31851866  0.79477416  0.38426308  1
  O  O32  1  0.51418366  0.09279891  0.30936639  1
  O  O33  1  0.51168289  0.59309106  0.30830279  1
  O  O34  1  0.66335347  0.35351039  0.02340739  1
  O  O35  1  0.33899178  0.14880193  0.97874092  1
  O  O36  1  0.66094395  0.85314786  0.02241511  1
  O  O37  1  0.34017661  0.64615534  0.97586642  1
  O  O38  1  0.48795011  0.40462671  0.68973106  1
  O  O39  1  0.48407089  0.90887836  0.69030004  1
  O  O40  1  0.67795237  0.20153544  0.61666047  1
  O  O41  1  0.67632647  0.70586932  0.62247833  1
  O  O42  1  0.84138062  0.39381690  0.48100870  1
  O  O43  1  0.83735890  0.89630709  0.47960830  1
  O  O44  1  0.98613827  0.15687496  0.18986077  1
  O  O45  1  0.98838983  0.65880261  0.18559691  1
  O  O46  1  0.82074002  0.04519402  0.88529218  1
  O  O47  1  0.82130069  0.54525902  0.88426933  1
