# generated using pymatgen
data_Li4MnFe3(BO3)4
_symmetry_space_group_name_H-M   'P 1'
_cell_length_a   7.89269352
_cell_length_b   5.25326250
_cell_length_c   6.20097961
_cell_angle_alpha   88.82892927
_cell_angle_beta   78.38759651
_cell_angle_gamma   88.46504518
_symmetry_Int_Tables_number   1
_chemical_formula_structural   Li4MnFe3(BO3)4
_chemical_formula_sum   'Li4 Mn1 Fe3 B4 O12'
_cell_volume   251.72479641
_cell_formula_units_Z   1
loop_
 _symmetry_equiv_pos_site_id
 _symmetry_equiv_pos_as_xyz
  1  'x, y, z'
loop_
 _atom_site_type_symbol
 _atom_site_label
 _atom_site_symmetry_multiplicity
 _atom_site_fract_x
 _atom_site_fract_y
 _atom_site_fract_z
 _atom_site_occupancy
  Li  Li0  1  0.80403255  0.56602297  0.87137027  1
  Li  Li1  1  0.69672160  0.93135208  0.62873099  1
  Li  Li2  1  0.30342549  0.06560972  0.37103879  1
  Li  Li3  1  0.19733582  0.43300439  0.12726183  1
  Mn  Mn4  1  0.67722608  0.07429395  0.08933913  1
  Fe  Fe5  1  0.82845016  0.43003849  0.41310582  1
  Fe  Fe6  1  0.32476644  0.93179911  0.91225506  1
  Fe  Fe7  1  0.17948201  0.57853987  0.58748808  1
  B  B8  1  0.49664928  0.42689973  0.76054444  1
  B  B9  1  0.99787272  0.92649782  0.26305879  1
  B  B10  1  0.00204599  0.07266576  0.73682085  1
  B  B11  1  0.50035728  0.57489105  0.23960273  1
  O  O12  1  0.97783805  0.33214773  0.70385514  1
  O  O13  1  0.86641137  0.92175890  0.83669643  1
  O  O14  1  0.83624894  0.04180537  0.34458779  1
  O  O15  1  0.52064746  0.16403554  0.79179517  1
  O  O16  1  0.63401258  0.57244378  0.66151591  1
  O  O17  1  0.33401407  0.53998540  0.84053843  1
  O  O18  1  0.66469151  0.46566512  0.16296916  1
  O  O19  1  0.36445666  0.42321401  0.34123988  1
  O  O20  1  0.47240997  0.83360222  0.20407492  1
  O  O21  1  0.16517249  0.95719917  0.65823048  1
  O  O22  1  0.13438236  0.07143761  0.15800037  1
  O  O23  1  0.02134911  0.66508824  0.29587752  1
