# generated using pymatgen
data_Li4Mn3Fe(BO3)4
_symmetry_space_group_name_H-M   'P 1'
_cell_length_a   6.05305562
_cell_length_b   5.24280627
_cell_length_c   8.27949597
_cell_angle_alpha   90.79997006
_cell_angle_beta   76.56476486
_cell_angle_gamma   89.26561118
_symmetry_Int_Tables_number   1
_chemical_formula_structural   Li4Mn3Fe(BO3)4
_chemical_formula_sum   'Li4 Mn3 Fe1 B4 O12'
_cell_volume   255.49940270
_cell_formula_units_Z   1
loop_
 _symmetry_equiv_pos_site_id
 _symmetry_equiv_pos_as_xyz
  1  'x, y, z'
loop_
 _atom_site_type_symbol
 _atom_site_label
 _atom_site_symmetry_multiplicity
 _atom_site_fract_x
 _atom_site_fract_y
 _atom_site_fract_z
 _atom_site_occupancy
  Li  Li0  1  0.04712236  0.65063267  0.28357078  1
  Li  Li1  1  0.45313008  0.84787895  0.21940144  1
  Li  Li2  1  0.54564367  0.14980474  0.78135936  1
  Li  Li3  1  0.95324216  0.34957119  0.71750562  1
  Mn  Mn4  1  0.31348790  0.66766843  0.91799477  1
  Mn  Mn5  1  0.68599687  0.33268472  0.07946732  1
  Mn  Mn6  1  0.81321775  0.16579888  0.42014880  1
  Fe  Fe7  1  0.18372098  0.83948065  0.58186083  1
  B  B8  1  0.16680523  0.16916299  0.09633301  1
  B  B9  1  0.33453963  0.33017361  0.40608941  1
  B  B10  1  0.66529532  0.66970424  0.59520326  1
  B  B11  1  0.83468312  0.83118236  0.90156924  1
  O  O12  1  0.17472643  0.90953296  0.12296225  1
  O  O13  1  0.01521311  0.68211690  0.80682725  1
  O  O14  1  0.16268739  0.20745204  0.51935102  1
  O  O15  1  0.32224905  0.58927692  0.38287734  1
  O  O16  1  0.51428165  0.18190174  0.31094918  1
  O  O17  1  0.66158151  0.71389428  0.01551093  1
  O  O18  1  0.34091816  0.28659281  0.98326442  1
  O  O19  1  0.48370229  0.81972803  0.68642289  1
  O  O20  1  0.67387113  0.41032894  0.62311180  1
  O  O21  1  0.84101962  0.78577227  0.48323855  1
  O  O22  1  0.98613932  0.31900774  0.18899423  1
  O  O23  1  0.82672628  0.09065094  0.87598928  1
