# generated using pymatgen
data_Li8Mn5Fe3(BO3)8
_symmetry_space_group_name_H-M   'P 1'
_cell_length_a   6.03604378
_cell_length_b   5.23504284
_cell_length_c   16.23099884
_cell_angle_alpha   91.06982850
_cell_angle_beta   97.92168924
_cell_angle_gamma   89.23767712
_symmetry_Int_Tables_number   1
_chemical_formula_structural   Li8Mn5Fe3(BO3)8
_chemical_formula_sum   'Li8 Mn5 Fe3 B8 O24'
_cell_volume   507.86985886
_cell_formula_units_Z   1
loop_
 _symmetry_equiv_pos_site_id
 _symmetry_equiv_pos_as_xyz
  1  'x, y, z'
loop_
 _atom_site_type_symbol
 _atom_site_label
 _atom_site_symmetry_multiplicity
 _atom_site_fract_x
 _atom_site_fract_y
 _atom_site_fract_z
 _atom_site_occupancy
  Li  Li0  1  0.06433032  0.84705274  0.61207549  1
  Li  Li1  1  0.43636115  0.15270922  0.88935672  1
  Li  Li2  1  0.18321313  0.65405411  0.13723955  1
  Li  Li3  1  0.31616784  0.34699232  0.36182066  1
  Li  Li4  1  0.68704607  0.65211149  0.64153198  1
  Li  Li5  1  0.81425020  0.34503354  0.85852674  1
  Li  Li6  1  0.56163501  0.84701529  0.10784282  1
  Li  Li7  1  0.93775687  0.15252406  0.39146229  1
  Mn  Mn8  1  0.02451058  0.17007273  0.21069310  1
  Mn  Mn9  1  0.52244822  0.16868992  0.70889702  1
  Mn  Mn10  1  0.47480236  0.82938073  0.28930694  1
  Mn  Mn11  1  0.77483476  0.66909116  0.46070949  1
  Mn  Mn12  1  0.72411831  0.33076699  0.03976090  1
  Fe  Fe13  1  0.27373381  0.66600980  0.95919168  1
  Fe  Fe14  1  0.22550364  0.32878710  0.53921263  1
  Fe  Fe15  1  0.97736611  0.83154941  0.79343271  1
  B  B16  1  0.03734871  0.32910287  0.70345287  1
  B  B17  1  0.28717189  0.82906168  0.45496143  1
  B  B18  1  0.46309314  0.67131386  0.79764290  1
  B  B19  1  0.21180322  0.17261462  0.04492754  1
  B  B20  1  0.78609443  0.82886779  0.95139889  1
  B  B21  1  0.53283698  0.32895830  0.20184121  1
  B  B22  1  0.71542770  0.17160976  0.54794461  1
  B  B23  1  0.96662204  0.67086016  0.29787219  1
  O  O24  1  0.01116386  0.58849019  0.69205289  1
  O  O25  1  0.16892909  0.18483014  0.65410797  1
  O  O26  1  0.17346195  0.70921278  0.51239083  1
  O  O27  1  0.32479989  0.29582271  0.98795822  1
  O  O28  1  0.08165768  0.78604621  0.23988137  1
  O  O29  1  0.33002173  0.81973051  0.84556993  1
  O  O30  1  0.07977673  0.31682095  0.09373984  1
  O  O31  1  0.26275250  0.08930016  0.44292402  1
  O  O32  1  0.48887200  0.41174176  0.81132140  1
  O  O33  1  0.23748126  0.91270666  0.05572406  1
  O  O34  1  0.41852459  0.68342485  0.40624333  1
  O  O35  1  0.41825096  0.21377230  0.25985587  1
  O  O36  1  0.57487393  0.78909946  0.73983864  1
  O  O37  1  0.58007042  0.32168108  0.59381708  1
  O  O38  1  0.76206667  0.08837584  0.93821589  1
  O  O39  1  0.50946165  0.58759630  0.18686116  1
  O  O40  1  0.73939836  0.91257208  0.56229725  1
  O  O41  1  0.91927025  0.68106954  0.90346364  1
  O  O42  1  0.66754734  0.17784148  0.15573690  1
  O  O43  1  0.92705055  0.20264476  0.76069779  1
  O  O44  1  0.67538285  0.71168942  0.00978854  1
  O  O45  1  0.82931420  0.28769323  0.48990895  1
  O  O46  1  0.83159050  0.82149251  0.34395389  1
  O  O47  1  0.98980756  0.41211440  0.31255019  1
