# generated using pymatgen
data_Li8Mn7Fe(BO3)8
_symmetry_space_group_name_H-M   'P 1'
_cell_length_a   11.35103932
_cell_length_b   5.24830852
_cell_length_c   9.06044535
_cell_angle_alpha   91.22068923
_cell_angle_beta   71.85149825
_cell_angle_gamma   90.29024784
_symmetry_Int_Tables_number   1
_chemical_formula_structural   Li8Mn7Fe(BO3)8
_chemical_formula_sum   'Li8 Mn7 Fe1 B8 O24'
_cell_volume   512.79565950
_cell_formula_units_Z   1
loop_
 _symmetry_equiv_pos_site_id
 _symmetry_equiv_pos_as_xyz
  1  'x, y, z'
loop_
 _atom_site_type_symbol
 _atom_site_label
 _atom_site_symmetry_multiplicity
 _atom_site_fract_x
 _atom_site_fract_y
 _atom_site_fract_z
 _atom_site_occupancy
  Li  Li0  1  0.16351329  0.14974934  0.61787045  1
  Li  Li1  1  0.33546030  0.84954147  0.88225992  1
  Li  Li2  1  0.16413282  0.65024551  0.11739283  1
  Li  Li3  1  0.33561468  0.35001370  0.38252797  1
  Li  Li4  1  0.66462814  0.65111074  0.61835927  1
  Li  Li5  1  0.83577321  0.35074044  0.88252270  1
  Li  Li6  1  0.66426100  0.15030237  0.11739982  1
  Li  Li7  1  0.83627748  0.84880497  0.38319512  1
  Mn  Mn8  1  0.11504004  0.66768048  0.80242538  1
  Mn  Mn9  1  0.11740222  0.16704649  0.30262986  1
  Mn  Mn10  1  0.38230007  0.33326724  0.69756321  1
  Mn  Mn11  1  0.61679871  0.16560412  0.80299677  1
  Mn  Mn12  1  0.38269473  0.83296603  0.19737863  1
  Mn  Mn13  1  0.61732535  0.66687100  0.30227601  1
  Mn  Mn14  1  0.88284762  0.33294618  0.19663070  1
  Fe  Fe15  1  0.88185727  0.83585390  0.69601164  1
  B  B16  1  0.13128626  0.16937135  0.96483963  1
  B  B17  1  0.13022420  0.66977554  0.46519200  1
  B  B18  1  0.36876036  0.83072368  0.53499910  1
  B  B19  1  0.63189451  0.66945752  0.96431379  1
  B  B20  1  0.36868687  0.33073160  0.03503474  1
  B  B21  1  0.63170582  0.16911273  0.46490554  1
  B  B22  1  0.87047928  0.32860459  0.53656286  1
  B  B23  1  0.86817849  0.83129175  0.03377568  1
  O  O24  1  0.14860045  0.91031885  0.97450069  1
  O  O25  1  0.16240326  0.28669188  0.82129582  1
  O  O26  1  0.08472353  0.81952702  0.60116236  1
  O  O27  1  0.14846786  0.41083736  0.47498907  1
  O  O28  1  0.41322584  0.18038091  0.89886892  1
  O  O29  1  0.33759054  0.71443822  0.67869995  1
  O  O30  1  0.16229002  0.78583498  0.32108214  1
  O  O31  1  0.08668908  0.31927531  0.10127840  1
  O  O32  1  0.35110207  0.08963475  0.52507693  1
  O  O33  1  0.64908256  0.41031083  0.97415590  1
  O  O34  1  0.41345028  0.68058367  0.39867805  1
  O  O35  1  0.33742086  0.21429916  0.17888503  1
  O  O36  1  0.66303292  0.78592812  0.82066388  1
  O  O37  1  0.58741379  0.31917173  0.60119918  1
  O  O38  1  0.35125101  0.58960770  0.02505566  1
  O  O39  1  0.64932976  0.90995102  0.47456475  1
  O  O40  1  0.91130213  0.68293023  0.89684920  1
  O  O41  1  0.84101842  0.20769352  0.67933334  1
  O  O42  1  0.66258173  0.28566742  0.32110247  1
  O  O43  1  0.58697443  0.81940360  0.10069527  1
  O  O44  1  0.85311870  0.58855664  0.53114847  1
  O  O45  1  0.91250870  0.18234139  0.39887008  1
  O  O46  1  0.83823972  0.71424744  0.17775069  1
  O  O47  1  0.85103761  0.09055652  0.02503415  1
