# generated using pymatgen
data_Li4Mn3Fe(BO3)4
_symmetry_space_group_name_H-M   'P 1'
_cell_length_a   6.01659707
_cell_length_b   5.24846117
_cell_length_c   16.29969067
_cell_angle_alpha   90.67063430
_cell_angle_beta   97.96351767
_cell_angle_gamma   89.52604133
_symmetry_Int_Tables_number   1
_chemical_formula_structural   Li4Mn3Fe(BO3)4
_chemical_formula_sum   'Li8 Mn6 Fe2 B8 O24'
_cell_volume   509.69959024
_cell_formula_units_Z   2
loop_
 _symmetry_equiv_pos_site_id
 _symmetry_equiv_pos_as_xyz
  1  'x, y, z'
loop_
 _atom_site_type_symbol
 _atom_site_label
 _atom_site_symmetry_multiplicity
 _atom_site_fract_x
 _atom_site_fract_y
 _atom_site_fract_z
 _atom_site_occupancy
  Li  Li0  1  0.06786157  0.84862750  0.61160237  1
  Li  Li1  1  0.43213843  0.15137250  0.88839763  1
  Li  Li2  1  0.18545015  0.65222230  0.13980291  1
  Li  Li3  1  0.31454985  0.34777770  0.36019709  1
  Li  Li4  1  0.68630623  0.64868770  0.64055780  1
  Li  Li5  1  0.81369377  0.35131230  0.85944220  1
  Li  Li6  1  0.56511865  0.84767880  0.10888310  1
  Li  Li7  1  0.93488135  0.15232120  0.39111690  1
  Mn  Mn8  1  0.27013801  0.67049108  0.95866482  1
  Mn  Mn9  1  0.02602362  0.16943108  0.21048918  1
  Mn  Mn10  1  0.22986199  0.32950892  0.54133518  1
  Mn  Mn11  1  0.47397638  0.83056892  0.28951082  1
  Mn  Mn12  1  0.77718048  0.66813455  0.46089932  1
  Mn  Mn13  1  0.72281952  0.33186545  0.03910068  1
  Fe  Fe14  1  0.52747678  0.16946556  0.71267969  1
  Fe  Fe15  1  0.97252322  0.83053444  0.78732031  1
  B  B16  1  0.03738468  0.32743984  0.70506670  1
  B  B17  1  0.28533281  0.82956296  0.45285565  1
  B  B18  1  0.46261532  0.67256016  0.79493330  1
  B  B19  1  0.21466719  0.17043704  0.04714435  1
  B  B20  1  0.78242462  0.83299736  0.95041479  1
  B  B21  1  0.53476762  0.33019503  0.20188290  1
  B  B22  1  0.71757538  0.16700264  0.54958521  1
  B  B23  1  0.96523238  0.66980497  0.29811710  1
  O  O24  1  0.01462799  0.58801374  0.69279328  1
  O  O25  1  0.17141688  0.18360845  0.65777087  1
  O  O26  1  0.16973278  0.71198208  0.51053329  1
  O  O27  1  0.33026722  0.28801792  0.98946671  1
  O  O28  1  0.08253028  0.78597138  0.24072858  1
  O  O29  1  0.32858312  0.81639155  0.84222913  1
  O  O30  1  0.08113972  0.31955518  0.09355052  1
  O  O31  1  0.26321449  0.08868367  0.43924832  1
  O  O32  1  0.48537201  0.41198626  0.80720672  1
  O  O33  1  0.23678551  0.91131633  0.06075168  1
  O  O34  1  0.41886028  0.68044482  0.40644948  1
  O  O35  1  0.41746972  0.21402862  0.25927142  1
  O  O36  1  0.57920924  0.79333917  0.73828265  1
  O  O37  1  0.58502226  0.31474919  0.59672159  1
  O  O38  1  0.76002053  0.09209049  0.93717447  1
  O  O39  1  0.51378762  0.58917139  0.18789806  1
  O  O40  1  0.73997947  0.90790951  0.56282553  1
  O  O41  1  0.91497774  0.68525081  0.90327841  1
  O  O42  1  0.66853673  0.17995815  0.15586477  1
  O  O43  1  0.92079076  0.20666083  0.76171735  1
  O  O44  1  0.66912876  0.71491714  0.00845669  1
  O  O45  1  0.83087124  0.28508286  0.49154331  1
  O  O46  1  0.83146327  0.82004185  0.34413523  1
  O  O47  1  0.98621238  0.41082861  0.31210194  1
