# generated using pymatgen
data_BaSr7V8(Si2O7)8
_symmetry_space_group_name_H-M   'P 1'
_cell_length_a   7.91958074
_cell_length_b   10.76629967
_cell_length_c   14.25032208
_cell_angle_alpha   90.00000386
_cell_angle_beta   90.00000750
_cell_angle_gamma   70.13281436
_symmetry_Int_Tables_number   1
_chemical_formula_structural   BaSr7V8(Si2O7)8
_chemical_formula_sum   'Ba1 Sr7 V8 Si16 O56'
_cell_volume   1142.73162065
_cell_formula_units_Z   1
loop_
 _symmetry_equiv_pos_site_id
 _symmetry_equiv_pos_as_xyz
  1  'x, y, z'
loop_
 _atom_site_type_symbol
 _atom_site_label
 _atom_site_symmetry_multiplicity
 _atom_site_fract_x
 _atom_site_fract_y
 _atom_site_fract_z
 _atom_site_occupancy
  Ba  Ba0  1  0.40956703  0.64759123  0.12500038  1
  Sr  Sr1  1  0.58832051  0.85302463  0.87485875  1
  Sr  Sr2  1  0.58832081  0.85302534  0.37514096  1
  Sr  Sr3  1  0.41164310  0.64708168  0.62500016  1
  Sr  Sr4  1  0.58834659  0.35282497  0.87487260  1
  Sr  Sr5  1  0.58834729  0.35282482  0.37512754  1
  Sr  Sr6  1  0.41165819  0.14707714  0.62500025  1
  Sr  Sr7  1  0.41168292  0.14708818  0.12500017  1
  V  V8  1  0.78254629  0.80435736  0.62499932  1
  V  V9  1  0.78238758  0.80464585  0.12499933  1
  V  V10  1  0.21689863  0.69578774  0.87423665  1
  V  V11  1  0.21690598  0.69578573  0.37576352  1
  V  V12  1  0.78264838  0.30431869  0.62500013  1
  V  V13  1  0.78332369  0.30390783  0.12500112  1
  V  V14  1  0.21744302  0.19564858  0.87489311  1
  V  V15  1  0.21743362  0.19565169  0.37510741  1
  Si  Si16  1  0.21508898  0.94624797  0.73798514  1
  Si  Si17  1  0.21508834  0.94624824  0.51201463  1
  Si  Si18  1  0.21443442  0.94737139  0.23838871  1
  Si  Si19  1  0.21443524  0.94737141  0.01161146  1
  Si  Si20  1  0.78593631  0.55347242  0.98754344  1
  Si  Si21  1  0.78492139  0.55376215  0.76185318  1
  Si  Si22  1  0.78492135  0.55376161  0.48814660  1
  Si  Si23  1  0.78593602  0.55347257  0.26245691  1
  Si  Si24  1  0.21492660  0.44529818  0.01160935  1
  Si  Si25  1  0.21509697  0.44622274  0.73798432  1
  Si  Si26  1  0.21509595  0.44622345  0.51201598  1
  Si  Si27  1  0.21492530  0.44529893  0.23839020  1
  Si  Si28  1  0.78459070  0.05388532  0.98800983  1
  Si  Si29  1  0.78493524  0.05375856  0.76195381  1
  Si  Si30  1  0.78493550  0.05375940  0.48804626  1
  Si  Si31  1  0.78459106  0.05388570  0.26199027  1
  O  O32  1  0.69345672  0.95108498  0.71972617  1
  O  O33  1  0.69345598  0.95108536  0.53027362  1
  O  O34  1  0.69324802  0.95118975  0.03027178  1
  O  O35  1  0.69324683  0.95119050  0.21972811  1
  O  O36  1  0.00261816  0.74934489  0.62499981  1
  O  O37  1  0.00217763  0.74961734  0.12499994  1
  O  O38  1  0.27264145  0.93323116  0.12500032  1
  O  O39  1  0.27386560  0.93163411  0.62499996  1
  O  O40  1  0.69346243  0.70218579  0.71968316  1
  O  O41  1  0.69627339  0.70226895  0.22062705  1
  O  O42  1  0.69627351  0.70226857  0.02937320  1
  O  O43  1  0.69346261  0.70218550  0.53031668  1
  O  O44  1  0.30505609  0.80027438  0.28259846  1
  O  O45  1  0.30505558  0.80027377  0.96740157  1
  O  O46  1  0.30659934  0.79772432  0.77991197  1
  O  O47  1  0.30659964  0.79772543  0.47008745  1
  O  O48  1  0.72596562  0.56852954  0.87481560  1
  O  O49  1  0.99691359  0.75077743  0.87491347  1
  O  O50  1  0.72596505  0.56852884  0.37518446  1
  O  O51  1  0.99692022  0.75077616  0.37508597  1
  O  O52  1  0.30522310  0.54722101  0.96738155  1
  O  O53  1  0.30658298  0.54901638  0.77988770  1
  O  O54  1  0.30658341  0.54901556  0.47011247  1
  O  O55  1  0.30522412  0.54722016  0.28261832  1
  O  O56  1  0.69633591  0.44949972  0.02938895  1
  O  O57  1  0.69347743  0.45104288  0.53030283  1
  O  O58  1  0.69347704  0.45104321  0.71969742  1
  O  O59  1  0.69633552  0.44950003  0.22061083  1
  O  O60  1  0.27278629  0.43037938  0.12500033  1
  O  O61  1  0.27385875  0.43139775  0.62499977  1
  O  O62  1  0.00267352  0.24933524  0.62500021  1
  O  O63  1  0.00000292  0.49999888  0.75001967  1
  O  O64  1  0.00329369  0.24902408  0.12500004  1
  O  O65  1  0.00000442  0.49999857  0.49997992  1
  O  O66  1  0.00035809  0.49980744  0.25000114  1
  O  O67  1  0.00035806  0.49980790  -0.00000132  1
  O  O68  1  0.69345514  0.20215998  0.71970255  1
  O  O69  1  0.69331159  0.20219481  0.03032431  1
  O  O70  1  0.69345489  0.20216076  0.53029749  1
  O  O71  1  0.69331083  0.20219500  0.21967523  1
  O  O72  1  0.30688865  0.29709598  0.96970043  1
  O  O73  1  0.30654717  0.29785903  0.78028359  1
  O  O74  1  0.30654806  0.29785879  0.46971600  1
  O  O75  1  0.30688810  0.29709490  0.28030018  1
  O  O76  1  0.72606910  0.06849999  0.87497446  1
  O  O77  1  0.99734156  0.25065498  0.87498278  1
  O  O78  1  0.72606858  0.06850021  0.37502598  1
  O  O79  1  0.99734416  0.25065458  0.37501715  1
  O  O80  1  0.30672176  0.04947090  0.96973334  1
  O  O81  1  0.30654496  0.04889984  0.78026675  1
  O  O82  1  0.30654431  0.04890150  0.46973252  1
  O  O83  1  0.30672120  0.04947262  0.28026821  1
  O  O84  1  -0.00000039  0.00000116  0.75001280  1
  O  O85  1  0.00000011  0.00000102  0.49998732  1
  O  O86  1  0.99953458  0.00021917  0.24993141  1
  O  O87  1  0.99953389  0.00021932  0.00006840  1
