# generated using pymatgen
data_Li2MnFe(BO3)2
_symmetry_space_group_name_H-M   'P 1'
_cell_length_a   5.95327902
_cell_length_b   5.24538790
_cell_length_c   8.23130152
_cell_angle_alpha   90.08359682
_cell_angle_beta   77.77259376
_cell_angle_gamma   89.64949211
_symmetry_Int_Tables_number   1
_chemical_formula_structural   Li2MnFe(BO3)2
_chemical_formula_sum   'Li4 Mn2 Fe2 B4 O12'
_cell_volume   251.20422409
_cell_formula_units_Z   2
loop_
 _symmetry_equiv_pos_site_id
 _symmetry_equiv_pos_as_xyz
  1  'x, y, z'
loop_
 _atom_site_type_symbol
 _atom_site_label
 _atom_site_symmetry_multiplicity
 _atom_site_fract_x
 _atom_site_fract_y
 _atom_site_fract_z
 _atom_site_occupancy
  Li  Li0  1  0.04541470  0.65120861  0.27643202  1
  Li  Li1  1  0.46249834  0.84621474  0.22456681  1
  Li  Li2  1  0.53750166  0.15378526  0.77543319  1
  Li  Li3  1  0.95458530  0.34879139  0.72356798  1
  Mn  Mn4  1  0.31409039  0.67257198  0.91727719  1
  Mn  Mn5  1  0.68590961  0.32742802  0.08272281  1
  Fe  Fe6  1  0.18090872  0.82739953  0.57339805  1
  Fe  Fe7  1  0.81909128  0.17260047  0.42660195  1
  B  B8  1  0.16950982  0.16836790  0.09633501  1
  B  B9  1  0.33354734  0.32707265  0.41153002  1
  B  B10  1  0.66645266  0.67292735  0.58846998  1
  B  B11  1  0.83049018  0.83163210  0.90366499  1
  O  O12  1  0.18031319  0.90854655  0.12188788  1
  O  O13  1  0.00877490  0.68557845  0.80648475  1
  O  O14  1  0.16039672  0.20783261  0.52654064  1
  O  O15  1  0.32381422  0.58804606  0.38580320  1
  O  O16  1  0.51266684  0.18265840  0.31658584  1
  O  O17  1  0.66280046  0.71136678  0.02180985  1
  O  O18  1  0.33719954  0.28863322  0.97819015  1
  O  O19  1  0.48733316  0.81734160  0.68341416  1
  O  O20  1  0.67618578  0.41195394  0.61419680  1
  O  O21  1  0.83960328  0.79216739  0.47345936  1
  O  O22  1  0.99122510  0.31442155  0.19351525  1
  O  O23  1  0.81968681  0.09145345  0.87811212  1
