# generated using pymatgen
data_Li8Mn7Fe(BO3)8
_symmetry_space_group_name_H-M   'P 1'
_cell_length_a   6.06640289
_cell_length_b   9.86521230
_cell_length_c   9.03025216
_cell_angle_alpha   98.42881153
_cell_angle_beta   102.75663839
_cell_angle_gamma   79.22036423
_symmetry_Int_Tables_number   1
_chemical_formula_structural   Li8Mn7Fe(BO3)8
_chemical_formula_sum   'Li8 Mn7 Fe1 B8 O24'
_cell_volume   514.65145132
_cell_formula_units_Z   1
loop_
 _symmetry_equiv_pos_site_id
 _symmetry_equiv_pos_as_xyz
  1  'x, y, z'
loop_
 _atom_site_type_symbol
 _atom_site_label
 _atom_site_symmetry_multiplicity
 _atom_site_fract_x
 _atom_site_fract_y
 _atom_site_fract_z
 _atom_site_occupancy
  Li  Li0  1  0.97272884  0.70212813  0.03445695  1
  Li  Li1  1  0.72147961  0.95126651  0.53278719  1
  Li  Li2  1  0.77849951  0.54966327  0.46523506  1
  Li  Li3  1  0.47191670  0.20158452  0.03425431  1
  Li  Li4  1  0.52833377  0.79835553  0.96590177  1
  Li  Li5  1  0.22127458  0.45166913  0.53354862  1
  Li  Li6  1  0.27845006  0.04779326  0.46562165  1
  Li  Li7  1  0.02931715  0.29822652  0.96770601  1
  Mn  Mn8  1  0.78834485  0.97634607  0.20646455  1
  Mn  Mn9  1  0.96204182  0.27305479  0.29398298  1
  Mn  Mn10  1  0.71249145  0.52249670  0.79445000  1
  Mn  Mn11  1  0.53862312  0.22700280  0.70596047  1
  Mn  Mn12  1  0.29123354  0.47928778  0.20712213  1
  Mn  Mn13  1  0.03867697  0.72673888  0.70593190  1
  Mn  Mn14  1  0.21051000  0.02353543  0.79405781  1
  Fe  Fe15  1  0.46263412  0.77485363  0.29758119  1
  B  B16  1  0.98303270  0.27929127  0.63225368  1
  B  B17  1  0.73226693  0.53117306  0.13249156  1
  B  B18  1  0.76649674  0.97054495  0.86735684  1
  B  B19  1  0.48295219  0.77786135  0.63095118  1
  B  B20  1  0.51683069  0.22054217  0.36729636  1
  B  B21  1  0.23338312  0.02704925  0.13329950  1
  B  B22  1  0.26712765  0.47055035  0.86785222  1
  B  B23  1  0.01693963  0.72118571  0.36742921  1
  O  O24  1  0.90457162  0.41592574  0.13553432  1
  O  O25  1  0.84140662  0.83486913  0.36516602  1
  O  O26  1  0.88623443  0.93822779  0.74654100  1
  O  O27  1  0.93299075  0.36446410  0.51647017  1
  O  O28  1  0.68387360  0.61493843  0.01562336  1
  O  O29  1  0.81592503  0.88603892  0.98362033  1
  O  O30  1  0.86384665  0.31089134  0.75337216  1
  O  O31  1  0.61122892  0.56597615  0.25278356  1
  O  O32  1  0.65810200  0.66437691  0.63498555  1
  O  O33  1  0.40531923  0.91158640  0.13603136  1
  O  O34  1  0.63734317  0.18803953  0.24708800  1
  O  O35  1  0.43251185  0.86031673  0.51187475  1
  O  O36  1  0.56557782  0.13569538  0.48347005  1
  O  O37  1  0.36307310  0.81255336  0.75132977  1
  O  O38  1  0.59212795  0.08486877  0.86486834  1
  O  O39  1  0.34295803  0.33514115  0.36465676  1
  O  O40  1  0.38706648  0.43841268  0.74714853  1
  O  O41  1  0.13792385  0.68988281  0.24753384  1
  O  O42  1  0.18615558  0.11214893  0.01734632  1
  O  O43  1  0.31613673  0.38601962  0.98411453  1
  O  O44  1  0.06690807  0.63615131  0.48356435  1
  O  O45  1  0.11296770  0.06141206  0.25348780  1
  O  O46  1  0.15730960  0.16492019  0.63413223  1
  O  O47  1  0.09285747  0.58493949  0.86526680  1
