# generated using pymatgen
data_Li4Mn3Fe(BO3)4
_symmetry_space_group_name_H-M   'P 1'
_cell_length_a   6.25005509
_cell_length_b   8.07214450
_cell_length_c   5.17509638
_cell_angle_alpha   88.80720920
_cell_angle_beta   87.69620477
_cell_angle_gamma   78.39409968
_symmetry_Int_Tables_number   1
_chemical_formula_structural   Li4Mn3Fe(BO3)4
_chemical_formula_sum   'Li4 Mn3 Fe1 B4 O12'
_cell_volume   255.52413981
_cell_formula_units_Z   1
loop_
 _symmetry_equiv_pos_site_id
 _symmetry_equiv_pos_as_xyz
  1  'x, y, z'
loop_
 _atom_site_type_symbol
 _atom_site_label
 _atom_site_symmetry_multiplicity
 _atom_site_fract_x
 _atom_site_fract_y
 _atom_site_fract_z
 _atom_site_occupancy
  Li  Li0  1  0.52177591  0.15056837  0.91656831  1
  Li  Li1  1  0.01983312  0.65148608  0.41518981  1
  Li  Li2  1  0.97907992  0.34706956  0.58382865  1
  Li  Li3  1  0.48202469  0.84947630  0.08513301  1
  Mn  Mn4  1  0.25618028  0.50954473  0.90368969  1
  Mn  Mn5  1  0.74391600  0.49101433  0.09548841  1
  Mn  Mn6  1  0.24227727  0.98955843  0.59533002  1
  Fe  Fe7  1  0.75450987  0.01168524  0.41117644  1
  B  B8  1  0.09298009  0.16677487  0.09772645  1
  B  B9  1  0.40790212  0.33121976  0.39980686  1
  B  B10  1  0.59477997  0.66840563  0.59758946  1
  B  B11  1  0.90314748  0.83420937  0.90331805  1
  O  O12  1  0.25493571  0.04207461  0.98986879  1
  O  O13  1  0.01079696  0.31331598  0.95721188  1
  O  O14  1  0.01965332  0.15061055  0.35537204  1
  O  O15  1  0.49551663  0.18478119  0.53921237  1
  O  O16  1  0.24635354  0.45482109  0.50956059  1
  O  O17  1  0.47898756  0.34786545  0.14212925  1
  O  O18  1  0.52106456  0.65286228  0.85531883  1
  O  O19  1  0.75574341  0.54239645  0.49094662  1
  O  O20  1  0.51035585  0.81347935  0.45595747  1
  O  O21  1  0.97104958  0.84994514  0.64208259  1
  O  O22  1  0.99016410  0.68745319  0.04093857  1
  O  O23  1  0.74697006  0.95938204  0.01655585  1
