# generated using pymatgen
data_Li6MnFe5(BO3)6
_symmetry_space_group_name_H-M   'P 1'
_cell_length_a   8.24687822
_cell_length_b   8.83792596
_cell_length_c   6.27318913
_cell_angle_alpha   69.21258269
_cell_angle_beta   90.00000000
_cell_angle_gamma   62.12219134
_symmetry_Int_Tables_number   1
_chemical_formula_structural   Li6MnFe5(BO3)6
_chemical_formula_sum   'Li6 Mn1 Fe5 B6 O18'
_cell_volume   370.15513508
_cell_formula_units_Z   1
loop_
 _symmetry_equiv_pos_site_id
 _symmetry_equiv_pos_as_xyz
  1  'x, y, z'
loop_
 _atom_site_type_symbol
 _atom_site_label
 _atom_site_symmetry_multiplicity
 _atom_site_fract_x
 _atom_site_fract_y
 _atom_site_fract_z
 _atom_site_occupancy
  Li  Li0  1  0.71423233  0.98381763  0.75729054  1
  Li  Li1  1  0.71423233  0.98381763  0.25889183  1
  Li  Li2  1  0.98287206  0.30197788  0.59823015  1
  Li  Li3  1  0.98287206  0.30197788  0.09979197  1
  Li  Li4  1  0.30171498  0.71416625  0.89290359  1
  Li  Li5  1  0.30171498  0.71416625  0.39293116  1
  Mn  Mn6  1  0.35983440  0.01274570  0.99362665  1
  Fe  Fe7  1  0.63285705  0.35922505  0.82038697  1
  Fe  Fe8  1  0.63239092  0.36024070  0.31987965  1
  Fe  Fe9  1  0.35985687  0.00761855  0.49619073  1
  Fe  Fe10  1  0.00771608  0.63279686  0.18360157  1
  Fe  Fe11  1  0.00788722  0.63225197  0.68387402  1
  B  B12  1  0.66788275  0.66549481  0.41917918  1
  B  B13  1  0.66788275  0.66549481  0.91532601  1
  B  B14  1  0.33274564  0.33506277  0.58091788  1
  B  B15  1  0.33274564  0.33506277  0.08401935  1
  B  B16  1  0.99950270  0.99803327  0.00098336  1
  B  B17  1  0.00002733  0.99983825  0.50008087  1
  O  O18  1  0.89093522  0.91479664  0.54260118  1
  O  O19  1  0.88717384  0.91601487  0.04199306  1
  O  O20  1  0.86238013  0.57935715  0.96005727  1
  O  O21  1  0.86238013  0.57935715  0.46058558  1
  O  O22  1  0.91635550  0.19255130  0.90372435  1
  O  O23  1  0.91498964  0.19400019  0.40299991  1
  O  O24  1  0.55983926  0.85952243  0.32412918  1
  O  O25  1  0.55983926  0.85952243  0.81634839  1
  O  O26  1  0.58138023  0.55751087  0.97095193  1
  O  O27  1  0.58138023  0.55751087  0.47153719  1
  O  O28  1  0.52717800  0.25466827  0.62208509  1
  O  O29  1  0.52717800  0.25466827  0.12324664  1
  O  O30  1  0.19491669  0.89069010  0.55465445  1
  O  O31  1  0.19335749  0.88612531  0.05693734  1
  O  O32  1  0.21835982  0.52864197  0.48605143  1
  O  O33  1  0.21835982  0.52864197  0.98530659  1
  O  O34  1  0.25251231  0.22131608  0.63586557  1
  O  O35  1  0.25251231  0.22131608  0.14281935  1
