# generated using pymatgen
data_Li8Mn7Fe(BO3)8
_symmetry_space_group_name_H-M   'P 1'
_cell_length_a   12.12627546
_cell_length_b   5.25475412
_cell_length_c   8.29364130
_cell_angle_alpha   90.73619877
_cell_angle_beta   76.70124209
_cell_angle_gamma   89.34498140
_symmetry_Int_Tables_number   1
_chemical_formula_structural   Li8Mn7Fe(BO3)8
_chemical_formula_sum   'Li8 Mn7 Fe1 B8 O24'
_cell_volume   514.20541766
_cell_formula_units_Z   1
loop_
 _symmetry_equiv_pos_site_id
 _symmetry_equiv_pos_as_xyz
  1  'x, y, z'
loop_
 _atom_site_type_symbol
 _atom_site_label
 _atom_site_symmetry_multiplicity
 _atom_site_fract_x
 _atom_site_fract_y
 _atom_site_fract_z
 _atom_site_occupancy
  Li  Li0  1  0.02278814  0.65069691  0.28157178  1
  Li  Li1  1  0.22764788  0.84882562  0.21754048  1
  Li  Li2  1  0.27296222  0.15100155  0.78165256  1
  Li  Li3  1  0.52288434  0.65142741  0.28262540  1
  Li  Li4  1  0.47704484  0.35012345  0.71857959  1
  Li  Li5  1  0.72654799  0.84748640  0.22009770  1
  Li  Li6  1  0.77218185  0.15028850  0.78109598  1
  Li  Li7  1  0.97695865  0.34946647  0.71807179  1
  Mn  Mn8  1  0.09261844  0.83214639  0.58023784  1
  Mn  Mn9  1  0.15738055  0.66771755  0.91953487  1
  Mn  Mn10  1  0.34300944  0.33241004  0.08034962  1
  Mn  Mn11  1  0.40660553  0.16623161  0.41966438  1
  Mn  Mn12  1  0.65591426  0.66862026  0.91694495  1
  Mn  Mn13  1  0.84271055  0.33220632  0.07896624  1
  Mn  Mn14  1  0.90710551  0.16784461  0.41981315  1
  Fe  Fe15  1  0.59235760  0.83628333  0.57847337  1
  B  B16  1  0.08319671  0.16927588  0.09593100  1
  B  B17  1  0.16682832  0.33066477  0.40400375  1
  B  B18  1  0.33378659  0.66936475  0.59569383  1
  B  B19  1  0.41726078  0.83140699  0.90182970  1
  B  B20  1  0.58364006  0.16946913  0.09629909  1
  B  B21  1  0.66703407  0.32868042  0.40784325  1
  B  B22  1  0.83250461  0.67004401  0.59495660  1
  B  B23  1  0.91681380  0.83047631  0.90436189  1
  O  O24  1  0.08770778  0.91024215  0.12252619  1
  O  O25  1  0.00700598  0.68137977  0.81194730  1
  O  O26  1  0.08007905  0.21320464  0.51672729  1
  O  O27  1  0.16272715  0.58960829  0.37709943  1
  O  O28  1  0.25706278  0.18152841  0.31159807  1
  O  O29  1  0.33114798  0.71257401  0.01524704  1
  O  O30  1  0.17001865  0.28704085  0.98333748  1
  O  O31  1  0.24337701  0.81790032  0.68795463  1
  O  O32  1  0.33820756  0.41014946  0.62204370  1
  O  O33  1  0.42041558  0.78692027  0.48285807  1
  O  O34  1  0.49342659  0.31780056  0.18948067  1
  O  O35  1  0.41260431  0.09092365  0.87731280  1
  O  O36  1  0.58810038  0.91010263  0.12236302  1
  O  O37  1  0.50730906  0.68432961  0.80734758  1
  O  O38  1  0.58197934  0.20636504  0.52194299  1
  O  O39  1  0.66010463  0.58818431  0.38554081  1
  O  O40  1  0.75649295  0.18367230  0.31101701  1
  O  O41  1  0.83018686  0.71381069  0.01782774  1
  O  O42  1  0.66983694  0.28840310  0.98328919  1
  O  O43  1  0.74201696  0.81864126  0.68634150  1
  O  O44  1  0.83714375  0.41100005  0.62237732  1
  O  O45  1  0.91993091  0.78698287  0.48284688  1
  O  O46  1  0.99283435  0.31783654  0.18825162  1
  O  O47  1  0.91249970  0.08923956  0.87658588  1
