# generated using pymatgen
data_Li8Mn7Fe(BO3)8
_symmetry_space_group_name_H-M   'P 1'
_cell_length_a   7.96093982
_cell_length_b   8.07471369
_cell_length_c   8.30504492
_cell_angle_alpha   80.46777928
_cell_angle_beta   79.27179901
_cell_angle_gamma   81.66511397
_symmetry_Int_Tables_number   1
_chemical_formula_structural   Li8Mn7Fe(BO3)8
_chemical_formula_sum   'Li8 Mn7 Fe1 B8 O24'
_cell_volume   513.69265860
_cell_formula_units_Z   1
loop_
 _symmetry_equiv_pos_site_id
 _symmetry_equiv_pos_as_xyz
  1  'x, y, z'
loop_
 _atom_site_type_symbol
 _atom_site_label
 _atom_site_symmetry_multiplicity
 _atom_site_fract_x
 _atom_site_fract_y
 _atom_site_fract_z
 _atom_site_occupancy
  Li  Li0  1  0.30312942  0.15066441  0.22007899  1
  Li  Li1  1  0.19725161  0.34762980  0.78095391  1
  Li  Li2  1  0.69703501  0.34807459  0.28170638  1
  Li  Li3  1  0.19808505  0.84973845  0.28353660  1
  Li  Li4  1  0.80278578  0.15132475  0.71813947  1
  Li  Li5  1  0.30216226  0.65135941  0.71769544  1
  Li  Li6  1  0.80338910  0.65117248  0.21867750  1
  Li  Li7  1  0.69703601  0.84884887  0.78138916  1
  Mn  Mn8  1  0.67655266  0.00863826  0.08035782  1
  Mn  Mn9  1  0.17738839  0.50873662  0.07967408  1
  Mn  Mn10  1  0.32366637  0.49240580  0.41953714  1
  Mn  Mn11  1  0.67625839  0.50834669  0.58086065  1
  Mn  Mn12  1  0.82358341  0.49138605  0.91934311  1
  Mn  Mn13  1  0.32242990  0.99131902  0.91781965  1
  Mn  Mn14  1  0.82292197  0.98920343  0.41947513  1
  Fe  Fe15  1  0.17260366  0.01157535  0.58170223  1
  B  B16  1  0.00401805  0.33140758  0.40438544  1
  B  B17  1  0.49737642  0.16743584  0.59497839  1
  B  B18  1  0.50167680  0.33173878  0.90389376  1
  B  B19  1  0.00186429  0.83292611  0.90156280  1
  B  B20  1  0.99883439  0.16783857  0.09635945  1
  B  B21  1  0.49857681  0.66858255  0.09594965  1
  B  B22  1  0.49970296  0.83251370  0.40611606  1
  B  B23  1  0.99842868  0.66805269  0.59607538  1
  O  O24  1  0.13290764  0.04275133  0.12243125  1
  O  O25  1  0.16777578  0.34830397  0.31069247  1
  O  O26  1  0.47336375  0.18669323  0.01706505  1
  O  O27  1  0.02628806  0.31340644  0.98364103  1
  O  O28  1  0.33237003  0.15095900  0.68685990  1
  O  O29  1  0.63245765  0.04346321  0.62223998  1
  O  O30  1  0.13190118  0.54260038  0.62292930  1
  O  O31  1  0.52570331  0.31327921  0.48293023  1
  O  O32  1  0.02636557  0.81286815  0.48270135  1
  O  O33  1  0.83383083  0.15176692  0.18924494  1
  O  O34  1  0.33361050  0.65283211  0.18819990  1
  O  O35  1  0.36799600  0.45689907  0.87635554  1
  O  O36  1  0.63297652  0.54378947  0.12281714  1
  O  O37  1  0.66704175  0.34730510  0.81194033  1
  O  O38  1  0.16594706  0.84917495  0.80657923  1
  O  O39  1  0.97940317  0.18564444  0.51877101  1
  O  O40  1  0.47338756  0.68566851  0.51737421  1
  O  O41  1  0.86809110  0.45409804  0.37867702  1
  O  O42  1  0.36555580  0.95758153  0.38295179  1
  O  O43  1  0.66446877  0.84814128  0.31185426  1
  O  O44  1  0.97544890  0.68783962  0.01560471  1
  O  O45  1  0.52598285  0.81377203  0.98254912  1
  O  O46  1  0.83304968  0.65254845  0.68828143  1
  O  O47  1  0.86731914  0.95769576  0.87703963  1
