# generated using pymatgen
data_Li8Mn5Fe3(BO3)8
_symmetry_space_group_name_H-M   'P 1'
_cell_length_a   6.06155023
_cell_length_b   9.80697955
_cell_length_c   9.72430430
_cell_angle_alpha   65.02311500
_cell_angle_beta   78.19838440
_cell_angle_gamma   79.50366235
_symmetry_Int_Tables_number   1
_chemical_formula_structural   Li8Mn5Fe3(BO3)8
_chemical_formula_sum   'Li8 Mn5 Fe3 B8 O24'
_cell_volume   509.92871662
_cell_formula_units_Z   1
loop_
 _symmetry_equiv_pos_site_id
 _symmetry_equiv_pos_as_xyz
  1  'x, y, z'
loop_
 _atom_site_type_symbol
 _atom_site_label
 _atom_site_symmetry_multiplicity
 _atom_site_fract_x
 _atom_site_fract_y
 _atom_site_fract_z
 _atom_site_occupancy
  Li  Li0  1  0.95380854  0.18411410  0.53286578  1
  Li  Li1  1  0.95388701  0.68420815  0.03328982  1
  Li  Li2  1  0.54552049  0.81266328  0.96694905  1
  Li  Li3  1  0.45375886  0.68405761  0.53281249  1
  Li  Li4  1  0.54638842  0.31415988  0.46672051  1
  Li  Li5  1  0.45591685  0.18509683  0.03467085  1
  Li  Li6  1  0.04600901  0.31531380  0.96691446  1
  Li  Li7  1  0.04653686  0.81393317  0.46617832  1
  Mn  Mn8  1  0.68790766  0.37592648  0.70624271  1
  Mn  Mn9  1  0.68815447  0.87441174  0.20835382  1
  Mn  Mn10  1  0.18717486  0.87294972  0.70667423  1
  Mn  Mn11  1  0.31436542  0.12627063  0.79431687  1
  Mn  Mn12  1  0.18854623  0.37487707  0.20772846  1
  Fe  Fe13  1  0.81549489  0.62884941  0.78972488  1
  Fe  Fe14  1  0.81514921  0.12940892  0.29059359  1
  Fe  Fe15  1  0.31458187  0.62932667  0.29042337  1
  B  B16  1  0.66613875  0.96072887  0.63180424  1
  B  B17  1  0.83192975  0.03711735  0.86730409  1
  B  B18  1  0.83428200  0.53798499  0.36701279  1
  B  B19  1  0.66499404  0.46223486  0.13272326  1
  B  B20  1  0.33397595  0.53806814  0.86758598  1
  B  B21  1  0.16693299  0.46399669  0.63185213  1
  B  B22  1  0.16392165  0.96225331  0.13526728  1
  B  B23  1  0.33394837  0.03833917  0.36712234  1
  O  O24  1  0.82149103  0.89450755  0.98428558  1
  O  O25  1  0.98703494  0.43880297  0.75437543  1
  O  O26  1  0.98411007  0.93783127  0.25672238  1
  O  O27  1  0.83565433  0.84255499  0.63612386  1
  O  O28  1  0.82521270  0.39440835  0.48322450  1
  O  O29  1  0.48646537  0.93518833  0.75392501  1
  O  O30  1  0.83217407  0.34296080  0.13714329  1
  O  O31  1  0.66060292  0.15324045  0.86423297  1
  O  O32  1  0.66136832  0.65261040  0.36501296  1
  O  O33  1  0.51529155  0.56646497  0.74680400  1
  O  O34  1  0.67864355  0.10171639  0.51409417  1
  O  O35  1  0.67895887  0.60247234  0.01325384  1
  O  O36  1  0.32429531  0.39474647  0.98408287  1
  O  O37  1  0.32397994  0.89475390  0.48314112  1
  O  O38  1  0.48586321  0.43925190  0.25500886  1
  O  O39  1  0.33801777  0.34737097  0.63568344  1
  O  O40  1  0.33154458  0.84389620  0.13742957  1
  O  O41  1  0.16043051  0.65241738  0.86552026  1
  O  O42  1  0.51584000  0.06603778  0.24678912  1
  O  O43  1  0.17658222  0.60469707  0.51269576  1
  O  O44  1  0.16121321  0.15315967  0.36480781  1
  O  O45  1  0.01349799  0.06422732  0.74646309  1
  O  O46  1  0.01562732  0.56606007  0.24614000  1
  O  O47  1  0.17677607  0.10432961  0.01791080  1
