# generated using pymatgen
data_V4(OF3)3
_symmetry_space_group_name_H-M   'P 1'
_cell_length_a   5.22456130
_cell_length_b   5.43446476
_cell_length_c   17.48534482
_cell_angle_alpha   90.94809572
_cell_angle_beta   99.21640345
_cell_angle_gamma   60.80214252
_symmetry_Int_Tables_number   1
_chemical_formula_structural   V4(OF3)3
_chemical_formula_sum   'V8 O6 F18'
_cell_volume   426.68779336
_cell_formula_units_Z   2
loop_
 _symmetry_equiv_pos_site_id
 _symmetry_equiv_pos_as_xyz
  1  'x, y, z'
loop_
 _atom_site_type_symbol
 _atom_site_label
 _atom_site_symmetry_multiplicity
 _atom_site_fract_x
 _atom_site_fract_y
 _atom_site_fract_z
 _atom_site_occupancy
  V  V0  1  0.71913262  0.64313535  0.11894907  1
  V  V1  1  0.77065315  0.11954922  0.62528778  1
  V  V2  1  0.44836543  0.27907547  0.24771355  1
  V  V3  1  0.48154017  0.76235815  0.74817724  1
  V  V4  1  0.21526395  0.90376700  0.37951662  1
  V  V5  1  0.27583754  0.36310094  0.88160393  1
  V  V6  1  0.99749403  0.00264630  0.99986703  1
  V  V7  1  0.99627266  0.47724868  0.50518443  1
  O  O8  1  0.92757422  0.32906752  0.57806078  1
  O  O9  1  0.42304927  0.79222650  0.04601090  1
  O  O10  1  0.56993667  0.21333662  0.95460249  1
  O  O11  1  0.08784858  0.45973324  0.20737989  1
  O  O12  1  0.11813520  0.94676354  0.70822944  1
  O  O13  1  0.04825942  0.17755747  0.43409474  1
  F  F14  1  0.91554720  0.84571116  0.08738458  1
  F  F15  1  0.96854844  0.32364258  0.06180777  1
  F  F16  1  0.97882353  0.80327345  0.56008051  1
  F  F17  1  0.53520941  0.93256349  0.19189017  1
  F  F18  1  0.90075861  0.04781802  0.28896349  1
  F  F19  1  0.92396142  0.53897186  0.79302623  1
  F  F20  1  0.59016593  0.40472250  0.16588828  1
  F  F21  1  0.60586901  0.89704071  0.66466388  1
  F  F22  1  0.57724682  0.70722388  0.45888681  1
  F  F23  1  0.44978423  0.57097137  0.31525433  1
  F  F24  1  0.54926726  0.42719216  0.69078983  1
  F  F25  1  0.42059587  0.07981826  0.33526885  1
  F  F26  1  0.42708339  0.28641065  0.53786923  1
  F  F27  1  0.42075318  0.59560164  0.83798298  1
  F  F28  1  0.07300025  0.66132676  0.41614181  1
  F  F29  1  0.47798290  0.06914031  0.81021849  1
  F  F30  1  0.02448533  0.68208947  0.93745444  1
  F  F31  1  0.08155434  0.15691773  0.91174843  1
