# generated using pymatgen
data_Li4Mn3Fe(BO3)4
_symmetry_space_group_name_H-M   'P 1'
_cell_length_a   9.38823305
_cell_length_b   5.24338887
_cell_length_c   6.23634770
_cell_angle_alpha   65.33751581
_cell_angle_beta   80.29649468
_cell_angle_gamma   105.04746069
_symmetry_Int_Tables_number   1
_chemical_formula_structural   Li4Mn3Fe(BO3)4
_chemical_formula_sum   'Li4 Mn3 Fe1 B4 O12'
_cell_volume   255.66218543
_cell_formula_units_Z   1
loop_
 _symmetry_equiv_pos_site_id
 _symmetry_equiv_pos_as_xyz
  1  'x, y, z'
loop_
 _atom_site_type_symbol
 _atom_site_label
 _atom_site_symmetry_multiplicity
 _atom_site_fract_x
 _atom_site_fract_y
 _atom_site_fract_z
 _atom_site_occupancy
  Li  Li0  1  0.11656630  0.62901200  0.55578749  1
  Li  Li1  1  0.61802848  0.63188530  0.05279670  1
  Li  Li2  1  0.38252253  0.36856757  0.94569966  1
  Li  Li3  1  0.88149961  0.36684005  0.44814123  1
  Mn  Mn4  1  0.19728330  0.74735175  0.03691451  1
  Mn  Mn5  1  0.30309936  0.25278017  0.46257551  1
  Mn  Mn6  1  0.69727211  0.74817293  0.53290732  1
  Fe  Fe7  1  0.80150845  0.25870356  0.96349684  1
  B  B8  1  0.03444510  0.07368352  0.22596259  1
  B  B9  1  0.46652039  0.92956449  0.26983819  1
  B  B10  1  0.53573242  0.07326840  0.72771949  1
  B  B11  1  0.96433678  0.92414247  0.77618306  1
  O  O12  1  0.02487360  0.78638663  0.27260421  1
  O  O13  1  0.17848682  0.30207192  0.14548323  1
  O  O14  1  0.10177250  0.87104775  0.72374859  1
  O  O15  1  0.32287695  0.69848186  0.35421771  1
  O  O16  1  0.47535234  0.21449838  0.22756023  1
  O  O17  1  0.60392227  0.87466079  0.21811927  1
  O  O18  1  0.39908984  0.13124307  0.77519853  1
  O  O19  1  0.52619111  0.78703513  0.77141983  1
  O  O20  1  0.67912907  0.30265474  0.64616388  1
  O  O21  1  0.89816782  0.13266573  0.27237930  1
  O  O22  1  0.82177844  0.68881763  0.85998783  1
  O  O23  1  0.96954340  0.20646614  0.73509478  1
