# generated using pymatgen
data_Li2MnFe(BO3)2
_symmetry_space_group_name_H-M   'P 1'
_cell_length_a   6.04555019
_cell_length_b   5.26394720
_cell_length_c   8.97667311
_cell_angle_alpha   90.93429420
_cell_angle_beta   102.46488360
_cell_angle_gamma   113.81802099
_symmetry_Int_Tables_number   1
_chemical_formula_structural   Li2MnFe(BO3)2
_chemical_formula_sum   'Li4 Mn2 Fe2 B4 O12'
_cell_volume   253.46129874
_cell_formula_units_Z   2
loop_
 _symmetry_equiv_pos_site_id
 _symmetry_equiv_pos_as_xyz
  1  'x, y, z'
loop_
 _atom_site_type_symbol
 _atom_site_label
 _atom_site_symmetry_multiplicity
 _atom_site_fract_x
 _atom_site_fract_y
 _atom_site_fract_z
 _atom_site_occupancy
  Li  Li0  1  0.67503217  0.40535648  0.03409256  1
  Li  Li1  1  0.66897752  0.90180049  0.53265526  1
  Li  Li2  1  0.33102248  0.09819951  0.46734474  1
  Li  Li3  1  0.32496783  0.59464352  0.96590744  1
  Mn  Mn4  1  0.76999384  0.95761114  0.20865168  1
  Mn  Mn5  1  0.23000616  0.04238886  0.79134832  1
  Fe  Fe6  1  0.76377849  0.44956870  0.70873473  1
  Fe  Fe7  1  0.23622151  0.55043130  0.29126527  1
  B  B8  1  0.74039381  0.44484980  0.36872819  1
  B  B9  1  0.26193689  0.06019605  0.13465475  1
  B  B10  1  0.73806311  0.93980395  0.86534525  1
  B  B11  1  0.25960619  0.55515020  0.63127181  1
  O  O12  1  0.82805779  0.37996191  0.24702365  1
  O  O13  1  0.70747879  0.27699472  0.48604912  1
  O  O14  1  0.68516240  0.17445780  0.86264885  1
  O  O15  1  0.67575854  0.67043587  0.36524743  1
  O  O16  1  0.82130186  0.86770346  0.74372256  1
  O  O17  1  0.29895744  0.22538830  0.01639152  1
  O  O18  1  0.70104256  0.77461170  0.98360848  1
  O  O19  1  0.17869814  0.13229654  0.25627744  1
  O  O20  1  0.32424146  0.32956413  0.63475257  1
  O  O21  1  0.31483760  0.82554220  0.13735115  1
  O  O22  1  0.29252121  0.72300528  0.51395088  1
  O  O23  1  0.17194221  0.62003809  0.75297635  1
