# generated using pymatgen
data_Li8Mn7Fe(BO3)8
_symmetry_space_group_name_H-M   'P 1'
_cell_length_a   6.06556572
_cell_length_b   10.50096896
_cell_length_c   8.30142478
_cell_angle_alpha   90.86111222
_cell_angle_beta   76.52876744
_cell_angle_gamma   89.33588818
_symmetry_Int_Tables_number   1
_chemical_formula_structural   Li8Mn7Fe(BO3)8
_chemical_formula_sum   'Li8 Mn7 Fe1 B8 O24'
_cell_volume   514.08598950
_cell_formula_units_Z   1
loop_
 _symmetry_equiv_pos_site_id
 _symmetry_equiv_pos_as_xyz
  1  'x, y, z'
loop_
 _atom_site_type_symbol
 _atom_site_label
 _atom_site_symmetry_multiplicity
 _atom_site_fract_x
 _atom_site_fract_y
 _atom_site_fract_z
 _atom_site_occupancy
  Li  Li0  1  0.04566437  0.32515625  0.28170488  1
  Li  Li1  1  0.04746026  0.82553884  0.28314795  1
  Li  Li2  1  0.45299571  0.42466336  0.21898938  1
  Li  Li3  1  0.45406561  0.92380684  0.21858490  1
  Li  Li4  1  0.54569726  0.07482347  0.78138805  1
  Li  Li5  1  0.54618649  0.57541120  0.78167836  1
  Li  Li6  1  0.95354140  0.17452276  0.71872469  1
  Li  Li7  1  0.95327487  0.67539582  0.71757769  1
  Mn  Mn8  1  0.18516716  0.41653719  0.58065779  1
  Mn  Mn9  1  0.31445876  0.33346930  0.92003939  1
  Mn  Mn10  1  0.31229723  0.83376070  0.91706458  1
  Mn  Mn11  1  0.68624386  0.16638413  0.07942440  1
  Mn  Mn12  1  0.68575684  0.66655190  0.07969464  1
  Mn  Mn13  1  0.81299436  0.08225454  0.41965367  1
  Mn  Mn14  1  0.81418047  0.58394147  0.42009944  1
  Fe  Fe15  1  0.18550790  0.91928573  0.57849551  1
  B  B16  1  0.16686084  0.08434825  0.09627043  1
  B  B17  1  0.16661267  0.58491968  0.09620419  1
  B  B18  1  0.33501072  0.16409276  0.40487749  1
  B  B19  1  0.33268859  0.66604234  0.40601611  1
  B  B20  1  0.66679842  0.33455668  0.59585989  1
  B  B21  1  0.66547139  0.83507789  0.59534639  1
  B  B22  1  0.83360837  0.41532539  0.90392970  1
  B  B23  1  0.83462555  0.91537159  0.90178837  1
  O  O24  1  0.17476842  0.45528649  0.12322558  1
  O  O25  1  0.17547129  0.95475810  0.12261493  1
  O  O26  1  0.01422638  0.34026491  0.81207034  1
  O  O27  1  0.01532496  0.84167613  0.80731786  1
  O  O28  1  0.16397604  0.10448402  0.52023408  1
  O  O29  1  0.15852861  0.60630823  0.51705402  1
  O  O30  1  0.32312297  0.29342336  0.37826647  1
  O  O31  1  0.32366907  0.79601516  0.38318702  1
  O  O32  1  0.51498909  0.09021683  0.31087330  1
  O  O33  1  0.51299332  0.59194627  0.31178225  1
  O  O34  1  0.65925387  0.35701000  0.01683421  1
  O  O35  1  0.34054809  0.14320408  0.98357686  1
  O  O36  1  0.66203601  0.85657579  0.01558810  1
  O  O37  1  0.34044027  0.64359615  0.98341881  1
  O  O38  1  0.48574809  0.40907946  0.68817748  1
  O  O39  1  0.48398451  0.90978362  0.68628120  1
  O  O40  1  0.67581764  0.20497181  0.62247579  1
  O  O41  1  0.67347730  0.70554360  0.62316632  1
  O  O42  1  0.84036912  0.39335330  0.48316823  1
  O  O43  1  0.84097884  0.89293228  0.48314093  1
  O  O44  1  0.98591184  0.15891758  0.18897219  1
  O  O45  1  0.98575330  0.65955638  0.18842007  1
  O  O46  1  0.82554313  0.04510440  0.87638173  1
  O  O47  1  0.82589772  0.54475097  0.87655432  1
