# generated using pymatgen
data_Li32Mn13Cr3O48
_symmetry_space_group_name_H-M   'P 1'
_cell_length_a   5.00637976
_cell_length_b   8.66910987
_cell_length_c   19.45740545
_cell_angle_alpha   98.23337960
_cell_angle_beta   94.77973459
_cell_angle_gamma   89.94457185
_symmetry_Int_Tables_number   1
_chemical_formula_structural   Li32Mn13Cr3O48
_chemical_formula_sum   'Li32 Mn13 Cr3 O48'
_cell_volume   832.80616186
_cell_formula_units_Z   1
loop_
 _symmetry_equiv_pos_site_id
 _symmetry_equiv_pos_as_xyz
  1  'x, y, z'
loop_
 _atom_site_type_symbol
 _atom_site_label
 _atom_site_symmetry_multiplicity
 _atom_site_fract_x
 _atom_site_fract_y
 _atom_site_fract_z
 _atom_site_occupancy
  Li  Li0  1  0.99269407  0.16813782  0.24973948  1
  Li  Li1  1  0.87571785  0.37566172  0.37524238  1
  Li  Li2  1  0.74978234  0.25008745  0.00026610  1
  Li  Li3  1  0.74570457  0.92056273  0.00066250  1
  Li  Li4  1  0.99250732  0.16820932  0.74965463  1
  Li  Li5  1  0.75586539  0.58050197  0.49907662  1
  Li  Li6  1  0.87433983  0.37451518  0.87476917  1
  Li  Li7  1  0.74646590  0.24935329  0.49959863  1
  Li  Li8  1  0.74271170  0.91991391  0.50072746  1
  Li  Li9  1  0.62480500  0.12506724  0.12505420  1
  Li  Li10  1  0.75658826  0.57982382  0.00042797  1
  Li  Li11  1  0.50775787  0.33269803  0.25057398  1
  Li  Li12  1  0.62441701  0.12566146  0.62504038  1
  Li  Li13  1  0.50171201  0.99906292  0.25044155  1
  Li  Li14  1  0.49364584  0.66820692  0.24990817  1
  Li  Li15  1  0.51105412  0.33162186  0.75078926  1
  Li  Li16  1  0.37927639  0.87573480  0.37466937  1
  Li  Li17  1  0.49922600  0.00100947  0.74965820  1
  Li  Li18  1  0.25005690  0.75056669  0.00020814  1
  Li  Li19  1  0.49172636  0.66720072  0.74985160  1
  Li  Li20  1  0.24473033  0.41995543  0.00033204  1
  Li  Li21  1  0.37194813  0.87557945  0.87528159  1
  Li  Li22  1  0.25628910  0.08130628  0.49980625  1
  Li  Li23  1  0.25209247  0.74810521  0.49973773  1
  Li  Li24  1  0.12492376  0.62509976  0.12505505  1
  Li  Li25  1  0.24545686  0.41973792  0.49932553  1
  Li  Li26  1  0.00523245  0.83274234  0.24996021  1
  Li  Li27  1  0.25436905  0.07951928  0.99962571  1
  Li  Li28  1  0.12457929  0.62713355  0.62480365  1
  Li  Li29  1  0.99852340  0.49893010  0.24959467  1
  Li  Li30  1  0.00925978  0.83135327  0.74994849  1
  Li  Li31  1  0.99721626  0.49997295  0.75041581  1
  Mn  Mn32  1  0.87378310  0.04157934  0.37436495  1
  Mn  Mn33  1  0.87742916  0.04278084  0.87588157  1
  Mn  Mn34  1  0.62578290  0.79151094  0.12517099  1
  Mn  Mn35  1  0.62446666  0.45854333  0.12520664  1
  Mn  Mn36  1  0.62597238  0.79128311  0.62487114  1
  Mn  Mn37  1  0.62416614  0.45907453  0.62470709  1
  Mn  Mn38  1  0.37706507  0.54128865  0.37537040  1
  Mn  Mn39  1  0.37332821  0.20857666  0.37492015  1
  Mn  Mn40  1  0.37288615  0.53990908  0.87425336  1
  Mn  Mn41  1  0.37501476  0.20839907  0.87503894  1
  Mn  Mn42  1  0.12476534  0.95856841  0.12508800  1
  Mn  Mn43  1  0.12586992  0.29150552  0.12514188  1
  Mn  Mn44  1  0.12525358  0.95760608  0.62499599  1
  Cr  Cr45  1  0.88164697  0.71029525  0.37484280  1
  Cr  Cr46  1  0.86755689  0.70928392  0.87535199  1
  Cr  Cr47  1  0.12576827  0.29545020  0.62484939  1
  O  O48  1  0.96366101  0.10677724  0.06903903  1
  O  O49  1  0.92787162  0.78499320  0.06893278  1
  O  O50  1  0.92741129  0.42755536  0.06800066  1
  O  O51  1  0.96770842  0.10602932  0.56919266  1
  O  O52  1  0.82245570  0.96496484  0.18074817  1
  O  O53  1  0.82270556  0.32243711  0.18181057  1
  O  O54  1  0.92777860  0.78481031  0.56918412  1
  O  O55  1  0.92751653  0.42541788  0.56844019  1
  O  O56  1  0.78624703  0.64336397  0.18092145  1
  O  O57  1  0.71094560  0.86115567  0.31785102  1
  O  O58  1  0.82238220  0.96484543  0.68093922  1
  O  O59  1  0.81738331  0.32383295  0.68259647  1
  O  O60  1  0.67512567  0.53532871  0.31891902  1
  O  O61  1  0.67659998  0.17879829  0.31808068  1
  O  O62  1  0.78704643  0.64326062  0.68094622  1
  O  O63  1  0.72065801  0.85585907  0.81918189  1
  O  O64  1  0.46383760  0.60651924  0.06896985  1
  O  O65  1  0.56928400  0.71388936  0.43125978  1
  O  O66  1  0.57166736  0.07231045  0.43203928  1
  O  O67  1  0.67342393  0.53259818  0.81841920  1
  O  O68  1  0.67714238  0.17738855  0.81808132  1
  O  O69  1  0.42788933  0.92744324  0.06808873  1
  O  O70  1  0.42811435  0.28519153  0.06903206  1
  O  O71  1  0.53854638  0.39222817  0.43118827  1
  O  O72  1  0.46293777  0.60663472  0.56933082  1
  O  O73  1  0.57251557  0.71293176  0.93073007  1
  O  O74  1  0.57259270  0.07230800  0.93173336  1
  O  O75  1  0.32251017  0.82256205  0.18174876  1
  O  O76  1  0.32209178  0.46473149  0.18084462  1
  O  O77  1  0.42770857  0.92737232  0.56833090  1
  O  O78  1  0.43366574  0.28609500  0.56835390  1
  O  O79  1  0.53594959  0.39305951  0.93074048  1
  O  O80  1  0.28611626  0.14330792  0.18087801  1
  O  O81  1  0.21323868  0.35561933  0.31911608  1
  O  O82  1  0.32293679  0.82164894  0.68197496  1
  O  O83  1  0.32103205  0.46167587  0.68067034  1
  O  O84  1  0.17568461  0.67523184  0.31799682  1
  O  O85  1  0.17758430  0.03504501  0.31908458  1
  O  O86  1  0.28418909  0.14223264  0.68092030  1
  O  O87  1  0.21162655  0.35561744  0.81871525  1
  O  O88  1  0.07759001  0.56963164  0.43324464  1
  O  O89  1  0.07216010  0.21508691  0.43119255  1
  O  O90  1  0.17912874  0.67675657  0.81772197  1
  O  O91  1  0.17865128  0.03490845  0.81913433  1
  O  O92  1  0.03170364  0.89374941  0.43098156  1
  O  O93  1  0.07336159  0.57468849  0.93166231  1
  O  O94  1  0.07227770  0.21609335  0.93085789  1
  O  O95  1  0.03791233  0.89732383  0.93186708  1
