# generated using pymatgen
data_Li8Mn7Fe(BO3)8
_symmetry_space_group_name_H-M   'P 1'
_cell_length_a   6.06050715
_cell_length_b   5.28298252
_cell_length_c   17.71057316
_cell_angle_alpha   98.55113127
_cell_angle_beta   83.21340924
_cell_angle_gamma   113.42423818
_symmetry_Int_Tables_number   1
_chemical_formula_structural   Li8Mn7Fe(BO3)8
_chemical_formula_sum   'Li8 Mn7 Fe1 B8 O24'
_cell_volume   513.44156586
_cell_formula_units_Z   1
loop_
 _symmetry_equiv_pos_site_id
 _symmetry_equiv_pos_as_xyz
  1  'x, y, z'
loop_
 _atom_site_type_symbol
 _atom_site_label
 _atom_site_symmetry_multiplicity
 _atom_site_fract_x
 _atom_site_fract_y
 _atom_site_fract_z
 _atom_site_occupancy
  Li  Li0  1  0.90524077  0.90252677  0.76701709  1
  Li  Li1  1  0.59466444  0.09723803  0.73289099  1
  Li  Li2  1  0.84490246  0.59754345  0.48269758  1
  Li  Li3  1  0.65658186  0.40326947  0.01746731  1
  Li  Li4  1  0.34419375  0.59627385  0.98358911  1
  Li  Li5  1  0.15540965  0.40271862  0.51693273  1
  Li  Li6  1  0.40332504  0.90049609  0.26630945  1
  Li  Li7  1  0.09479396  0.09616319  0.23301377  1
  Mn  Mn8  1  0.91199185  0.45299645  0.85303623  1
  Mn  Mn9  1  0.83732462  0.04665866  0.39691927  1
  Mn  Mn10  1  0.33814143  0.04623774  0.89667081  1
  Mn  Mn11  1  0.58794171  0.54653078  0.64675783  1
  Mn  Mn12  1  0.41234280  0.45298735  0.35294892  1
  Mn  Mn13  1  0.66700789  0.95683513  0.10431645  1
  Mn  Mn14  1  0.16171586  0.95314132  0.60311482  1
  Fe  Fe15  1  0.09077599  0.55140322  0.14540139  1
  B  B16  1  0.69613404  0.05955533  0.56635330  1
  B  B17  1  0.94611883  0.55737923  0.31542055  1
  B  B18  1  0.80314172  0.94061011  0.93393473  1
  B  B19  1  0.44614353  0.55926448  0.81633589  1
  B  B20  1  0.55535149  0.44194031  0.18360162  1
  B  B21  1  0.19431318  0.06084685  0.06720619  1
  B  B22  1  0.05373297  0.44045941  0.68367696  1
  B  B23  1  0.30367259  0.94053604  0.43364159  1
  O  O24  1  0.96118222  0.27044392  0.74155147  1
  O  O25  1  0.74361184  0.16885012  0.93275564  1
  O  O26  1  0.99338501  0.66830978  0.68284750  1
  O  O27  1  0.95169210  0.87692968  0.87376393  1
  O  O28  1  0.78875059  0.22964357  0.50851352  1
  O  O29  1  0.70994223  0.77217305  0.99211244  1
  O  O30  1  0.54741235  0.12217952  0.62665295  1
  O  O31  1  0.79948009  0.62362031  0.37590447  1
  O  O32  1  0.50645126  0.33131355  0.81720077  1
  O  O33  1  0.75652182  0.83163829  0.56718024  1
  O  O34  1  0.70488208  0.37892204  0.12370199  1
  O  O35  1  0.53855460  0.72946170  0.75854356  1
  O  O36  1  0.46126170  0.27084038  0.24124367  1
  O  O37  1  0.29775384  0.62201622  0.87679645  1
  O  O38  1  0.24405292  0.16883129  0.43277472  1
  O  O39  1  0.49473226  0.66923566  0.18250876  1
  O  O40  1  0.20242126  0.37771907  0.62339257  1
  O  O41  1  0.45170901  0.87700828  0.37323669  1
  O  O42  1  0.28993111  0.22642562  0.00865693  1
  O  O43  1  0.21127308  0.77069998  0.49155762  1
  O  O44  1  0.05100804  0.13247742  0.12752527  1
  O  O45  1  0.00610102  0.32961469  0.31718434  1
  O  O46  1  0.24556094  0.82536827  0.06856870  1
  O  O47  1  0.03736720  0.72266773  0.25657022  1
