# generated using pymatgen
data_Li6MnFe5(BO3)6
_symmetry_space_group_name_H-M   'P 1'
_cell_length_a   8.25404816
_cell_length_b   8.25265589
_cell_length_c   12.56644075
_cell_angle_alpha   90.00000000
_cell_angle_beta   90.00000000
_cell_angle_gamma   120.07321021
_symmetry_Int_Tables_number   1
_chemical_formula_structural   Li6MnFe5(BO3)6
_chemical_formula_sum   'Li12 Mn2 Fe10 B12 O36'
_cell_volume   740.76899473
_cell_formula_units_Z   2
loop_
 _symmetry_equiv_pos_site_id
 _symmetry_equiv_pos_as_xyz
  1  'x, y, z'
loop_
 _atom_site_type_symbol
 _atom_site_label
 _atom_site_symmetry_multiplicity
 _atom_site_fract_x
 _atom_site_fract_y
 _atom_site_fract_z
 _atom_site_occupancy
  Li  Li0  1  0.28392330  0.98262965  0.12500000  1
  Li  Li1  1  0.28478295  0.98321333  0.87459570  1
  Li  Li2  1  0.28545101  0.98379483  0.62500000  1
  Li  Li3  1  0.28478295  0.98321333  0.37540430  1
  Li  Li4  1  0.01586680  0.30134161  0.12500000  1
  Li  Li5  1  0.01603484  0.30118793  0.37518529  1
  Li  Li6  1  0.01594951  0.30135049  0.62500000  1
  Li  Li7  1  0.01603484  0.30118793  0.87481471  1
  Li  Li8  1  0.69875346  0.71455161  0.37561655  1
  Li  Li9  1  0.69836162  0.71485074  0.62500000  1
  Li  Li10  1  0.69806466  0.71374303  0.12500000  1
  Li  Li11  1  0.69875346  0.71455161  0.87438345  1
  Mn  Mn12  1  0.37242301  0.36058523  0.99818790  1
  Mn  Mn13  1  0.37242301  0.36058523  0.25181210  1
  Fe  Fe14  1  0.36825776  0.36074863  0.50123737  1
  Fe  Fe15  1  0.36825776  0.36074863  0.74876263  1
  Fe  Fe16  1  0.63988874  0.00777393  0.49993774  1
  Fe  Fe17  1  0.64054033  0.00752134  0.00014520  1
  Fe  Fe18  1  0.64054033  0.00752134  0.24985480  1
  Fe  Fe19  1  0.63988874  0.00777393  0.75006226  1
  Fe  Fe20  1  0.99242080  0.63223362  0.50009894  1
  Fe  Fe21  1  0.99248149  0.63323775  0.99989062  1
  Fe  Fe22  1  0.99248149  0.63323775  0.25010938  1
  Fe  Fe23  1  0.99242080  0.63223362  0.74990106  1
  B  B24  1  0.99763886  0.99945909  0.99984438  1
  B  B25  1  0.99763886  0.99945909  0.25015562  1
  B  B26  1  0.00010888  0.00004671  0.50024457  1
  B  B27  1  0.00010888  0.00004671  0.74975543  1
  B  B28  1  0.33346048  0.66794769  0.87332338  1
  B  B29  1  0.33327580  0.66866272  0.12500000  1
  B  B30  1  0.33346048  0.66794769  0.37667662  1
  B  B31  1  0.33306779  0.66700502  0.62500000  1
  B  B32  1  0.66828957  0.33222845  0.12500000  1
  B  B33  1  0.66782705  0.33263323  0.37607832  1
  B  B34  1  0.66664379  0.33343786  0.62500000  1
  B  B35  1  0.66782705  0.33263323  0.87392168  1
  O  O36  1  0.10885724  0.91623324  0.25024214  1
  O  O37  1  0.10885724  0.91623324  0.99975786  1
  O  O38  1  0.10906930  0.91476211  0.50018381  1
  O  O39  1  0.10906930  0.91476211  0.74981619  1
  O  O40  1  0.13896868  0.58117237  0.87494126  1
  O  O41  1  0.13863641  0.58215935  0.12500000  1
  O  O42  1  0.13896868  0.58117237  0.37505874  1
  O  O43  1  0.13830135  0.58046428  0.62500000  1
  O  O44  1  0.07977964  0.19305702  0.99975594  1
  O  O45  1  0.08570839  0.19461076  0.50064090  1
  O  O46  1  0.08570839  0.19461076  0.74935910  1
  O  O47  1  0.07977964  0.19305702  0.25024406  1
  O  O48  1  0.44174764  0.86225321  0.87483771  1
  O  O49  1  0.44164699  0.86161763  0.62500000  1
  O  O50  1  0.44156978  0.86321592  0.12500000  1
  O  O51  1  0.44174764  0.86225321  0.37516229  1
  O  O52  1  0.41980238  0.56013359  0.87114353  1
  O  O53  1  0.41904708  0.56075828  0.12500000  1
  O  O54  1  0.41924056  0.55880780  0.62500000  1
  O  O55  1  0.41980238  0.56013359  0.37885647  1
  O  O56  1  0.47419132  0.25176014  0.12500000  1
  O  O57  1  0.47273466  0.25466053  0.62500000  1
  O  O58  1  0.47390360  0.25300109  0.37754271  1
  O  O59  1  0.47390360  0.25300109  0.87245729  1
  O  O60  1  0.80338117  0.88706199  0.99983498  1
  O  O61  1  0.80338117  0.88706199  0.25016502  1
  O  O62  1  0.80561691  0.89081259  0.50015006  1
  O  O63  1  0.80561691  0.89081259  0.74984994  1
  O  O64  1  0.78189270  0.52646630  0.12500000  1
  O  O65  1  0.78195753  0.52671748  0.37517922  1
  O  O66  1  0.78188407  0.52733191  0.62500000  1
  O  O67  1  0.78195753  0.52671748  0.87482078  1
  O  O68  1  0.74645352  0.21790519  0.37499122  1
  O  O69  1  0.74722374  0.21776164  0.12500000  1
  O  O70  1  0.74501114  0.21822537  0.62500000  1
  O  O71  1  0.74645352  0.21790519  0.87500878  1
