# generated using pymatgen
data_Li32Mn13Cr3O48
_symmetry_space_group_name_H-M   'P 1'
_cell_length_a   5.00142859
_cell_length_b   8.67823186
_cell_length_c   19.47028169
_cell_angle_alpha   98.34593683
_cell_angle_beta   94.77266579
_cell_angle_gamma   89.90202813
_symmetry_Int_Tables_number   1
_chemical_formula_structural   Li32Mn13Cr3O48
_chemical_formula_sum   'Li32 Mn13 Cr3 O48'
_cell_volume   833.18466247
_cell_formula_units_Z   1
loop_
 _symmetry_equiv_pos_site_id
 _symmetry_equiv_pos_as_xyz
  1  'x, y, z'
loop_
 _atom_site_type_symbol
 _atom_site_label
 _atom_site_symmetry_multiplicity
 _atom_site_fract_x
 _atom_site_fract_y
 _atom_site_fract_z
 _atom_site_occupancy
  Li  Li0  1  0.99158093  0.16830542  0.24941362  1
  Li  Li1  1  0.87533574  0.37443515  0.37513352  1
  Li  Li2  1  0.74941216  0.24979267  0.00007815  1
  Li  Li3  1  0.74366335  0.91998817  0.00052283  1
  Li  Li4  1  0.99449857  0.16761453  0.74970268  1
  Li  Li5  1  0.75586689  0.57967244  0.49992243  1
  Li  Li6  1  0.87557015  0.37561069  0.87518596  1
  Li  Li7  1  0.74985588  0.25146232  0.49984997  1
  Li  Li8  1  0.74415328  0.91921008  0.50053537  1
  Li  Li9  1  0.62476959  0.12511267  0.12500489  1
  Li  Li10  1  0.75530403  0.58041940  0.99972002  1
  Li  Li11  1  0.50715861  0.33163807  0.25042321  1
  Li  Li12  1  0.62217801  0.12468676  0.62519525  1
  Li  Li13  1  0.50036873  0.00047651  0.24994590  1
  Li  Li14  1  0.49401055  0.66824162  0.24987194  1
  Li  Li15  1  0.50569799  0.33218791  0.75031267  1
  Li  Li16  1  0.37680659  0.87423071  0.37484634  1
  Li  Li17  1  0.49833078  0.00016053  0.74984730  1
  Li  Li18  1  0.24946880  0.74973506  0.00001662  1
  Li  Li19  1  0.49421847  0.66790565  0.74991087  1
  Li  Li20  1  0.24459602  0.41914834  0.00016767  1
  Li  Li21  1  0.37702034  0.87458351  0.87487165  1
  Li  Li22  1  0.25724320  0.08152035  0.49928361  1
  Li  Li23  1  0.24950492  0.74980862  0.49998634  1
  Li  Li24  1  0.12480652  0.62503017  0.12498678  1
  Li  Li25  1  0.24329839  0.41840616  0.50003199  1
  Li  Li26  1  0.00605470  0.83150213  0.24994681  1
  Li  Li27  1  0.25700606  0.08102327  0.99985351  1
  Li  Li28  1  0.12443696  0.62441235  0.62480812  1
  Li  Li29  1  0.00010070  0.49996948  0.24991174  1
  Li  Li30  1  0.00627391  0.83186332  0.75030859  1
  Li  Li31  1  0.00111834  0.50057552  0.75030738  1
  Mn  Mn32  1  0.87324151  0.70696286  0.37450291  1
  Mn  Mn33  1  0.87326574  0.70767737  0.87437549  1
  Mn  Mn34  1  0.62554004  0.79134477  0.12501024  1
  Mn  Mn35  1  0.62472291  0.45848506  0.12500165  1
  Mn  Mn36  1  0.62623878  0.79146414  0.62500799  1
  Mn  Mn37  1  0.62339421  0.45962096  0.62439050  1
  Mn  Mn38  1  0.37493748  0.54173295  0.37507569  1
  Mn  Mn39  1  0.37564398  0.21013482  0.37556670  1
  Mn  Mn40  1  0.37476390  0.54158503  0.87499462  1
  Mn  Mn41  1  0.37580739  0.20968134  0.87557686  1
  Mn  Mn42  1  0.12463054  0.95843421  0.12494969  1
  Mn  Mn43  1  0.12563171  0.29153148  0.12494479  1
  Mn  Mn44  1  0.12650950  0.95746751  0.62564814  1
  Cr  Cr45  1  0.88004918  0.03976051  0.37500080  1
  Cr  Cr46  1  0.88067468  0.04163142  0.87483852  1
  Cr  Cr47  1  0.12032073  0.28991778  0.62505065  1
  O  O48  1  0.96373249  0.10640247  0.06895183  1
  O  O49  1  0.92811581  0.78504346  0.06902003  1
  O  O50  1  0.92752428  0.42738543  0.06811357  1
  O  O51  1  0.96782345  0.10688052  0.56901869  1
  O  O52  1  0.82206612  0.96503514  0.18113941  1
  O  O53  1  0.82261862  0.32261514  0.18202168  1
  O  O54  1  0.92813466  0.78503172  0.56894701  1
  O  O55  1  0.92307358  0.42949843  0.56734856  1
  O  O56  1  0.78661233  0.64340487  0.18100555  1
  O  O57  1  0.71196014  0.85337442  0.31856426  1
  O  O58  1  0.82222149  0.96535023  0.68094735  1
  O  O59  1  0.82547458  0.32424408  0.68183277  1
  O  O60  1  0.67798663  0.53445307  0.31901825  1
  O  O61  1  0.67556688  0.17708551  0.31789989  1
  O  O62  1  0.78670612  0.64371172  0.68081185  1
  O  O63  1  0.71229747  0.85349625  0.81827159  1
  O  O64  1  0.46369839  0.60651621  0.06903322  1
  O  O65  1  0.57139796  0.71516779  0.43107096  1
  O  O66  1  0.57262369  0.07386249  0.43211061  1
  O  O67  1  0.67804308  0.53408690  0.81888439  1
  O  O68  1  0.67682581  0.17583394  0.81796700  1
  O  O69  1  0.42758383  0.92724981  0.06806553  1
  O  O70  1  0.42839008  0.28521804  0.06915352  1
  O  O71  1  0.53699969  0.39426317  0.43095414  1
  O  O72  1  0.46235989  0.60729029  0.56888477  1
  O  O73  1  0.57113258  0.71492319  0.93097966  1
  O  O74  1  0.56929264  0.07344212  0.93236088  1
  O  O75  1  0.32242057  0.82273441  0.18202853  1
  O  O76  1  0.32194505  0.46499114  0.18112002  1
  O  O77  1  0.42834985  0.92758295  0.56793541  1
  O  O78  1  0.42870459  0.28591195  0.56913506  1
  O  O79  1  0.53762608  0.39425124  0.93109287  1
  O  O80  1  0.28624707  0.14342168  0.18101243  1
  O  O81  1  0.21294892  0.35707827  0.31906043  1
  O  O82  1  0.32249966  0.82166719  0.68179475  1
  O  O83  1  0.32329904  0.46402100  0.68106225  1
  O  O84  1  0.17738867  0.67771599  0.31810965  1
  O  O85  1  0.17525424  0.03689668  0.31905886  1
  O  O86  1  0.28861233  0.14008969  0.68162694  1
  O  O87  1  0.21286918  0.35682727  0.81890052  1
  O  O88  1  0.07264736  0.57241829  0.43191786  1
  O  O89  1  0.07557943  0.21728283  0.43166106  1
  O  O90  1  0.17744431  0.67749083  0.81799781  1
  O  O91  1  0.17879436  0.03637883  0.81887836  1
  O  O92  1  0.03321594  0.89338701  0.43112543  1
  O  O93  1  0.07258919  0.57249722  0.93193156  1
  O  O94  1  0.07508894  0.21651570  0.93139917  1
  O  O95  1  0.03112947  0.89381760  0.93093705  1
