# generated using pymatgen
data_Mg14AlCr
_symmetry_space_group_name_H-M   'P 1'
_cell_length_a   6.26619628
_cell_length_b   6.25645934
_cell_length_c   10.28677842
_cell_angle_alpha   90.00000000
_cell_angle_beta   90.00000000
_cell_angle_gamma   119.94861645
_symmetry_Int_Tables_number   1
_chemical_formula_structural   Mg14AlCr
_chemical_formula_sum   'Mg14 Al1 Cr1'
_cell_volume   349.43569924
_cell_formula_units_Z   1
loop_
 _symmetry_equiv_pos_site_id
 _symmetry_equiv_pos_as_xyz
  1  'x, y, z'
loop_
 _atom_site_type_symbol
 _atom_site_label
 _atom_site_symmetry_multiplicity
 _atom_site_fract_x
 _atom_site_fract_y
 _atom_site_fract_z
 _atom_site_occupancy
  Mg  Mg0  1  0.16734908  0.33367404  0.62500000  1
  Mg  Mg1  1  0.16765583  0.83382742  0.62500000  1
  Mg  Mg2  1  0.66858299  0.33525369  0.12500000  1
  Mg  Mg3  1  0.66581370  0.33266383  0.62500000  1
  Mg  Mg4  1  0.66858299  0.83332830  0.12500000  1
  Mg  Mg5  1  0.66581370  0.83314887  0.62500000  1
  Mg  Mg6  1  0.32915406  0.16435730  0.36653677  1
  Mg  Mg7  1  0.32915406  0.16435730  0.88346323  1
  Mg  Mg8  1  0.32915406  0.66479776  0.36653677  1
  Mg  Mg9  1  0.32915406  0.66479776  0.88346323  1
  Mg  Mg10  1  0.83713701  0.16856900  0.37207841  1
  Mg  Mg11  1  0.83713701  0.16856900  0.87792159  1
  Mg  Mg12  1  0.83734955  0.66867528  0.37183246  1
  Mg  Mg13  1  0.83734955  0.66867528  0.87816754  1
  Al  Al14  1  0.16549121  0.33274510  0.12500000  1
  Cr  Cr15  1  0.16512115  0.83256008  0.12500000  1
