# generated using pymatgen
data_Li8Mn7Fe(BO3)8
_symmetry_space_group_name_H-M   'P 1'
_cell_length_a   6.05659667
_cell_length_b   9.16355590
_cell_length_c   9.76193749
_cell_angle_alpha   98.02773438
_cell_angle_beta   78.32829285
_cell_angle_gamma   103.62339698
_symmetry_Int_Tables_number   1
_chemical_formula_structural   Li8Mn7Fe(BO3)8
_chemical_formula_sum   'Li8 Mn7 Fe1 B8 O24'
_cell_volume   513.24169334
_cell_formula_units_Z   1
loop_
 _symmetry_equiv_pos_site_id
 _symmetry_equiv_pos_as_xyz
  1  'x, y, z'
loop_
 _atom_site_type_symbol
 _atom_site_label
 _atom_site_symmetry_multiplicity
 _atom_site_fract_x
 _atom_site_fract_y
 _atom_site_fract_z
 _atom_site_occupancy
  Li  Li0  1  0.79717807  0.68435130  0.87663472  1
  Li  Li1  1  0.70342495  0.31640061  0.62465697  1
  Li  Li2  1  0.95321968  0.81408016  0.37318947  1
  Li  Li3  1  0.54716830  0.18446278  0.12595825  1
  Li  Li4  1  0.45337371  0.81520745  0.87379965  1
  Li  Li5  1  0.04647948  0.18466402  0.62644321  1
  Li  Li6  1  0.29572397  0.68399350  0.37478472  1
  Li  Li7  1  0.20460364  0.31551785  0.12377950  1
  Mn  Mn8  1  0.87627674  0.37587743  0.89515745  1
  Mn  Mn9  1  0.87701163  0.12600640  0.35755798  1
  Mn  Mn10  1  0.37819796  0.12656517  0.85633192  1
  Mn  Mn11  1  0.62640497  0.62630633  0.60738914  1
  Mn  Mn12  1  0.37365721  0.37395074  0.39274126  1
  Mn  Mn13  1  0.62386151  0.87274269  0.14364846  1
  Mn  Mn14  1  0.12294649  0.87358510  0.64292048  1
  Fe  Fe15  1  0.12943161  0.62957173  0.10643002  1
  B  B16  1  0.85157168  0.03713672  0.88588366  1
  B  B17  1  0.89876638  0.46263107  0.36234403  1
  B  B18  1  0.39758552  0.46468009  0.86606718  1
  B  B19  1  0.64828084  0.96320805  0.61413654  1
  B  B20  1  0.35146540  0.03643110  0.38555052  1
  B  B21  1  0.60262038  0.53745187  0.13613857  1
  B  B22  1  0.10122043  0.53654454  0.63573360  1
  B  B23  1  0.14623499  0.96127922  0.11383541  1
  O  O24  1  0.73659669  0.15299552  0.94067130  1
  O  O25  1  0.98505090  0.65193785  0.69086655  1
  O  O26  1  0.72779662  0.10629284  0.56991811  1
  O  O27  1  0.97893147  0.60415583  0.31492133  1
  O  O28  1  0.77031179  0.89430435  0.93107377  1
  O  O29  1  0.70545161  0.43630346  0.46998869  1
  O  O30  1  0.95320778  0.93502043  0.22115739  1
  O  O31  1  0.51136109  0.34863439  0.80990715  1
  O  O32  1  0.76454793  0.84794092  0.55849475  1
  O  O33  1  0.54579234  0.06405144  0.27901867  1
  O  O34  1  0.79830014  0.56647437  0.03093905  1
  O  O35  1  0.47854525  0.60709374  0.81991026  1
  O  O36  1  0.52201671  0.39392406  0.18000091  1
  O  O37  1  0.20490693  0.43878390  0.97380998  1
  O  O38  1  0.45392254  0.93478632  0.72046453  1
  O  O39  1  0.23618817  0.15197583  0.44102553  1
  O  O40  1  0.48473247  0.65187153  0.19134484  1
  O  O41  1  0.04626017  0.06447358  0.77967766  1
  O  O42  1  0.29559305  0.56473185  0.52926896  1
  O  O43  1  0.23003591  0.10391650  0.06887585  1
  O  O44  1  0.02138727  0.39405378  0.68119737  1
  O  O45  1  0.27101474  0.89334805  0.43020728  1
  O  O46  1  0.01430093  0.34670668  0.30853897  1
  O  O47  1  0.25703894  0.84357891  0.05760742  1
