# generated using pymatgen
data_Ba4Hf3O10
_symmetry_space_group_name_H-M   'P 1'
_cell_length_a   5.93499656
_cell_length_b   15.50927085
_cell_length_c   30.44162772
_cell_angle_alpha   11.06770836
_cell_angle_beta   89.99999484
_cell_angle_gamma   89.99995772
_symmetry_Int_Tables_number   1
_chemical_formula_structural   Ba4Hf3O10
_chemical_formula_sum   'Ba8 Hf6 O20'
_cell_volume   537.91116966
_cell_formula_units_Z   2
loop_
 _symmetry_equiv_pos_site_id
 _symmetry_equiv_pos_as_xyz
  1  'x, y, z'
loop_
 _atom_site_type_symbol
 _atom_site_label
 _atom_site_symmetry_multiplicity
 _atom_site_fract_x
 _atom_site_fract_y
 _atom_site_fract_z
 _atom_site_occupancy
  Ba  Ba0  1  -0.00000291  0.00001908  0.56878076  1
  Ba  Ba1  1  0.00000116  0.99999415  0.29632615  1
  Ba  Ba2  1  0.00000082  0.99999429  0.70360135  1
  Ba  Ba3  1  0.00000007  0.00001960  0.43118987  1
  Ba  Ba4  1  0.50000264  0.00000483  0.79632088  1
  Ba  Ba5  1  0.49999737  0.99997767  0.06879137  1
  Ba  Ba6  1  0.50000343  0.00000534  0.20359206  1
  Ba  Ba7  1  0.49999958  0.99998375  0.93120675  1
  Hf  Hf8  1  0.99998412  0.00001912  0.99998557  1
  Hf  Hf9  1  0.99999665  -0.00000233  0.13908860  1
  Hf  Hf10  1  0.99999664  0.99999708  0.86088465  1
  Hf  Hf11  1  0.49999690  0.00000252  0.36087879  1
  Hf  Hf12  1  0.49998378  0.99998122  0.50000066  1
  Hf  Hf13  1  0.49999683  0.00000325  0.63908427  1
  O  O14  1  0.00000245  0.00004136  0.06906113  1
  O  O15  1  -0.00000069  0.99995567  0.20765066  1
  O  O16  1  0.00000041  0.99995483  0.79235506  1
  O  O17  1  0.00000223  0.00004293  0.93089878  1
  O  O18  1  0.22954789  0.54066480  0.72967168  1
  O  O19  1  0.23915895  0.47846930  0.12237883  1
  O  O20  1  0.23916610  0.47849717  0.39913312  1
  O  O21  1  0.26077591  0.47855560  0.89912742  1
  O  O22  1  0.26079049  0.47853962  0.62232038  1
  O  O23  1  0.27023974  0.54043357  0.22978680  1
  O  O24  1  0.50000187  0.99995868  0.56910092  1
  O  O25  1  0.50000035  0.00004433  0.29230588  1
  O  O26  1  0.50000090  0.00004498  0.70760675  1
  O  O27  1  0.50000291  0.99995809  0.43093940  1
  O  O28  1  0.72954528  0.45933772  0.77033473  1
  O  O29  1  0.73917021  0.52150407  0.37762933  1
  O  O30  1  0.73915433  0.52152380  0.10085116  1
  O  O31  1  0.76077836  0.52144002  0.87768473  1
  O  O32  1  0.76078595  0.52146734  0.60085547  1
  O  O33  1  0.77023727  0.45956655  0.27022102  1
