# generated using pymatgen
data_Li4Mn3Fe(BO3)4
_symmetry_space_group_name_H-M   'P 1'
_cell_length_a   6.03984769
_cell_length_b   5.23196641
_cell_length_c   16.25224510
_cell_angle_alpha   91.06939570
_cell_angle_beta   97.88654424
_cell_angle_gamma   89.35619468
_symmetry_Int_Tables_number   1
_chemical_formula_structural   Li4Mn3Fe(BO3)4
_chemical_formula_sum   'Li8 Mn6 Fe2 B8 O24'
_cell_volume   508.60983497
_cell_formula_units_Z   2
loop_
 _symmetry_equiv_pos_site_id
 _symmetry_equiv_pos_as_xyz
  1  'x, y, z'
loop_
 _atom_site_type_symbol
 _atom_site_label
 _atom_site_symmetry_multiplicity
 _atom_site_fract_x
 _atom_site_fract_y
 _atom_site_fract_z
 _atom_site_occupancy
  Li  Li0  1  0.06212605  0.84945249  0.61011558  1
  Li  Li1  1  0.43610363  0.15037375  0.89008185  1
  Li  Li2  1  0.18702214  0.65041369  0.14052188  1
  Li  Li3  1  0.31267810  0.34798184  0.36040955  1
  Li  Li4  1  0.68695663  0.65083225  0.64137777  1
  Li  Li5  1  0.81284439  0.35035839  0.85807977  1
  Li  Li6  1  0.56313187  0.84878917  0.10857357  1
  Li  Li7  1  0.93856461  0.15089106  0.39183134  1
  Mn  Mn8  1  0.27278207  0.66739446  0.95886880  1
  Mn  Mn9  1  0.02474302  0.16706315  0.21008445  1
  Mn  Mn10  1  0.52285323  0.16705495  0.70900437  1
  Mn  Mn11  1  0.47562798  0.83273745  0.28954285  1
  Mn  Mn12  1  0.77335593  0.66574864  0.46013864  1
  Mn  Mn13  1  0.72441404  0.33258985  0.03974649  1
  Fe  Fe14  1  0.22563741  0.33888253  0.53971265  1
  Fe  Fe15  1  0.97546430  0.82922554  0.78882817  1
  B  B16  1  0.03562113  0.32907423  0.70258403  1
  B  B17  1  0.28718316  0.82952483  0.45354281  1
  B  B18  1  0.46424118  0.67036939  0.79751670  1
  B  B19  1  0.21479108  0.16970538  0.04779395  1
  B  B20  1  0.78503997  0.83181964  0.95094185  1
  B  B21  1  0.53525288  0.33014599  0.20204537  1
  B  B22  1  0.71408647  0.17006277  0.54781539  1
  B  B23  1  0.96557099  0.66918995  0.29833557  1
  O  O24  1  0.01587160  0.59113647  0.69164706  1
  O  O25  1  0.16670203  0.18663427  0.65360657  1
  O  O26  1  0.17357554  0.70749550  0.51100438  1
  O  O27  1  0.33305351  0.28694300  0.99139759  1
  O  O28  1  0.08326574  0.78580234  0.24165795  1
  O  O29  1  0.32717702  0.81911813  0.84289816  1
  O  O30  1  0.07942208  0.31943095  0.09386169  1
  O  O31  1  0.26307174  0.08942883  0.44179180  1
  O  O32  1  0.48591909  0.41077142  0.81091549  1
  O  O33  1  0.23615621  0.90995874  0.06131015  1
  O  O34  1  0.41937356  0.68210003  0.40590441  1
  O  O35  1  0.41715175  0.21448017  0.25897338  1
  O  O36  1  0.58246761  0.78808047  0.74124640  1
  O  O37  1  0.57760525  0.32009899  0.59326348  1
  O  O38  1  0.76364644  0.09191864  0.93779725  1
  O  O39  1  0.51458973  0.58967503  0.18798830  1
  O  O40  1  0.73629456  0.91001994  0.56172355  1
  O  O41  1  0.91844580  0.68283042  0.90418827  1
  O  O42  1  0.67011017  0.17922711  0.15632373  1
  O  O43  1  0.92160260  0.20630918  0.75911458  1
  O  O44  1  0.66898337  0.71338860  0.00789879  1
  O  O45  1  0.83249183  0.28632357  0.49137343  1
  O  O46  1  0.83052311  0.81953573  0.34444081  1
  O  O47  1  0.98640740  0.40961206  0.31218041  1
