# generated using pymatgen
data_Li6MnFe5(BO3)6
_symmetry_space_group_name_H-M   'P 1'
_cell_length_a   8.24169302
_cell_length_b   14.29532031
_cell_length_c   3.13699281
_cell_angle_alpha   90.00000000
_cell_angle_beta   90.00000000
_cell_angle_gamma   90.06228949
_symmetry_Int_Tables_number   1
_chemical_formula_structural   Li6MnFe5(BO3)6
_chemical_formula_sum   'Li6 Mn1 Fe5 B6 O18'
_cell_volume   369.59287641
_cell_formula_units_Z   1
loop_
 _symmetry_equiv_pos_site_id
 _symmetry_equiv_pos_as_xyz
  1  'x, y, z'
loop_
 _atom_site_type_symbol
 _atom_site_label
 _atom_site_symmetry_multiplicity
 _atom_site_fract_x
 _atom_site_fract_y
 _atom_site_fract_z
 _atom_site_occupancy
  Li  Li0  1  0.29371070  0.99242054  0.50000000  1
  Li  Li1  1  0.33999243  0.35805534  0.50000000  1
  Li  Li2  1  0.36487237  0.64983624  0.50000000  1
  Li  Li3  1  0.79336507  0.49203349  0.50000000  1
  Li  Li4  1  0.84308321  0.85623569  0.50000000  1
  Li  Li5  1  0.86712052  0.15148320  0.50000000  1
  Mn  Mn6  1  0.63347126  0.00575804  0.00000000  1
  Fe  Fe7  1  0.13557843  0.50415755  0.00000000  1
  Fe  Fe8  1  0.17657412  0.81624173  0.00000000  1
  Fe  Fe9  1  0.18670218  0.17993699  0.00000000  1
  Fe  Fe10  1  0.67620632  0.31635655  0.00000000  1
  Fe  Fe11  1  0.68764465  0.67978389  0.00000000  1
  B  B12  1  0.00024422  0.66655518  0.50000000  1
  B  B13  1  0.00113023  0.99896714  0.00000000  1
  B  B14  1  0.99987769  0.33342096  0.50000000  1
  B  B15  1  0.49904900  0.16865000  0.50000000  1
  B  B16  1  0.49985258  0.49974384  0.00000000  1
  B  B17  1  0.49919039  0.83213007  0.50000000  1
  O  O18  1  0.01110100  0.43048753  0.50000000  1
  O  O19  1  0.01887666  0.76319292  0.50000000  1
  O  O20  1  0.13619857  0.60871463  0.50000000  1
  O  O21  1  0.13951977  0.27933736  0.50000000  1
  O  O22  1  0.15441658  0.95776188  0.00000000  1
  O  O23  1  0.34589520  0.12796937  0.50000000  1
  O  O24  1  0.34875445  0.78844065  0.50000000  1
  O  O25  1  0.35976212  0.44550546  0.00000000  1
  O  O26  1  0.48800839  0.59679891  0.00000000  1
  O  O27  1  0.50867626  0.92885118  0.50000000  1
  O  O28  1  0.51668393  0.26541313  0.50000000  1
  O  O29  1  0.63731371  0.11211338  0.50000000  1
  O  O30  1  0.64041115  0.77886837  0.50000000  1
  O  O31  1  0.65143430  0.45735246  0.00000000  1
  O  O32  1  0.84531454  0.62717797  0.50000000  1
  O  O33  1  0.84873926  0.29065030  0.50000000  1
  O  O34  1  0.86347160  0.94333665  0.00000000  1
  O  O35  1  0.98775715  0.09626143  0.00000000  1
