# generated using pymatgen
data_Li8Mn5Fe3(BO3)8
_symmetry_space_group_name_H-M   'P 1'
_cell_length_a   6.07072813
_cell_length_b   9.82842454
_cell_length_c   9.72061100
_cell_angle_alpha   64.90888373
_cell_angle_beta   78.03171188
_cell_angle_gamma   79.48340221
_symmetry_Int_Tables_number   1
_chemical_formula_structural   Li8Mn5Fe3(BO3)8
_chemical_formula_sum   'Li8 Mn5 Fe3 B8 O24'
_cell_volume   510.90188784
_cell_formula_units_Z   1
loop_
 _symmetry_equiv_pos_site_id
 _symmetry_equiv_pos_as_xyz
  1  'x, y, z'
loop_
 _atom_site_type_symbol
 _atom_site_label
 _atom_site_symmetry_multiplicity
 _atom_site_fract_x
 _atom_site_fract_y
 _atom_site_fract_z
 _atom_site_occupancy
  Li  Li0  1  0.95330273  0.18416587  0.53230991  1
  Li  Li1  1  0.95274706  0.68529379  0.03330528  1
  Li  Li2  1  0.54767339  0.81443131  0.96789063  1
  Li  Li3  1  0.45489717  0.68492240  0.53390955  1
  Li  Li4  1  0.54574798  0.31364380  0.46590164  1
  Li  Li5  1  0.45418042  0.18425774  0.03396075  1
  Li  Li6  1  0.04566839  0.31579935  0.96681812  1
  Li  Li7  1  0.04629234  0.81560930  0.46636023  1
  Mn  Mn8  1  0.68674845  0.37531181  0.70778684  1
  Mn  Mn9  1  0.18714318  0.87291407  0.70746943  1
  Mn  Mn10  1  0.31359558  0.12640902  0.79412315  1
  Mn  Mn11  1  0.31417524  0.62730556  0.29290379  1
  Mn  Mn12  1  0.18589026  0.37293796  0.20648288  1
  Fe  Fe13  1  0.81503321  0.62949090  0.79031522  1
  Fe  Fe14  1  0.68760635  0.87253714  0.21136252  1
  Fe  Fe15  1  0.81404692  0.12426483  0.28809449  1
  B  B16  1  0.66584104  0.96183014  0.63165081  1
  B  B17  1  0.83202000  0.03687552  0.86890662  1
  B  B18  1  0.83438439  0.53897392  0.36550647  1
  B  B19  1  0.66597151  0.46061025  0.13278061  1
  B  B20  1  0.33492380  0.53787145  0.86707788  1
  B  B21  1  0.16546077  0.46426089  0.63394991  1
  B  B22  1  0.16450243  0.96390711  0.13327361  1
  B  B23  1  0.33545306  0.03626313  0.36676667  1
  O  O24  1  0.82222132  0.89558028  0.98838411  1
  O  O25  1  0.98473958  0.43748382  0.75577095  1
  O  O26  1  0.98367390  0.93612003  0.25586526  1
  O  O27  1  0.83676065  0.84364132  0.63635886  1
  O  O28  1  0.82105168  0.39722285  0.48221571  1
  O  O29  1  0.48663751  0.93574897  0.75374079  1
  O  O30  1  0.83618873  0.34220823  0.13934468  1
  O  O31  1  0.65929295  0.15246938  0.86452933  1
  O  O32  1  0.66444676  0.65745958  0.36133606  1
  O  O33  1  0.51633046  0.56751213  0.74607950  1
  O  O34  1  0.67900851  0.10255514  0.51282077  1
  O  O35  1  0.67995402  0.60127187  0.01395256  1
  O  O36  1  0.32588733  0.39438271  0.98252300  1
  O  O37  1  0.32561407  0.89377556  0.48349607  1
  O  O38  1  0.48544562  0.43599866  0.25384392  1
  O  O39  1  0.33695325  0.34873689  0.63552077  1
  O  O40  1  0.33725838  0.84875916  0.13484716  1
  O  O41  1  0.15993844  0.65160952  0.86563723  1
  O  O42  1  0.51621575  0.06407159  0.24445074  1
  O  O43  1  0.17535878  0.60659680  0.51665459  1
  O  O44  1  0.16345338  0.15160295  0.36456990  1
  O  O45  1  0.01233092  0.06364603  0.74704299  1
  O  O46  1  0.01531792  0.56531043  0.24482179  1
  O  O47  1  0.17261343  0.10634684  0.01728924  1
