# generated using pymatgen
data_Li8Mn5Fe3(BO3)8
_symmetry_space_group_name_H-M   'P 1'
_cell_length_a   6.03024155
_cell_length_b   5.23084414
_cell_length_c   16.20807173
_cell_angle_alpha   90.79713769
_cell_angle_beta   97.99712073
_cell_angle_gamma   89.35763114
_symmetry_Int_Tables_number   1
_chemical_formula_structural   Li8Mn5Fe3(BO3)8
_chemical_formula_sum   'Li8 Mn5 Fe3 B8 O24'
_cell_volume   506.21218040
_cell_formula_units_Z   1
loop_
 _symmetry_equiv_pos_site_id
 _symmetry_equiv_pos_as_xyz
  1  'x, y, z'
loop_
 _atom_site_type_symbol
 _atom_site_label
 _atom_site_symmetry_multiplicity
 _atom_site_fract_x
 _atom_site_fract_y
 _atom_site_fract_z
 _atom_site_occupancy
  Li  Li0  1  0.06448761  0.85025271  0.61127088  1
  Li  Li1  1  0.43533775  0.15035438  0.88885233  1
  Li  Li2  1  0.18667645  0.65035127  0.14043944  1
  Li  Li3  1  0.31312944  0.34870211  0.36061970  1
  Li  Li4  1  0.68719150  0.64936625  0.64231354  1
  Li  Li5  1  0.81279689  0.34888579  0.85755421  1
  Li  Li6  1  0.56346790  0.84894385  0.10842081  1
  Li  Li7  1  0.93613090  0.15150200  0.39205741  1
  Mn  Mn8  1  0.27221560  0.66888026  0.95868025  1
  Mn  Mn9  1  0.02478401  0.16814921  0.21021720  1
  Mn  Mn10  1  0.47571700  0.83162634  0.28953225  1
  Mn  Mn11  1  0.77526933  0.66695621  0.46062063  1
  Mn  Mn12  1  0.72416190  0.33173608  0.03948703  1
  Fe  Fe13  1  0.22584806  0.33295050  0.53934185  1
  Fe  Fe14  1  0.52149842  0.17254028  0.70782205  1
  Fe  Fe15  1  0.97122193  0.83831387  0.79018281  1
  B  B16  1  0.03877776  0.33113491  0.70281615  1
  B  B17  1  0.28713079  0.82742041  0.45443430  1
  B  B18  1  0.46236008  0.67213314  0.79565587  1
  B  B19  1  0.21470838  0.16962195  0.04748719  1
  B  B20  1  0.78435879  0.83189367  0.95042897  1
  B  B21  1  0.53542147  0.33048087  0.20214766  1
  B  B22  1  0.71484157  0.16718553  0.54872817  1
  B  B23  1  0.96557789  0.66894675  0.29834289  1
  O  O24  1  0.01283934  0.59039458  0.69143564  1
  O  O25  1  0.17099521  0.18530153  0.65447605  1
  O  O26  1  0.17238811  0.70537441  0.51142328  1
  O  O27  1  0.33310163  0.28642299  0.99083094  1
  O  O28  1  0.08379269  0.78494883  0.24155793  1
  O  O29  1  0.32677115  0.81694218  0.84263855  1
  O  O30  1  0.08026937  0.31993195  0.09360459  1
  O  O31  1  0.26379464  0.08820694  0.44295577  1
  O  O32  1  0.48606289  0.40971467  0.80792938  1
  O  O33  1  0.23546985  0.91004811  0.06131283  1
  O  O34  1  0.41832432  0.68249457  0.40614725  1
  O  O35  1  0.41668513  0.21521894  0.25921928  1
  O  O36  1  0.58219222  0.79503482  0.74086365  1
  O  O37  1  0.57942815  0.31428715  0.59537510  1
  O  O38  1  0.76391717  0.09196118  0.93770368  1
  O  O39  1  0.51519444  0.58979545  0.18795723  1
  O  O40  1  0.73742617  0.90760853  0.56182980  1
  O  O41  1  0.91688381  0.68336818  0.90304492  1
  O  O42  1  0.66933758  0.17914590  0.15638537  1
  O  O43  1  0.92535089  0.20622147  0.75956987  1
  O  O44  1  0.66883700  0.71397837  0.00773804  1
  O  O45  1  0.83059721  0.28595155  0.49182613  1
  O  O46  1  0.83141634  0.82000796  0.34433356  1
  O  O47  1  0.98581528  0.40931142  0.31238754  1
