# generated using pymatgen
data_VOF2
_symmetry_space_group_name_H-M   'P 1'
_cell_length_a   5.20338803
_cell_length_b   13.38555073
_cell_length_c   5.22621466
_cell_angle_alpha   89.03314865
_cell_angle_beta   119.85561922
_cell_angle_gamma   90.00000098
_symmetry_Int_Tables_number   1
_chemical_formula_structural   VOF2
_chemical_formula_sum   'V6 O6 F12'
_cell_volume   315.63716011
_cell_formula_units_Z   6
loop_
 _symmetry_equiv_pos_site_id
 _symmetry_equiv_pos_as_xyz
  1  'x, y, z'
loop_
 _atom_site_type_symbol
 _atom_site_label
 _atom_site_symmetry_multiplicity
 _atom_site_fract_x
 _atom_site_fract_y
 _atom_site_fract_z
 _atom_site_occupancy
  V  V0  1  0.00553598  0.49314290  0.02024548  1
  V  V1  1  0.01470850  0.99314290  0.02024548  1
  V  V2  1  0.64250715  0.82709893  0.35663146  1
  V  V3  1  0.30526955  0.65937618  0.67349492  1
  V  V4  1  0.71412431  0.32709893  0.35663146  1
  V  V5  1  0.36822537  0.15937618  0.67349492  1
  O  O6  1  0.31325656  0.91940219  0.23736357  1
  O  O7  1  0.00142709  0.25207506  0.57252612  1
  O  O8  1  0.09342331  0.58420499  0.75269370  1
  O  O9  1  0.57109904  0.75207506  0.57252612  1
  O  O10  1  0.92410700  0.41940219  0.23736357  1
  O  O11  1  0.65927039  0.08420499  0.75269370  1
  F  F12  1  0.98943010  0.75081762  0.39812621  1
  F  F13  1  0.39503258  0.75517856  0.98664848  1
  F  F14  1  0.34558632  0.41525347  0.07671135  1
  F  F15  1  0.06698285  0.08345162  0.33767165  1
  F  F16  1  0.27068881  0.58345162  0.33767165  1
  F  F17  1  0.59161490  0.25517856  0.98664848  1
  F  F18  1  0.73112403  0.91525347  0.07671135  1
  F  F19  1  0.40869610  0.25081762  0.39812621  1
  F  F20  1  0.25106041  0.08988118  0.93154460  1
  F  F21  1  0.74087691  0.42011629  0.65634347  1
  F  F22  1  0.91546756  0.92011629  0.65634347  1
  F  F23  1  0.68048319  0.58988118  0.93154460  1
