# generated using pymatgen
data_Li8Mn7Fe(BO3)8
_symmetry_space_group_name_H-M   'P 1'
_cell_length_a   6.04356614
_cell_length_b   17.87925058
_cell_length_c   5.18579493
_cell_angle_alpha   97.15146052
_cell_angle_beta   113.15435351
_cell_angle_gamma   84.17320666
_symmetry_Int_Tables_number   1
_chemical_formula_structural   Li8Mn7Fe(BO3)8
_chemical_formula_sum   'Li8 Mn7 Fe1 B8 O24'
_cell_volume   510.35396997
_cell_formula_units_Z   1
loop_
 _symmetry_equiv_pos_site_id
 _symmetry_equiv_pos_as_xyz
  1  'x, y, z'
loop_
 _atom_site_type_symbol
 _atom_site_label
 _atom_site_symmetry_multiplicity
 _atom_site_fract_x
 _atom_site_fract_y
 _atom_site_fract_z
 _atom_site_occupancy
  Li  Li0  1  0.83077669  0.84218870  0.75206804  1
  Li  Li1  1  0.92102005  0.40802468  0.74785100  1
  Li  Li2  1  0.67080537  0.65891758  0.24788675  1
  Li  Li3  1  0.57910620  0.09181615  0.25212131  1
  Li  Li4  1  0.42055518  0.90798477  0.74720826  1
  Li  Li5  1  0.32897947  0.34196744  0.75211355  1
  Li  Li6  1  0.07888184  0.59212835  0.25237452  1
  Li  Li7  1  0.17123491  0.15766235  0.24754020  1
  Mn  Mn8  1  0.82807049  0.93628353  0.28669731  1
  Mn  Mn9  1  0.92145949  0.31341432  0.21338838  1
  Mn  Mn10  1  0.67201431  0.56319949  0.71353997  1
  Mn  Mn11  1  0.57858805  0.18655765  0.78661100  1
  Mn  Mn12  1  0.32849278  0.43662661  0.28658131  1
  Mn  Mn13  1  0.08050222  0.68736007  0.78895397  1
  Mn  Mn14  1  0.17129239  0.06330461  0.71286148  1
  Fe  Fe15  1  0.42502070  0.81350523  0.22204364  1
  B  B16  1  0.96879657  0.76824822  0.27087008  1
  B  B17  1  0.78068563  0.48200497  0.22888670  1
  B  B18  1  0.52966977  0.73218742  0.72743056  1
  B  B19  1  0.28105223  0.98066078  0.22833190  1
  B  B20  1  0.71901145  0.01804121  0.77101748  1
  B  B21  1  0.46910714  0.26808789  0.27100264  1
  B  B22  1  0.21915224  0.51821469  0.77106184  1
  B  B23  1  0.03084625  0.23190953  0.72889310  1
  O  O24  1  0.90090762  0.42486985  0.11694390  1
  O  O25  1  0.84744020  0.82527010  0.38197058  1
  O  O26  1  0.99326839  0.30373562  0.64160891  1
  O  O27  1  0.74291839  0.55389789  0.14168711  1
  O  O28  1  0.75591768  0.94620320  0.85836780  1
  O  O29  1  0.95693655  0.21681164  0.94145774  1
  O  O30  1  0.70677708  0.46683009  0.44132966  1
  O  O31  1  0.64955404  0.67456092  0.61826119  1
  O  O32  1  0.39972889  0.92258578  0.11695230  1
  O  O33  1  0.79323053  0.03304179  0.55860964  1
  O  O34  1  0.54332087  0.28315693  0.05866665  1
  O  O35  1  0.49017489  0.80333184  0.63125517  1
  O  O36  1  0.50654948  0.19621055  0.35821634  1
  O  O37  1  0.45684110  0.71987606  0.94299252  1
  O  O38  1  0.20686173  0.96677208  0.44185648  1
  O  O39  1  0.59922890  0.07522928  0.88311765  1
  O  O40  1  0.34887595  0.32520539  0.38287472  1
  O  O41  1  0.29334360  0.53318429  0.55861678  1
  O  O42  1  0.04438507  0.78336211  0.06000973  1
  O  O43  1  0.24540195  0.05250204  0.14047977  1
  O  O44  1  0.25646757  0.44635997  0.85834455  1
  O  O45  1  0.00651380  0.69645500  0.35927834  1
  O  O46  1  0.15095855  0.17474020  0.61684366  1
  O  O47  1  0.09927474  0.57551216  0.88292084  1
