# generated using pymatgen
data_Li8Mn5Fe3(BO3)8
_symmetry_space_group_name_H-M   'P 1'
_cell_length_a   6.04953992
_cell_length_b   5.24558385
_cell_length_c   16.18721504
_cell_angle_alpha   90.98632388
_cell_angle_beta   97.91499349
_cell_angle_gamma   89.01177469
_symmetry_Int_Tables_number   1
_chemical_formula_structural   Li8Mn5Fe3(BO3)8
_chemical_formula_sum   'Li8 Mn5 Fe3 B8 O24'
_cell_volume   508.64853956
_cell_formula_units_Z   1
loop_
 _symmetry_equiv_pos_site_id
 _symmetry_equiv_pos_as_xyz
  1  'x, y, z'
loop_
 _atom_site_type_symbol
 _atom_site_label
 _atom_site_symmetry_multiplicity
 _atom_site_fract_x
 _atom_site_fract_y
 _atom_site_fract_z
 _atom_site_occupancy
  Li  Li0  1  0.06299748  0.84992204  0.61063226  1
  Li  Li1  1  0.43560404  0.15065703  0.89061662  1
  Li  Li2  1  0.18756096  0.64995507  0.14053052  1
  Li  Li3  1  0.31147681  0.34928651  0.35921362  1
  Li  Li4  1  0.68768494  0.65064394  0.64158717  1
  Li  Li5  1  0.81244835  0.34923589  0.85871735  1
  Li  Li6  1  0.56430506  0.84941335  0.10897431  1
  Li  Li7  1  0.93636849  0.15230823  0.38992289  1
  Mn  Mn8  1  0.27346991  0.66754381  0.95902566  1
  Mn  Mn9  1  0.52114892  0.16663691  0.70897158  1
  Mn  Mn10  1  0.47681055  0.83435799  0.28948976  1
  Mn  Mn11  1  0.77508338  0.66596338  0.46090015  1
  Mn  Mn12  1  0.72686238  0.33221216  0.04085979  1
  Fe  Fe13  1  0.02525751  0.16025288  0.20944323  1
  Fe  Fe14  1  0.22460751  0.33126228  0.53790349  1
  Fe  Fe15  1  0.97386454  0.84087125  0.79074933  1
  B  B16  1  0.03728907  0.33113536  0.70228073  1
  B  B17  1  0.28587538  0.82738875  0.45347577  1
  B  B18  1  0.46285848  0.67086395  0.79742849  1
  B  B19  1  0.21477678  0.16924315  0.04909549  1
  B  B20  1  0.78537480  0.83043631  0.95092222  1
  B  B21  1  0.53698900  0.32933663  0.20270417  1
  B  B22  1  0.71480361  0.17056254  0.54778362  1
  B  B23  1  0.96340020  0.67021987  0.29689901  1
  O  O24  1  0.01278671  0.59044148  0.69154772  1
  O  O25  1  0.16898781  0.18595466  0.65366954  1
  O  O26  1  0.17034776  0.70634477  0.51024538  1
  O  O27  1  0.33059403  0.28761012  0.99235298  1
  O  O28  1  0.07799381  0.79338024  0.24000836  1
  O  O29  1  0.32701005  0.82064576  0.84328509  1
  O  O30  1  0.08112171  0.31761302  0.09651131  1
  O  O31  1  0.26346503  0.08771593  0.44183679  1
  O  O32  1  0.48565549  0.41159342  0.81124548  1
  O  O33  1  0.23603813  0.90992728  0.06150158  1
  O  O34  1  0.41838087  0.68162989  0.40538399  1
  O  O35  1  0.41805487  0.21455146  0.25918977  1
  O  O36  1  0.58150729  0.78737023  0.74123026  1
  O  O37  1  0.57900427  0.32067988  0.59332686  1
  O  O38  1  0.76442677  0.09000572  0.93851544  1
  O  O39  1  0.51478874  0.58835818  0.18840853  1
  O  O40  1  0.73636718  0.91127059  0.56181646  1
  O  O41  1  0.91885807  0.68163836  0.90350956  1
  O  O42  1  0.67263548  0.17872626  0.15705961  1
  O  O43  1  0.92430347  0.20684634  0.75927923  1
  O  O44  1  0.66973726  0.71232410  0.00784643  1
  O  O45  1  0.83301004  0.28559496  0.49095507  1
  O  O46  1  0.83118056  0.81844862  0.34474653  1
  O  O47  1  0.98683249  0.41161943  0.30840182  1
