# generated using pymatgen
data_Li6MnFe5(BO3)6
_symmetry_space_group_name_H-M   'P 1'
_cell_length_a   8.25288950
_cell_length_b   14.26019778
_cell_length_c   3.13674132
_cell_angle_alpha   90.00000000
_cell_angle_beta   90.00000000
_cell_angle_gamma   90.06203762
_symmetry_Int_Tables_number   1
_chemical_formula_structural   Li6MnFe5(BO3)6
_chemical_formula_sum   'Li6 Mn1 Fe5 B6 O18'
_cell_volume   369.15608342
_cell_formula_units_Z   1
loop_
 _symmetry_equiv_pos_site_id
 _symmetry_equiv_pos_as_xyz
  1  'x, y, z'
loop_
 _atom_site_type_symbol
 _atom_site_label
 _atom_site_symmetry_multiplicity
 _atom_site_fract_x
 _atom_site_fract_y
 _atom_site_fract_z
 _atom_site_occupancy
  Li  Li0  1  0.29371812  0.99032753  0.50000000  1
  Li  Li1  1  0.34079644  0.35748699  0.50000000  1
  Li  Li2  1  0.36606970  0.65117422  0.50000000  1
  Li  Li3  1  0.79333398  0.49190820  0.50000000  1
  Li  Li4  1  0.84009238  0.85724577  0.50000000  1
  Li  Li5  1  0.86513374  0.15074856  0.50000000  1
  Mn  Mn6  1  0.19179251  0.17979854  0.00000000  1
  Fe  Fe7  1  0.13688142  0.50429990  0.00000000  1
  Fe  Fe8  1  0.17501621  0.81611017  0.00000000  1
  Fe  Fe9  1  0.63777212  0.00383673  0.00000000  1
  Fe  Fe10  1  0.67544719  0.31650693  0.00000000  1
  Fe  Fe11  1  0.68848362  0.67993566  0.00000000  1
  B  B12  1  0.99991326  0.66658871  0.50000000  1
  B  B13  1  0.99850025  0.99978077  0.00000000  1
  B  B14  1  0.99888438  0.33454600  0.50000000  1
  B  B15  1  0.50230768  0.16621579  0.50000000  1
  B  B16  1  0.49990740  0.50015817  0.00000000  1
  B  B17  1  0.49985552  0.83334005  0.50000000  1
  O  O18  1  0.01036135  0.43179687  0.50000000  1
  O  O19  1  0.01750961  0.76389085  0.50000000  1
  O  O20  1  0.13666987  0.60940277  0.50000000  1
  O  O21  1  0.13886475  0.28066994  0.50000000  1
  O  O22  1  0.15174934  0.95816966  0.00000000  1
  O  O23  1  0.34859670  0.12517099  0.50000000  1
  O  O24  1  0.34788277  0.79090576  0.50000000  1
  O  O25  1  0.36084884  0.44486593  0.00000000  1
  O  O26  1  0.48706680  0.59746421  0.00000000  1
  O  O27  1  0.51246273  0.93054716  0.50000000  1
  O  O28  1  0.51772703  0.26348450  0.50000000  1
  O  O29  1  0.63880905  0.10918675  0.50000000  1
  O  O30  1  0.63923601  0.77848437  0.50000000  1
  O  O31  1  0.65203694  0.45812480  0.00000000  1
  O  O32  1  0.84535032  0.62699709  0.50000000  1
  O  O33  1  0.84764290  0.29118262  0.50000000  1
  O  O34  1  0.86051979  0.94325569  0.00000000  1
  O  O35  1  0.98276426  0.09639232  0.00000000  1
