# generated using pymatgen
data_Li8Mn5Fe3(BO3)8
_symmetry_space_group_name_H-M   'P 1'
_cell_length_a   6.04324856
_cell_length_b   5.24591994
_cell_length_c   16.21761190
_cell_angle_alpha   90.75411222
_cell_angle_beta   98.22910071
_cell_angle_gamma   89.01084655
_symmetry_Int_Tables_number   1
_chemical_formula_structural   Li8Mn5Fe3(BO3)8
_chemical_formula_sum   'Li8 Mn5 Fe3 B8 O24'
_cell_volume   508.73794040
_cell_formula_units_Z   1
loop_
 _symmetry_equiv_pos_site_id
 _symmetry_equiv_pos_as_xyz
  1  'x, y, z'
loop_
 _atom_site_type_symbol
 _atom_site_label
 _atom_site_symmetry_multiplicity
 _atom_site_fract_x
 _atom_site_fract_y
 _atom_site_fract_z
 _atom_site_occupancy
  Li  Li0  1  0.06648432  0.84840900  0.61005128  1
  Li  Li1  1  0.43393707  0.15051421  0.88901357  1
  Li  Li2  1  0.18813871  0.65145772  0.14165278  1
  Li  Li3  1  0.31286621  0.34917380  0.35924089  1
  Li  Li4  1  0.68592686  0.64885967  0.64139248  1
  Li  Li5  1  0.81216362  0.35042253  0.85828417  1
  Li  Li6  1  0.56456372  0.84685938  0.11014358  1
  Li  Li7  1  0.93417853  0.15134448  0.39092147  1
  Mn  Mn8  1  0.27006281  0.66931852  0.95891344  1
  Mn  Mn9  1  0.02307067  0.16680172  0.21011226  1
  Mn  Mn10  1  0.22785400  0.33061516  0.54086113  1
  Mn  Mn11  1  0.77185216  0.66851237  0.45872768  1
  Mn  Mn12  1  0.72554712  0.33210985  0.03944062  1
  Fe  Fe13  1  0.52902856  0.16889204  0.71181869  1
  Fe  Fe14  1  0.47468174  0.83847248  0.29035949  1
  Fe  Fe15  1  0.96798336  0.83545387  0.78794447  1
  B  B16  1  0.03961049  0.32921072  0.70410123  1
  B  B17  1  0.28540176  0.83043245  0.45120866  1
  B  B18  1  0.46150773  0.67161529  0.79586019  1
  B  B19  1  0.21537564  0.16979091  0.04782266  1
  B  B20  1  0.78454976  0.83167428  0.95099034  1
  B  B21  1  0.53805617  0.32924818  0.20370338  1
  B  B22  1  0.71541425  0.16771718  0.54892957  1
  B  B23  1  0.96287509  0.67036755  0.29725154  1
  O  O24  1  0.01466343  0.58956341  0.69264880  1
  O  O25  1  0.17237522  0.18360189  0.65669663  1
  O  O26  1  0.17182273  0.71138063  0.50859175  1
  O  O27  1  0.33110002  0.28778698  0.99070925  1
  O  O28  1  0.08103519  0.78684976  0.24090562  1
  O  O29  1  0.32739017  0.81530093  0.84311907  1
  O  O30  1  0.08200311  0.31905288  0.09455343  1
  O  O31  1  0.26347992  0.09060249  0.43895762  1
  O  O32  1  0.48582850  0.40940898  0.80694721  1
  O  O33  1  0.23733906  0.90987921  0.06109732  1
  O  O34  1  0.41735131  0.68264610  0.40326109  1
  O  O35  1  0.42474550  0.20635560  0.26068879  1
  O  O36  1  0.58035694  0.79226354  0.74034025  1
  O  O37  1  0.58284877  0.31355673  0.59688715  1
  O  O38  1  0.76241581  0.09186644  0.93805004  1
  O  O39  1  0.51390397  0.58907580  0.19253313  1
  O  O40  1  0.73801379  0.90725114  0.56120810  1
  O  O41  1  0.91620397  0.68387245  0.90324401  1
  O  O42  1  0.66875362  0.18231432  0.15537192  1
  O  O43  1  0.92364227  0.20768482  0.76071654  1
  O  O44  1  0.67085517  0.71375116  0.00852191  1
  O  O45  1  0.82915789  0.28827061  0.49193665  1
  O  O46  1  0.82796690  0.81991338  0.34327098  1
  O  O47  1  0.98561239  0.41048143  0.31099616  1
