# generated using pymatgen
data_Li2MnFe(BO3)2
_symmetry_space_group_name_H-M   'P 1'
_cell_length_a   6.01980011
_cell_length_b   9.09883748
_cell_length_c   5.19933000
_cell_angle_alpha   89.85731000
_cell_angle_beta   113.19368787
_cell_angle_gamma   103.74659529
_symmetry_Int_Tables_number   1
_chemical_formula_structural   Li2MnFe(BO3)2
_chemical_formula_sum   'Li4 Mn2 Fe2 B4 O12'
_cell_volume   252.94230828
_cell_formula_units_Z   2
loop_
 _symmetry_equiv_pos_site_id
 _symmetry_equiv_pos_as_xyz
  1  'x, y, z'
loop_
 _atom_site_type_symbol
 _atom_site_label
 _atom_site_symmetry_multiplicity
 _atom_site_fract_x
 _atom_site_fract_y
 _atom_site_fract_z
 _atom_site_occupancy
  Li  Li0  1  0.67349765  0.18453837  0.25412010  1
  Li  Li1  1  0.67933005  0.68769781  0.75737026  1
  Li  Li2  1  0.32650235  0.31546163  0.24587990  1
  Li  Li3  1  0.32066995  0.81230219  0.74262974  1
  Mn  Mn4  1  0.76827484  0.37774227  0.78793175  1
  Mn  Mn5  1  0.23172516  0.12225773  0.71206825  1
  Fe  Fe6  1  0.75829323  0.87098969  0.27664655  1
  Fe  Fe7  1  0.24170677  0.62901031  0.22335345  1
  B  B8  1  0.73659457  0.03724891  0.77273772  1
  B  B9  1  0.74081656  0.54042757  0.27364060  1
  B  B10  1  0.26340543  0.46275109  0.72726228  1
  B  B11  1  0.25918344  0.95957243  0.22635940  1
  O  O12  1  0.82007863  0.06024646  0.55626934  1
  O  O13  1  0.82903582  0.56904192  0.06170309  1
  O  O14  1  0.70439649  0.39628411  0.36120495  1
  O  O15  1  0.67911220  0.15455702  0.88366551  1
  O  O16  1  0.68237205  0.65700581  0.38772653  1
  O  O17  1  0.29560351  0.10371589  0.13879505  1
  O  O18  1  0.70259573  0.89528674  0.86951232  1
  O  O19  1  0.32088780  0.34544298  0.61633449  1
  O  O20  1  0.31762795  0.84299419  0.11227347  1
  O  O21  1  0.29740427  0.60471326  0.63048768  1
  O  O22  1  0.17992137  0.43975354  0.94373066  1
  O  O23  1  0.17096418  0.93095808  0.43829691  1
