# generated using pymatgen
data_Li4NbIn3(PO4)6
_symmetry_space_group_name_H-M   'P 1'
_cell_length_a   8.75089737
_cell_length_b   9.01364836
_cell_length_c   12.49416207
_cell_angle_alpha   90.00000000
_cell_angle_beta   90.35669337
_cell_angle_gamma   90.00000000
_symmetry_Int_Tables_number   1
_chemical_formula_structural   Li4NbIn3(PO4)6
_chemical_formula_sum   'Li8 Nb2 In6 P12 O48'
_cell_volume   985.48931782
_cell_formula_units_Z   2
loop_
 _symmetry_equiv_pos_site_id
 _symmetry_equiv_pos_as_xyz
  1  'x, y, z'
loop_
 _atom_site_type_symbol
 _atom_site_label
 _atom_site_symmetry_multiplicity
 _atom_site_fract_x
 _atom_site_fract_y
 _atom_site_fract_z
 _atom_site_occupancy
  Li  Li0  1  0.20735750  0.79607414  0.17550182  1
  Li  Li1  1  0.23234084  0.72014996  0.82571323  1
  Li  Li2  1  0.27002644  0.21769004  0.67262740  1
  Li  Li3  1  0.29224567  0.28663524  0.32799172  1
  Li  Li4  1  0.70735750  0.70392586  0.67550182  1
  Li  Li5  1  0.73234084  0.77985004  0.32571323  1
  Li  Li6  1  0.77002644  0.28230996  0.17262740  1
  Li  Li7  1  0.79224567  0.21336476  0.82799172  1
  Nb  Nb8  1  0.25167861  0.46005281  0.10980062  1
  Nb  Nb9  1  0.75167861  0.03994719  0.60980062  1
  In  In10  1  0.25307524  0.04043185  0.88729246  1
  In  In11  1  0.24759175  0.54313704  0.61165389  1
  In  In12  1  0.25167075  0.95902352  0.39050290  1
  In  In13  1  0.75307524  0.45956815  0.38729246  1
  In  In14  1  0.74759175  0.95686296  0.11165389  1
  In  In15  1  0.75167075  0.54097648  0.89050290  1
  P  P16  1  0.04491482  0.25293025  0.49926609  1
  P  P17  1  0.10605719  0.39112734  0.84974977  1
  P  P18  1  0.10271576  0.11022270  0.14897629  1
  P  P19  1  0.39308184  0.60967510  0.34660951  1
  P  P20  1  0.39703022  0.89072631  0.64939946  1
  P  P21  1  0.45754124  0.74557040  0.00186973  1
  P  P22  1  0.54491482  0.24706975  0.99926609  1
  P  P23  1  0.60605719  0.10887266  0.34974977  1
  P  P24  1  0.60271576  0.38977730  0.64897629  1
  P  P25  1  0.89308184  0.89032490  0.84660951  1
  P  P26  1  0.89703022  0.60927369  0.14939946  1
  P  P27  1  0.95754124  0.75442960  0.50186973  1
  O  O28  1  0.04394219  0.66976377  0.58811315  1
  O  O29  1  0.04520480  0.87524009  0.44459671  1
  O  O30  1  0.06838283  0.87853847  0.85776019  1
  O  O31  1  0.07501690  0.58456820  0.16927375  1
  O  O32  1  0.10714484  0.34665739  0.59272457  1
  O  O33  1  0.14454543  0.41374285  0.97398179  1
  O  O34  1  0.14074820  0.99562316  0.23650069  1
  O  O35  1  0.15806321  0.23539921  0.81521332  1
  O  O36  1  0.17128278  0.26871764  0.18138108  1
  O  O37  1  0.18264461  0.17563094  0.44681749  1
  O  O38  1  0.18027588  0.05750545  0.04721192  1
  O  O39  1  0.19146688  0.51318234  0.78856364  1
  O  O40  1  0.31078369  0.01026787  0.71327559  1
  O  O41  1  0.31382001  0.54882658  0.44610353  1
  O  O42  1  0.32007536  0.66297936  0.06395850  1
  O  O43  1  0.32702827  0.75937021  0.30766990  1
  O  O44  1  0.35690883  0.73245505  0.68909591  1
  O  O45  1  0.35590874  0.48988213  0.25556984  1
  O  O46  1  0.37285630  0.90186954  0.52912202  1
  O  O47  1  0.37576140  0.84030744  0.91695807  1
  O  O48  1  0.43185069  0.10242939  0.33400340  1
  O  O49  1  0.42748539  0.37115789  0.63609936  1
  O  O50  1  0.45499450  0.16668352  0.91308589  1
  O  O51  1  0.43647838  0.36592442  0.05596379  1
  O  O52  1  0.54520480  0.62475991  0.94459671  1
  O  O53  1  0.54394219  0.83023623  0.08811315  1
  O  O54  1  0.56838283  0.62146153  0.35776019  1
  O  O55  1  0.57501690  0.91543180  0.66927375  1
  O  O56  1  0.60714484  0.15334261  0.09272457  1
  O  O57  1  0.64454543  0.08625715  0.47398179  1
  O  O58  1  0.64074820  0.50437684  0.73650069  1
  O  O59  1  0.65806321  0.26460079  0.31521332  1
  O  O60  1  0.67128278  0.23128236  0.68138108  1
  O  O61  1  0.68264461  0.32436906  0.94681749  1
  O  O62  1  0.68027588  0.44249455  0.54721192  1
  O  O63  1  0.69146688  0.98681766  0.28856364  1
  O  O64  1  0.81078369  0.48973213  0.21327559  1
  O  O65  1  0.81382001  0.95117342  0.94610353  1
  O  O66  1  0.82007536  0.83702064  0.56395850  1
  O  O67  1  0.82702827  0.74062979  0.80766990  1
  O  O68  1  0.85690883  0.76754495  0.18909591  1
  O  O69  1  0.85590874  0.01011787  0.75556984  1
  O  O70  1  0.87285630  0.59813046  0.02912202  1
  O  O71  1  0.87576140  0.65969256  0.41695807  1
  O  O72  1  0.93185069  0.39757061  0.83400340  1
  O  O73  1  0.92748539  0.12884211  0.13609936  1
  O  O74  1  0.93647838  0.13407558  0.55596379  1
  O  O75  1  0.95499450  0.33331648  0.41308589  1
