# generated using pymatgen
data_La4Al2O9
_symmetry_space_group_name_H-M   'P 1'
_cell_length_a   7.94120439
_cell_length_b   11.07716573
_cell_length_c   11.63144094
_cell_angle_alpha   90.00000000
_cell_angle_beta   109.50422550
_cell_angle_gamma   90.00000000
_symmetry_Int_Tables_number   1
_chemical_formula_structural   La4Al2O9
_chemical_formula_sum   'La16 Al8 O36'
_cell_volume   964.45896731
_cell_formula_units_Z   4
loop_
 _symmetry_equiv_pos_site_id
 _symmetry_equiv_pos_as_xyz
  1  'x, y, z'
loop_
 _atom_site_type_symbol
 _atom_site_label
 _atom_site_symmetry_multiplicity
 _atom_site_fract_x
 _atom_site_fract_y
 _atom_site_fract_z
 _atom_site_occupancy
  La  La0  1  0.08963605  0.37008803  0.93367157  1
  La  La1  1  0.08963605  0.12991197  0.43367157  1
  La  La2  1  0.22291819  0.58835796  0.69061654  1
  La  La3  1  0.27150017  0.09945076  0.79527979  1
  La  La4  1  0.22291819  0.91164204  0.19061654  1
  La  La5  1  0.41553965  0.87868812  0.58475316  1
  La  La6  1  0.27150017  0.40054924  0.29527979  1
  La  La7  1  0.58446035  0.37868812  0.91524684  1
  La  La8  1  0.41553965  0.62131188  0.08475316  1
  La  La9  1  0.72849983  0.59945076  0.70472021  1
  La  La10  1  0.58446035  0.12131188  0.41524684  1
  La  La11  1  0.77708181  0.08835796  0.80938346  1
  La  La12  1  0.72849983  0.90054924  0.20472021  1
  La  La13  1  0.77708181  0.41164204  0.30938346  1
  La  La14  1  0.91036395  0.87008803  0.56632843  1
  La  La15  1  0.91036395  0.62991197  0.06632843  1
  Al  Al16  1  0.03578262  0.81777189  0.87494806  1
  Al  Al17  1  0.03578262  0.68222811  0.37494806  1
  Al  Al18  1  0.40244473  0.31261280  0.62090658  1
  Al  Al19  1  0.59755527  0.81261280  0.87909342  1
  Al  Al20  1  0.40244473  0.18738720  0.12090658  1
  Al  Al21  1  0.59755527  0.68738720  0.37909342  1
  Al  Al22  1  0.96421738  0.31777189  0.62505194  1
  Al  Al23  1  0.96421738  0.18222811  0.12505194  1
  O  O24  1  0.06048949  0.97389757  0.85083666  1
  O  O25  1  0.02504729  0.73362396  0.74097710  1
  O  O26  1  0.16969034  0.99947772  0.60697149  1
  O  O27  1  0.17988266  0.28266617  0.61722250  1
  O  O28  1  0.31264757  0.50121357  0.89389965  1
  O  O29  1  0.06048949  0.52610243  0.35083666  1
  O  O30  1  0.02504729  0.76637604  0.24097710  1
  O  O31  1  0.38500261  0.23594224  0.97158029  1
  O  O32  1  0.17250790  0.73619279  0.51910546  1
  O  O33  1  0.47737417  0.72016495  0.75342612  1
  O  O34  1  0.16969034  0.50052228  0.10697149  1
  O  O35  1  0.17988266  0.21733383  0.11722250  1
  O  O36  1  0.52971538  0.96239778  0.83029904  1
  O  O37  1  0.31264757  0.99878643  0.39389965  1
  O  O38  1  0.47028462  0.46239778  0.66970096  1
  O  O39  1  0.38500261  0.26405776  0.47158029  1
  O  O40  1  0.52262583  0.22016495  0.74657388  1
  O  O41  1  0.17250790  0.76380721  0.01910546  1
  O  O42  1  0.82749210  0.23619279  0.98089454  1
  O  O43  1  0.47737417  0.77983505  0.25342612  1
  O  O44  1  0.61499739  0.73594224  0.52841971  1
  O  O45  1  0.52971538  0.53760222  0.33029904  1
  O  O46  1  0.68735243  0.00121357  0.60610035  1
  O  O47  1  0.47028462  0.03760222  0.16970096  1
  O  O48  1  0.82011734  0.78266617  0.88277750  1
  O  O49  1  0.83030966  0.49947772  0.89302851  1
  O  O50  1  0.52262583  0.27983505  0.24657388  1
  O  O51  1  0.82749210  0.26380721  0.48089454  1
  O  O52  1  0.61499739  0.76405776  0.02841971  1
  O  O53  1  0.97495271  0.23362396  0.75902290  1
  O  O54  1  0.93951051  0.47389757  0.64916334  1
  O  O55  1  0.68735243  0.49878643  0.10610035  1
  O  O56  1  0.82011734  0.71733383  0.38277750  1
  O  O57  1  0.83030966  0.00052228  0.39302851  1
  O  O58  1  0.97495271  0.26637604  0.25902290  1
  O  O59  1  0.93951051  0.02610243  0.14916334  1
