# generated using pymatgen
data_PH8N4Cl
_symmetry_space_group_name_H-M   'P 1'
_cell_length_a   4.78679715
_cell_length_b   16.53779477
_cell_length_c   7.75005182
_cell_angle_alpha   89.99999960
_cell_angle_beta   90.00000219
_cell_angle_gamma   89.99999377
_symmetry_Int_Tables_number   1
_chemical_formula_structural   PH8N4Cl
_chemical_formula_sum   'P4 H32 N16 Cl4'
_cell_volume   613.51788599
_cell_formula_units_Z   4
loop_
 _symmetry_equiv_pos_site_id
 _symmetry_equiv_pos_as_xyz
  1  'x, y, z'
loop_
 _atom_site_type_symbol
 _atom_site_label
 _atom_site_symmetry_multiplicity
 _atom_site_fract_x
 _atom_site_fract_y
 _atom_site_fract_z
 _atom_site_occupancy
  P  P0  1  0.00000004  0.12720222  0.25000000  1
  P  P1  1  0.99999996  0.87279778  0.75000000  1
  P  P2  1  0.49999998  0.62720220  0.25000003  1
  P  P3  1  0.50000002  0.37279780  0.74999997  1
  H  H4  1  0.19843778  0.24598895  0.35149328  1
  H  H5  1  0.19843774  0.75401107  0.85149330  1
  H  H6  1  0.22897138  0.16826878  0.49991126  1
  H  H7  1  0.22897138  0.83173121  -0.00008881  1
  H  H8  1  0.24077534  0.01114633  0.16901169  1
  H  H9  1  0.24077536  0.98885366  0.66901168  1
  H  H10  1  0.25783400  0.08516277  0.01159010  1
  H  H11  1  0.25783400  0.91483723  0.51159008  1
  H  H12  1  0.24216599  0.41483723  0.51159006  1
  H  H13  1  0.24216601  0.58516276  0.01159005  1
  H  H14  1  0.25922467  0.51114636  0.16901167  1
  H  H15  1  0.25922468  0.48885364  0.66901167  1
  H  H16  1  0.27102863  0.33173121  -0.00008878  1
  H  H17  1  0.27102866  0.66826879  0.49991115  1
  H  H18  1  0.30156226  0.25401104  0.85149331  1
  H  H19  1  0.30156225  0.74598894  0.35149331  1
  H  H20  1  0.69843775  0.25401106  0.64850669  1
  H  H21  1  0.69843774  0.74598896  0.14850669  1
  H  H22  1  0.72897134  0.33173121  0.50008885  1
  H  H23  1  0.72897137  0.66826879  0.00008878  1
  H  H24  1  0.74077532  0.51114636  0.33098833  1
  H  H25  1  0.74077533  0.48885364  0.83098833  1
  H  H26  1  0.75783401  0.58516277  0.48840994  1
  H  H27  1  0.75783399  0.41483724  0.98840995  1
  H  H28  1  0.74216600  0.08516277  0.48840992  1
  H  H29  1  0.74216600  0.91483723  0.98840990  1
  H  H30  1  0.75922464  0.01114634  0.33098832  1
  H  H31  1  0.75922466  0.98885367  0.83098831  1
  H  H32  1  0.77102862  0.16826879  0.00008881  1
  H  H33  1  0.77102862  0.83173122  0.50008874  1
  H  H34  1  0.80156226  0.24598893  0.14850670  1
  H  H35  1  0.80156222  0.75401105  0.64850672  1
  N  N36  1  0.13872144  0.18964499  0.38921747  1
  N  N37  1  0.13872152  0.81035499  0.88921753  1
  N  N38  1  0.17164686  0.06574776  0.12524640  1
  N  N39  1  0.17164684  0.93425227  0.62524635  1
  N  N40  1  0.32835313  0.43425230  0.62524636  1
  N  N41  1  0.32835325  0.56574767  0.12524645  1
  N  N42  1  0.36127858  0.31035497  0.88921767  1
  N  N43  1  0.36127841  0.68964496  0.38921766  1
  N  N44  1  0.63872159  0.31035504  0.61078234  1
  N  N45  1  0.63872142  0.68964503  0.11078233  1
  N  N46  1  0.67164687  0.56574770  0.37475364  1
  N  N47  1  0.67164675  0.43425233  0.87475355  1
  N  N48  1  0.82835316  0.06574773  0.37475365  1
  N  N49  1  0.82835314  0.93425224  0.87475360  1
  N  N50  1  0.86127856  0.81035501  0.61078253  1
  N  N51  1  0.86127848  0.18964501  0.11078247  1
  Cl  Cl52  1  0.00000006  0.38546005  0.25000002  1
  Cl  Cl53  1  0.99999994  0.61453995  0.74999998  1
  Cl  Cl54  1  0.49999991  0.11453995  0.74999996  1
  Cl  Cl55  1  0.50000009  0.88546005  0.25000004  1
