# generated using pymatgen
data_Li2MnFe(BO3)2
_symmetry_space_group_name_H-M   'P 1'
_cell_length_a   11.02317167
_cell_length_b   5.24275904
_cell_length_c   5.21773077
_cell_angle_alpha   60.17474240
_cell_angle_beta   87.53112853
_cell_angle_gamma   75.91099381
_symmetry_Int_Tables_number   1
_chemical_formula_structural   Li2MnFe(BO3)2
_chemical_formula_sum   'Li4 Mn2 Fe2 B4 O12'
_cell_volume   252.64020017
_cell_formula_units_Z   2
loop_
 _symmetry_equiv_pos_site_id
 _symmetry_equiv_pos_as_xyz
  1  'x, y, z'
loop_
 _atom_site_type_symbol
 _atom_site_label
 _atom_site_symmetry_multiplicity
 _atom_site_fract_x
 _atom_site_fract_y
 _atom_site_fract_z
 _atom_site_occupancy
  Li  Li0  1  0.16052625  0.37570067  0.39524941  1
  Li  Li1  1  0.33947375  0.62429933  0.10475059  1
  Li  Li2  1  0.65940463  0.37352642  0.89281372  1
  Li  Li3  1  0.84059537  0.62647358  0.60718628  1
  Mn  Mn4  1  0.11632337  0.75692781  0.71966623  1
  Mn  Mn5  1  0.38367663  0.24307219  0.78033377  1
  Fe  Fe6  1  0.62137297  0.74302026  0.23024500  1
  Fe  Fe7  1  0.87862703  0.25697974  0.26975500  1
  B  B8  1  0.12869751  0.08003713  0.05727178  1
  B  B9  1  0.37130249  0.91996287  0.44272822  1
  B  B10  1  0.63213838  0.07572715  0.55396603  1
  B  B11  1  0.86786162  0.92427285  0.94603397  1
  O  O12  1  0.15895080  0.31172336  0.79904457  1
  O  O13  1  0.08393990  0.13734107  0.28384894  1
  O  O14  1  0.14782786  0.79291791  0.09485327  1
  O  O15  1  0.34104920  0.68827664  0.70095543  1
  O  O16  1  0.35217214  0.20708209  0.40514673  1
  O  O17  1  0.41606010  0.86265893  0.21615106  1
  O  O18  1  0.59242780  0.11866112  0.79039427  1
  O  O19  1  0.64875097  0.79261892  0.58193119  1
  O  O20  1  0.65821379  0.31450763  0.29385596  1
  O  O21  1  0.85124903  0.20738108  0.91806881  1
  O  O22  1  0.90757220  0.88133888  0.70960573  1
  O  O23  1  0.84178621  0.68549237  0.20614404  1
