# generated using pymatgen
data_Li6MnFe5(BO3)6
_symmetry_space_group_name_H-M   'P 1'
_cell_length_a   8.24899798
_cell_length_b   8.24281404
_cell_length_c   6.28056664
_cell_angle_alpha   90.00000000
_cell_angle_beta   90.00000000
_cell_angle_gamma   120.08084322
_symmetry_Int_Tables_number   1
_chemical_formula_structural   Li6MnFe5(BO3)6
_chemical_formula_sum   'Li6 Mn1 Fe5 B6 O18'
_cell_volume   369.53177925
_cell_formula_units_Z   1
loop_
 _symmetry_equiv_pos_site_id
 _symmetry_equiv_pos_as_xyz
  1  'x, y, z'
loop_
 _atom_site_type_symbol
 _atom_site_label
 _atom_site_symmetry_multiplicity
 _atom_site_fract_x
 _atom_site_fract_y
 _atom_site_fract_z
 _atom_site_occupancy
  Li  Li0  1  0.28483646  0.98278054  0.25049484  1
  Li  Li1  1  0.28483646  0.98278054  0.74950516  1
  Li  Li2  1  0.01582053  0.30171474  0.24940261  1
  Li  Li3  1  0.01582053  0.30171474  0.75059739  1
  Li  Li4  1  0.69831385  0.71452858  0.74928447  1
  Li  Li5  1  0.69831385  0.71452858  0.25071553  1
  Mn  Mn6  1  0.37322933  0.36038745  0.00000000  1
  Fe  Fe7  1  0.36695999  0.35975469  0.50000000  1
  Fe  Fe8  1  0.64076075  0.00782498  0.00000000  1
  Fe  Fe9  1  0.63994121  0.00822694  0.50000000  1
  Fe  Fe10  1  0.99206283  0.63307000  0.00000000  1
  Fe  Fe11  1  0.99198142  0.63164530  0.50000000  1
  B  B12  1  0.99790414  0.99964369  0.00000000  1
  B  B13  1  0.00014372  0.00007388  0.50000000  1
  B  B14  1  0.33342185  0.66790978  0.25175055  1
  B  B15  1  0.33342185  0.66790978  0.74824945  1
  B  B16  1  0.66790925  0.33289457  0.25155306  1
  B  B17  1  0.66790925  0.33289457  0.74844694  1
  O  O18  1  0.10936124  0.91507212  0.50000000  1
  O  O19  1  0.10931872  0.91669538  0.00000000  1
  O  O20  1  0.13923987  0.58169303  0.24990795  1
  O  O21  1  0.13923987  0.58169303  0.75009205  1
  O  O22  1  0.07959550  0.19333023  0.00000000  1
  O  O23  1  0.08496301  0.19421057  0.50000000  1
  O  O24  1  0.44176217  0.86195442  0.25007826  1
  O  O25  1  0.44176217  0.86195442  0.74992174  1
  O  O26  1  0.41920242  0.55999536  0.25390276  1
  O  O27  1  0.41920242  0.55999536  0.74609724  1
  O  O28  1  0.47330723  0.25239526  0.25332189  1
  O  O29  1  0.47330723  0.25239526  0.74667811  1
  O  O30  1  0.80348942  0.88708134  0.00000000  1
  O  O31  1  0.80583317  0.89062737  0.50000000  1
  O  O32  1  0.78159814  0.52698056  0.25038458  1
  O  O33  1  0.78159814  0.52698056  0.74961542  1
  O  O34  1  0.74681500  0.21833020  0.74997212  1
  O  O35  1  0.74681500  0.21833020  0.25002788  1
