# generated using pymatgen
data_Yb4Br6O
_symmetry_space_group_name_H-M   'P 1'
_cell_length_a   9.46803482
_cell_length_b   9.46795390
_cell_length_c   7.18668924
_cell_angle_alpha   89.99894857
_cell_angle_beta   90.00052477
_cell_angle_gamma   119.99971372
_symmetry_Int_Tables_number   1
_chemical_formula_structural   Yb4Br6O
_chemical_formula_sum   'Yb8 Br12 O2'
_cell_volume   557.92616842
_cell_formula_units_Z   2
loop_
 _symmetry_equiv_pos_site_id
 _symmetry_equiv_pos_as_xyz
  1  'x, y, z'
loop_
 _atom_site_type_symbol
 _atom_site_label
 _atom_site_symmetry_multiplicity
 _atom_site_fract_x
 _atom_site_fract_y
 _atom_site_fract_z
 _atom_site_occupancy
  Yb  Yb0  1  0.20355020  0.79644784  0.00285722  1
  Yb  Yb1  1  0.33331210  0.66669187  0.40992973  1
  Yb  Yb2  1  0.20356520  0.40713732  0.00287111  1
  Yb  Yb3  1  0.59286356  0.79643558  0.00287344  1
  Yb  Yb4  1  0.40713644  0.20357202  0.50287344  1
  Yb  Yb5  1  0.66668790  0.33337976  0.90992973  1
  Yb  Yb6  1  0.79644980  0.59289764  0.50285722  1
  Yb  Yb7  1  0.79643480  0.20357213  0.50287111  1
  Br  Br8  1  0.13785210  0.86213945  0.38434809  1
  Br  Br9  1  0.07064470  0.53532712  0.70570732  1
  Br  Br10  1  0.13786121  0.27572143  0.38435373  1
  Br  Br11  1  0.46467619  0.92935999  0.70569905  1
  Br  Br12  1  0.46467503  0.53532856  0.70570505  1
  Br  Br13  1  0.27571101  0.13784889  0.88434489  1
  Br  Br14  1  0.72428899  0.86213788  0.38434489  1
  Br  Br15  1  0.53532381  0.46468381  0.20569905  1
  Br  Br16  1  0.86214790  0.72428835  0.88434809  1
  Br  Br17  1  0.53532497  0.07065453  0.20570505  1
  Br  Br18  1  0.92935530  0.46468342  0.20570732  1
  Br  Br19  1  0.86213879  0.13786022  0.88435373  1
  O  O20  1  0.33332593  0.66667856  0.10064838  1
  O  O21  1  0.66667407  0.33335263  0.60064838  1
