# generated using pymatgen
data_LiMnBO3
_symmetry_space_group_name_H-M   'P 1'
_cell_length_a   10.55147008
_cell_length_b   9.11028827
_cell_length_c   10.53791284
_cell_angle_alpha   90.00000000
_cell_angle_beta   87.78837305
_cell_angle_gamma   90.00000000
_symmetry_Int_Tables_number   1
_chemical_formula_structural   LiMnBO3
_chemical_formula_sum   'Li16 Mn16 B16 O48'
_cell_volume   1012.22269230
_cell_formula_units_Z   16
loop_
 _symmetry_equiv_pos_site_id
 _symmetry_equiv_pos_as_xyz
  1  'x, y, z'
loop_
 _atom_site_type_symbol
 _atom_site_label
 _atom_site_symmetry_multiplicity
 _atom_site_fract_x
 _atom_site_fract_y
 _atom_site_fract_z
 _atom_site_occupancy
  Li  Li0  1  0.08261332  0.48735288  0.83831251  1
  Li  Li1  1  0.08261332  0.51264712  0.33831251  1
  Li  Li2  1  0.16738668  0.98735288  0.66168749  1
  Li  Li3  1  0.16738668  0.01264712  0.16168749  1
  Li  Li4  1  0.32951645  0.00539804  0.90978944  1
  Li  Li5  1  0.32951645  0.99460196  0.40978944  1
  Li  Li6  1  0.41770318  0.48939817  0.66098026  1
  Li  Li7  1  0.41770318  0.51060183  0.16098026  1
  Li  Li8  1  0.57888221  0.50605021  0.91001122  1
  Li  Li9  1  0.57888221  0.49394979  0.41001122  1
  Li  Li10  1  0.67111779  0.00605021  0.58998878  1
  Li  Li11  1  0.67111779  0.99394979  0.08998878  1
  Li  Li12  1  0.83229682  0.98939817  0.83901974  1
  Li  Li13  1  0.83229682  0.01060183  0.33901974  1
  Li  Li14  1  0.92048355  0.50539804  0.59021056  1
  Li  Li15  1  0.92048355  0.49460196  0.09021056  1
  Mn  Mn16  1  0.07799572  0.16317463  0.88058534  1
  Mn  Mn17  1  0.07799572  0.83682537  0.38058534  1
  Mn  Mn18  1  0.17200428  0.66317463  0.61941466  1
  Mn  Mn19  1  0.17200428  0.33682537  0.11941466  1
  Mn  Mn20  1  0.32890671  0.66699585  0.87764426  1
  Mn  Mn21  1  0.32890671  0.33300415  0.37764426  1
  Mn  Mn22  1  0.41607249  0.16261565  0.62728306  1
  Mn  Mn23  1  0.41607249  0.83738435  0.12728306  1
  Mn  Mn24  1  0.58508046  0.16596201  0.86980834  1
  Mn  Mn25  1  0.58508046  0.83403799  0.36980834  1
  Mn  Mn26  1  0.66491954  0.66596201  0.63019166  1
  Mn  Mn27  1  0.66491954  0.33403799  0.13019166  1
  Mn  Mn28  1  0.83392751  0.66261565  0.87271694  1
  Mn  Mn29  1  0.83392751  0.33738435  0.37271694  1
  Mn  Mn30  1  0.92109329  0.16699585  0.62235574  1
  Mn  Mn31  1  0.92109329  0.83300415  0.12235574  1
  B  B32  1  0.08310656  0.83016605  0.86985491  1
  B  B33  1  0.08310656  0.16983395  0.36985491  1
  B  B34  1  0.16689344  0.33016605  0.63014509  1
  B  B35  1  0.16689344  0.66983395  0.13014509  1
  B  B36  1  0.33346585  0.33074242  0.86886399  1
  B  B37  1  0.33346585  0.66925758  0.36886399  1
  B  B38  1  0.41623846  0.83096703  0.61920203  1
  B  B39  1  0.41623846  0.16903297  0.11920203  1
  B  B40  1  0.58388393  0.83156025  0.88019107  1
  B  B41  1  0.58388393  0.16843975  0.38019107  1
  B  B42  1  0.66611607  0.33156025  0.61980893  1
  B  B43  1  0.66611607  0.66843975  0.11980893  1
  B  B44  1  0.83376154  0.33096703  0.88079797  1
  B  B45  1  0.83376154  0.66903297  0.38079797  1
  B  B46  1  0.91653415  0.83074242  0.63113601  1
  B  B47  1  0.91653415  0.16925758  0.13113601  1
  O  O48  1  0.04422190  0.83983253  0.59041869  1
  O  O49  1  0.04422190  0.16016747  0.09041869  1
  O  O50  1  0.09267937  0.45501831  0.64423698  1
  O  O51  1  0.09267937  0.54498169  0.14423698  1
  O  O52  1  0.11534167  0.19276138  0.66004883  1
  O  O53  1  0.11534167  0.80723862  0.16004883  1
  O  O54  1  0.13465833  0.69276138  0.83995117  1
  O  O55  1  0.13465833  0.30723862  0.33995117  1
  O  O56  1  0.15732063  0.95501831  0.85576302  1
  O  O57  1  0.15732063  0.04498169  0.35576302  1
  O  O58  1  0.20577810  0.33983253  0.90958131  1
  O  O59  1  0.20577810  0.66016747  0.40958131  1
  O  O60  1  0.29485624  0.34222741  0.59008728  1
  O  O61  1  0.29485624  0.65777259  0.09008728  1
  O  O62  1  0.33915212  0.95270208  0.60542108  1
  O  O63  1  0.33915212  0.04729792  0.10542108  1
  O  O64  1  0.36472457  0.69659992  0.65967512  1
  O  O65  1  0.36472457  0.30340008  0.15967512  1
  O  O66  1  0.38710404  0.19360244  0.83872764  1
  O  O67  1  0.40623945  0.45660654  0.85461607  1
  O  O68  1  0.38710404  0.80639756  0.33872764  1
  O  O69  1  0.40623945  0.54339346  0.35461607  1
  O  O70  1  0.45442545  0.83999057  0.91206932  1
  O  O71  1  0.45442545  0.16000943  0.41206932  1
  O  O72  1  0.54608076  0.84206436  0.58848875  1
  O  O73  1  0.54608076  0.15793564  0.08848875  1
  O  O74  1  0.59021935  0.45446327  0.60735686  1
  O  O75  1  0.59021935  0.54553673  0.10735686  1
  O  O76  1  0.61282362  0.19706557  0.65973159  1
  O  O77  1  0.61282362  0.80293443  0.15973159  1
  O  O78  1  0.63717638  0.69706557  0.84026841  1
  O  O79  1  0.63717638  0.30293443  0.34026841  1
  O  O80  1  0.65978065  0.95446327  0.89264314  1
  O  O81  1  0.65978065  0.04553673  0.39264314  1
  O  O82  1  0.70391924  0.34206436  0.91151125  1
  O  O83  1  0.70391924  0.65793564  0.41151125  1
  O  O84  1  0.79557455  0.33999057  0.58793068  1
  O  O85  1  0.79557455  0.66000943  0.08793068  1
  O  O86  1  0.84376055  0.95660654  0.64538393  1
  O  O87  1  0.86289596  0.69360244  0.66127236  1
  O  O88  1  0.84376055  0.04339346  0.14538393  1
  O  O89  1  0.86289596  0.30639756  0.16127236  1
  O  O90  1  0.88527543  0.19659992  0.84032488  1
  O  O91  1  0.88527543  0.80340008  0.34032488  1
  O  O92  1  0.91084788  0.45270208  0.89457892  1
  O  O93  1  0.91084788  0.54729792  0.39457892  1
  O  O94  1  0.95514376  0.84222741  0.90991272  1
  O  O95  1  0.95514376  0.15777259  0.40991272  1
