# generated using pymatgen
data_LiGe
_symmetry_space_group_name_H-M   'P 1'
_cell_length_a   4.06998118
_cell_length_b   4.06998118
_cell_length_c   12.02234333
_cell_angle_alpha   99.74522595
_cell_angle_beta   99.74522596
_cell_angle_gamma   90.00000001
_symmetry_Int_Tables_number   1
_chemical_formula_structural   LiGe
_chemical_formula_sum   'Li6 Ge6'
_cell_volume   193.35705172
_cell_formula_units_Z   6
loop_
 _symmetry_equiv_pos_site_id
 _symmetry_equiv_pos_as_xyz
  1  'x, y, z'
loop_
 _atom_site_type_symbol
 _atom_site_label
 _atom_site_symmetry_multiplicity
 _atom_site_fract_x
 _atom_site_fract_y
 _atom_site_fract_z
 _atom_site_occupancy
  Li  Li0  1  0.37500000  0.12500000  0.25000000  1
  Li  Li1  1  0.62500000  0.87500000  0.75000000  1
  Li  Li2  1  0.46189883  0.71189883  0.42379765  1
  Li  Li3  1  0.21189883  0.96189883  0.92379765  1
  Li  Li4  1  0.53810117  0.28810117  0.57620235  1
  Li  Li5  1  0.78810117  0.03810117  0.07620235  1
  Ge  Ge6  1  0.12500000  0.37500000  0.75000000  1
  Ge  Ge7  1  0.87500000  0.62500000  0.25000000  1
  Ge  Ge8  1  0.29769676  0.54769676  0.09539352  1
  Ge  Ge9  1  0.04769676  0.79769676  0.59539352  1
  Ge  Ge10  1  0.70230324  0.45230324  0.90460648  1
  Ge  Ge11  1  0.95230324  0.20230324  0.40460648  1
