# generated using pymatgen
data_NbO2
_symmetry_space_group_name_H-M   'P 1'
_cell_length_a   6.08928808
_cell_length_b   10.28562131
_cell_length_c   10.28562130
_cell_angle_alpha   84.97319643
_cell_angle_beta   72.78190461
_cell_angle_gamma   72.78190461
_symmetry_Int_Tables_number   1
_chemical_formula_structural   NbO2
_chemical_formula_sum   'Nb16 O32'
_cell_volume   587.76334609
_cell_formula_units_Z   16
loop_
 _symmetry_equiv_pos_site_id
 _symmetry_equiv_pos_as_xyz
  1  'x, y, z'
loop_
 _atom_site_type_symbol
 _atom_site_label
 _atom_site_symmetry_multiplicity
 _atom_site_fract_x
 _atom_site_fract_y
 _atom_site_fract_z
 _atom_site_occupancy
  O  O0  1  0.75586016  0.36130084  0.11194716  1
  O  O1  1  0.86780732  0.38805284  0.36130084  1
  O  O2  1  0.61716100  0.11194716  0.13869916  1
  O  O3  1  0.22910816  0.13869916  0.38805284  1
  O  O4  1  0.24413984  0.63869916  0.88805284  1
  O  O5  1  0.13219268  0.61194716  0.63869916  1
  O  O6  1  0.38283900  0.88805284  0.86130084  1
  O  O7  1  0.77089184  0.86130084  0.61194716  1
  O  O8  1  0.27516315  0.35132085  0.10120125  1
  O  O9  1  0.37636439  0.39879875  0.35132085  1
  O  O10  1  0.12648400  0.10120125  0.14867915  1
  O  O11  1  0.72768524  0.14867915  0.39879875  1
  O  O12  1  0.72483685  0.64867915  0.89879875  1
  O  O13  1  0.62363561  0.60120125  0.64867915  1
  O  O14  1  0.87351600  0.89879875  0.85132085  1
  O  O15  1  0.27231476  0.85132085  0.60120125  1
  O  O16  1  0.97378909  0.13937291  0.88722648  1
  O  O17  1  0.86101557  0.61277352  0.13937291  1
  O  O18  1  0.61316200  0.88722648  0.36062709  1
  O  O19  1  0.00038848  0.36062709  0.61277352  1
  O  O20  1  0.02621091  0.86062709  0.11277352  1
  O  O21  1  0.13898443  0.38722648  0.86062709  1
  O  O22  1  0.38683800  0.11277352  0.63937291  1
  O  O23  1  0.99961152  0.63937291  0.38722648  1
  O  O24  1  0.47769546  0.15053328  0.90272455  1
  O  O25  1  0.38042001  0.59727545  0.15053328  1
  O  O26  1  0.12822874  0.90272455  0.34946672  1
  O  O27  1  0.53095329  0.34946672  0.59727545  1
  O  O28  1  0.52230454  0.84946672  0.09727545  1
  O  O29  1  0.61957999  0.40272455  0.84946672  1
  O  O30  1  0.87177126  0.09727545  0.65053328  1
  O  O31  1  0.46904671  0.65053328  0.40272455  1
  Nb  Nb32  1  0.10399385  0.49074848  0.24074460  1
  Nb  Nb33  1  0.34473845  0.25925540  0.49074848  1
  Nb  Nb34  1  0.09474233  0.24074460  0.00925152  1
  Nb  Nb35  1  0.83548693  0.00925152  0.25925540  1
  Nb  Nb36  1  0.89600615  0.50925152  0.75925540  1
  Nb  Nb37  1  0.65526155  0.74074460  0.50925152  1
  Nb  Nb38  1  0.90525767  0.75925540  0.99074848  1
  Nb  Nb39  1  0.16451307  0.99074848  0.74074460  1
  Nb  Nb40  1  0.63905747  0.51067390  0.26266865  1
  Nb  Nb41  1  0.90172612  0.23733135  0.51067390  1
  Nb  Nb42  1  0.64973137  0.26266865  0.98932610  1
  Nb  Nb43  1  0.41240003  0.98932610  0.23733135  1
  Nb  Nb44  1  0.36094253  0.48932610  0.73733135  1
  Nb  Nb45  1  0.09827388  0.76266865  0.48932610  1
  Nb  Nb46  1  0.35026863  0.73733135  0.01067390  1
  Nb  Nb47  1  0.58759997  0.01067390  0.76266865  1
