# generated using pymatgen
data_LaOF
_symmetry_space_group_name_H-M   'P 1'
_cell_length_a   7.18136326
_cell_length_b   7.18136326
_cell_length_c   7.18136325
_cell_angle_alpha   32.85413866
_cell_angle_beta   32.85413867
_cell_angle_gamma   32.85413863
_symmetry_Int_Tables_number   1
_chemical_formula_structural   LaOF
_chemical_formula_sum   'La2 O2 F2'
_cell_volume   96.97711800
_cell_formula_units_Z   2
loop_
 _symmetry_equiv_pos_site_id
 _symmetry_equiv_pos_as_xyz
  1  'x, y, z'
loop_
 _atom_site_type_symbol
 _atom_site_label
 _atom_site_symmetry_multiplicity
 _atom_site_fract_x
 _atom_site_fract_y
 _atom_site_fract_z
 _atom_site_occupancy
  O  O0  1  0.62333043  0.62333043  0.62333043  1
  O  O1  1  0.37666957  0.37666957  0.37666957  1
  F  F2  1  0.12875841  0.12875841  0.12875841  1
  F  F3  1  0.87124159  0.87124159  0.87124159  1
  La  La4  1  0.74127084  0.74127084  0.74127084  1
  La  La5  1  0.25872916  0.25872916  0.25872916  1
