# generated using pymatgen
data_Li2MnSiO4
_symmetry_space_group_name_H-M   'P 1'
_cell_length_a   6.37688814
_cell_length_b   5.50975651
_cell_length_c   5.08077118
_cell_angle_alpha   90.00028859
_cell_angle_beta   90.17486290
_cell_angle_gamma   90.00391206
_symmetry_Int_Tables_number   1
_chemical_formula_structural   Li2MnSiO4
_chemical_formula_sum   'Li4 Mn2 Si2 O8'
_cell_volume   178.51257670
_cell_formula_units_Z   2
loop_
 _symmetry_equiv_pos_site_id
 _symmetry_equiv_pos_as_xyz
  1  'x, y, z'
loop_
 _atom_site_type_symbol
 _atom_site_label
 _atom_site_symmetry_multiplicity
 _atom_site_fract_x
 _atom_site_fract_y
 _atom_site_fract_z
 _atom_site_occupancy
  Li  Li0  1  0.25087371  0.31747958  0.49915236  1
  Li  Li1  1  0.49843610  0.15364152  0.99881442  1
  Li  Li2  1  0.75079986  0.68172499  0.99917770  1
  Li  Li3  1  0.99832319  0.84555482  0.49880965  1
  Mn  Mn4  1  0.24474891  0.66673083  0.99821047  1
  Mn  Mn5  1  0.74485240  0.33242189  0.49822459  1
  Si  Si6  1  0.99899867  0.16995755  0.00482440  1
  Si  Si7  1  0.49896333  0.82922939  0.50482385  1
  O  O8  1  0.99338234  0.88752969  0.89491555  1
  O  O9  1  0.21344749  0.30595095  0.89300822  1
  O  O10  1  0.28486306  0.67989101  0.40863152  1
  O  O11  1  0.50447269  0.82657440  0.83001802  1
  O  O12  1  0.49344641  0.11167907  0.39491536  1
  O  O13  1  0.71339248  0.69321136  0.39301110  1
  O  O14  1  0.78492606  0.31935100  0.90866451  1
  O  O15  1  0.00452230  0.17262396  0.33002227  1
