# generated using pymatgen
data_SmY3O6
_symmetry_space_group_name_H-M   'P 1'
_cell_length_a   9.32779214
_cell_length_b   9.34030092
_cell_length_c   9.34181012
_cell_angle_alpha   109.52414182
_cell_angle_beta   109.42496561
_cell_angle_gamma   109.44321609
_symmetry_Int_Tables_number   1
_chemical_formula_structural   SmY3O6
_chemical_formula_sum   'Sm4 Y12 O24'
_cell_volume   626.70464381
_cell_formula_units_Z   4
loop_
 _symmetry_equiv_pos_site_id
 _symmetry_equiv_pos_as_xyz
  1  'x, y, z'
loop_
 _atom_site_type_symbol
 _atom_site_label
 _atom_site_symmetry_multiplicity
 _atom_site_fract_x
 _atom_site_fract_y
 _atom_site_fract_z
 _atom_site_occupancy
  Sm  Sm0  1  0.99999218  0.49917481  0.00053360  1
  Sm  Sm1  1  0.49797314  0.49824293  0.49812633  1
  Sm  Sm2  1  0.99989807  0.00182176  0.49977149  1
  Sm  Sm3  1  0.03293759  0.75053799  0.78141748  1
  Y  Y4  1  0.50142936  0.00083265  0.00082876  1
  Y  Y5  1  0.96635985  0.24948378  0.21788526  1
  Y  Y6  1  0.71581734  0.46553225  0.24690362  1
  Y  Y7  1  0.78010633  0.03230301  0.75025574  1
  Y  Y8  1  0.74919407  0.78338315  0.03255350  1
  Y  Y9  1  0.74808171  0.27938117  0.52926078  1
  Y  Y10  1  0.53174432  0.75051482  0.28125614  1
  Y  Y11  1  0.46825592  0.24947766  0.71873626  1
  Y  Y12  1  0.25123278  0.71893689  0.46904412  1
  Y  Y13  1  0.25082145  0.21838341  0.96850287  1
  Y  Y14  1  0.21928708  0.96847322  0.25087702  1
  Y  Y15  1  0.28445842  0.53356921  0.75162789  1
  O  O16  1  0.75545549  0.02966620  0.48733616  1
  O  O17  1  0.73800589  0.22617624  0.26917574  1
  O  O18  1  0.27647163  0.01590764  0.04682792  1
  O  O19  1  0.96940038  0.51179350  0.24425955  1
  O  O20  1  0.46920049  0.22634014  0.45930074  1
  O  O21  1  0.76800863  0.72621448  0.25607805  1
  O  O22  1  0.04178201  0.26799546  0.01299986  1
  O  O23  1  0.45665706  0.46958686  0.22462102  1
  O  O24  1  0.48872680  0.76223849  0.03201747  1
  O  O25  1  0.76933706  0.53722976  0.52466776  1
  O  O26  1  0.72668364  0.25717121  0.76864712  1
  O  O27  1  0.01191535  0.04293371  0.26810820  1
  O  O28  1  0.51143656  0.23776196  0.96797284  1
  O  O29  1  0.27329888  0.74293112  0.23153645  1
  O  O30  1  0.22540899  0.45780686  0.47030577  1
  O  O31  1  0.98802174  0.96225196  0.73165642  1
  O  O32  1  0.95851422  0.73175747  0.99164349  1
  O  O33  1  0.54337586  0.53142792  0.77450558  1
  O  O34  1  0.53055041  0.77279556  0.54152366  1
  O  O35  1  0.23365240  0.27463464  0.74453171  1
  O  O36  1  0.02982280  0.48329898  0.75448985  1
  O  O37  1  0.72712813  0.98875588  0.95713414  1
  O  O38  1  0.24250560  0.96921817  0.51163076  1
  O  O39  1  0.26705135  0.77405910  0.73144889  1
