# generated using pymatgen
data_CsCoH24(SO10)2
_symmetry_space_group_name_H-M   'P 1'
_cell_length_a   12.34521955
_cell_length_b   12.34521955
_cell_length_c   12.34521955
_cell_angle_alpha   90.00000000
_cell_angle_beta   90.00000000
_cell_angle_gamma   90.00000000
_symmetry_Int_Tables_number   1
_chemical_formula_structural   CsCoH24(SO10)2
_chemical_formula_sum   'Cs4 Co4 H96 S8 O80'
_cell_volume   1881.46634303
_cell_formula_units_Z   4
loop_
 _symmetry_equiv_pos_site_id
 _symmetry_equiv_pos_as_xyz
  1  'x, y, z'
loop_
 _atom_site_type_symbol
 _atom_site_label
 _atom_site_symmetry_multiplicity
 _atom_site_fract_x
 _atom_site_fract_y
 _atom_site_fract_z
 _atom_site_occupancy
  Cs  Cs0  1  0.00000000  0.00000000  0.50000000  1
  Cs  Cs1  1  0.00000000  0.50000000  0.00000000  1
  Cs  Cs2  1  0.50000000  0.50000000  0.50000000  1
  Cs  Cs3  1  0.50000000  0.00000000  0.00000000  1
  Co  Co4  1  0.00000000  0.00000000  0.00000000  1
  Co  Co5  1  0.00000000  0.50000000  0.50000000  1
  Co  Co6  1  0.50000000  0.00000000  0.50000000  1
  Co  Co7  1  0.50000000  0.50000000  0.00000000  1
  H  H8  1  0.99725477  0.20732617  0.28200369  1
  H  H9  1  0.99725477  0.29267383  0.78200369  1
  H  H10  1  0.01986851  0.05730126  0.20107395  1
  H  H11  1  0.01986851  0.44269874  0.70107395  1
  H  H12  1  0.03062821  0.57367681  0.68710967  1
  H  H13  1  0.03062821  0.92632319  0.18710967  1
  H  H14  1  0.05730126  0.20107395  0.01986851  1
  H  H15  1  0.05730126  0.29892605  0.51986851  1
  H  H16  1  0.07367681  0.68710967  0.46937179  1
  H  H17  1  0.07367681  0.81289033  0.96937179  1
  H  H18  1  0.12000133  0.17635419  0.28453416  1
  H  H19  1  0.12000133  0.32364581  0.78453416  1
  H  H20  1  0.17635419  0.28453416  0.12000133  1
  H  H21  1  0.17635419  0.21546584  0.62000133  1
  H  H22  1  0.18710967  0.03062821  0.92632319  1
  H  H23  1  0.18710967  0.46937179  0.42632319  1
  H  H24  1  0.20732617  0.28200369  0.99725477  1
  H  H25  1  0.20732617  0.21799631  0.49725477  1
  H  H26  1  0.20107395  0.01986851  0.05730126  1
  H  H27  1  0.20107395  0.48013149  0.55730126  1
  H  H28  1  0.21799631  0.49725477  0.20732617  1
  H  H29  1  0.21799631  0.00274523  0.70732617  1
  H  H30  1  0.21546584  0.62000133  0.17635419  1
  H  H31  1  0.21546584  0.87999867  0.67635419  1
  H  H32  1  0.28453416  0.12000133  0.17635419  1
  H  H33  1  0.28453416  0.37999867  0.67635419  1
  H  H34  1  0.28200369  0.99725477  0.20732617  1
  H  H35  1  0.28200369  0.50274523  0.70732617  1
  H  H36  1  0.29892605  0.51986851  0.05730126  1
  H  H37  1  0.29892605  0.98013149  0.55730126  1
  H  H38  1  0.29267383  0.78200369  0.99725477  1
  H  H39  1  0.29267383  0.71799631  0.49725477  1
  H  H40  1  0.31289033  0.53062821  0.92632319  1
  H  H41  1  0.31289033  0.96937179  0.42632319  1
  H  H42  1  0.32364581  0.78453416  0.12000133  1
  H  H43  1  0.32364581  0.71546584  0.62000133  1
  H  H44  1  0.37999867  0.67635419  0.28453416  1
  H  H45  1  0.37999867  0.82364581  0.78453416  1
  H  H46  1  0.42632319  0.18710967  0.46937179  1
  H  H47  1  0.42632319  0.31289033  0.96937179  1
  H  H48  1  0.44269874  0.79892605  0.51986851  1
  H  H49  1  0.44269874  0.70107395  0.01986851  1
  H  H50  1  0.46937179  0.42632319  0.18710967  1
  H  H51  1  0.46937179  0.07367681  0.68710967  1
  H  H52  1  0.48013149  0.55730126  0.20107395  1
  H  H53  1  0.48013149  0.94269874  0.70107395  1
  H  H54  1  0.50274523  0.70732617  0.28200369  1
  H  H55  1  0.50274523  0.79267383  0.78200369  1
  H  H56  1  0.49725477  0.20732617  0.21799631  1
  H  H57  1  0.49725477  0.29267383  0.71799631  1
  H  H58  1  0.51986851  0.05730126  0.29892605  1
  H  H59  1  0.51986851  0.44269874  0.79892605  1
  H  H60  1  0.53062821  0.92632319  0.31289033  1
  H  H61  1  0.53062821  0.57367681  0.81289033  1
  H  H62  1  0.55730126  0.20107395  0.48013149  1
  H  H63  1  0.55730126  0.29892605  0.98013149  1
  H  H64  1  0.57367681  0.68710967  0.03062821  1
  H  H65  1  0.57367681  0.81289033  0.53062821  1
  H  H66  1  0.62000133  0.17635419  0.21546584  1
  H  H67  1  0.62000133  0.32364581  0.71546584  1
  H  H68  1  0.67635419  0.21546584  0.87999867  1
  H  H69  1  0.67635419  0.28453416  0.37999867  1
  H  H70  1  0.68710967  0.03062821  0.57367681  1
  H  H71  1  0.68710967  0.46937179  0.07367681  1
  H  H72  1  0.70732617  0.21799631  0.00274523  1
  H  H73  1  0.70732617  0.28200369  0.50274523  1
  H  H74  1  0.70107395  0.48013149  0.94269874  1
  H  H75  1  0.70107395  0.01986851  0.44269874  1
  H  H76  1  0.71799631  0.00274523  0.79267383  1
  H  H77  1  0.71799631  0.49725477  0.29267383  1
  H  H78  1  0.71546584  0.62000133  0.32364581  1
  H  H79  1  0.71546584  0.87999867  0.82364581  1
  H  H80  1  0.78453416  0.12000133  0.32364581  1
  H  H81  1  0.78453416  0.37999867  0.82364581  1
  H  H82  1  0.78200369  0.99725477  0.29267383  1
  H  H83  1  0.78200369  0.50274523  0.79267383  1
  H  H84  1  0.79892605  0.98013149  0.94269874  1
  H  H85  1  0.79892605  0.51986851  0.44269874  1
  H  H86  1  0.79267383  0.71799631  0.00274523  1
  H  H87  1  0.79267383  0.78200369  0.50274523  1
  H  H88  1  0.81289033  0.96937179  0.07367681  1
  H  H89  1  0.81289033  0.53062821  0.57367681  1
  H  H90  1  0.82364581  0.71546584  0.87999867  1
  H  H91  1  0.82364581  0.78453416  0.37999867  1
  H  H92  1  0.87999867  0.67635419  0.21546584  1
  H  H93  1  0.87999867  0.82364581  0.71546584  1
  H  H94  1  0.92632319  0.18710967  0.03062821  1
  H  H95  1  0.92632319  0.31289033  0.53062821  1
  H  H96  1  0.94269874  0.79892605  0.98013149  1
  H  H97  1  0.94269874  0.70107395  0.48013149  1
  H  H98  1  0.96937179  0.07367681  0.81289033  1
  H  H99  1  0.96937179  0.42632319  0.31289033  1
  H  H100  1  0.98013149  0.94269874  0.79892605  1
  H  H101  1  0.98013149  0.55730126  0.29892605  1
  H  H102  1  0.00274523  0.70732617  0.21799631  1
  H  H103  1  0.00274523  0.79267383  0.71799631  1
  S  S104  1  0.18363384  0.68363384  0.81636616  1
  S  S105  1  0.18363384  0.81636616  0.31636616  1
  S  S106  1  0.31636616  0.18363384  0.81636616  1
  S  S107  1  0.31636616  0.31636616  0.31636616  1
  S  S108  1  0.68363384  0.68363384  0.68363384  1
  S  S109  1  0.68363384  0.81636616  0.18363384  1
  S  S110  1  0.81636616  0.18363384  0.68363384  1
  S  S111  1  0.81636616  0.31636616  0.18363384  1
  O  O112  1  0.99615662  0.99280909  0.15505499  1
  O  O113  1  0.99615662  0.50719091  0.65505499  1
  O  O114  1  0.00719091  0.65505499  0.50384338  1
  O  O115  1  0.00719091  0.84494501  0.00384338  1
  O  O116  1  0.04691046  0.14478631  0.29171290  1
  O  O117  1  0.04691046  0.35521369  0.79171290  1
  O  O118  1  0.07395790  0.82601912  0.26664980  1
  O  O119  1  0.07395790  0.67398088  0.76664980  1
  O  O120  1  0.14478631  0.29171290  0.04691046  1
  O  O121  1  0.14478631  0.20828710  0.54691046  1
  O  O122  1  0.15505499  0.99615662  0.99280909  1
  O  O123  1  0.15505499  0.50384338  0.49280909  1
  O  O124  1  0.17398088  0.76664980  0.42604210  1
  O  O125  1  0.17398088  0.73335020  0.92604210  1
  O  O126  1  0.20828710  0.54691046  0.14478631  1
  O  O127  1  0.20828710  0.95308954  0.64478631  1
  O  O128  1  0.23335020  0.57395790  0.82601912  1
  O  O129  1  0.23335020  0.92604210  0.32601912  1
  O  O130  1  0.24583660  0.24583660  0.24583660  1
  O  O131  1  0.24583660  0.25416340  0.74583660  1
  O  O132  1  0.25416340  0.74583660  0.24583660  1
  O  O133  1  0.25416340  0.75416340  0.74583660  1
  O  O134  1  0.26664980  0.07395790  0.82601912  1
  O  O135  1  0.26664980  0.42604210  0.32601912  1
  O  O136  1  0.29171290  0.04691046  0.14478631  1
  O  O137  1  0.29171290  0.45308954  0.64478631  1
  O  O138  1  0.32601912  0.26664980  0.42604210  1
  O  O139  1  0.32601912  0.23335020  0.92604210  1
  O  O140  1  0.34494501  0.49615662  0.99280909  1
  O  O141  1  0.34494501  0.00384338  0.49280909  1
  O  O142  1  0.35521369  0.70828710  0.54691046  1
  O  O143  1  0.35521369  0.79171290  0.04691046  1
  O  O144  1  0.42604210  0.32601912  0.26664980  1
  O  O145  1  0.42604210  0.17398088  0.76664980  1
  O  O146  1  0.45308954  0.64478631  0.29171290  1
  O  O147  1  0.45308954  0.85521369  0.79171290  1
  O  O148  1  0.49280909  0.15505499  0.50384338  1
  O  O149  1  0.49280909  0.34494501  0.00384338  1
  O  O150  1  0.50384338  0.49280909  0.15505499  1
  O  O151  1  0.50384338  0.00719091  0.65505499  1
  O  O152  1  0.49615662  0.99280909  0.34494501  1
  O  O153  1  0.49615662  0.50719091  0.84494501  1
  O  O154  1  0.50719091  0.65505499  0.99615662  1
  O  O155  1  0.50719091  0.84494501  0.49615662  1
  O  O156  1  0.54691046  0.14478631  0.20828710  1
  O  O157  1  0.54691046  0.35521369  0.70828710  1
  O  O158  1  0.57395790  0.82601912  0.23335020  1
  O  O159  1  0.57395790  0.67398088  0.73335020  1
  O  O160  1  0.64478631  0.20828710  0.95308954  1
  O  O161  1  0.64478631  0.29171290  0.45308954  1
  O  O162  1  0.65505499  0.99615662  0.50719091  1
  O  O163  1  0.65505499  0.50384338  0.00719091  1
  O  O164  1  0.67398088  0.73335020  0.57395790  1
  O  O165  1  0.67398088  0.76664980  0.07395790  1
  O  O166  1  0.70828710  0.95308954  0.85521369  1
  O  O167  1  0.70828710  0.54691046  0.35521369  1
  O  O168  1  0.73335020  0.57395790  0.67398088  1
  O  O169  1  0.73335020  0.92604210  0.17398088  1
  O  O170  1  0.74583660  0.24583660  0.25416340  1
  O  O171  1  0.74583660  0.25416340  0.75416340  1
  O  O172  1  0.75416340  0.74583660  0.25416340  1
  O  O173  1  0.75416340  0.75416340  0.75416340  1
  O  O174  1  0.76664980  0.07395790  0.67398088  1
  O  O175  1  0.76664980  0.42604210  0.17398088  1
  O  O176  1  0.79171290  0.04691046  0.35521369  1
  O  O177  1  0.79171290  0.45308954  0.85521369  1
  O  O178  1  0.82601912  0.23335020  0.57395790  1
  O  O179  1  0.82601912  0.26664980  0.07395790  1
  O  O180  1  0.84494501  0.49615662  0.50719091  1
  O  O181  1  0.84494501  0.00384338  0.00719091  1
  O  O182  1  0.85521369  0.70828710  0.95308954  1
  O  O183  1  0.85521369  0.79171290  0.45308954  1
  O  O184  1  0.92604210  0.17398088  0.73335020  1
  O  O185  1  0.92604210  0.32601912  0.23335020  1
  O  O186  1  0.95308954  0.64478631  0.20828710  1
  O  O187  1  0.95308954  0.85521369  0.70828710  1
  O  O188  1  0.99280909  0.15505499  0.99615662  1
  O  O189  1  0.99280909  0.34494501  0.49615662  1
  O  O190  1  0.00384338  0.00719091  0.84494501  1
  O  O191  1  0.00384338  0.49280909  0.34494501  1
