# generated using pymatgen
data_Li8Mn7Fe(BO3)8
_symmetry_space_group_name_H-M   'P 1'
_cell_length_a   6.07597451
_cell_length_b   5.24025508
_cell_length_c   16.32310452
_cell_angle_alpha   91.14817869
_cell_angle_beta   97.65282435
_cell_angle_gamma   89.23659230
_symmetry_Int_Tables_number   1
_chemical_formula_structural   Li8Mn7Fe(BO3)8
_chemical_formula_sum   'Li8 Mn7 Fe1 B8 O24'
_cell_volume   514.95977239
_cell_formula_units_Z   1
loop_
 _symmetry_equiv_pos_site_id
 _symmetry_equiv_pos_as_xyz
  1  'x, y, z'
loop_
 _atom_site_type_symbol
 _atom_site_label
 _atom_site_symmetry_multiplicity
 _atom_site_fract_x
 _atom_site_fract_y
 _atom_site_fract_z
 _atom_site_occupancy
  Li  Li0  1  0.06372821  0.84665968  0.61062506  1
  Li  Li1  1  0.43545231  0.15161854  0.89042410  1
  Li  Li2  1  0.18682969  0.65159487  0.14051896  1
  Li  Li3  1  0.31316784  0.34842216  0.35914327  1
  Li  Li4  1  0.68866217  0.65154016  0.64200105  1
  Li  Li5  1  0.81233857  0.34824595  0.85877322  1
  Li  Li6  1  0.56376531  0.84777313  0.10858421  1
  Li  Li7  1  0.93645333  0.15141717  0.39079652  1
  Mn  Mn8  1  0.27167477  0.66841109  0.95851195  1
  Mn  Mn9  1  0.02401670  0.16784858  0.20971776  1
  Mn  Mn10  1  0.22693349  0.33208657  0.54003474  1
  Mn  Mn11  1  0.52225655  0.16642662  0.70973387  1
  Mn  Mn12  1  0.47550707  0.83195969  0.29024321  1
  Mn  Mn13  1  0.77410030  0.66789192  0.45990510  1
  Mn  Mn14  1  0.72511823  0.33197379  0.04013245  1
  Fe  Fe15  1  0.97627563  0.83961318  0.79134581  1
  B  B16  1  0.03775815  0.32904667  0.70341206  1
  B  B17  1  0.28538392  0.82956872  0.45225037  1
  B  B18  1  0.46273409  0.67071383  0.79729444  1
  B  B19  1  0.21467159  0.17044070  0.04760611  1
  B  B20  1  0.78495232  0.83077493  0.95079666  1
  B  B21  1  0.53529237  0.32987633  0.20205181  1
  B  B22  1  0.71559688  0.16932899  0.54830022  1
  B  B23  1  0.96466518  0.67006172  0.29790545  1
  O  O24  1  0.01215746  0.58942318  0.69217271  1
  O  O25  1  0.16920115  0.18412948  0.65540083  1
  O  O26  1  0.16961595  0.71306097  0.50894007  1
  O  O27  1  0.33023398  0.28872269  0.99138320  1
  O  O28  1  0.08100908  0.78725742  0.24161137  1
  O  O29  1  0.32722400  0.81872899  0.84357126  1
  O  O30  1  0.07974140  0.31791083  0.09422850  1
  O  O31  1  0.26283612  0.08983413  0.43860701  1
  O  O32  1  0.48676295  0.41021137  0.81101359  1
  O  O33  1  0.23762342  0.90993687  0.06061413  1
  O  O34  1  0.41987044  0.68120740  0.40594825  1
  O  O35  1  0.41931190  0.21285759  0.25847770  1
  O  O36  1  0.57841377  0.78753033  0.74082696  1
  O  O37  1  0.58102521  0.31800508  0.59476694  1
  O  O38  1  0.76282985  0.09138359  0.93843472  1
  O  O39  1  0.51322964  0.58979005  0.18856917  1
  O  O40  1  0.73806140  0.90961857  0.56167016  1
  O  O41  1  0.91866424  0.68345541  0.90279773  1
  O  O42  1  0.67018554  0.18099288  0.15577922  1
  O  O43  1  0.92583850  0.20514194  0.76024826  1
  O  O44  1  0.67200193  0.71191295  0.00780755  1
  O  O45  1  0.83040171  0.28702387  0.49154887  1
  O  O46  1  0.82950573  0.81847249  0.34416351  1
  O  O47  1  0.98692297  0.41009392  0.31130688  1
