# generated using pymatgen
data_CoPO4
_symmetry_space_group_name_H-M   'P 1'
_cell_length_a   10.38730957
_cell_length_b   13.71204890
_cell_length_c   5.21375933
_cell_angle_alpha   90.00000000
_cell_angle_beta   90.00000000
_cell_angle_gamma   90.00000000
_symmetry_Int_Tables_number   1
_chemical_formula_structural   CoPO4
_chemical_formula_sum   'Co8 P8 O32'
_cell_volume   742.60250238
_cell_formula_units_Z   8
loop_
 _symmetry_equiv_pos_site_id
 _symmetry_equiv_pos_as_xyz
  1  'x, y, z'
loop_
 _atom_site_type_symbol
 _atom_site_label
 _atom_site_symmetry_multiplicity
 _atom_site_fract_x
 _atom_site_fract_y
 _atom_site_fract_z
 _atom_site_occupancy
  Co  Co0  1  0.04004261  0.75209052  0.06903158  1
  Co  Co1  1  0.22154607  0.00021576  0.55328828  1
  Co  Co2  1  0.27845393  0.50021576  0.55328828  1
  Co  Co3  1  0.45995739  0.25209052  0.06903158  1
  Co  Co4  1  0.54004261  0.75209052  0.93096842  1
  Co  Co5  1  0.72154607  0.00021576  0.44671172  1
  Co  Co6  1  0.77845393  0.50021576  0.44671172  1
  Co  Co7  1  0.95995739  0.25209052  0.93096842  1
  P  P8  1  0.02758252  0.37629360  0.42966142  1
  P  P9  1  0.21301364  0.12785101  0.04995576  1
  P  P10  1  0.28698636  0.62785101  0.04995576  1
  P  P11  1  0.47241748  0.87629360  0.42966142  1
  P  P12  1  0.52758252  0.37629360  0.57033858  1
  P  P13  1  0.71301364  0.12785101  0.95004424  1
  P  P14  1  0.78698636  0.62785101  0.95004424  1
  P  P15  1  0.97241748  0.87629360  0.57033858  1
  O  O16  1  0.99702815  0.85616761  0.85870150  1
  O  O17  1  0.04856284  0.96933121  0.49465305  1
  O  O18  1  0.01544961  0.78618572  0.41185311  1
  O  O19  1  0.06829601  0.14810081  0.00559143  1
  O  O20  1  0.17307228  0.39543511  0.46956868  1
  O  O21  1  0.20822707  0.71946174  0.97330912  1
  O  O22  1  0.25074938  0.53579194  0.89140797  1
  O  O23  1  0.24429896  0.10643897  0.33514011  1
  O  O24  1  0.25570104  0.60643897  0.33514011  1
  O  O25  1  0.24925062  0.03579194  0.89140797  1
  O  O26  1  0.29177293  0.21946174  0.97330912  1
  O  O27  1  0.32692772  0.89543511  0.46956868  1
  O  O28  1  0.43170399  0.64810081  0.00559143  1
  O  O29  1  0.48455039  0.28618572  0.41185311  1
  O  O30  1  0.45143716  0.46933121  0.49465305  1
  O  O31  1  0.50297185  0.35616761  0.85870150  1
  O  O32  1  0.49702815  0.85616761  0.14129850  1
  O  O33  1  0.54856284  0.96933121  0.50534695  1
  O  O34  1  0.51544961  0.78618572  0.58814689  1
  O  O35  1  0.56829601  0.14810081  0.99440857  1
  O  O36  1  0.67307228  0.39543511  0.53043132  1
  O  O37  1  0.70822707  0.71946174  0.02669088  1
  O  O38  1  0.75074838  0.53579194  0.10859203  1
  O  O39  1  0.74429896  0.10643897  0.66485989  1
  O  O40  1  0.75570104  0.60643897  0.66485989  1
  O  O41  1  0.74925162  0.03579194  0.10859203  1
  O  O42  1  0.79177293  0.21946174  0.02669088  1
  O  O43  1  0.82692772  0.89543511  0.53043132  1
  O  O44  1  0.93170399  0.64810081  0.99440857  1
  O  O45  1  0.98455039  0.28618572  0.58814689  1
  O  O46  1  0.95143716  0.46933121  0.50534695  1
  O  O47  1  0.00297185  0.35616761  0.14129850  1
