# generated using pymatgen
data_Li4Mn3Fe(BO3)4
_symmetry_space_group_name_H-M   'P 1'
_cell_length_a   6.06409351
_cell_length_b   5.27692491
_cell_length_c   8.97783796
_cell_angle_alpha   90.79665317
_cell_angle_beta   102.55203706
_cell_angle_gamma   113.56846064
_symmetry_Int_Tables_number   1
_chemical_formula_structural   Li4Mn3Fe(BO3)4
_chemical_formula_sum   'Li4 Mn3 Fe1 B4 O12'
_cell_volume   255.39368223
_cell_formula_units_Z   1
loop_
 _symmetry_equiv_pos_site_id
 _symmetry_equiv_pos_as_xyz
  1  'x, y, z'
loop_
 _atom_site_type_symbol
 _atom_site_label
 _atom_site_symmetry_multiplicity
 _atom_site_fract_x
 _atom_site_fract_y
 _atom_site_fract_z
 _atom_site_occupancy
  Li  Li0  1  0.67382630  0.40335128  0.03471633  1
  Li  Li1  1  0.66863635  0.89956185  0.53245712  1
  Li  Li2  1  0.32845094  0.09620506  0.46610761  1
  Li  Li3  1  0.32786567  0.59663481  0.96679571  1
  Mn  Mn4  1  0.76580964  0.45352654  0.70587961  1
  Mn  Mn5  1  0.76975629  0.95683456  0.20862574  1
  Mn  Mn6  1  0.23407642  0.04583539  0.79293840  1
  Fe  Fe7  1  0.23494141  0.54868606  0.29008876  1
  B  B8  1  0.73965219  0.44190511  0.36693270  1
  B  B9  1  0.26113976  0.06087902  0.13505297  1
  B  B10  1  0.73724451  0.94091822  0.86769127  1
  B  B11  1  0.26150512  0.55754984  0.63079021  1
  O  O12  1  0.82983364  0.37901422  0.24644643  1
  O  O13  1  0.70325140  0.27022388  0.48297769  1
  O  O14  1  0.67548301  0.16829757  0.86502771  1
  O  O15  1  0.67604460  0.66785494  0.36446771  1
  O  O16  1  0.82604261  0.87705922  0.74673031  1
  O  O17  1  0.29842700  0.22643452  0.01697743  1
  O  O18  1  0.70208744  0.77193510  0.98484913  1
  O  O19  1  0.17725379  0.13265671  0.25613870  1
  O  O20  1  0.32470652  0.33091934  0.63474480  1
  O  O21  1  0.31527984  0.82710723  0.13820644  1
  O  O22  1  0.29345646  0.72305660  0.51252471  1
  O  O23  1  0.17523109  0.62355292  0.75283152  1
