# generated using pymatgen
data_Li2MnFe(BO3)2
_symmetry_space_group_name_H-M   'P 1'
_cell_length_a   6.02858563
_cell_length_b   5.23351133
_cell_length_c   8.23262645
_cell_angle_alpha   90.60584473
_cell_angle_beta   76.65319104
_cell_angle_gamma   88.91600668
_symmetry_Int_Tables_number   1
_chemical_formula_structural   Li2MnFe(BO3)2
_chemical_formula_sum   'Li4 Mn2 Fe2 B4 O12'
_cell_volume   252.65430487
_cell_formula_units_Z   2
loop_
 _symmetry_equiv_pos_site_id
 _symmetry_equiv_pos_as_xyz
  1  'x, y, z'
loop_
 _atom_site_type_symbol
 _atom_site_label
 _atom_site_symmetry_multiplicity
 _atom_site_fract_x
 _atom_site_fract_y
 _atom_site_fract_z
 _atom_site_occupancy
  Li  Li0  1  0.04753322  0.65493080  0.27885646  1
  Li  Li1  1  0.45246678  0.84506920  0.22114354  1
  Li  Li2  1  0.54592657  0.15387280  0.78062937  1
  Li  Li3  1  0.95407343  0.34612720  0.71937063  1
  Mn  Mn4  1  0.68675487  0.33127559  0.07942547  1
  Mn  Mn5  1  0.81324513  0.16872441  0.42057453  1
  Fe  Fe6  1  0.18589918  0.83570029  0.58258887  1
  Fe  Fe7  1  0.31410082  0.66429971  0.91741113  1
  B  B8  1  0.16777329  0.17215715  0.09139021  1
  B  B9  1  0.33222671  0.32784285  0.40860979  1
  B  B10  1  0.66553747  0.67164847  0.59524378  1
  B  B11  1  0.83446253  0.82835153  0.90475622  1
  O  O12  1  0.18311454  0.91202466  0.11369805  1
  O  O13  1  0.01423106  0.67966673  0.80874363  1
  O  O14  1  0.16379851  0.20378840  0.52394213  1
  O  O15  1  0.31688546  0.58797534  0.38630195  1
  O  O16  1  0.51263447  0.18220361  0.31058205  1
  O  O17  1  0.66458214  0.71294638  0.02174549  1
  O  O18  1  0.33620149  0.29621160  0.97605787  1
  O  O19  1  0.48576894  0.82033327  0.69125637  1
  O  O20  1  0.67644471  0.41235222  0.62284075  1
  O  O21  1  0.83541786  0.78705362  0.47825451  1
  O  O22  1  0.98736553  0.31779639  0.18941795  1
  O  O23  1  0.82355529  0.08764778  0.87715925  1
