# generated using pymatgen
data_Mn11Fe(PO4)12
_symmetry_space_group_name_H-M   'P 1'
_cell_length_a   4.92977973
_cell_length_b   9.82961859
_cell_length_c   18.10340350
_cell_angle_alpha   90.00000000
_cell_angle_beta   90.00000000
_cell_angle_gamma   89.88754920
_symmetry_Int_Tables_number   1
_chemical_formula_structural   Mn11Fe(PO4)12
_chemical_formula_sum   'Mn11 Fe1 P12 O48'
_cell_volume   877.25040225
_cell_formula_units_Z   1
loop_
 _symmetry_equiv_pos_site_id
 _symmetry_equiv_pos_as_xyz
  1  'x, y, z'
loop_
 _atom_site_type_symbol
 _atom_site_label
 _atom_site_symmetry_multiplicity
 _atom_site_fract_x
 _atom_site_fract_y
 _atom_site_fract_z
 _atom_site_occupancy
  Mn  Mn0  1  0.06986822  0.71548947  0.25000000  1
  Mn  Mn1  1  0.06986448  0.71557445  0.58366497  1
  Mn  Mn2  1  0.06986448  0.71557445  0.91633503  1
  Mn  Mn3  1  0.43230285  0.21688031  0.58279930  1
  Mn  Mn4  1  0.43230285  0.21688031  0.91720070  1
  Mn  Mn5  1  0.43005869  0.21579625  0.25000000  1
  Mn  Mn6  1  0.56956473  0.78444660  0.08323018  1
  Mn  Mn7  1  0.56956473  0.78444660  0.41676982  1
  Mn  Mn8  1  0.56855712  0.78411044  0.75000000  1
  Mn  Mn9  1  0.92896512  0.28515721  0.08299595  1
  Mn  Mn10  1  0.92896512  0.28515721  0.41700405  1
  Fe  Fe11  1  0.95826279  0.27546428  0.75000000  1
  P  P12  1  0.08495618  0.59937341  0.08322281  1
  P  P13  1  0.08495618  0.59937341  0.41677719  1
  P  P14  1  0.08662883  0.59997485  0.75000000  1
  P  P15  1  0.41516874  0.09940057  0.08326288  1
  P  P16  1  0.41516874  0.09940057  0.41673712  1
  P  P17  1  0.41294049  0.09608693  0.75000000  1
  P  P18  1  0.58453014  0.90060549  0.25000000  1
  P  P19  1  0.58388646  0.90072958  0.58341619  1
  P  P20  1  0.58388646  0.90072958  0.91658381  1
  P  P21  1  0.91466798  0.40103890  0.25000000  1
  P  P22  1  0.91500065  0.40064384  0.58471443  1
  P  P23  1  0.91500065  0.40064384  0.91528557  1
  O  O24  1  0.14632792  0.44501984  0.08317957  1
  O  O25  1  0.14632792  0.44501984  0.41682043  1
  O  O26  1  0.14923158  0.44700918  0.75000000  1
  O  O27  1  0.22746804  0.67064759  0.01655415  1
  O  O28  1  0.22768779  0.67063344  0.15000527  1
  O  O29  1  0.22768779  0.67063344  0.34999473  1
  O  O30  1  0.22746804  0.67064759  0.48344585  1
  O  O31  1  0.22817691  0.67251978  0.68324226  1
  O  O32  1  0.22817691  0.67251978  0.81675774  1
  O  O33  1  0.22558665  0.38147820  0.25000000  1
  O  O34  1  0.22679547  0.38171226  0.58370326  1
  O  O35  1  0.22679547  0.38171226  0.91629674  1
  O  O36  1  0.27378096  0.88114667  0.25000000  1
  O  O37  1  0.27336726  0.88141962  0.91689823  1
  O  O38  1  0.27336726  0.88141962  0.58310177  1
  O  O39  1  0.27208607  0.17104761  0.01637409  1
  O  O40  1  0.27211945  0.17135017  0.14988547  1
  O  O41  1  0.27208607  0.17104761  0.48362591  1
  O  O42  1  0.26440189  0.17033754  0.68418591  1
  O  O43  1  0.27211945  0.17135017  0.35011453  1
  O  O44  1  0.26440189  0.17033754  0.81581409  1
  O  O45  1  0.35380975  0.94564283  0.08336246  1
  O  O46  1  0.35380975  0.94564283  0.41663754  1
  O  O47  1  0.34437795  0.94349390  0.75000000  1
  O  O48  1  0.64569732  0.05479922  0.25000000  1
  O  O49  1  0.64482482  0.05502554  0.58404584  1
  O  O50  1  0.64482482  0.05502554  0.91595416  1
  O  O51  1  0.72756433  0.82915931  0.18326283  1
  O  O52  1  0.72756433  0.82915931  0.31673717  1
  O  O53  1  0.72737502  0.82947646  0.51667674  1
  O  O54  1  0.72687843  0.82970590  0.84983555  1
  O  O55  1  0.72737502  0.82947646  0.98332326  1
  O  O56  1  0.72687843  0.82970590  0.65016445  1
  O  O57  1  0.72579576  0.11924115  0.08308113  1
  O  O58  1  0.72579576  0.11924115  0.41691887  1
  O  O59  1  0.71937846  0.11743413  0.75000000  1
  O  O60  1  0.77405477  0.61871114  0.08326943  1
  O  O61  1  0.77597488  0.61987178  0.75000000  1
  O  O62  1  0.77405477  0.61871114  0.41673057  1
  O  O63  1  0.77208164  0.32945394  0.18325340  1
  O  O64  1  0.77208164  0.32945394  0.31674660  1
  O  O65  1  0.77323699  0.32836080  0.51775299  1
  O  O66  1  0.77323699  0.32836080  0.98224701  1
  O  O67  1  0.77637857  0.32935070  0.84812714  1
  O  O68  1  0.77637857  0.32935070  0.65187286  1
  O  O69  1  0.85310247  0.55501814  0.25000000  1
  O  O70  1  0.85353714  0.55456750  0.58392007  1
  O  O71  1  0.85353714  0.55456750  0.91607993  1
