# generated using pymatgen
data_Li8Mn7Fe(BO3)8
_symmetry_space_group_name_H-M   'P 1'
_cell_length_a   6.06063390
_cell_length_b   9.90853963
_cell_length_c   9.75859373
_cell_angle_alpha   64.07586831
_cell_angle_beta   78.09653526
_cell_angle_gamma   78.77326083
_symmetry_Int_Tables_number   1
_chemical_formula_structural   Li8Mn7Fe(BO3)8
_chemical_formula_sum   'Li8 Mn7 Fe1 B8 O24'
_cell_volume   512.07042209
_cell_formula_units_Z   1
loop_
 _symmetry_equiv_pos_site_id
 _symmetry_equiv_pos_as_xyz
  1  'x, y, z'
loop_
 _atom_site_type_symbol
 _atom_site_label
 _atom_site_symmetry_multiplicity
 _atom_site_fract_x
 _atom_site_fract_y
 _atom_site_fract_z
 _atom_site_occupancy
  Li  Li0  1  0.95386631  0.18420141  0.53362425  1
  Li  Li1  1  0.95261854  0.68356493  0.03230326  1
  Li  Li2  1  0.54675981  0.81460410  0.96639038  1
  Li  Li3  1  0.45421393  0.68452132  0.53376708  1
  Li  Li4  1  0.54638678  0.31540182  0.46679976  1
  Li  Li5  1  0.45366732  0.18435044  0.03344047  1
  Li  Li6  1  0.04693166  0.31658436  0.96686040  1
  Li  Li7  1  0.04596306  0.81528222  0.46726008  1
  Mn  Mn8  1  0.68567793  0.37506632  0.70682040  1
  Mn  Mn9  1  0.68608786  0.87400180  0.20623921  1
  Mn  Mn10  1  0.81417325  0.12597935  0.29326000  1
  Mn  Mn11  1  0.18576444  0.87308111  0.70727377  1
  Mn  Mn12  1  0.31374548  0.12569372  0.79417265  1
  Mn  Mn13  1  0.31398350  0.62598052  0.29331066  1
  Mn  Mn14  1  0.18662530  0.37443057  0.20572562  1
  Fe  Fe15  1  0.81503039  0.62698359  0.78997730  1
  B  B16  1  0.66491542  0.96207183  0.63406279  1
  B  B17  1  0.83356559  0.03633354  0.86728908  1
  B  B18  1  0.83341910  0.53615012  0.36757160  1
  B  B19  1  0.66718949  0.46426777  0.13063021  1
  B  B20  1  0.33545769  0.53690432  0.86741901  1
  B  B21  1  0.16510525  0.46525809  0.63331529  1
  B  B22  1  0.16631928  0.96374362  0.13260591  1
  B  B23  1  0.33335587  0.03638658  0.36750566  1
  O  O24  1  0.82512866  0.89309259  0.98378373  1
  O  O25  1  0.98456406  0.43870120  0.75440612  1
  O  O26  1  0.98555723  0.93473390  0.25359172  1
  O  O27  1  0.83670448  0.84419656  0.63851047  1
  O  O28  1  0.82488680  0.39303346  0.48449007  1
  O  O29  1  0.48395300  0.93519109  0.75391006  1
  O  O30  1  0.84113933  0.34831081  0.13499988  1
  O  O31  1  0.65998759  0.15182475  0.86450040  1
  O  O32  1  0.65942892  0.65137559  0.36499829  1
  O  O33  1  0.51666488  0.56605138  0.74664503  1
  O  O34  1  0.67678577  0.10461299  0.51700574  1
  O  O35  1  0.67615578  0.60609159  0.01260052  1
  O  O36  1  0.32702508  0.39312183  0.98332458  1
  O  O37  1  0.32432016  0.89313519  0.48418160  1
  O  O38  1  0.48675771  0.43606327  0.25214442  1
  O  O39  1  0.33707191  0.34882119  0.63626373  1
  O  O40  1  0.34051936  0.84876922  0.13478665  1
  O  O41  1  0.16066321  0.65110554  0.86532808  1
  O  O42  1  0.51452910  0.06482985  0.24695944  1
  O  O43  1  0.17456659  0.60766640  0.51545282  1
  O  O44  1  0.15980059  0.15172176  0.36484725  1
  O  O45  1  0.01464442  0.06471278  0.74656870  1
  O  O46  1  0.01425466  0.56480367  0.24675851  1
  O  O47  1  0.17406745  0.10719194  0.01631538  1
