# generated using pymatgen
data_LiMnBO3
_symmetry_space_group_name_H-M   'P 1'
_cell_length_a   5.24481482
_cell_length_b   5.24481510
_cell_length_c   10.57313997
_cell_angle_alpha   88.98740854
_cell_angle_beta   91.01259431
_cell_angle_gamma   60.21230463
_symmetry_Int_Tables_number   1
_chemical_formula_structural   LiMnBO3
_chemical_formula_sum   'Li4 Mn4 B4 O12'
_cell_volume   252.26115507
_cell_formula_units_Z   4
loop_
 _symmetry_equiv_pos_site_id
 _symmetry_equiv_pos_as_xyz
  1  'x, y, z'
loop_
 _atom_site_type_symbol
 _atom_site_label
 _atom_site_symmetry_multiplicity
 _atom_site_fract_x
 _atom_site_fract_y
 _atom_site_fract_z
 _atom_site_occupancy
  Li  Li0  1  0.32061562  0.65068675  0.33147942  1
  Li  Li1  1  0.34931325  0.67938438  0.83147942  1
  Li  Li2  1  0.65114319  0.33765124  0.58169013  1
  Li  Li3  1  0.66234876  0.34885681  0.08169013  1
  Mn  Mn4  1  0.32983962  0.00378108  0.11641945  1
  Mn  Mn5  1  0.67726729  0.00374434  0.86652315  1
  Mn  Mn6  1  0.99625566  0.32273271  0.36652315  1
  Mn  Mn7  1  0.99621892  0.67016038  0.61641945  1
  B  B8  1  0.00261764  0.34270031  0.87449131  1
  B  B9  1  0.33493599  0.00402210  0.62440854  1
  B  B10  1  0.65729969  0.99738236  0.37449131  1
  B  B11  1  0.99597790  0.66506401  0.12440854  1
  O  O12  1  0.07125391  0.24597496  0.58123136  1
  O  O13  1  0.25357861  0.07136435  0.90466271  1
  O  O14  1  0.03252900  0.57982669  0.83202434  1
  O  O15  1  0.57825194  0.03720633  0.65533520  1
  O  O16  1  0.26998262  0.64069217  0.13968206  1
  O  O17  1  0.35930783  0.73001738  0.63968206  1
  O  O18  1  0.62759842  0.27256353  0.39015232  1
  O  O19  1  0.72743647  0.37240158  0.89015232  1
  O  O20  1  0.42017331  0.96747100  0.33202434  1
  O  O21  1  0.96279367  0.42174806  0.15533520  1
  O  O22  1  0.75402504  0.92874609  0.08123136  1
  O  O23  1  0.92863565  0.74642139  0.40466271  1
