# generated using pymatgen
data_La16Mn15O48
_symmetry_space_group_name_H-M   'P 1'
_cell_length_a   7.90047638
_cell_length_b   7.89078515
_cell_length_c   15.78023701
_cell_angle_alpha   89.85067941
_cell_angle_beta   90.05485746
_cell_angle_gamma   89.90045132
_symmetry_Int_Tables_number   1
_chemical_formula_structural   La16Mn15O48
_chemical_formula_sum   'La16 Mn15 O48'
_cell_volume   983.74987111
_cell_formula_units_Z   1
loop_
 _symmetry_equiv_pos_site_id
 _symmetry_equiv_pos_as_xyz
  1  'x, y, z'
loop_
 _atom_site_type_symbol
 _atom_site_label
 _atom_site_symmetry_multiplicity
 _atom_site_fract_x
 _atom_site_fract_y
 _atom_site_fract_z
 _atom_site_occupancy
  La  La0  1  0.00327435  0.47457765  0.88161190  1
  La  La1  1  0.01032667  0.48470947  0.37457718  1
  La  La2  1  0.48967333  0.01529053  0.62542282  1
  La  La3  1  0.49672565  0.02542235  0.11838810  1
  La  La4  1  0.98418503  0.00785409  0.62596248  1
  La  La5  1  0.48958755  0.50111706  0.12039089  1
  La  La6  1  0.48213105  0.51004257  0.62683912  1
  La  La7  1  0.96521302  0.02517227  0.11653422  1
  La  La8  1  0.01786895  0.98995743  0.37316088  1
  La  La9  1  0.53478698  0.47482673  0.88346578  1
  La  La10  1  0.51581497  0.49214591  0.37403752  1
  La  La11  1  0.01041245  0.99888294  0.87960911  1
  La  La12  1  0.50748103  0.98193339  0.37254261  1
  La  La13  1  0.51872120  0.99168463  0.87964434  1
  La  La14  1  0.99251897  0.51806661  0.62745739  1
  La  La15  1  0.98127880  0.50831537  0.12035566  1
  Mn  Mn16  1  0.25000000  0.25000000  0.00000000  1
  Mn  Mn17  1  0.25000000  0.25000000  0.50000000  1
  Mn  Mn18  1  0.25121291  0.24948864  0.75071058  1
  Mn  Mn19  1  0.24878709  0.25051136  0.24928942  1
  Mn  Mn20  1  0.25000000  0.75000000  0.00000000  1
  Mn  Mn21  1  0.24956804  0.75011189  0.24637441  1
  Mn  Mn22  1  0.75090710  0.24933592  0.74825745  1
  Mn  Mn23  1  0.25000000  0.75000000  0.50000000  1
  Mn  Mn24  1  0.25043196  0.74988811  0.75362559  1
  Mn  Mn25  1  0.75000000  0.25000000  0.50000000  1
  Mn  Mn26  1  0.74909290  0.25066408  0.25174255  1
  Mn  Mn27  1  0.74835147  0.74961977  0.75078431  1
  Mn  Mn28  1  0.75000000  0.75000000  0.50000000  1
  Mn  Mn29  1  0.75000000  0.75000000  0.00000000  1
  Mn  Mn30  1  0.75164853  0.75038023  0.24921569  1
  O  O31  1  0.99945012  0.22861045  0.27434275  1
  O  O32  1  0.00150559  0.22607439  0.76948450  1
  O  O33  1  0.01645439  0.22540114  0.98046928  1
  O  O34  1  0.00182872  0.22626052  0.47837156  1
  O  O35  1  0.21291250  0.20824068  0.12495497  1
  O  O36  1  0.21751036  0.20564508  0.62531928  1
  O  O37  1  0.28708750  0.29175932  0.87504503  1
  O  O38  1  0.28248964  0.29435492  0.37468072  1
  O  O39  1  0.72808372  0.00087486  0.72548061  1
  O  O40  1  0.72753349  0.00083157  0.52150674  1
  O  O41  1  0.22133756  0.50205059  0.01936204  1
  O  O42  1  0.22561081  0.50068505  0.22840049  1
  O  O43  1  0.71955269  0.98335526  0.01968760  1
  O  O44  1  0.72492647  0.00156722  0.22987084  1
  O  O45  1  0.22629083  0.50058175  0.52086563  1
  O  O46  1  0.22768189  0.50065117  0.72866974  1
  O  O47  1  0.48354561  0.27459886  0.01953072  1
  O  O48  1  0.49849441  0.27392561  0.23051550  1
  O  O49  1  0.50054988  0.27138955  0.72565725  1
  O  O50  1  0.49817128  0.27373948  0.52162844  1
  O  O51  1  0.20782959  0.71839690  0.37337994  1
  O  O52  1  0.71133798  0.21652809  0.86387181  1
  O  O53  1  0.70209983  0.21563633  0.37287955  1
  O  O54  1  0.19696710  0.71977323  0.87662012  1
  O  O55  1  0.78866202  0.28347191  0.13612819  1
  O  O56  1  0.30303290  0.78022677  0.12337988  1
  O  O57  1  0.79790017  0.28436367  0.62712045  1
  O  O58  1  0.29217041  0.78160310  0.62662006  1
  O  O59  1  0.49927557  0.71956737  0.97966782  1
  O  O60  1  0.50042328  0.72479626  0.77222578  1
  O  O61  1  0.50114826  0.72721349  0.27163406  1
  O  O62  1  0.49974636  0.72733828  0.47941656  1
  O  O63  1  0.77507353  0.49843278  0.77012916  1
  O  O64  1  0.77191628  0.49912514  0.27451939  1
  O  O65  1  0.77246651  0.49916843  0.47849326  1
  O  O66  1  0.78044731  0.51664474  0.98031240  1
  O  O67  1  0.27231811  0.99934883  0.27133026  1
  O  O68  1  0.27866244  0.99794941  0.98063796  1
  O  O69  1  0.27370917  0.99941825  0.47913437  1
  O  O70  1  0.27438919  0.99931495  0.77159951  1
  O  O71  1  0.72048699  0.70075687  0.12507951  1
  O  O72  1  0.71702481  0.70571723  0.62531133  1
  O  O73  1  0.78297519  0.79428277  0.37468867  1
  O  O74  1  0.77951301  0.79924313  0.87492049  1
  O  O75  1  0.00072443  0.78043263  0.02033218  1
  O  O76  1  -0.00042328  0.77520374  0.22777422  1
  O  O77  1  0.99885174  0.77278651  0.72836594  1
  O  O78  1  0.00025364  0.77266172  0.52058344  1
