# generated using pymatgen
data_BaNaScSi2O7
_symmetry_space_group_name_H-M   'P 1'
_cell_length_a   6.88294031
_cell_length_b   5.69185331
_cell_length_c   8.87847460
_cell_angle_alpha   90.00000000
_cell_angle_beta   109.50690812
_cell_angle_gamma   90.00000000
_symmetry_Int_Tables_number   1
_chemical_formula_structural   BaNaScSi2O7
_chemical_formula_sum   'Ba2 Na2 Sc2 Si4 O14'
_cell_volume   327.86424986
_cell_formula_units_Z   2
loop_
 _symmetry_equiv_pos_site_id
 _symmetry_equiv_pos_as_xyz
  1  'x, y, z'
loop_
 _atom_site_type_symbol
 _atom_site_label
 _atom_site_symmetry_multiplicity
 _atom_site_fract_x
 _atom_site_fract_y
 _atom_site_fract_z
 _atom_site_occupancy
  Ba  Ba0  1  0.70864954  0.75000100  0.53386132  1
  Ba  Ba1  1  0.29134741  0.25000200  0.46613874  1
  Na  Na2  1  0.26769987  0.25000200  0.00325636  1
  Na  Na3  1  0.73230615  0.75000100  0.99673829  1
  Sc  Sc4  1  0.69690114  0.25000200  0.26552852  1
  Sc  Sc5  1  0.30308886  0.75000100  0.73446266  1
  Si  Si6  1  0.64323927  0.25000200  0.84434193  1
  Si  Si7  1  0.35676195  0.75000100  0.15565393  1
  Si  Si8  1  0.95166317  0.25000200  0.68428131  1
  Si  Si9  1  0.04833699  0.75000100  0.31571857  1
  O  O10  1  0.89177510  0.25000200  0.85343816  1
  O  O11  1  0.10822402  0.75000100  0.14656444  1
  O  O12  1  0.54090309  0.00810815  0.74863634  1
  O  O13  1  0.45909805  0.50810841  0.25136501  1
  O  O14  1  0.45909805  0.99189259  0.25136501  1
  O  O15  1  0.54090309  0.49189085  0.74863634  1
  O  O16  1  0.63094372  0.25000200  0.02376425  1
  O  O17  1  0.36905598  0.75000100  0.97623832  1
  O  O18  1  0.74089247  0.25000200  0.52674045  1
  O  O19  1  0.25910764  0.75000100  0.47326185  1
  O  O20  1  0.08625684  0.48550665  0.68886033  1
  O  O21  1  0.91374538  0.98550633  0.31114278  1
  O  O22  1  0.91374538  0.51449467  0.31114278  1
  O  O23  1  0.08625684  0.01449435  0.68886033  1
