# generated using pymatgen
data_RbMnP3HO10
_symmetry_space_group_name_H-M   'P 1'
_cell_length_a   7.55150297
_cell_length_b   7.55152853
_cell_length_c   8.66597039
_cell_angle_alpha   77.22684069
_cell_angle_beta   102.77263715
_cell_angle_gamma   108.47748753
_symmetry_Int_Tables_number   1
_chemical_formula_structural   RbMnP3HO10
_chemical_formula_sum   'Rb2 Mn2 P6 H2 O20'
_cell_volume   450.97252280
_cell_formula_units_Z   2
loop_
 _symmetry_equiv_pos_site_id
 _symmetry_equiv_pos_as_xyz
  1  'x, y, z'
loop_
 _atom_site_type_symbol
 _atom_site_label
 _atom_site_symmetry_multiplicity
 _atom_site_fract_x
 _atom_site_fract_y
 _atom_site_fract_z
 _atom_site_occupancy
  Rb  Rb0  1  0.64098622  0.08212098  0.27929288  1
  Rb  Rb1  1  0.08212135  0.64098885  0.72070595  1
  Mn  Mn2  1  0.20005920  0.20005892  0.49999293  1
  Mn  Mn3  1  0.71209021  0.71209115  0.99999755  1
  P  P4  1  0.07989325  0.53184016  0.19159349  1
  P  P5  1  0.53184315  0.07989114  0.80841509  1
  P  P6  1  0.07720653  0.90462899  0.23700546  1
  P  P7  1  0.90463304  0.07720995  0.76299161  1
  P  P8  1  0.46236352  0.50401172  0.26600031  1
  P  P9  1  0.50400644  0.46236008  0.73399836  1
  H  H10  1  0.60981638  0.60981102  0.50000473  1
  H  H11  1  0.12097777  0.12097065  0.00000756  1
  O  O12  1  0.20108148  0.03664861  0.11598864  1
  O  O13  1  0.03664533  0.20108135  0.88401497  1
  O  O14  1  0.10809312  0.97073232  0.39810472  1
  O  O15  1  0.97073468  0.10810238  0.60189325  1
  O  O16  1  0.86447694  0.85336254  0.16903738  1
  O  O17  1  0.85336729  0.86447542  0.83095945  1
  O  O18  1  0.13794068  0.70923820  0.28851656  1
  O  O19  1  0.70923391  0.13793373  0.71148666  1
  O  O20  1  0.94658249  0.56404346  0.03860365  1
  O  O21  1  0.56403897  0.94658183  0.96139736  1
  O  O22  1  0.02652208  0.35400446  0.31057132  1
  O  O23  1  0.35399753  0.02652223  0.68942823  1
  O  O24  1  0.28020614  0.54730519  0.14209612  1
  O  O25  1  0.54730555  0.28020528  0.85790557  1
  O  O26  1  0.40333904  0.30686671  0.36841269  1
  O  O27  1  0.30686207  0.40333659  0.63158559  1
  O  O28  1  0.59783456  0.50034881  0.15960235  1
  O  O29  1  0.50035124  0.59783379  0.84039502  1
  O  O30  1  0.54144742  0.66494520  0.36569739  1
  O  O31  1  0.66494245  0.54144430  0.63430015  1
