# generated using pymatgen
data_CsTi8O16
_symmetry_space_group_name_H-M   'P 1'
_cell_length_a   5.96561241
_cell_length_b   10.80037762
_cell_length_c   10.80385003
_cell_angle_alpha   94.33673622
_cell_angle_beta   106.02682292
_cell_angle_gamma   73.96788553
_symmetry_Int_Tables_number   1
_chemical_formula_structural   CsTi8O16
_chemical_formula_sum   'Cs2 Ti16 O32'
_cell_volume   643.02442291
_cell_formula_units_Z   2
loop_
 _symmetry_equiv_pos_site_id
 _symmetry_equiv_pos_as_xyz
  1  'x, y, z'
loop_
 _atom_site_type_symbol
 _atom_site_label
 _atom_site_symmetry_multiplicity
 _atom_site_fract_x
 _atom_site_fract_y
 _atom_site_fract_z
 _atom_site_occupancy
  Cs  Cs0  1  0.96836791  0.00000000  0.00000000  1
  Cs  Cs1  1  0.78163209  0.50000000  0.50000000  1
  Ti  Ti2  1  0.59045047  0.15101046  0.33114524  1
  Ti  Ti3  1  0.09224342  0.15291142  0.33818155  1
  Ti  Ti4  1  0.65775658  0.34708858  0.16181845  1
  Ti  Ti5  1  0.15954953  0.34898954  0.16885476  1
  Ti  Ti6  1  0.99677497  0.16105071  0.65416887  1
  Ti  Ti7  1  0.24634319  0.66105071  0.15416887  1
  Ti  Ti8  1  0.49101053  0.16986236  0.64984063  1
  Ti  Ti9  1  0.73896773  0.66986236  0.14984063  1
  Ti  Ti10  1  0.25898947  0.33013764  0.85015937  1
  Ti  Ti11  1  0.01103227  0.83013764  0.35015937  1
  Ti  Ti12  1  0.75322503  0.33894929  0.84583113  1
  Ti  Ti13  1  0.50365681  0.83894929  0.34583113  1
  Ti  Ti14  1  0.33968431  0.65101046  0.83114524  1
  Ti  Ti15  1  0.84302571  0.65291142  0.83818155  1
  Ti  Ti16  1  0.90697429  0.84708858  0.66181845  1
  Ti  Ti17  1  0.41031569  0.84898954  0.66885476  1
  O  O18  1  0.77537246  0.15826836  0.20962267  1
  O  O19  1  0.27550476  0.15758718  0.21036506  1
  O  O20  1  0.85323748  0.33287372  0.03728048  1
  O  O21  1  0.35189508  0.33468248  0.03807637  1
  O  O22  1  0.39810492  0.16531752  0.46192363  1
  O  O23  1  0.89676252  0.16712628  0.46271952  1
  O  O24  1  0.47449524  0.34241282  0.28963494  1
  O  O25  1  0.97462754  0.34173164  0.29037733  1
  O  O26  1  0.31425573  0.03793323  0.66497640  1
  O  O27  1  0.06278745  0.53793323  0.16497640  1
  O  O28  1  0.81255156  0.03767061  0.66756345  1
  O  O29  1  0.56734127  0.53767061  0.16756345  1
  O  O30  1  0.93585900  0.78914402  0.15848483  1
  O  O31  1  0.18348181  0.28914402  0.65848483  1
  O  O32  1  0.43176781  0.79116900  0.15732298  1
  O  O33  1  0.68438616  0.29116900  0.65732298  1
  O  O34  1  0.06561384  0.20883100  0.84267702  1
  O  O35  1  0.31823219  0.70883100  0.34267702  1
  O  O36  1  0.81414100  0.71085598  0.34151517  1
  O  O37  1  0.56651819  0.21085598  0.84151517  1
  O  O38  1  0.18265873  0.96232939  0.33243655  1
  O  O39  1  0.93744844  0.46232939  0.83243655  1
  O  O40  1  0.43574427  0.46206677  0.83502360  1
  O  O41  1  0.68721255  0.96206677  0.33502360  1
  O  O42  1  0.02598185  0.65826836  0.70962267  1
  O  O43  1  0.52727313  0.65758718  0.71036506  1
  O  O44  1  0.60116927  0.83287372  0.53727948  1
  O  O45  1  0.10149881  0.83468248  0.53807637  1
  O  O46  1  0.64850119  0.66531752  0.96192363  1
  O  O47  1  0.14883073  0.66712628  0.96272052  1
  O  O48  1  0.22272687  0.84241282  0.78963494  1
  O  O49  1  0.72401815  0.84173164  0.79037733  1
