# generated using pymatgen
data_SrCN2
_symmetry_space_group_name_H-M   'P 1'
_cell_length_a   4.00149385
_cell_length_b   5.43824389
_cell_length_c   12.56605212
_cell_angle_alpha   90.00000000
_cell_angle_beta   90.00000000
_cell_angle_gamma   90.00000000
_symmetry_Int_Tables_number   1
_chemical_formula_structural   SrCN2
_chemical_formula_sum   'Sr4 C4 N8'
_cell_volume   273.45111026
_cell_formula_units_Z   4
loop_
 _symmetry_equiv_pos_site_id
 _symmetry_equiv_pos_as_xyz
  1  'x, y, z'
loop_
 _atom_site_type_symbol
 _atom_site_label
 _atom_site_symmetry_multiplicity
 _atom_site_fract_x
 _atom_site_fract_y
 _atom_site_fract_z
 _atom_site_occupancy
  C  C0  1  0.75000000  0.88428854  0.62303330  1
  C  C1  1  0.25000000  0.38428854  0.87696670  1
  C  C2  1  0.75000000  0.61571146  0.12303330  1
  C  C3  1  0.25000000  0.11571146  0.37696670  1
  N  N4  1  0.25000000  0.31668246  0.42334322  1
  N  N5  1  0.25000000  0.18331754  0.92334322  1
  N  N6  1  0.75000000  0.68331754  0.57665678  1
  N  N7  1  0.75000000  0.81668246  0.07665678  1
  N  N8  1  0.25000000  0.91802462  0.32753254  1
  N  N9  1  0.75000000  0.08197538  0.67246746  1
  N  N10  1  0.75000000  0.41802462  0.17246746  1
  N  N11  1  0.25000000  0.58197538  0.82753254  1
  Sr  Sr12  1  0.25000000  0.38613247  0.63042218  1
  Sr  Sr13  1  0.75000000  0.61386753  0.36957782  1
  Sr  Sr14  1  0.75000000  0.88613247  0.86957782  1
  Sr  Sr15  1  0.25000000  0.11386753  0.13042218  1
