# generated using pymatgen
data_RbPO3
_symmetry_space_group_name_H-M   'P 1'
_cell_length_a   4.57624682
_cell_length_b   6.20803719
_cell_length_c   13.15709864
_cell_angle_alpha   90.00000000
_cell_angle_beta   90.00000000
_cell_angle_gamma   90.00000000
_symmetry_Int_Tables_number   1
_chemical_formula_structural   RbPO3
_chemical_formula_sum   'Rb4 P4 O12'
_cell_volume   373.78673129
_cell_formula_units_Z   4
loop_
 _symmetry_equiv_pos_site_id
 _symmetry_equiv_pos_as_xyz
  1  'x, y, z'
loop_
 _atom_site_type_symbol
 _atom_site_label
 _atom_site_symmetry_multiplicity
 _atom_site_fract_x
 _atom_site_fract_y
 _atom_site_fract_z
 _atom_site_occupancy
  O  O0  1  0.34070964  0.25000000  0.71348606  1
  O  O1  1  0.84070964  0.25000000  0.78651394  1
  O  O2  1  0.65929036  0.75000000  0.28651394  1
  O  O3  1  0.15929036  0.75000000  0.21348606  1
  O  O4  1  0.26497835  0.54146588  0.37880933  1
  O  O5  1  0.76497835  0.95853412  0.12119067  1
  O  O6  1  0.73502165  0.04146588  0.62119067  1
  O  O7  1  0.23502165  0.45853412  0.87880933  1
  O  O8  1  0.76497835  0.54146588  0.12119067  1
  O  O9  1  0.26497835  0.95853412  0.37880933  1
  O  O10  1  0.23502165  0.04146588  0.87880933  1
  O  O11  1  0.73502165  0.45853412  0.62119067  1
  P  P12  1  0.68127730  0.25000000  0.67585748  1
  P  P13  1  0.18127730  0.25000000  0.82414252  1
  P  P14  1  0.31872270  0.75000000  0.32414252  1
  P  P15  1  0.81872270  0.75000000  0.17585748  1
  Rb  Rb16  1  0.22820272  0.75000000  0.59234624  1
  Rb  Rb17  1  0.72820272  0.75000000  0.90765376  1
  Rb  Rb18  1  0.77179728  0.25000000  0.40765376  1
  Rb  Rb19  1  0.27179728  0.25000000  0.09234624  1
