# generated using pymatgen
data_LiNiSO4F
_symmetry_space_group_name_H-M   'P 1'
_cell_length_a   5.16197517
_cell_length_b   5.43472023
_cell_length_c   7.18979498
_cell_angle_alpha   106.98047663
_cell_angle_beta   107.18561690
_cell_angle_gamma   98.11375478
_symmetry_Int_Tables_number   1
_chemical_formula_structural   LiNiSO4F
_chemical_formula_sum   'Li2 Ni2 S2 O8 F2'
_cell_volume   178.49516989
_cell_formula_units_Z   2
loop_
 _symmetry_equiv_pos_site_id
 _symmetry_equiv_pos_as_xyz
  1  'x, y, z'
loop_
 _atom_site_type_symbol
 _atom_site_label
 _atom_site_symmetry_multiplicity
 _atom_site_fract_x
 _atom_site_fract_y
 _atom_site_fract_z
 _atom_site_occupancy
  Li  Li0  1  0.27042351  0.63009272  0.75876963  1
  Li  Li1  1  0.72957649  0.36990728  0.24123037  1
  Ni  Ni2  1  0.00000000  0.00000000  0.50000000  1
  Ni  Ni3  1  0.00000000  0.00000000  0.00000000  1
  S  S4  1  0.32384546  0.63732342  0.25072133  1
  S  S5  1  0.67615454  0.36267658  0.74927867  1
  O  O6  1  0.60601547  0.75104942  0.41475941  1
  O  O7  1  0.39398453  0.24895058  0.58524059  1
  O  O8  1  0.10356856  0.64901681  0.34813945  1
  O  O9  1  0.89643144  0.35098319  0.65186055  1
  O  O10  1  0.31669739  0.35255132  0.14404960  1
  O  O11  1  0.68330261  0.64744868  0.85595040  1
  O  O12  1  0.27571780  0.77423861  0.09756793  1
  O  O13  1  0.72428220  0.22576139  0.90243207  1
  F  F14  1  0.12297946  0.91910305  0.75678823  1
  F  F15  1  0.87702054  0.08089695  0.24321177  1
