# generated using pymatgen
data_TmLuHg2
_symmetry_space_group_name_H-M   'P 1'
_cell_length_a   5.18243823
_cell_length_b   5.18243764
_cell_length_c   5.18247375
_cell_angle_alpha   59.99893870
_cell_angle_beta   59.99985454
_cell_angle_gamma   60.00124270
_symmetry_Int_Tables_number   1
_chemical_formula_structural   TmLuHg2
_chemical_formula_sum   'Tm1 Lu1 Hg2'
_cell_volume   98.42160663
_cell_formula_units_Z   1
loop_
 _symmetry_equiv_pos_site_id
 _symmetry_equiv_pos_as_xyz
  1  'x, y, z'
loop_
 _atom_site_type_symbol
 _atom_site_label
 _atom_site_symmetry_multiplicity
 _atom_site_fract_x
 _atom_site_fract_y
 _atom_site_fract_z
 _atom_site_occupancy
  Tm  Tm0  1  0.75000033  0.74999976  0.74999775  1
  Lu  Lu1  1  0.24999884  0.24999801  0.25000076  1
  Hg  Hg2  1  0.99999904  0.00000112  0.99999669  1
  Hg  Hg3  1  0.49999980  0.49999912  0.50000280  1
