# generated using pymatgen
data_Cd2TeCl2O3
_symmetry_space_group_name_H-M   'P 1'
_cell_length_a   8.37079274
_cell_length_b   11.47085301
_cell_length_c   16.05811201
_cell_angle_alpha   90.00000000
_cell_angle_beta   90.00000000
_cell_angle_gamma   90.00000000
_symmetry_Int_Tables_number   1
_chemical_formula_structural   Cd2TeCl2O3
_chemical_formula_sum   'Cd16 Te8 Cl16 O24'
_cell_volume   1541.90205250
_cell_formula_units_Z   8
loop_
 _symmetry_equiv_pos_site_id
 _symmetry_equiv_pos_as_xyz
  1  'x, y, z'
loop_
 _atom_site_type_symbol
 _atom_site_label
 _atom_site_symmetry_multiplicity
 _atom_site_fract_x
 _atom_site_fract_y
 _atom_site_fract_z
 _atom_site_occupancy
  Cd  Cd0  1  0.89532998  0.23129887  0.47267443  1
  Cd  Cd1  1  0.65399201  0.99520257  0.38335674  1
  Cd  Cd2  1  0.60467002  0.76870113  0.97267443  1
  Cd  Cd3  1  0.89532998  0.26870113  0.02732557  1
  Cd  Cd4  1  0.84600799  0.00479743  0.88335674  1
  Cd  Cd5  1  0.34600799  0.00479743  0.61664326  1
  Cd  Cd6  1  0.10467002  0.73129887  0.97267443  1
  Cd  Cd7  1  0.65399201  0.50479743  0.11664326  1
  Cd  Cd8  1  0.39532998  0.26870113  0.47267443  1
  Cd  Cd9  1  0.84600799  0.49520257  0.61664326  1
  Cd  Cd10  1  0.15399201  0.50479743  0.38335674  1
  Cd  Cd11  1  0.10467002  0.76870113  0.52732557  1
  Cd  Cd12  1  0.39532998  0.23129887  0.02732557  1
  Cd  Cd13  1  0.60467002  0.73129887  0.52732557  1
  Cd  Cd14  1  0.34600799  0.49520257  0.88335674  1
  Cd  Cd15  1  0.15399201  0.99520257  0.11664326  1
  Te  Te16  1  0.28626922  0.96650410  0.90159563  1
  Te  Te17  1  0.78626922  0.53349590  0.90159563  1
  Te  Te18  1  0.71373078  0.46650410  0.40159563  1
  Te  Te19  1  0.21373078  0.03349590  0.40159563  1
  Te  Te20  1  0.71373078  0.03349590  0.09840437  1
  Te  Te21  1  0.28626922  0.53349590  0.59840437  1
  Te  Te22  1  0.21373078  0.46650410  0.09840437  1
  Te  Te23  1  0.78626922  0.96650410  0.59840437  1
  Cl  Cl24  1  0.34672514  0.08543884  0.21135864  1
  Cl  Cl25  1  0.42846973  0.21271575  0.62939393  1
  Cl  Cl26  1  0.15327486  0.91456116  0.71135864  1
  Cl  Cl27  1  0.42846973  0.28728425  0.87060607  1
  Cl  Cl28  1  0.84672514  0.41456116  0.21135864  1
  Cl  Cl29  1  0.65327486  0.58543884  0.71135864  1
  Cl  Cl30  1  0.34672514  0.41456116  0.28864136  1
  Cl  Cl31  1  0.07153027  0.78728425  0.12939393  1
  Cl  Cl32  1  0.65327486  0.91456116  0.78864136  1
  Cl  Cl33  1  0.15327486  0.58543884  0.78864136  1
  Cl  Cl34  1  0.57153027  0.78728425  0.37060607  1
  Cl  Cl35  1  0.07153027  0.71271575  0.37060607  1
  Cl  Cl36  1  0.84672514  0.08543884  0.28864136  1
  Cl  Cl37  1  0.92846973  0.28728425  0.62939393  1
  Cl  Cl38  1  0.92846973  0.21271575  0.87060607  1
  Cl  Cl39  1  0.57153027  0.71271575  0.12939393  1
  O  O40  1  0.19741382  0.54954631  0.99524581  1
  O  O41  1  0.92826881  0.41726862  0.41822558  1
  O  O42  1  0.14712184  0.31761050  0.06003411  1
  O  O43  1  0.30258618  0.45045369  0.49524581  1
  O  O44  1  0.85287816  0.68238950  0.93996589  1
  O  O45  1  0.85287816  0.81761050  0.56003411  1
  O  O46  1  0.57173119  0.58273138  0.91822558  1
  O  O47  1  0.80258618  0.04954631  0.49524581  1
  O  O48  1  0.14712184  0.18238950  0.43996589  1
  O  O49  1  0.35287816  0.81761050  0.93996589  1
  O  O50  1  0.07173119  0.91726862  0.91822558  1
  O  O51  1  0.92826881  0.08273238  0.08177442  1
  O  O52  1  0.69741382  0.54954631  0.50475419  1
  O  O53  1  0.35287816  0.68238950  0.56003411  1
  O  O54  1  0.07173119  0.58273138  0.58177442  1
  O  O55  1  0.30258618  0.04954631  0.00475419  1
  O  O56  1  0.64712184  0.31761050  0.43996589  1
  O  O57  1  0.64712184  0.18238950  0.06003411  1
  O  O58  1  0.80258618  0.45045369  0.00475419  1
  O  O59  1  0.69741382  0.95045369  0.99524581  1
  O  O60  1  0.19741382  0.95045369  0.50475419  1
  O  O61  1  0.42826881  0.08273238  0.41822558  1
  O  O62  1  0.57173119  0.91726862  0.58177442  1
  O  O63  1  0.42826881  0.41726862  0.08177442  1
