# generated using pymatgen
data_LiBeH3
_symmetry_space_group_name_H-M   'P 1'
_cell_length_a   5.84691429
_cell_length_b   5.86683256
_cell_length_c   8.32258448
_cell_angle_alpha   90.00000000
_cell_angle_beta   90.00000000
_cell_angle_gamma   60.11223204
_symmetry_Int_Tables_number   1
_chemical_formula_structural   LiBeH3
_chemical_formula_sum   'Li6 Be6 H18'
_cell_volume   247.51943761
_cell_formula_units_Z   6
loop_
 _symmetry_equiv_pos_site_id
 _symmetry_equiv_pos_as_xyz
  1  'x, y, z'
loop_
 _atom_site_type_symbol
 _atom_site_label
 _atom_site_symmetry_multiplicity
 _atom_site_fract_x
 _atom_site_fract_y
 _atom_site_fract_z
 _atom_site_occupancy
  Li  Li0  1  0.50000000  0.00000000  0.00000000  1
  Li  Li1  1  0.82814531  0.34370837  0.00000000  1
  Li  Li2  1  0.17185469  0.65629063  -0.00000000  1
  Li  Li3  1  0.50000000  0.00000000  0.50000000  1
  Li  Li4  1  0.82814531  0.34370837  0.50000000  1
  Li  Li5  1  0.17185469  0.65629063  0.50000000  1
  Be  Be6  1  0.08039449  0.00000000  0.25000000  1
  Be  Be7  1  0.58972473  0.24474351  0.25000000  1
  Be  Be8  1  0.83446724  0.75525549  0.25000000  1
  Be  Be9  1  0.91960551  1.00000000  0.75000000  1
  Be  Be10  1  0.16553276  0.24474351  0.75000000  1
  Be  Be11  1  0.41027527  0.75525549  0.75000000  1
  H  H12  1  0.19160401  0.00000000  0.09922615  1
  H  H13  1  0.47710860  0.35725173  0.10162975  1
  H  H14  1  0.83435833  0.64274827  0.10162975  1
  H  H15  1  0.59056892  1.00000000  0.25000000  1
  H  H16  1  0.83567257  0.24354545  0.25000000  1
  H  H17  1  0.07921802  0.75645455  0.25000000  1
  H  H18  1  0.47710860  0.35725173  0.39837025  1
  H  H19  1  0.83435833  0.64274827  0.39837025  1
  H  H20  1  0.19160401  0.00000000  0.40077385  1
  H  H21  1  0.80839699  1.00000000  0.59922615  1
  H  H22  1  0.16564067  0.35725173  0.60162875  1
  H  H23  1  0.52289040  0.64274827  0.60162875  1
  H  H24  1  0.40943008  0.00000000  0.75000000  1
  H  H25  1  0.92078298  0.24354545  0.75000000  1
  H  H26  1  0.16432643  0.75645455  0.75000000  1
  H  H27  1  0.16564067  0.35725173  0.89837125  1
  H  H28  1  0.52289040  0.64274827  0.89837125  1
  H  H29  1  0.80839699  1.00000000  0.90077285  1
