# generated using pymatgen
data_NaMg14Ni
_symmetry_space_group_name_H-M   'P 1'
_cell_length_a   6.42418379
_cell_length_b   6.42418327
_cell_length_c   9.87419215
_cell_angle_alpha   90.00000000
_cell_angle_beta   90.00000000
_cell_angle_gamma   120.00000272
_symmetry_Int_Tables_number   1
_chemical_formula_structural   NaMg14Ni
_chemical_formula_sum   'Na1 Mg14 Ni1'
_cell_volume   352.91333890
_cell_formula_units_Z   1
loop_
 _symmetry_equiv_pos_site_id
 _symmetry_equiv_pos_as_xyz
  1  'x, y, z'
loop_
 _atom_site_type_symbol
 _atom_site_label
 _atom_site_symmetry_multiplicity
 _atom_site_fract_x
 _atom_site_fract_y
 _atom_site_fract_z
 _atom_site_occupancy
  Na  Na0  1  0.16666700  0.33333300  0.62500000  1
  Mg  Mg1  1  0.15763771  0.82881836  0.12500000  1
  Mg  Mg2  1  0.17500017  0.83749959  0.62500000  1
  Mg  Mg3  1  0.67118164  0.34236229  0.12500000  1
  Mg  Mg4  1  0.66250041  0.32499983  0.62500000  1
  Mg  Mg5  1  0.67118164  0.82881836  0.12500000  1
  Mg  Mg6  1  0.66250041  0.83749959  0.62500000  1
  Mg  Mg7  1  0.32709858  0.17290142  0.35665775  1
  Mg  Mg8  1  0.32709858  0.17290142  0.89334225  1
  Mg  Mg9  1  0.32709858  0.65419815  0.35665775  1
  Mg  Mg10  1  0.32709858  0.65419815  0.89334225  1
  Mg  Mg11  1  0.84580185  0.17290142  0.35665775  1
  Mg  Mg12  1  0.84580185  0.17290142  0.89334225  1
  Mg  Mg13  1  0.83333300  0.66666700  0.38034173  1
  Mg  Mg14  1  0.83333300  0.66666700  0.86965827  1
  Ni  Ni15  1  0.16666700  0.33333300  0.12500000  1
