# generated using pymatgen
data_Na2P3HO9
_symmetry_space_group_name_H-M   'P 1'
_cell_length_a   6.78857874
_cell_length_b   7.85666029
_cell_length_c   7.26910374
_cell_angle_alpha   92.31762186
_cell_angle_beta   90.00330666
_cell_angle_gamma   102.52578152
_symmetry_Int_Tables_number   1
_chemical_formula_structural   Na2P3HO9
_chemical_formula_sum   'Na4 P6 H2 O18'
_cell_volume   378.14874271
_cell_formula_units_Z   2
loop_
 _symmetry_equiv_pos_site_id
 _symmetry_equiv_pos_as_xyz
  1  'x, y, z'
loop_
 _atom_site_type_symbol
 _atom_site_label
 _atom_site_symmetry_multiplicity
 _atom_site_fract_x
 _atom_site_fract_y
 _atom_site_fract_z
 _atom_site_occupancy
  Na  Na0  1  0.41506910  0.15460731  0.35705937  1
  Na  Na1  1  0.58493090  0.84539269  0.64294063  1
  Na  Na2  1  0.91208952  0.14676638  0.34649883  1
  Na  Na3  1  0.08791048  0.85323362  0.65350117  1
  P  P4  1  0.90456440  0.22236896  0.83847283  1
  P  P5  1  0.09543560  0.77763104  0.16152717  1
  P  P6  1  0.46334309  0.22398620  0.83023104  1
  P  P7  1  0.53665691  0.77601380  0.16976896  1
  P  P8  1  0.23312686  0.44779087  0.63776970  1
  P  P9  1  0.76687314  0.55220913  0.36223030  1
  H  H10  1  0.20361378  0.17838383  0.02033255  1
  H  H11  1  0.79638622  0.82161617  0.97966745  1
  O  O12  1  0.87516442  0.08112758  0.68927729  1
  O  O13  1  0.12483558  0.91887242  0.31072271  1
  O  O14  1  0.41484191  0.08103155  0.68478561  1
  O  O15  1  0.58515809  0.91896845  0.31521439  1
  O  O16  1  0.36024238  0.17915201  0.01965124  1
  O  O17  1  0.63975762  0.82084799  0.98034876  1
  O  O18  1  0.99094822  0.18862095  0.02159677  1
  O  O19  1  0.00905178  0.81137905  0.97840323  1
  O  O20  1  0.69474085  0.28415116  0.88434249  1
  O  O21  1  0.30525915  0.71584884  0.11565751  1
  O  O22  1  0.03478280  0.40448295  0.76858063  1
  O  O23  1  0.96521720  0.59551705  0.23141937  1
  O  O24  1  0.41023521  0.40202167  0.77265722  1
  O  O25  1  0.58976479  0.59797833  0.22734278  1
  O  O26  1  0.20606898  0.32611365  0.47200613  1
  O  O27  1  0.79393102  0.67388635  0.52799387  1
  O  O28  1  0.71572054  0.35937287  0.37739198  1
  O  O29  1  0.28427946  0.64062713  0.62260802  1
