# generated using pymatgen
data_YErMg2
_symmetry_space_group_name_H-M   'P 1'
_cell_length_a   5.35434166
_cell_length_b   5.35434166
_cell_length_c   5.35434166
_cell_angle_alpha   60.08904837
_cell_angle_beta   60.08904837
_cell_angle_gamma   60.08904837
_symmetry_Int_Tables_number   1
_chemical_formula_structural   YErMg2
_chemical_formula_sum   'Y1 Er1 Mg2'
_cell_volume   108.76237530
_cell_formula_units_Z   1
loop_
 _symmetry_equiv_pos_site_id
 _symmetry_equiv_pos_as_xyz
  1  'x, y, z'
loop_
 _atom_site_type_symbol
 _atom_site_label
 _atom_site_symmetry_multiplicity
 _atom_site_fract_x
 _atom_site_fract_y
 _atom_site_fract_z
 _atom_site_occupancy
  Y  Y0  1  0.74999904  0.74999904  0.74999904  1
  Er  Er1  1  0.24999978  0.24999978  0.24999978  1
  Mg  Mg2  1  0.99999788  0.99999788  0.99999788  1
  Mg  Mg3  1  0.50000231  0.50000231  0.50000231  1
