# generated using pymatgen
data_Sm2MgIrO6
_symmetry_space_group_name_H-M   'P 1'
_cell_length_a   5.42801381
_cell_length_b   5.76019408
_cell_length_c   7.80084522
_cell_angle_alpha   90.00000000
_cell_angle_beta   89.76687968
_cell_angle_gamma   90.00000000
_symmetry_Int_Tables_number   1
_chemical_formula_structural   Sm2MgIrO6
_chemical_formula_sum   'Sm4 Mg2 Ir2 O12'
_cell_volume   243.90242965
_cell_formula_units_Z   2
loop_
 _symmetry_equiv_pos_site_id
 _symmetry_equiv_pos_as_xyz
  1  'x, y, z'
loop_
 _atom_site_type_symbol
 _atom_site_label
 _atom_site_symmetry_multiplicity
 _atom_site_fract_x
 _atom_site_fract_y
 _atom_site_fract_z
 _atom_site_occupancy
  Sm  Sm0  1  0.01973110  0.56809094  0.24909751  1
  Sm  Sm1  1  0.48026790  0.06809194  0.25090249  1
  Sm  Sm2  1  0.51973210  0.93190806  0.74909751  1
  Sm  Sm3  1  0.98026890  0.43190906  0.75090249  1
  Mg  Mg4  1  0.00000000  0.00000000  0.00000000  1
  Mg  Mg5  1  0.49999900  0.50000100  0.50000000  1
  Ir  Ir6  1  0.49999900  0.50000100  0.00000100  1
  Ir  Ir7  1  0.00000000  0.00000000  0.49999900  1
  O  O8  1  0.19484006  0.30166878  0.05443912  1
  O  O9  1  0.31099087  0.79916587  0.05485533  1
  O  O10  1  0.60588930  0.46593067  0.24782670  1
  O  O11  1  0.89410970  0.96593167  0.25217430  1
  O  O12  1  0.18901013  0.29916487  0.44514467  1
  O  O13  1  0.30515894  0.80166778  0.44556188  1
  O  O14  1  0.69484106  0.19833222  0.55443912  1
  O  O15  1  0.81098987  0.70083513  0.55485533  1
  O  O16  1  0.10589030  0.03406833  0.74782570  1
  O  O17  1  0.39411070  0.53406933  0.75217530  1
  O  O18  1  0.68900913  0.20083413  0.94514467  1
  O  O19  1  0.80515794  0.69833122  0.94556188  1
