# generated using pymatgen
data_Be3Ru
_symmetry_space_group_name_H-M   'P 1'
_cell_length_a   4.79991958
_cell_length_b   4.79988032
_cell_length_c   3.75191797
_cell_angle_alpha   90.01605909
_cell_angle_beta   89.98580493
_cell_angle_gamma   119.99526769
_symmetry_Int_Tables_number   1
_chemical_formula_structural   Be3Ru
_chemical_formula_sum   'Be6 Ru2'
_cell_volume   74.86330985
_cell_formula_units_Z   2
loop_
 _symmetry_equiv_pos_site_id
 _symmetry_equiv_pos_as_xyz
  1  'x, y, z'
loop_
 _atom_site_type_symbol
 _atom_site_label
 _atom_site_symmetry_multiplicity
 _atom_site_fract_x
 _atom_site_fract_y
 _atom_site_fract_z
 _atom_site_occupancy
  Be  Be0  1  0.16070071  0.32138407  0.24998513  1
  Be  Be1  1  0.67861489  0.83929656  0.24998673  1
  Be  Be2  1  0.16068960  0.83930577  0.25002789  1
  Be  Be3  1  0.83929452  0.67860837  0.75001689  1
  Be  Be4  1  0.32139129  0.16070713  0.75001325  1
  Be  Be5  1  0.83930684  0.16069746  0.74997267  1
  Ru  Ru6  1  0.33334396  0.66667586  0.74999765  1
  Ru  Ru7  1  0.66666018  0.33332478  0.25000379  1
