# generated using pymatgen
data_K2Na4Ca5(Si6O17)2
_symmetry_space_group_name_H-M   'P 1'
_cell_length_a   10.45198413
_cell_length_b   10.45198413
_cell_length_c   12.85676817
_cell_angle_alpha   70.82385425
_cell_angle_beta   109.17614575
_cell_angle_gamma   137.17600096
_symmetry_Int_Tables_number   1
_chemical_formula_structural   K2Na4Ca5(Si6O17)2
_chemical_formula_sum   'K2 Na4 Ca5 Si12 O34'
_cell_volume   893.32432256
_cell_formula_units_Z   1
loop_
 _symmetry_equiv_pos_site_id
 _symmetry_equiv_pos_as_xyz
  1  'x, y, z'
loop_
 _atom_site_type_symbol
 _atom_site_label
 _atom_site_symmetry_multiplicity
 _atom_site_fract_x
 _atom_site_fract_y
 _atom_site_fract_z
 _atom_site_occupancy
  K  K0  1  0.15832399  0.84167601  0.49251514  1
  K  K1  1  0.82905263  0.17094737  0.50313182  1
  Na  Na2  1  0.00326164  0.99673836  0.99378725  1
  Na  Na3  1  0.48828581  0.51171419  0.94133053  1
  Na  Na4  1  0.74559413  0.25440587  0.00443128  1
  Na  Na5  1  0.55365386  0.44634614  0.47236116  1
  Ca  Ca6  1  0.25162193  0.74837807  0.99887562  1
  Ca  Ca7  1  0.95581632  0.60335005  0.16364335  1
  Ca  Ca8  1  0.39664995  0.04418368  0.16364335  1
  Ca  Ca9  1  0.08027548  0.40985619  0.83357689  1
  Ca  Ca10  1  0.59014381  0.91972452  0.83357689  1
  Si  Si11  1  0.05948841  0.35349085  0.24240445  1
  Si  Si12  1  0.64650915  0.94051159  0.24240445  1
  Si  Si13  1  0.94155042  0.66613513  0.73816045  1
  Si  Si14  1  0.33386487  0.05844958  0.73816045  1
  Si  Si15  1  0.30540833  0.69459167  0.36969236  1
  Si  Si16  1  0.69871938  0.30128062  0.69867621  1
  Si  Si17  1  0.17874469  0.22391486  0.74126369  1
  Si  Si18  1  0.77608514  0.82125531  0.74126369  1
  Si  Si19  1  0.81226553  0.77905572  0.26074397  1
  Si  Si20  1  0.22094428  0.18773447  0.26074397  1
  Si  Si21  1  0.37109313  0.62890687  0.62986091  1
  Si  Si22  1  0.58952358  0.41047642  0.17878538  1
  O  O23  1  0.02919922  0.46255489  0.13058851  1
  O  O24  1  0.53744511  0.97080078  0.13058851  1
  O  O25  1  0.01766786  0.59259772  0.84733573  1
  O  O26  1  0.40740228  0.98233214  0.84733573  1
  O  O27  1  0.16753602  0.47369496  0.34917935  1
  O  O28  1  0.52630504  0.83246398  0.34917935  1
  O  O29  1  0.82618955  0.52649922  0.63979950  1
  O  O30  1  0.47350078  0.17381045  0.63979950  1
  O  O31  1  0.85544305  0.14455695  0.28396921  1
  O  O32  1  0.12440023  0.87559977  0.68097796  1
  O  O33  1  0.18569181  0.32685545  0.22566187  1
  O  O34  1  0.67314455  0.81430819  0.22566187  1
  O  O35  1  0.80928720  0.68440167  0.75805114  1
  O  O36  1  0.31559833  0.19071280  0.75805114  1
  O  O37  1  0.31174298  0.68825702  0.50055417  1
  O  O38  1  0.69305727  0.30694273  0.82461337  1
  O  O39  1  0.32793447  0.67206553  0.71623892  1
  O  O40  1  0.78163860  0.21836140  0.70016423  1
  O  O41  1  0.22000643  0.77999357  0.29192012  1
  O  O42  1  0.66931821  0.33068179  0.27937925  1
  O  O43  1  0.24468966  0.40098761  0.63863577  1
  O  O44  1  0.59901239  0.75531034  0.63863577  1
  O  O45  1  0.81466094  0.68436086  0.38468324  1
  O  O46  1  0.31563914  0.18533906  0.38468324  1
  O  O47  1  0.18736852  0.26829967  0.85291365  1
  O  O48  1  0.73170033  0.81263148  0.85291365  1
  O  O49  1  0.72671325  0.64056762  0.16822659  1
  O  O50  1  0.35943238  0.27328675  0.16822659  1
  O  O51  1  0.35913544  0.64086456  0.94596493  1
  O  O52  1  0.87147968  0.12852032  0.95124615  1
  O  O53  1  0.14545597  0.85454403  0.04748753  1
  O  O54  1  0.61752269  0.38247731  0.07254033  1
  O  O55  1  0.96071561  0.03928439  0.69027216  1
  O  O56  1  0.02208856  0.97791144  0.21948773  1
