# generated using pymatgen
data_ZnCr2F12
_symmetry_space_group_name_H-M   'P 1'
_cell_length_a   5.38522316
_cell_length_b   10.74729294
_cell_length_c   5.39157931
_cell_angle_alpha   56.85624312
_cell_angle_beta   56.91036237
_cell_angle_gamma   56.92125089
_symmetry_Int_Tables_number   1
_chemical_formula_structural   ZnCr2F12
_chemical_formula_sum   'Zn1 Cr2 F12'
_cell_volume   204.84926199
_cell_formula_units_Z   1
loop_
 _symmetry_equiv_pos_site_id
 _symmetry_equiv_pos_as_xyz
  1  'x, y, z'
loop_
 _atom_site_type_symbol
 _atom_site_label
 _atom_site_symmetry_multiplicity
 _atom_site_fract_x
 _atom_site_fract_y
 _atom_site_fract_z
 _atom_site_occupancy
  Zn  Zn0  1  0.00000000  0.50000000  0.00000000  1
  Cr  Cr1  1  0.50104704  0.23989175  0.51196615  1
  Cr  Cr2  1  0.49895296  0.76010825  0.48803385  1
  F  F3  1  0.16079085  0.19061974  0.72821874  1
  F  F4  1  0.15846544  0.68726548  0.73277265  1
  F  F5  1  0.37229695  0.36674965  0.15936406  1
  F  F6  1  0.37707982  0.86310398  0.16396239  1
  F  F7  1  0.73241958  0.08302334  0.37151265  1
  F  F8  1  0.73238433  0.57903477  0.37447208  1
  F  F9  1  0.26761567  0.42096523  0.62552792  1
  F  F10  1  0.26758042  0.91697666  0.62848735  1
  F  F11  1  0.62292018  0.13689602  0.83603761  1
  F  F12  1  0.62770305  0.63325035  0.84063594  1
  F  F13  1  0.84153456  0.31273452  0.26722735  1
  F  F14  1  0.83920915  0.80938026  0.27178126  1
