# generated using pymatgen
data_MgFeF6
_symmetry_space_group_name_H-M   'P 1'
_cell_length_a   5.41738429
_cell_length_b   5.41738374
_cell_length_c   5.41738342
_cell_angle_alpha   58.28472765
_cell_angle_beta   58.28472630
_cell_angle_gamma   58.28473104
_symmetry_Int_Tables_number   1
_chemical_formula_structural   MgFeF6
_chemical_formula_sum   'Mg1 Fe1 F6'
_cell_volume   108.00608868
_cell_formula_units_Z   1
loop_
 _symmetry_equiv_pos_site_id
 _symmetry_equiv_pos_as_xyz
  1  'x, y, z'
loop_
 _atom_site_type_symbol
 _atom_site_label
 _atom_site_symmetry_multiplicity
 _atom_site_fract_x
 _atom_site_fract_y
 _atom_site_fract_z
 _atom_site_occupancy
  Mg  Mg0  1  0.50000000  0.50000000  0.50000000  1
  Fe  Fe1  1  0.00000000  0.00000000  0.00000000  1
  F  F2  1  0.32822647  0.15454347  0.76040530  1
  F  F3  1  0.15454347  0.76040530  0.32822647  1
  F  F4  1  0.23959470  0.67177353  0.84545653  1
  F  F5  1  0.84545653  0.23959470  0.67177353  1
  F  F6  1  0.67177353  0.84545653  0.23959470  1
  F  F7  1  0.76040530  0.32822647  0.15454347  1
