# generated using pymatgen
data_BiF5
_symmetry_space_group_name_H-M   'P 1'
_cell_length_a   5.66086219
_cell_length_b   5.67535638
_cell_length_c   8.23335605
_cell_angle_alpha   98.03781851
_cell_angle_beta   108.07694957
_cell_angle_gamma   110.55918056
_symmetry_Int_Tables_number   1
_chemical_formula_structural   BiF5
_chemical_formula_sum   'Bi2 F10'
_cell_volume   226.06008738
_cell_formula_units_Z   2
loop_
 _symmetry_equiv_pos_site_id
 _symmetry_equiv_pos_as_xyz
  1  'x, y, z'
loop_
 _atom_site_type_symbol
 _atom_site_label
 _atom_site_symmetry_multiplicity
 _atom_site_fract_x
 _atom_site_fract_y
 _atom_site_fract_z
 _atom_site_occupancy
  Bi  Bi0  1  0.99503320  0.99971934  0.99940981  1
  Bi  Bi1  1  0.50000662  0.00055150  0.49852260  1
  F  F2  1  0.34381531  0.09373509  0.24796247  1
  F  F3  1  0.64828820  0.90692461  0.75002310  1
  F  F4  1  0.60079926  0.73968150  0.37648679  1
  F  F5  1  0.86229959  0.22776804  0.12278141  1
  F  F6  1  0.75673320  0.68921120  0.05249002  1
  F  F7  1  0.13327772  0.71393625  0.44723655  1
  F  F8  1  0.23584746  0.31119672  0.94854128  1
  F  F9  1  0.86770873  0.28543172  0.54905510  1
  F  F10  1  0.12258386  0.76984012  0.87277000  1
  F  F11  1  0.40185484  0.26365291  0.62059786  1
