# generated using pymatgen
data_CsSrCl3
_symmetry_space_group_name_H-M   'P 1'
_cell_length_a   8.00721719
_cell_length_b   8.00721640
_cell_length_c   8.00721700
_cell_angle_alpha   60.72271112
_cell_angle_beta   60.72271427
_cell_angle_gamma   60.72271137
_symmetry_Int_Tables_number   1
_chemical_formula_structural   CsSrCl3
_chemical_formula_sum   'Cs2 Sr2 Cl6'
_cell_volume   368.93993613
_cell_formula_units_Z   2
loop_
 _symmetry_equiv_pos_site_id
 _symmetry_equiv_pos_as_xyz
  1  'x, y, z'
loop_
 _atom_site_type_symbol
 _atom_site_label
 _atom_site_symmetry_multiplicity
 _atom_site_fract_x
 _atom_site_fract_y
 _atom_site_fract_z
 _atom_site_occupancy
  Cs  Cs0  1  0.26718900  0.26718900  0.26718900  1
  Cs  Cs1  1  0.76718900  0.76718900  0.76718900  1
  Sr  Sr2  1  0.00648900  0.00648900  0.00648900  1
  Sr  Sr3  1  0.50648900  0.50648900  0.50648900  1
  Cl  Cl4  1  0.24370500  0.82348700  0.68762900  1
  Cl  Cl5  1  0.82348700  0.68762900  0.24370500  1
  Cl  Cl6  1  0.68762900  0.24370500  0.82348700  1
  Cl  Cl7  1  0.18762900  0.32348700  0.74370500  1
  Cl  Cl8  1  0.74370500  0.18762900  0.32348700  1
  Cl  Cl9  1  0.32348700  0.74370500  0.18762900  1
