# generated using pymatgen
data_Li3V2(PO4)3
_symmetry_space_group_name_H-M   'P 1'
_cell_length_a   8.75954044
_cell_length_b   12.22920528
_cell_length_c   8.82299953
_cell_angle_alpha   89.99760798
_cell_angle_beta   89.98993097
_cell_angle_gamma   90.00015989
_symmetry_Int_Tables_number   1
_chemical_formula_structural   Li3V2(PO4)3
_chemical_formula_sum   'Li12 V8 P12 O48'
_cell_volume   945.13926666
_cell_formula_units_Z   4
loop_
 _symmetry_equiv_pos_site_id
 _symmetry_equiv_pos_as_xyz
  1  'x, y, z'
loop_
 _atom_site_type_symbol
 _atom_site_label
 _atom_site_symmetry_multiplicity
 _atom_site_fract_x
 _atom_site_fract_y
 _atom_site_fract_z
 _atom_site_occupancy
  Li  Li0  1  0.21936516  0.17990653  0.77006104  1
  Li  Li1  1  0.21937537  0.82011801  0.72994496  1
  Li  Li2  1  0.28065576  0.67989776  0.22989447  1
  Li  Li3  1  0.28062242  0.32010740  0.26999394  1
  Li  Li4  1  0.55292936  0.21261691  0.42545019  1
  Li  Li5  1  0.55289375  0.78736698  0.07453376  1
  Li  Li6  1  0.69721660  0.31671481  0.76588785  1
  Li  Li7  1  0.69718582  0.68338411  0.73406699  1
  Li  Li8  1  0.80278700  0.18329076  0.26592104  1
  Li  Li9  1  0.80272706  0.81675132  0.23421754  1
  Li  Li10  1  0.94715372  0.28738033  0.92546779  1
  Li  Li11  1  0.94693759  0.71272329  0.57453167  1
  V  V12  1  0.25344222  0.38585966  0.95832498  1
  V  V13  1  0.25345112  0.61410507  0.54171833  1
  V  V14  1  0.24657933  0.11414179  0.45831522  1
  V  V15  1  0.24649215  0.88589744  0.04167960  1
  V  V16  1  0.74178976  0.11129490  0.95711167  1
  V  V17  1  0.74183983  0.88871010  0.54286796  1
  V  V18  1  0.75820059  0.38871498  0.45714049  1
  V  V19  1  0.75820974  0.61130471  0.04287430  1
  P  P20  1  0.04489942  0.50001866  0.25002343  1
  P  P21  1  0.10516558  0.14629669  0.10229194  1
  P  P22  1  0.10524926  0.85371013  0.39771897  1
  P  P23  1  0.39479309  0.35374056  0.60225386  1
  P  P24  1  0.39478598  0.64628799  0.89767191  1
  P  P25  1  0.45511903  0.00000805  0.75004030  1
  P  P26  1  0.54529259  -0.00000204  0.24999236  1
  P  P27  1  0.60635324  0.35253096  0.10438767  1
  P  P28  1  0.60630731  0.64743205  0.39561405  1
  P  P29  1  0.89364808  0.85256575  0.89563088  1
  P  P30  1  0.89368699  0.14748343  0.60438784  1
  P  P31  1  0.95472599  0.49998586  0.74998257  1
  O  O32  1  0.05021825  0.57433084  0.64396108  1
  O  O33  1  0.05026177  0.42563993  0.85603004  1
  O  O34  1  0.06942418  0.16229090  0.59642390  1
  O  O35  1  0.06939665  0.83771866  0.90349205  1
  O  O36  1  0.15194277  0.03056561  0.06452109  1
  O  O37  1  0.15198162  0.96946104  0.43549006  1
  O  O38  1  0.16035340  0.18125397  0.26084351  1
  O  O39  1  0.16034882  0.81877015  0.23917330  1
  O  O40  1  0.14987969  0.42237819  0.15816029  1
  O  O41  1  0.14988035  0.57757737  0.34180329  1
  O  O42  1  0.16655158  0.22701087  0.97679504  1
  O  O43  1  0.16649969  0.77297165  0.52321041  1
  O  O44  1  0.33349975  0.27299013  0.47676613  1
  O  O45  1  0.33347595  0.72700057  0.02318355  1
  O  O46  1  0.35009839  0.07760524  0.65817334  1
  O  O47  1  0.35010994  0.92241853  0.84185744  1
  O  O48  1  0.33967873  0.68119639  0.73917010  1
  O  O49  1  0.33963784  0.31873461  0.76083252  1
  O  O50  1  0.34805556  0.46940907  0.56450923  1
  O  O51  1  0.34801350  0.53050881  0.93549360  1
  O  O52  1  0.43062196  0.66224428  0.40350348  1
  O  O53  1  0.43058303  0.33772864  0.09648881  1
  O  O54  1  0.44973482  0.07433945  0.35605115  1
  O  O55  1  0.44975761  0.92563194  0.14401670  1
  O  O56  1  0.55301060  0.92702327  0.64676502  1
  O  O57  1  0.55297532  0.07295164  0.85315161  1
  O  O58  1  0.57124881  0.33752547  0.59186183  1
  O  O59  1  0.57124358  0.66243042  0.90811922  1
  O  O60  1  0.65508594  0.47017046  0.07508752  1
  O  O61  1  0.65511114  0.52982533  0.42496769  1
  O  O62  1  0.65675504  0.31351455  0.26623223  1
  O  O63  1  0.65682119  0.68647743  0.23379333  1
  O  O64  1  0.65178496  0.07917850  0.16255659  1
  O  O65  1  0.65182050  0.92082962  0.33748377  1
  O  O66  1  0.68682654  0.27896252  0.98259300  1
  O  O67  1  0.68682667  0.72103930  0.51739678  1
  O  O68  1  0.81321675  0.22107881  0.48258145  1
  O  O69  1  0.81316397  0.77893909  0.01743634  1
  O  O70  1  0.84820164  0.42080671  0.66255344  1
  O  O71  1  0.84818538  0.57915688  0.83748418  1
  O  O72  1  0.84324743  0.18652166  0.76617280  1
  O  O73  1  0.84322230  0.81348395  0.73379489  1
  O  O74  1  0.84493524  0.02984064  0.57504566  1
  O  O75  1  0.84491535  0.97011568  0.92490195  1
  O  O76  1  0.92878161  0.83754469  0.40816760  1
  O  O77  1  0.92876913  0.16248096  0.09188148  1
  O  O78  1  0.94698163  0.42704753  0.35323098  1
  O  O79  1  0.94698254  0.57293310  0.14679097  1
