# generated using pymatgen
data_CaVF5
_symmetry_space_group_name_H-M   'P 1'
_cell_length_a   5.58886255
_cell_length_b   7.81992030
_cell_length_c   10.27387158
_cell_angle_alpha   90.00000000
_cell_angle_beta   90.00000000
_cell_angle_gamma   109.95889106
_symmetry_Int_Tables_number   1
_chemical_formula_structural   CaVF5
_chemical_formula_sum   'Ca4 V4 F20'
_cell_volume   422.04522584
_cell_formula_units_Z   4
loop_
 _symmetry_equiv_pos_site_id
 _symmetry_equiv_pos_as_xyz
  1  'x, y, z'
loop_
 _atom_site_type_symbol
 _atom_site_label
 _atom_site_symmetry_multiplicity
 _atom_site_fract_x
 _atom_site_fract_y
 _atom_site_fract_z
 _atom_site_occupancy
  Ca  Ca0  1  0.46893326  0.74486016  0.02016226  1
  Ca  Ca1  1  0.53106674  0.75513984  0.52016226  1
  Ca  Ca2  1  0.53106674  0.25513984  0.97983774  1
  Ca  Ca3  1  0.46893326  0.24486016  0.47983774  1
  V  V4  1  0.89124967  0.59873266  0.75335636  1
  V  V5  1  0.10875033  0.90126734  0.25335636  1
  V  V6  1  0.10875033  0.40126734  0.24664364  1
  V  V7  1  0.89124967  0.09873266  0.74664364  1
  F  F8  1  0.61115685  0.55628331  0.88282887  1
  F  F9  1  0.38884315  0.94371669  0.38282887  1
  F  F10  1  0.38884315  0.44371669  0.11717113  1
  F  F11  1  0.61115685  0.05628331  0.61717113  1
  F  F12  1  0.64187287  0.50470687  0.61167969  1
  F  F13  1  0.35812713  0.99529313  0.11167969  1
  F  F14  1  0.35812713  0.49529313  0.38832031  1
  F  F15  1  0.64187287  0.00470687  0.88832031  1
  F  F16  1  0.87733944  0.81100522  0.39590531  1
  F  F17  1  0.12266056  0.68899478  0.89590531  1
  F  F18  1  0.12266056  0.18899478  0.60409469  1
  F  F19  1  0.87733944  0.31100522  0.10409469  1
  F  F20  1  0.82769330  0.85882389  0.13609349  1
  F  F21  1  0.17230670  0.64117611  0.63609349  1
  F  F22  1  0.17230670  0.14117611  0.86390651  1
  F  F23  1  0.82769330  0.35882389  0.36390651  1
  F  F24  1  0.84768041  0.83719033  0.70034543  1
  F  F25  1  0.15231959  0.66280967  0.20034543  1
  F  F26  1  0.15231959  0.16280967  0.29965457  1
  F  F27  1  0.84768041  0.33719033  0.79965457  1
