# generated using pymatgen
data_Sc3Co2Si3
_symmetry_space_group_name_H-M   'P 1'
_cell_length_a   3.93160220
_cell_length_b   5.34547762
_cell_length_c   12.82945020
_cell_angle_alpha   90.00000000
_cell_angle_beta   90.00000000
_cell_angle_gamma   111.57694036
_symmetry_Int_Tables_number   1
_chemical_formula_structural   Sc3Co2Si3
_chemical_formula_sum   'Sc6 Co4 Si6'
_cell_volume   250.73320511
_cell_formula_units_Z   2
loop_
 _symmetry_equiv_pos_site_id
 _symmetry_equiv_pos_as_xyz
  1  'x, y, z'
loop_
 _atom_site_type_symbol
 _atom_site_label
 _atom_site_symmetry_multiplicity
 _atom_site_fract_x
 _atom_site_fract_y
 _atom_site_fract_z
 _atom_site_occupancy
  Si  Si0  1  0.16398662  0.32797324  0.25000000  1
  Si  Si1  1  0.88633985  0.77267969  0.45911049  1
  Si  Si2  1  0.88633985  0.77267969  0.04088951  1
  Si  Si3  1  0.11366015  0.22732031  0.54088951  1
  Si  Si4  1  0.83601338  0.67202676  0.75000000  1
  Si  Si5  1  0.11366015  0.22732031  0.95911049  1
  Sc  Sc6  1  0.14286865  0.28573729  0.75000000  1
  Sc  Sc7  1  0.42010123  0.84020245  0.61307548  1
  Sc  Sc8  1  0.42010123  0.84020245  0.88692452  1
  Sc  Sc9  1  0.57989877  0.15979755  0.11307548  1
  Sc  Sc10  1  0.85713135  0.71426271  0.25000000  1
  Sc  Sc11  1  0.57989877  0.15979755  0.38692452  1
  Co  Co12  1  0.71554568  0.43109136  0.58320511  1
  Co  Co13  1  0.28445432  0.56890864  0.08320511  1
  Co  Co14  1  0.71554568  0.43109136  0.91679489  1
  Co  Co15  1  0.28445432  0.56890864  0.41679489  1
