# generated using pymatgen
data_Cs2Ba3(P2O7)2
_symmetry_space_group_name_H-M   'P 1'
_cell_length_a   9.12952244
_cell_length_b   9.78993168
_cell_length_c   19.05096303
_cell_angle_alpha   90.00000000
_cell_angle_beta   90.00000000
_cell_angle_gamma   90.00000000
_symmetry_Int_Tables_number   1
_chemical_formula_structural   Cs2Ba3(P2O7)2
_chemical_formula_sum   'Cs8 Ba12 P16 O56'
_cell_volume   1702.72556138
_cell_formula_units_Z   4
loop_
 _symmetry_equiv_pos_site_id
 _symmetry_equiv_pos_as_xyz
  1  'x, y, z'
loop_
 _atom_site_type_symbol
 _atom_site_label
 _atom_site_symmetry_multiplicity
 _atom_site_fract_x
 _atom_site_fract_y
 _atom_site_fract_z
 _atom_site_occupancy
  Cs  Cs0  1  0.73139625  0.16694284  0.32938744  1
  Cs  Cs1  1  0.76860375  0.83305716  0.82938744  1
  Cs  Cs2  1  0.23139625  0.33305716  0.67061256  1
  Cs  Cs3  1  0.26860375  0.66694284  0.17061256  1
  Cs  Cs4  1  0.91800416  0.30834684  0.12852311  1
  Cs  Cs5  1  0.58199584  0.69165316  0.62852311  1
  Cs  Cs6  1  0.41800416  0.19165316  0.87147689  1
  Cs  Cs7  1  0.08199584  0.80834684  0.37147689  1
  Ba  Ba8  1  0.43539540  0.03054357  0.49298577  1
  Ba  Ba9  1  0.06460460  0.96945643  0.99298577  1
  Ba  Ba10  1  0.93539540  0.46945643  0.50701423  1
  Ba  Ba11  1  0.56460460  0.53054357  0.00701423  1
  Ba  Ba12  1  0.58422180  0.64953803  0.38455819  1
  Ba  Ba13  1  0.91577820  0.35046197  0.88455819  1
  Ba  Ba14  1  0.08422180  0.85046197  0.61544181  1
  Ba  Ba15  1  0.41577820  0.14953803  0.11544181  1
  Ba  Ba16  1  0.24906846  0.33112458  0.33780859  1
  Ba  Ba17  1  0.25093154  0.66887542  0.83780859  1
  Ba  Ba18  1  0.74906846  0.16887542  0.66219141  1
  Ba  Ba19  1  0.75093154  0.83112458  0.16219141  1
  P  P20  1  0.78679341  0.90965290  0.49510320  1
  P  P21  1  0.71320659  0.09034710  0.99510320  1
  P  P22  1  0.28679341  0.59034710  0.50489680  1
  P  P23  1  0.21320659  0.40965290  0.00489680  1
  P  P24  1  0.51906847  0.37220494  0.50996086  1
  P  P25  1  0.98093153  0.62779506  0.00996086  1
  P  P26  1  0.01906847  0.12779506  0.49003914  1
  P  P27  1  0.48093153  0.87220494  0.99003914  1
  P  P28  1  0.87910555  0.54464199  0.29499824  1
  P  P29  1  0.62089445  0.45535801  0.79499824  1
  P  P30  1  0.37910555  0.95535801  0.70500176  1
  P  P31  1  0.12089445  0.04464199  0.20500176  1
  P  P32  1  0.60361033  0.45874529  0.21443295  1
  P  P33  1  0.89638967  0.54125471  0.71443295  1
  P  P34  1  0.10361033  0.04125471  0.78556705  1
  P  P35  1  0.39638967  0.95874529  0.28556705  1
  O  O36  1  0.14442738  0.02571839  0.50071872  1
  O  O37  1  0.35557262  0.97428161  0.00071872  1
  O  O38  1  0.64442738  0.47428161  0.49928128  1
  O  O39  1  0.85557262  0.52571839  0.99928128  1
  O  O40  1  0.66744506  0.88960132  0.43925940  1
  O  O41  1  0.83255494  0.11039868  0.93925940  1
  O  O42  1  0.16744506  0.61039868  0.56074060  1
  O  O43  1  0.33255494  0.38960132  0.06074060  1
  O  O44  1  0.72395268  0.96413628  0.56432175  1
  O  O45  1  0.77604732  0.03586372  0.06432175  1
  O  O46  1  0.22395268  0.53586372  0.43567825  1
  O  O47  1  0.27604732  0.46413628  0.93567825  1
  O  O48  1  0.54540114  0.26595177  0.56763827  1
  O  O49  1  0.95459886  0.73404823  0.06763827  1
  O  O50  1  0.04540114  0.23404823  0.43236173  1
  O  O51  1  0.45459886  0.76595177  0.93236173  1
  O  O52  1  0.38306270  0.46546227  0.54104579  1
  O  O53  1  0.11693730  0.53453773  0.04104579  1
  O  O54  1  0.88306270  0.03453773  0.45895421  1
  O  O55  1  0.61693730  0.96546227  0.95895421  1
  O  O56  1  0.46623864  0.30480874  0.44168904  1
  O  O57  1  0.03376136  0.69519126  0.94168904  1
  O  O58  1  0.96623864  0.19519126  0.55831096  1
  O  O59  1  0.53376136  0.80480874  0.05831096  1
  O  O60  1  0.49348617  0.48518251  0.27425293  1
  O  O61  1  0.00651383  0.51481749  0.77425293  1
  O  O62  1  0.99348617  0.01481749  0.72574707  1
  O  O63  1  0.50651383  0.98518251  0.22574707  1
  O  O64  1  0.58724873  0.31832432  0.18086211  1
  O  O65  1  0.91275127  0.68167568  0.68086211  1
  O  O66  1  0.08724873  0.18167568  0.81913789  1
  O  O67  1  0.41275127  0.81832432  0.31913789  1
  O  O68  1  0.61324750  0.57527686  0.16062182  1
  O  O69  1  0.88675250  0.42472314  0.66062182  1
  O  O70  1  0.11324750  0.92472314  0.83937818  1
  O  O71  1  0.38675250  0.07527686  0.33937818  1
  O  O72  1  0.76813587  0.44217887  0.25113647  1
  O  O73  1  0.73186413  0.55782113  0.75113647  1
  O  O74  1  0.26813587  0.05782113  0.74886353  1
  O  O75  1  0.23186413  0.94217887  0.24886353  1
  O  O76  1  0.85187100  0.50980164  0.37275989  1
  O  O77  1  0.64812900  0.49019836  0.87275989  1
  O  O78  1  0.35187100  0.99019836  0.62724011  1
  O  O79  1  0.14812900  0.00980164  0.12724011  1
  O  O80  1  0.82502579  0.69040736  0.27936595  1
  O  O81  1  0.67497421  0.30959264  0.77936595  1
  O  O82  1  0.32502579  0.80959264  0.72063405  1
  O  O83  1  0.17497421  0.19040736  0.22063405  1
  O  O84  1  0.03297172  0.50964519  0.26962633  1
  O  O85  1  0.46702828  0.49035481  0.76962633  1
  O  O86  1  0.53297172  0.99035481  0.73037367  1
  O  O87  1  0.96702828  0.00964519  0.23037367  1
  O  O88  1  0.88704029  0.78579884  0.50483598  1
  O  O89  1  0.61295971  0.21420116  0.00483598  1
  O  O90  1  0.38704029  0.71420116  0.49516402  1
  O  O91  1  0.11295971  0.28579884  0.99516402  1
