# generated using pymatgen
data_LiCaMgSiN3
_symmetry_space_group_name_H-M   'P 1'
_cell_length_a   5.58852873
_cell_length_b   5.68208044
_cell_length_c   6.03614561
_cell_angle_alpha   86.44217395
_cell_angle_beta   82.75055346
_cell_angle_gamma   60.54315779
_symmetry_Int_Tables_number   1
_chemical_formula_structural   LiCaMgSiN3
_chemical_formula_sum   'Li2 Ca2 Mg2 Si2 N6'
_cell_volume   165.56199118
_cell_formula_units_Z   2
loop_
 _symmetry_equiv_pos_site_id
 _symmetry_equiv_pos_as_xyz
  1  'x, y, z'
loop_
 _atom_site_type_symbol
 _atom_site_label
 _atom_site_symmetry_multiplicity
 _atom_site_fract_x
 _atom_site_fract_y
 _atom_site_fract_z
 _atom_site_occupancy
  Li  Li0  1  0.67492458  -0.00000000  0.09325704  1
  Li  Li1  1  0.32507542  -0.00000000  0.90674296  1
  Ca  Ca2  1  0.32036964  0.35926073  0.50000000  1
  Ca  Ca3  1  0.67963036  0.64073927  0.50000000  1
  Mg  Mg4  1  0.23366618  0.53266763  -0.00000000  1
  Mg  Mg5  1  0.76633382  0.46733237  -0.00000000  1
  Si  Si6  1  0.13038902  -0.00000000  0.32133933  1
  Si  Si7  1  0.86961098  -0.00000000  0.67866067  1
  N  N8  1  0.80836470  -0.00000000  0.39012949  1
  N  N9  1  0.19163530  -0.00000000  0.60987051  1
  N  N10  1  0.60700539  0.29055236  0.80985475  1
  N  N11  1  0.89755775  0.70944764  0.80985475  1
  N  N12  1  0.39299461  0.70944764  0.19014525  1
  N  N13  1  0.10244225  0.29055236  0.19014525  1
