# generated using pymatgen
data_BaNa2Mg(PO4)2
_symmetry_space_group_name_H-M   'P 1'
_cell_length_a   5.38383266
_cell_length_b   5.38385444
_cell_length_c   7.06342874
_cell_angle_alpha   90.00000003
_cell_angle_beta   89.99844235
_cell_angle_gamma   120.00013094
_symmetry_Int_Tables_number   1
_chemical_formula_structural   BaNa2Mg(PO4)2
_chemical_formula_sum   'Ba1 Na2 Mg1 P2 O8'
_cell_volume   177.30888088
_cell_formula_units_Z   1
loop_
 _symmetry_equiv_pos_site_id
 _symmetry_equiv_pos_as_xyz
  1  'x, y, z'
loop_
 _atom_site_type_symbol
 _atom_site_label
 _atom_site_symmetry_multiplicity
 _atom_site_fract_x
 _atom_site_fract_y
 _atom_site_fract_z
 _atom_site_occupancy
  Ba  Ba0  1  0.00000000  0.00000000  0.50000000  1
  Na  Na1  1  0.33338212  0.66669106  0.18092228  1
  Na  Na2  1  0.66661788  0.33330894  0.81907772  1
  Mg  Mg3  1  0.00000000  0.00000000  0.00000000  1
  P  P4  1  0.33334794  0.66667397  0.74320744  1
  P  P5  1  0.66665206  0.33332603  0.25679256  1
  O  O6  1  0.33338706  0.66669353  0.52536335  1
  O  O7  1  0.66661294  0.33330647  0.47463665  1
  O  O8  1  0.82292196  0.64586137  0.17868533  1
  O  O9  1  0.82292196  0.17706059  0.17868533  1
  O  O10  1  0.35411720  0.17705860  0.17867320  1
  O  O11  1  0.17707804  0.35413863  0.82131467  1
  O  O12  1  0.17707804  0.82293941  0.82131467  1
  O  O13  1  0.64588280  0.82294140  0.82132680  1
