# generated using pymatgen
data_LaZn(BO2)5
_symmetry_space_group_name_H-M   'P 1'
_cell_length_a   8.87083220
_cell_length_b   7.68635408
_cell_length_c   9.59638356
_cell_angle_alpha   90.00000000
_cell_angle_beta   92.43947385
_cell_angle_gamma   90.00000000
_symmetry_Int_Tables_number   1
_chemical_formula_structural   LaZn(BO2)5
_chemical_formula_sum   'La4 Zn4 B20 O40'
_cell_volume   653.73025976
_cell_formula_units_Z   4
loop_
 _symmetry_equiv_pos_site_id
 _symmetry_equiv_pos_as_xyz
  1  'x, y, z'
loop_
 _atom_site_type_symbol
 _atom_site_label
 _atom_site_symmetry_multiplicity
 _atom_site_fract_x
 _atom_site_fract_y
 _atom_site_fract_z
 _atom_site_occupancy
  La  La0  1  0.31775701  0.18481390  0.26474261  1
  La  La1  1  0.81775701  0.31518610  0.76474261  1
  La  La2  1  0.68224299  0.81518610  0.73525739  1
  La  La3  1  0.18224299  0.68481390  0.23525739  1
  Zn  Zn4  1  0.61037348  0.91213212  0.12061990  1
  Zn  Zn5  1  0.11037348  0.58786788  0.62061990  1
  Zn  Zn6  1  0.38962652  0.08786788  0.87938010  1
  Zn  Zn7  1  0.88962652  0.41213212  0.37938010  1
  B  B8  1  0.91140455  0.08265904  0.26621763  1
  B  B9  1  0.41140455  0.41734096  0.76621763  1
  B  B10  1  0.08859545  0.91734096  0.73378237  1
  B  B11  1  0.58859545  0.58265904  0.23378237  1
  B  B12  1  0.92703196  0.81586748  0.41493503  1
  B  B13  1  0.42703196  0.68413252  0.91493503  1
  B  B14  1  0.07296804  0.18413252  0.58506497  1
  B  B15  1  0.57296804  0.31586748  0.08506497  1
  B  B16  1  0.01436137  0.32739539  0.10947124  1
  B  B17  1  0.51436137  0.17260461  0.60947124  1
  B  B18  1  0.98563863  0.67260461  0.89052876  1
  B  B19  1  0.48563863  0.82739539  0.39052876  1
  B  B20  1  0.78364179  0.53374750  0.05229771  1
  B  B21  1  0.28364179  0.96625250  0.55229771  1
  B  B22  1  0.21635821  0.46625250  0.94770229  1
  B  B23  1  0.71635821  0.03374750  0.44770229  1
  B  B24  1  0.84983897  0.09527638  0.00576348  1
  B  B25  1  0.34983897  0.40472362  0.50576348  1
  B  B26  1  0.15016103  0.90472362  0.99423652  1
  B  B27  1  0.65016103  0.59527638  0.49423652  1
  O  O28  1  0.02504414  0.21912464  0.23879724  1
  O  O29  1  0.52504414  0.28087536  0.73879724  1
  O  O30  1  0.97495586  0.78087536  0.76120276  1
  O  O31  1  0.47495586  0.71912464  0.26120276  1
  O  O32  1  0.98621396  0.91942175  0.31275284  1
  O  O33  1  0.48621396  0.58057825  0.81275284  1
  O  O34  1  0.01378604  0.08057825  0.68724716  1
  O  O35  1  0.51378604  0.41942175  0.18724716  1
  O  O36  1  0.81750982  0.03676031  0.13707681  1
  O  O37  1  0.31750982  0.46323969  0.63707681  1
  O  O38  1  0.18249018  0.96323969  0.86292319  1
  O  O39  1  0.68249018  0.53676031  0.36292319  1
  O  O40  1  0.91506538  0.47701087  0.14298839  1
  O  O41  1  0.41506538  0.02298913  0.64298839  1
  O  O42  1  0.08493462  0.52298913  0.85701161  1
  O  O43  1  0.58493462  0.97701087  0.35701161  1
  O  O44  1  0.16965244  0.39245683  0.08463682  1
  O  O45  1  0.66965244  0.10754317  0.58463682  1
  O  O46  1  0.83034756  0.60754317  0.91536318  1
  O  O47  1  0.33034756  0.89245683  0.41536318  1
  O  O48  1  0.96026959  0.22156900  0.99031822  1
  O  O49  1  0.46026959  0.27843100  0.49031822  1
  O  O50  1  0.03973041  0.77843100  0.00968178  1
  O  O51  1  0.53973041  0.72156900  0.50968178  1
  O  O52  1  0.68769948  0.65298028  0.12845386  1
  O  O53  1  0.18769948  0.84701972  0.62845386  1
  O  O54  1  0.31230052  0.34701972  0.87154614  1
  O  O55  1  0.81230052  0.15298028  0.37154614  1
  O  O56  1  0.80867497  0.87436375  0.48995547  1
  O  O57  1  0.30867497  0.62563625  0.98995547  1
  O  O58  1  0.19132503  0.12563625  0.51004453  1
  O  O59  1  0.69132503  0.37436375  0.01004453  1
  O  O60  1  0.99503491  0.65421764  0.43140922  1
  O  O61  1  0.49503491  0.84578236  0.93140922  1
  O  O62  1  0.00496509  0.34578236  0.56859078  1
  O  O63  1  0.50496509  0.15421764  0.06859078  1
  O  O64  1  0.77201346  0.03993576  0.88966089  1
  O  O65  1  0.27201346  0.46006424  0.38966089  1
  O  O66  1  0.22798654  0.96006424  0.11033911  1
  O  O67  1  0.72798654  0.53993576  0.61033911  1
