# generated using pymatgen
data_NaMn4O8
_symmetry_space_group_name_H-M   'P 1'
_cell_length_a   5.94297474
_cell_length_b   5.93997981
_cell_length_c   6.68553679
_cell_angle_alpha   89.27402716
_cell_angle_beta   116.06249558
_cell_angle_gamma   121.27875636
_symmetry_Int_Tables_number   1
_chemical_formula_structural   NaMn4O8
_chemical_formula_sum   'Na1 Mn4 O8'
_cell_volume   173.91331153
_cell_formula_units_Z   1
loop_
 _symmetry_equiv_pos_site_id
 _symmetry_equiv_pos_as_xyz
  1  'x, y, z'
loop_
 _atom_site_type_symbol
 _atom_site_label
 _atom_site_symmetry_multiplicity
 _atom_site_fract_x
 _atom_site_fract_y
 _atom_site_fract_z
 _atom_site_occupancy
  Na  Na0  1  0.50008133  0.00002760  0.50008092  1
  Mn  Mn1  1  0.99998596  0.99999168  0.00004142  1
  Mn  Mn2  1  0.99997291  0.49994765  0.00008364  1
  Mn  Mn3  1  0.50006932  0.00005214  0.99989961  1
  Mn  Mn4  1  0.50012931  0.50011508  0.00018346  1
  O  O5  1  0.05139602  0.77844680  0.82935500  1
  O  O6  1  0.04830607  0.27678989  0.83236629  1
  O  O7  1  0.56306827  0.25538781  0.81808992  1
  O  O8  1  0.55563114  0.78342393  0.83258500  1
  O  O9  1  0.43667811  0.74467430  0.18162934  1
  O  O10  1  0.44432207  0.21641752  0.16727601  1
  O  O11  1  0.94844430  0.22143280  0.17049435  1
  O  O12  1  0.95191518  0.72329381  0.16793204  1
