# generated using pymatgen
data_Mg30MnCoO32
_symmetry_space_group_name_H-M   'P 1'
_cell_length_a   8.54624417
_cell_length_b   8.52366897
_cell_length_c   8.52366897
_cell_angle_alpha   90.00000000
_cell_angle_beta   90.00000000
_cell_angle_gamma   90.00000000
_symmetry_Int_Tables_number   1
_chemical_formula_structural   Mg30MnCoO32
_chemical_formula_sum   'Mg30 Mn1 Co1 O32'
_cell_volume   620.90970261
_cell_formula_units_Z   1
loop_
 _symmetry_equiv_pos_site_id
 _symmetry_equiv_pos_as_xyz
  1  'x, y, z'
loop_
 _atom_site_type_symbol
 _atom_site_label
 _atom_site_symmetry_multiplicity
 _atom_site_fract_x
 _atom_site_fract_y
 _atom_site_fract_z
 _atom_site_occupancy
  Mg  Mg0  1  0.00000000  0.00000000  0.50000000  1
  Mg  Mg1  1  0.00000000  0.50000000  0.00000000  1
  Mg  Mg2  1  0.50000000  0.00000000  -0.00000000  1
  Mg  Mg3  1  0.50000000  0.00000000  0.50000000  1
  Mg  Mg4  1  0.50000000  0.50000000  0.00000000  1
  Mg  Mg5  1  0.50000000  0.50000000  0.50000000  1
  Mg  Mg6  1  0.00000000  0.25066754  0.25066754  1
  Mg  Mg7  1  0.00000000  0.25066754  0.74933246  1
  Mg  Mg8  1  0.00000000  0.74933246  0.25066754  1
  Mg  Mg9  1  0.00000000  0.74933246  0.74933246  1
  Mg  Mg10  1  0.50000000  0.25018639  0.25018639  1
  Mg  Mg11  1  0.50000000  0.25018639  0.74981361  1
  Mg  Mg12  1  0.50000000  0.74981361  0.25018639  1
  Mg  Mg13  1  0.50000000  0.74981361  0.74981361  1
  Mg  Mg14  1  0.25106136  0.00000000  0.25122206  1
  Mg  Mg15  1  0.25106136  -0.00000000  0.74877794  1
  Mg  Mg16  1  0.25011181  0.50000000  0.25093421  1
  Mg  Mg17  1  0.25011181  0.50000000  0.74906579  1
  Mg  Mg18  1  0.74893864  0.00000000  0.25122206  1
  Mg  Mg19  1  0.74893864  -0.00000000  0.74877794  1
  Mg  Mg20  1  0.74988819  0.50000000  0.25093421  1
  Mg  Mg21  1  0.74988819  0.50000000  0.74906579  1
  Mg  Mg22  1  0.25106136  0.25122206  -0.00000000  1
  Mg  Mg23  1  0.25011181  0.25093421  0.50000000  1
  Mg  Mg24  1  0.25106136  0.74877794  0.00000000  1
  Mg  Mg25  1  0.25011181  0.74906579  0.50000000  1
  Mg  Mg26  1  0.74893864  0.25122206  0.00000000  1
  Mg  Mg27  1  0.74988819  0.25093421  0.50000000  1
  Mg  Mg28  1  0.74893864  0.74877794  0.00000000  1
  Mg  Mg29  1  0.74988819  0.74906579  0.50000000  1
  Mn  Mn30  1  0.00000000  -0.00000000  0.00000000  1
  Co  Co31  1  0.00000000  0.50000000  0.50000000  1
  O  O32  1  0.25704712  -0.00000000  -0.00000000  1
  O  O33  1  0.24987449  0.00000000  0.50000000  1
  O  O34  1  0.24987449  0.50000000  0.00000000  1
  O  O35  1  0.25606947  0.50000000  0.50000000  1
  O  O36  1  0.74295288  0.00000000  0.00000000  1
  O  O37  1  0.75012551  0.00000000  0.50000000  1
  O  O38  1  0.75012551  0.50000000  -0.00000000  1
  O  O39  1  0.74393053  0.50000000  0.50000000  1
  O  O40  1  0.24926029  0.24982921  0.24982921  1
  O  O41  1  0.24926029  0.24982921  0.75017079  1
  O  O42  1  0.24926029  0.75017079  0.24982921  1
  O  O43  1  0.24926029  0.75017079  0.75017079  1
  O  O44  1  0.75073971  0.24982921  0.24982921  1
  O  O45  1  0.75073971  0.24982921  0.75017079  1
  O  O46  1  0.75073971  0.75017079  0.24982921  1
  O  O47  1  0.75073971  0.75017079  0.75017079  1
  O  O48  1  0.00000000  -0.00000000  0.25689372  1
  O  O49  1  0.00000000  0.00000000  0.74310628  1
  O  O50  1  0.00000000  0.50000000  0.25061426  1
  O  O51  1  0.00000000  0.50000000  0.74938574  1
  O  O52  1  0.50000000  -0.00000000  0.25077265  1
  O  O53  1  0.50000000  0.00000000  0.74922735  1
  O  O54  1  0.50000000  0.50000000  0.24918156  1
  O  O55  1  0.50000000  0.50000000  0.75081844  1
  O  O56  1  0.00000000  0.25689372  -0.00000000  1
  O  O57  1  0.00000000  0.25061426  0.50000000  1
  O  O58  1  0.00000000  0.74310628  0.00000000  1
  O  O59  1  0.00000000  0.74938574  0.50000000  1
  O  O60  1  0.50000000  0.25077265  0.00000000  1
  O  O61  1  0.50000000  0.24918156  0.50000000  1
  O  O62  1  0.50000000  0.74922735  0.00000000  1
  O  O63  1  0.50000000  0.75081844  0.50000000  1
