# generated using pymatgen
data_MgCo(SiO3)2
_symmetry_space_group_name_H-M   'P 1'
_cell_length_a   5.28523603
_cell_length_b   9.06275626
_cell_length_c   18.44878020
_cell_angle_alpha   90.00000000
_cell_angle_beta   90.00000000
_cell_angle_gamma   90.00000000
_symmetry_Int_Tables_number   1
_chemical_formula_structural   MgCo(SiO3)2
_chemical_formula_sum   'Mg8 Co8 Si16 O48'
_cell_volume   883.67454220
_cell_formula_units_Z   8
loop_
 _symmetry_equiv_pos_site_id
 _symmetry_equiv_pos_as_xyz
  1  'x, y, z'
loop_
 _atom_site_type_symbol
 _atom_site_label
 _atom_site_symmetry_multiplicity
 _atom_site_fract_x
 _atom_site_fract_y
 _atom_site_fract_z
 _atom_site_occupancy
  Mg  Mg0  1  0.61768135  0.15217914  0.62451883  1
  Mg  Mg1  1  0.38231865  0.84782086  0.37548117  1
  Mg  Mg2  1  0.61768135  0.65217914  0.87548117  1
  Mg  Mg3  1  0.11768135  0.84782086  0.87548117  1
  Mg  Mg4  1  0.88231865  0.15217914  0.12451883  1
  Mg  Mg5  1  0.38231865  0.34782086  0.12451883  1
  Mg  Mg6  1  0.11768135  0.34782086  0.62451883  1
  Mg  Mg7  1  0.88231865  0.65217914  0.37548117  1
  Co  Co8  1  0.37651952  0.99203773  0.12381083  1
  Co  Co9  1  0.62348048  0.00796227  0.87618917  1
  Co  Co10  1  0.87651952  0.00796227  0.37618917  1
  Co  Co11  1  0.12348048  0.99203773  0.62381083  1
  Co  Co12  1  0.37651952  0.49203773  0.37618917  1
  Co  Co13  1  0.62348048  0.50796227  0.62381083  1
  Co  Co14  1  0.87651952  0.50796227  0.12381083  1
  Co  Co15  1  0.12348048  0.49203773  0.87618917  1
  Si  Si16  1  0.56442654  0.65977238  0.22757801  1
  Si  Si17  1  0.71513959  0.83639806  0.52559858  1
  Si  Si18  1  0.78486041  0.83639806  0.02559858  1
  Si  Si19  1  0.93557346  0.15977238  0.77242199  1
  Si  Si20  1  0.06442654  0.34022762  0.27242199  1
  Si  Si21  1  0.43557346  0.84022762  0.72757801  1
  Si  Si22  1  0.21513959  0.66360194  0.52559858  1
  Si  Si23  1  0.71513959  0.33639806  0.97440142  1
  Si  Si24  1  0.78486041  0.33639806  0.47440142  1
  Si  Si25  1  0.93557346  0.65977238  0.72757801  1
  Si  Si26  1  0.43557346  0.34022762  0.77242199  1
  Si  Si27  1  0.56442654  0.15977238  0.27242199  1
  Si  Si28  1  0.28486041  0.16360194  0.47440142  1
  Si  Si29  1  0.06442654  0.84022762  0.22757801  1
  Si  Si30  1  0.28486041  0.66360194  0.02559858  1
  Si  Si31  1  0.21513959  0.16360194  0.97440142  1
  O  O32  1  0.93321008  0.50072898  0.68802438  1
  O  O33  1  0.30175510  0.01484393  0.93271674  1
  O  O34  1  0.06678992  0.49927102  0.31197562  1
  O  O35  1  0.71302515  0.33840090  0.06344762  1
  O  O36  1  0.21302515  0.16159910  0.06344762  1
  O  O37  1  0.91939965  0.20521120  0.94894870  1
  O  O38  1  0.94544271  0.66244310  0.81603779  1
  O  O39  1  0.05455729  0.83755690  0.31603779  1
  O  O40  1  0.71302515  0.83840090  0.43655238  1
  O  O41  1  0.94544271  0.16244310  0.68396221  1
  O  O42  1  0.43321008  0.49927102  0.81197562  1
  O  O43  1  0.78697485  0.33840090  0.56344762  1
  O  O44  1  0.69824490  0.98515607  0.06728326  1
  O  O45  1  0.44544271  0.83755690  0.81603779  1
  O  O46  1  0.56678992  0.00072898  0.31197562  1
  O  O47  1  0.30175510  0.51484393  0.56728326  1
  O  O48  1  0.43321008  0.99927102  0.68802438  1
  O  O49  1  0.16422921  0.76868905  0.69725573  1
  O  O50  1  0.33577079  0.76868905  0.19725573  1
  O  O51  1  0.58060035  0.70521120  0.05105130  1
  O  O52  1  0.78697485  0.83840090  0.93655238  1
  O  O53  1  0.55455729  0.66244310  0.31603779  1
  O  O54  1  0.80175510  0.48515607  0.93271674  1
  O  O55  1  0.16422921  0.26868905  0.80274427  1
  O  O56  1  0.28697485  0.16159910  0.56344762  1
  O  O57  1  0.55455729  0.16244310  0.18396221  1
  O  O58  1  0.69824490  0.48515607  0.43271674  1
  O  O59  1  0.21302515  0.66159910  0.43655238  1
  O  O60  1  0.19824490  0.51484393  0.06728326  1
  O  O61  1  0.66422921  0.73131095  0.69725573  1
  O  O62  1  0.06678992  0.99927102  0.18802438  1
  O  O63  1  0.83577079  0.73131095  0.19725573  1
  O  O64  1  0.83577079  0.23131095  0.30274427  1
  O  O65  1  0.80175510  0.98515607  0.56728326  1
  O  O66  1  0.28697485  0.66159910  0.93655238  1
  O  O67  1  0.19824490  0.01484393  0.43271674  1
  O  O68  1  0.33577079  0.26868905  0.30274427  1
  O  O69  1  0.08060035  0.79478880  0.05105130  1
  O  O70  1  0.41939965  0.79478880  0.55105130  1
  O  O71  1  0.66422921  0.23131095  0.80274427  1
  O  O72  1  0.41939965  0.29478880  0.94894870  1
  O  O73  1  0.58060035  0.20521120  0.44894870  1
  O  O74  1  0.08060035  0.29478880  0.44894870  1
  O  O75  1  0.44544271  0.33755690  0.68396221  1
  O  O76  1  0.56678992  0.50072898  0.18802438  1
  O  O77  1  0.91939965  0.70521120  0.55105130  1
  O  O78  1  0.05455729  0.33755690  0.18396221  1
  O  O79  1  0.93321008  0.00072898  0.81197562  1
