# generated using pymatgen
data_Te3MoWS
_symmetry_space_group_name_H-M   'P 1'
_cell_length_a   3.45780258
_cell_length_b   3.45781327
_cell_length_c   38.94991690
_cell_angle_alpha   90.00809643
_cell_angle_beta   90.00000000
_cell_angle_gamma   119.99989773
_symmetry_Int_Tables_number   1
_chemical_formula_structural   Te3MoWS
_chemical_formula_sum   'Te6 Mo2 W2 S2'
_cell_volume   403.31032434
_cell_formula_units_Z   2
loop_
 _symmetry_equiv_pos_site_id
 _symmetry_equiv_pos_as_xyz
  1  'x, y, z'
loop_
 _atom_site_type_symbol
 _atom_site_label
 _atom_site_symmetry_multiplicity
 _atom_site_fract_x
 _atom_site_fract_y
 _atom_site_fract_z
 _atom_site_occupancy
  Te  Te0  1  0.33332844  0.66665787  0.70539265  1
  Te  Te1  1  0.66664472  0.33328843  0.04608952  1
  Te  Te2  1  0.66665159  0.33330218  0.42205007  1
  Te  Te3  1  0.66674981  0.33349861  0.14153372  1
  Te  Te4  1  0.66675693  0.33351286  0.51696813  1
  Te  Te5  1  0.33316143  0.66632386  0.60998418  1
  Mo  Mo6  1  0.33337220  0.66674440  0.46951678  1
  Mo  Mo7  1  0.66668646  0.33337293  0.28189355  1
  W  W8  1  0.33335982  0.66671964  0.09378465  1
  W  W9  1  0.66658196  0.33316391  0.65772638  1
  S  S10  1  0.33340033  0.66680166  0.32011649  1
  S  S11  1  0.33330632  0.66661363  0.24369188  1
