# generated using pymatgen
data_AgO
_symmetry_space_group_name_H-M   'P 1'
_cell_length_a   3.29390402
_cell_length_b   3.29390402
_cell_length_c   5.59530811
_cell_angle_alpha   86.51839618
_cell_angle_beta   86.51839618
_cell_angle_gamma   86.04421181
_symmetry_Int_Tables_number   1
_chemical_formula_structural   AgO
_chemical_formula_sum   'Ag2 O2'
_cell_volume   60.35406357
_cell_formula_units_Z   2
loop_
 _symmetry_equiv_pos_site_id
 _symmetry_equiv_pos_as_xyz
  1  'x, y, z'
loop_
 _atom_site_type_symbol
 _atom_site_label
 _atom_site_symmetry_multiplicity
 _atom_site_fract_x
 _atom_site_fract_y
 _atom_site_fract_z
 _atom_site_occupancy
  Ag  Ag0  1  -0.00000000  0.50000000  0.50000000  1
  Ag  Ag1  1  0.50000000  0.00000000  0.00000000  1
  O  O2  1  0.97735169  0.02264831  0.25000000  1
  O  O3  1  0.02264831  0.97735169  0.75000000  1
