# generated using pymatgen
data_LaBiS2O
_symmetry_space_group_name_H-M   'P 1'
_cell_length_a   4.05549745
_cell_length_b   4.05549745
_cell_length_c   14.17326454
_cell_angle_alpha   90.00000000
_cell_angle_beta   90.00000000
_cell_angle_gamma   90.00000000
_symmetry_Int_Tables_number   1
_chemical_formula_structural   LaBiS2O
_chemical_formula_sum   'La2 Bi2 S4 O2'
_cell_volume   233.10852615
_cell_formula_units_Z   2
loop_
 _symmetry_equiv_pos_site_id
 _symmetry_equiv_pos_as_xyz
  1  'x, y, z'
loop_
 _atom_site_type_symbol
 _atom_site_label
 _atom_site_symmetry_multiplicity
 _atom_site_fract_x
 _atom_site_fract_y
 _atom_site_fract_z
 _atom_site_occupancy
  La  La0  1  0.25000000  0.25000000  0.58774246  1
  La  La1  1  0.75000000  0.75000000  0.41225754  1
  Bi  Bi2  1  0.75000000  0.75000000  0.86777525  1
  Bi  Bi3  1  0.25000000  0.25000000  0.13222475  1
  S  S4  1  0.25000000  0.25000000  0.89001964  1
  S  S5  1  0.75000000  0.75000000  0.10998036  1
  S  S6  1  0.75000000  0.75000000  0.69020142  1
  S  S7  1  0.25000000  0.25000000  0.30979858  1
  O  O8  1  0.75000000  0.25000000  0.50000000  1
  O  O9  1  0.25000000  0.75000000  0.50000000  1
