# generated using pymatgen
data_Ce(GeAu)2
_symmetry_space_group_name_H-M   'P 1'
_cell_length_a   4.43724469
_cell_length_b   4.43724469
_cell_length_c   6.13697214
_cell_angle_alpha   111.19340955
_cell_angle_beta   111.19340955
_cell_angle_gamma   90.00000000
_symmetry_Int_Tables_number   1
_chemical_formula_structural   Ce(GeAu)2
_chemical_formula_sum   'Ce1 Ge2 Au2'
_cell_volume   103.84572697
_cell_formula_units_Z   1
loop_
 _symmetry_equiv_pos_site_id
 _symmetry_equiv_pos_as_xyz
  1  'x, y, z'
loop_
 _atom_site_type_symbol
 _atom_site_label
 _atom_site_symmetry_multiplicity
 _atom_site_fract_x
 _atom_site_fract_y
 _atom_site_fract_z
 _atom_site_occupancy
  Ce  Ce0  1  0.00000000  0.00000000  0.00000000  1
  Ge  Ge1  1  0.61486479  0.61486479  0.22972958  1
  Ge  Ge2  1  0.38513521  0.38513521  0.77027042  1
  Au  Au3  1  0.25000000  0.75000000  0.50000000  1
  Au  Au4  1  0.75000000  0.25000000  0.50000000  1
