# generated using pymatgen
data_TeMoWSeS2
_symmetry_space_group_name_H-M   'P 1'
_cell_length_a   3.31049274
_cell_length_b   3.31046378
_cell_length_c   37.63731907
_cell_angle_alpha   89.99997723
_cell_angle_beta   90.00000000
_cell_angle_gamma   120.00028940
_symmetry_Int_Tables_number   1
_chemical_formula_structural   TeMoWSeS2
_chemical_formula_sum   'Te2 Mo2 W2 Se2 S4'
_cell_volume   357.21486751
_cell_formula_units_Z   2
loop_
 _symmetry_equiv_pos_site_id
 _symmetry_equiv_pos_as_xyz
  1  'x, y, z'
loop_
 _atom_site_type_symbol
 _atom_site_label
 _atom_site_symmetry_multiplicity
 _atom_site_fract_x
 _atom_site_fract_y
 _atom_site_fract_z
 _atom_site_occupancy
  Te  Te0  1  0.33335922  0.66671943  0.70864994  1
  Te  Te1  1  0.33335222  0.66670545  0.60642079  1
  Mo  Mo2  1  0.33331961  0.66663922  0.46963573  1
  Mo  Mo3  1  0.66668400  0.33336800  0.28180919  1
  W  W4  1  0.33330901  0.66661801  0.09392498  1
  W  W5  1  0.66669170  0.33338341  0.65756823  1
  Se  Se6  1  0.66665022  0.33329945  0.04905657  1
  Se  Se7  1  0.66663981  0.33327862  0.13879578  1
  S  S8  1  0.33335649  0.66671399  0.32238479  1
  S  S9  1  0.66663937  0.33327774  0.42909133  1
  S  S10  1  0.66664015  0.33327931  0.51018646  1
  S  S11  1  0.33335819  0.66671738  0.24122421  1
