# generated using pymatgen
data_BaZnCrF7
_symmetry_space_group_name_H-M   'P 1'
_cell_length_a   5.67203359
_cell_length_b   9.71492631
_cell_length_c   10.06583029
_cell_angle_alpha   90.00000000
_cell_angle_beta   90.00000000
_cell_angle_gamma   93.08640070
_symmetry_Int_Tables_number   1
_chemical_formula_structural   BaZnCrF7
_chemical_formula_sum   'Ba4 Zn4 Cr4 F28'
_cell_volume   553.85680666
_cell_formula_units_Z   4
loop_
 _symmetry_equiv_pos_site_id
 _symmetry_equiv_pos_as_xyz
  1  'x, y, z'
loop_
 _atom_site_type_symbol
 _atom_site_label
 _atom_site_symmetry_multiplicity
 _atom_site_fract_x
 _atom_site_fract_y
 _atom_site_fract_z
 _atom_site_occupancy
  Ba  Ba0  1  0.26069635  0.49885082  0.32018297  1
  Ba  Ba1  1  0.73930365  0.00114918  0.82018297  1
  Ba  Ba2  1  0.73930365  0.50114918  0.67981703  1
  Ba  Ba3  1  0.26069635  0.99885082  0.17981703  1
  Zn  Zn4  1  0.69630218  0.81090478  0.39906513  1
  Zn  Zn5  1  0.30369782  0.68909522  0.89906513  1
  Zn  Zn6  1  0.69630218  0.31090478  0.10093487  1
  Zn  Zn7  1  0.30369782  0.18909522  0.60093487  1
  Cr  Cr8  1  0.19521388  0.81276380  0.61282518  1
  Cr  Cr9  1  0.80478612  0.18723620  0.38717482  1
  Cr  Cr10  1  0.19521388  0.31276380  0.88717482  1
  Cr  Cr11  1  0.80478612  0.68723620  0.11282518  1
  F  F12  1  0.10844466  0.12220494  0.44383984  1
  F  F13  1  0.36117141  0.37015202  0.04918559  1
  F  F14  1  0.47567599  0.75197669  0.70641260  1
  F  F15  1  0.52432401  0.24802331  0.29358740  1
  F  F16  1  0.88923382  0.36630606  0.45774446  1
  F  F17  1  0.26073261  0.49755649  0.80824972  1
  F  F18  1  0.02407242  0.75289541  0.77583597  1
  F  F19  1  0.11076618  0.13369394  0.95774446  1
  F  F20  1  0.36117141  0.87015202  0.45081441  1
  F  F21  1  0.52432401  0.74802331  0.20641260  1
  F  F22  1  0.10844466  0.62220494  0.05616016  1
  F  F23  1  0.89155534  0.87779506  0.55616016  1
  F  F24  1  0.97592758  0.74710459  0.27583597  1
  F  F25  1  0.38796739  0.87585892  0.95721640  1
  F  F26  1  0.11076618  0.63369394  0.54225554  1
  F  F27  1  0.88923382  0.86630606  0.04225554  1
  F  F28  1  0.97592758  0.24710459  0.22416403  1
  F  F29  1  0.89155534  0.37779506  0.94383984  1
  F  F30  1  0.61203261  0.62414108  0.45721640  1
  F  F31  1  0.63882859  0.62984798  0.95081441  1
  F  F32  1  0.61203261  0.12414108  0.04278360  1
  F  F33  1  0.02407242  0.25289541  0.72416403  1
  F  F34  1  0.38796739  0.37585892  0.54278360  1
  F  F35  1  0.73926739  0.00244351  0.30824972  1
  F  F36  1  0.73926739  0.50244351  0.19175028  1
  F  F37  1  0.26073261  0.99755649  0.69175028  1
  F  F38  1  0.63882859  0.12984798  0.54918559  1
  F  F39  1  0.47567599  0.25197669  0.79358740  1
