# generated using pymatgen
data_CaCu(PO3)4
_symmetry_space_group_name_H-M   'P 1'
_cell_length_a   7.43479395
_cell_length_b   7.44742193
_cell_length_c   10.24194937
_cell_angle_alpha   98.37060590
_cell_angle_beta   111.04691696
_cell_angle_gamma   107.77599528
_symmetry_Int_Tables_number   1
_chemical_formula_structural   CaCu(PO3)4
_chemical_formula_sum   'Ca2 Cu2 P8 O24'
_cell_volume   482.76716561
_cell_formula_units_Z   2
loop_
 _symmetry_equiv_pos_site_id
 _symmetry_equiv_pos_as_xyz
  1  'x, y, z'
loop_
 _atom_site_type_symbol
 _atom_site_label
 _atom_site_symmetry_multiplicity
 _atom_site_fract_x
 _atom_site_fract_y
 _atom_site_fract_z
 _atom_site_occupancy
  Ca  Ca0  1  0.70074867  0.94952052  0.75074778  1
  Ca  Ca1  1  0.30023137  0.04915831  0.25030573  1
  Cu  Cu2  1  0.50097025  0.50046403  0.50065460  1
  Cu  Cu3  1  0.50037064  0.99841331  0.00015870  1
  P  P4  1  0.50336257  0.31565334  0.81017118  1
  P  P5  1  0.00864847  0.69268904  0.69164976  1
  P  P6  1  0.49833833  0.68342519  0.19151858  1
  P  P7  1  0.99230442  0.30465033  0.30964542  1
  P  P8  1  0.75507263  0.71725273  0.02461907  1
  P  P9  1  0.19407370  0.72784823  0.47514461  1
  P  P10  1  0.24687393  0.28093147  0.97694608  1
  P  P11  1  0.80471695  0.27018619  0.52503043  1
  O  O12  1  0.31446672  0.32759133  0.84870770  1
  O  O13  1  0.97935523  0.46494706  0.65405877  1
  O  O14  1  0.68752788  0.67204450  0.15322624  1
  O  O15  1  0.02014271  0.53204159  0.34663148  1
  O  O16  1  0.70617898  0.50056869  0.93292142  1
  O  O17  1  0.07011236  0.77012808  0.56796565  1
  O  O18  1  0.29593538  0.49687387  0.07000768  1
  O  O19  1  0.92865742  0.22675115  0.43250481  1
  O  O20  1  0.46382543  0.33558824  0.66187253  1
  O  O21  1  0.17772510  0.80139416  0.83961857  1
  O  O22  1  0.53861972  0.66568748  0.34045459  1
  O  O23  1  0.82478847  0.19445482  0.16126882  1
  O  O24  1  0.53757811  0.13094457  0.84092288  1
  O  O25  1  0.79346583  0.69808767  0.66123380  1
  O  O26  1  0.46247333  0.86692219  0.15936822  1
  O  O27  1  0.20835754  0.30079636  0.34143742  1
  O  O28  1  0.61211217  0.80279005  0.92917426  1
  O  O29  1  0.37627820  0.68134782  0.57064963  1
  O  O30  1  0.38977693  0.19477014  0.07174079  1
  O  O31  1  0.62410408  0.31868034  0.42956578  1
  O  O32  1  0.98375431  0.82842480  0.08680969  1
  O  O33  1  0.24206728  0.89369061  0.41251110  1
  O  O34  1  0.01817044  0.16944152  0.91419998  1
  O  O35  1  0.75401245  0.10404933  0.58695322  1
