# generated using pymatgen
data_Ba2ZrTiO6
_symmetry_space_group_name_H-M   'P 1'
_cell_length_a   5.86519745
_cell_length_b   5.86519731
_cell_length_c   5.86348183
_cell_angle_alpha   59.99032138
_cell_angle_beta   59.99032385
_cell_angle_gamma   60.00000068
_symmetry_Int_Tables_number   1
_chemical_formula_structural   Ba2ZrTiO6
_chemical_formula_sum   'Ba2 Zr1 Ti1 O6'
_cell_volume   142.60748169
_cell_formula_units_Z   1
loop_
 _symmetry_equiv_pos_site_id
 _symmetry_equiv_pos_as_xyz
  1  'x, y, z'
loop_
 _atom_site_type_symbol
 _atom_site_label
 _atom_site_symmetry_multiplicity
 _atom_site_fract_x
 _atom_site_fract_y
 _atom_site_fract_z
 _atom_site_occupancy
  Ba  Ba0  1  0.25010915  0.25010915  0.24967256  1
  Ba  Ba1  1  0.74989085  0.74989085  0.75032744  1
  Zr  Zr2  1  0.50000000  0.50000000  0.50000000  1
  Ti  Ti3  1  0.00000000  -0.00000000  0.00000000  1
  O  O4  1  0.24251794  0.24251794  0.75752105  1
  O  O5  1  0.24251794  0.75744307  0.75752105  1
  O  O6  1  0.75744307  0.24251794  0.75752105  1
  O  O7  1  0.75748206  0.75748206  0.24247895  1
  O  O8  1  0.75748206  0.24255693  0.24247895  1
  O  O9  1  0.24255693  0.75748206  0.24247895  1
