# generated using pymatgen
data_La2Ni2I
_symmetry_space_group_name_H-M   'P 1'
_cell_length_a   4.16255037
_cell_length_b   4.16259882
_cell_length_c   8.91793274
_cell_angle_alpha   89.99903782
_cell_angle_beta   90.00164840
_cell_angle_gamma   119.99856692
_symmetry_Int_Tables_number   1
_chemical_formula_structural   La2Ni2I
_chemical_formula_sum   'La2 Ni2 I1'
_cell_volume   133.82127211
_cell_formula_units_Z   1
loop_
 _symmetry_equiv_pos_site_id
 _symmetry_equiv_pos_as_xyz
  1  'x, y, z'
loop_
 _atom_site_type_symbol
 _atom_site_label
 _atom_site_symmetry_multiplicity
 _atom_site_fract_x
 _atom_site_fract_y
 _atom_site_fract_z
 _atom_site_occupancy
  La  La0  1  -0.00000051  0.99999916  0.28951498  1
  La  La1  1  0.00000265  0.99999725  0.71048513  1
  Ni  Ni2  1  0.33330810  0.66669273  0.49999978  1
  Ni  Ni3  1  0.66669390  0.33330653  0.50000015  1
  I  I4  1  0.66669585  0.33330432  -0.00000003  1
