# generated using pymatgen
data_HoCoGe2
_symmetry_space_group_name_H-M   'P 1'
_cell_length_a   4.18946725
_cell_length_b   4.13202109
_cell_length_c   8.50526509
_cell_angle_alpha   104.05833123
_cell_angle_beta   90.00000000
_cell_angle_gamma   90.00000000
_symmetry_Int_Tables_number   1
_chemical_formula_structural   HoCoGe2
_chemical_formula_sum   'Ho2 Co2 Ge4'
_cell_volume   142.82453685
_cell_formula_units_Z   2
loop_
 _symmetry_equiv_pos_site_id
 _symmetry_equiv_pos_as_xyz
  1  'x, y, z'
loop_
 _atom_site_type_symbol
 _atom_site_label
 _atom_site_symmetry_multiplicity
 _atom_site_fract_x
 _atom_site_fract_y
 _atom_site_fract_z
 _atom_site_occupancy
  Ho  Ho0  1  0.75000000  0.10817036  0.21634071  1
  Ho  Ho1  1  0.25000000  0.89182964  0.78365929  1
  Co  Co2  1  0.75000000  0.31869787  0.63739574  1
  Co  Co3  1  0.25000000  0.68130213  0.36260426  1
  Ge  Ge4  1  0.75000000  0.45541765  0.91083529  1
  Ge  Ge5  1  0.25000000  0.54458235  0.08916471  1
  Ge  Ge6  1  0.75000000  0.74833392  0.49666784  1
  Ge  Ge7  1  0.25000000  0.25166608  0.50333216  1
