# generated using pymatgen
data_RbFeS2
_symmetry_space_group_name_H-M   'P 1'
_cell_length_a   5.36268466
_cell_length_b   6.89332738
_cell_length_c   7.25900107
_cell_angle_alpha   118.34713908
_cell_angle_beta   111.67749168
_cell_angle_gamma   90.00000000
_symmetry_Int_Tables_number   1
_chemical_formula_structural   RbFeS2
_chemical_formula_sum   'Rb2 Fe2 S4'
_cell_volume   214.35612453
_cell_formula_units_Z   2
loop_
 _symmetry_equiv_pos_site_id
 _symmetry_equiv_pos_as_xyz
  1  'x, y, z'
loop_
 _atom_site_type_symbol
 _atom_site_label
 _atom_site_symmetry_multiplicity
 _atom_site_fract_x
 _atom_site_fract_y
 _atom_site_fract_z
 _atom_site_occupancy
  Rb  Rb0  1  0.32522227  0.32522227  0.65044454  1
  Rb  Rb1  1  0.67477773  0.67477773  0.34955546  1
  Fe  Fe2  1  0.75392748  -0.00000000  -0.00000000  1
  Fe  Fe3  1  0.24607252  -0.00000000  0.00000000  1
  S  S4  1  0.64740823  0.14740823  0.29481646  1
  S  S5  1  0.35259177  0.85259177  0.70518354  1
  S  S6  1  0.00000000  0.25194929  0.00000000  1
  S  S7  1  1.00000000  0.74805071  1.00000000  1
