# generated using pymatgen
data_Te3MoWS
_symmetry_space_group_name_H-M   'P 1'
_cell_length_a   3.46013266
_cell_length_b   3.46013273
_cell_length_c   39.26130719
_cell_angle_alpha   90.00030520
_cell_angle_beta   90.00000000
_cell_angle_gamma   119.99999937
_symmetry_Int_Tables_number   1
_chemical_formula_structural   Te3MoWS
_chemical_formula_sum   'Te6 Mo2 W2 S2'
_cell_volume   407.08106067
_cell_formula_units_Z   2
loop_
 _symmetry_equiv_pos_site_id
 _symmetry_equiv_pos_as_xyz
  1  'x, y, z'
loop_
 _atom_site_type_symbol
 _atom_site_label
 _atom_site_symmetry_multiplicity
 _atom_site_fract_x
 _atom_site_fract_y
 _atom_site_fract_z
 _atom_site_occupancy
  Te  Te0  1  0.33335461  0.66671021  0.32911292  1
  Te  Te1  1  0.33335021  0.66670142  0.70480428  1
  Te  Te2  1  0.66664412  0.33328723  0.04688583  1
  Te  Te3  1  0.66665025  0.33329950  0.14087903  1
  Te  Te4  1  0.33335220  0.66670539  0.23459348  1
  Te  Te5  1  0.33335041  0.66670182  0.61020422  1
  Mo  Mo6  1  0.33330916  0.66661833  0.09386499  1
  Mo  Mo7  1  0.33331320  0.66662641  0.46966413  1
  W  W8  1  0.66669184  0.33338369  0.28186886  1
  W  W9  1  0.66668816  0.33337633  0.65754729  1
  S  S10  1  0.66665228  0.33330356  0.43179744  1
  S  S11  1  0.66664356  0.33328613  0.50752553  1
