# generated using pymatgen
data_CsTlBr3
_symmetry_space_group_name_H-M   'P 1'
_cell_length_a   5.86729541
_cell_length_b   5.86780758
_cell_length_c   5.86945443
_cell_angle_alpha   90.00079984
_cell_angle_beta   90.01144758
_cell_angle_gamma   89.99737390
_symmetry_Int_Tables_number   1
_chemical_formula_structural   CsTlBr3
_chemical_formula_sum   'Cs1 Tl1 Br3'
_cell_volume   202.07451475
_cell_formula_units_Z   1
loop_
 _symmetry_equiv_pos_site_id
 _symmetry_equiv_pos_as_xyz
  1  'x, y, z'
loop_
 _atom_site_type_symbol
 _atom_site_label
 _atom_site_symmetry_multiplicity
 _atom_site_fract_x
 _atom_site_fract_y
 _atom_site_fract_z
 _atom_site_occupancy
  Cs  Cs0  1  0.99525692  0.99908865  0.99812633  1
  Tl  Tl1  1  0.48418221  0.49862964  0.49423960  1
  Br  Br2  1  0.48628681  0.99939028  0.49542275  1
  Br  Br3  1  0.98507259  0.50462012  0.50630903  1
  Br  Br4  1  0.48919648  0.49826730  0.99590629  1
