# generated using pymatgen
data_Cs2Ni3S4
_symmetry_space_group_name_H-M   'P 1'
_cell_length_a   5.88206704
_cell_length_b   5.88206704
_cell_length_c   7.93044516
_cell_angle_alpha   101.03074508
_cell_angle_beta   101.03074508
_cell_angle_gamma   118.95133786
_symmetry_Int_Tables_number   1
_chemical_formula_structural   Cs2Ni3S4
_chemical_formula_sum   'Cs2 Ni3 S4'
_cell_volume   222.40582770
_cell_formula_units_Z   1
loop_
 _symmetry_equiv_pos_site_id
 _symmetry_equiv_pos_as_xyz
  1  'x, y, z'
loop_
 _atom_site_type_symbol
 _atom_site_label
 _atom_site_symmetry_multiplicity
 _atom_site_fract_x
 _atom_site_fract_y
 _atom_site_fract_z
 _atom_site_occupancy
  Cs  Cs0  1  0.66114857  0.66114857  0.32229715  1
  Cs  Cs1  1  0.33885143  0.33885143  0.67770285  1
  Ni  Ni2  1  -0.00000000  -0.00000000  -0.00000000  1
  Ni  Ni3  1  -0.00000000  0.50000000  0.00000000  1
  Ni  Ni4  1  0.50000000  -0.00000000  -0.00000000  1
  S  S5  1  0.73589469  0.07134522  0.80723990  1
  S  S6  1  0.92865478  0.26410531  0.19276010  1
  S  S7  1  0.07134522  0.73589469  0.80723990  1
  S  S8  1  0.26410531  0.92865478  0.19276010  1
