# generated using pymatgen
data_InSe
_symmetry_space_group_name_H-M   'P 1'
_cell_length_a   4.09647331
_cell_length_b   4.09647331
_cell_length_c   18.34344757
_cell_angle_alpha   90.00000000
_cell_angle_beta   90.00000000
_cell_angle_gamma   119.97030293
_symmetry_Int_Tables_number   1
_chemical_formula_structural   InSe
_chemical_formula_sum   'In4 Se4'
_cell_volume   266.66237158
_cell_formula_units_Z   4
loop_
 _symmetry_equiv_pos_site_id
 _symmetry_equiv_pos_as_xyz
  1  'x, y, z'
loop_
 _atom_site_type_symbol
 _atom_site_label
 _atom_site_symmetry_multiplicity
 _atom_site_fract_x
 _atom_site_fract_y
 _atom_site_fract_z
 _atom_site_occupancy
  In  In0  1  0.66648019  0.33351981  0.42275017  1
  In  In1  1  0.66648019  0.33351981  0.57724983  1
  In  In2  1  0.00008417  -0.00008417  0.07713090  1
  In  In3  1  0.00008417  -0.00008417  0.92286910  1
  Se  Se4  1  0.33335678  0.66664322  0.14629647  1
  Se  Se5  1  0.33335678  0.66664322  0.85370353  1
  Se  Se6  1  0.00007887  0.99992113  0.35365129  1
  Se  Se7  1  0.00007887  0.99992113  0.64634871  1
