# generated using pymatgen
data_Sr2TaInO6
_symmetry_space_group_name_H-M   'P 1'
_cell_length_a   5.75732520
_cell_length_b   5.75732520
_cell_length_c   5.82899606
_cell_angle_alpha   119.59409242
_cell_angle_beta   119.59409230
_cell_angle_gamma   90.00000000
_symmetry_Int_Tables_number   1
_chemical_formula_structural   Sr2TaInO6
_chemical_formula_sum   'Sr2 Ta1 In1 O6'
_cell_volume   138.28132856
_cell_formula_units_Z   1
loop_
 _symmetry_equiv_pos_site_id
 _symmetry_equiv_pos_as_xyz
  1  'x, y, z'
loop_
 _atom_site_type_symbol
 _atom_site_label
 _atom_site_symmetry_multiplicity
 _atom_site_fract_x
 _atom_site_fract_y
 _atom_site_fract_z
 _atom_site_occupancy
  Sr  Sr0  1  0.75000000  0.25000000  0.50000000  1
  Sr  Sr1  1  0.25000000  0.75000000  0.50000000  1
  Ta  Ta2  1  0.50000000  0.50000000  -0.00000000  1
  In  In3  1  -0.00000000  -0.00000000  -0.00000000  1
  O  O4  1  0.26002475  0.26002475  0.52004950  1
  O  O5  1  0.73997525  0.73997525  0.47995050  1
  O  O6  1  0.31933180  0.20301099  0.00000000  1
  O  O7  1  0.68066820  0.79698901  -0.00000000  1
  O  O8  1  0.79698901  0.31933180  -0.00000000  1
  O  O9  1  0.20301099  0.68066820  0.00000000  1
