# generated using pymatgen
data_BaUTe4
_symmetry_space_group_name_H-M   'P 1'
_cell_length_a   6.30754788
_cell_length_b   8.82871672
_cell_length_c   8.83535821
_cell_angle_alpha   73.77829338
_cell_angle_beta   69.08705049
_cell_angle_gamma   69.07057980
_symmetry_Int_Tables_number   1
_chemical_formula_structural   BaUTe4
_chemical_formula_sum   'Ba2 U2 Te8'
_cell_volume   422.73149601
_cell_formula_units_Z   2
loop_
 _symmetry_equiv_pos_site_id
 _symmetry_equiv_pos_as_xyz
  1  'x, y, z'
loop_
 _atom_site_type_symbol
 _atom_site_label
 _atom_site_symmetry_multiplicity
 _atom_site_fract_x
 _atom_site_fract_y
 _atom_site_fract_z
 _atom_site_occupancy
  Ba  Ba0  1  0.89952533  0.89545334  0.30549600  1
  Ba  Ba1  1  0.10047467  0.10454666  0.69450400  1
  U  U2  1  0.63887708  0.49709537  0.22515046  1
  U  U3  1  0.36112292  0.50290463  0.77484954  1
  Te  Te4  1  0.10554986  0.24477636  0.04309846  1
  Te  Te5  1  0.39342468  0.75522364  0.95690154  1
  Te  Te6  1  0.89445014  0.75522364  0.95690154  1
  Te  Te7  1  0.60657532  0.24477636  0.04309846  1
  Te  Te8  1  0.10046451  0.45762073  0.34145025  1
  Te  Te9  1  0.89953549  0.54237927  0.65854975  1
  Te  Te10  1  0.60982519  0.22989115  0.55045847  1
  Te  Te11  1  0.39017481  0.77010885  0.44954153  1
