# generated using pymatgen
data_CeCuGe2
_symmetry_space_group_name_H-M   'P 1'
_cell_length_a   4.26675521
_cell_length_b   4.29586397
_cell_length_c   8.78477393
_cell_angle_alpha   104.15265288
_cell_angle_beta   90.00000000
_cell_angle_gamma   90.00000000
_symmetry_Int_Tables_number   1
_chemical_formula_structural   CeCuGe2
_chemical_formula_sum   'Ce2 Cu2 Ge4'
_cell_volume   156.13232399
_cell_formula_units_Z   2
loop_
 _symmetry_equiv_pos_site_id
 _symmetry_equiv_pos_as_xyz
  1  'x, y, z'
loop_
 _atom_site_type_symbol
 _atom_site_label
 _atom_site_symmetry_multiplicity
 _atom_site_fract_x
 _atom_site_fract_y
 _atom_site_fract_z
 _atom_site_occupancy
  Ce  Ce0  1  0.75000000  0.10425903  0.20851806  1
  Ce  Ce1  1  0.25000000  0.89574097  0.79148194  1
  Cu  Cu2  1  0.75000000  0.32285082  0.64570165  1
  Cu  Cu3  1  0.25000000  0.67714918  0.35429835  1
  Ge  Ge4  1  0.75000000  0.46142213  0.92284427  1
  Ge  Ge5  1  0.25000000  0.53857787  0.07715573  1
  Ge  Ge6  1  0.75000000  0.75132242  0.50264485  1
  Ge  Ge7  1  0.25000000  0.24867758  0.49735515  1
