# generated using pymatgen
data_ScSnPt
_symmetry_space_group_name_H-M   'P 1'
_cell_length_a   3.73629034
_cell_length_b   7.45674076
_cell_length_c   7.45630745
_cell_angle_alpha   120.00192528
_cell_angle_beta   90.00000000
_cell_angle_gamma   90.00000000
_symmetry_Int_Tables_number   1
_chemical_formula_structural   ScSnPt
_chemical_formula_sum   'Sc3 Sn3 Pt3'
_cell_volume   179.90186887
_cell_formula_units_Z   3
loop_
 _symmetry_equiv_pos_site_id
 _symmetry_equiv_pos_as_xyz
  1  'x, y, z'
loop_
 _atom_site_type_symbol
 _atom_site_label
 _atom_site_symmetry_multiplicity
 _atom_site_fract_x
 _atom_site_fract_y
 _atom_site_fract_z
 _atom_site_occupancy
  Sc  Sc0  1  0.50000000  0.60224659  1.00000000  1
  Sc  Sc1  1  0.50000000  0.39775022  0.39774917  1
  Sc  Sc2  1  0.50000000  0.00000106  0.60225083  1
  Sn  Sn3  1  0.00000000  0.26858762  1.00000000  1
  Sn  Sn4  1  -0.00000000  0.73137419  0.73137785  1
  Sn  Sn5  1  0.00000000  0.99999634  0.26862215  1
  Pt  Pt6  1  0.00000000  0.33331999  0.66668427  1
  Pt  Pt7  1  0.00000000  0.66663572  0.33331573  1
  Pt  Pt8  1  0.50000000  0.99998827  0.00000000  1
