# generated using pymatgen
data_VFeAs
_symmetry_space_group_name_H-M   'P 1'
_cell_length_a   3.66282268
_cell_length_b   6.06804366
_cell_length_c   6.07585924
_cell_angle_alpha   119.95745970
_cell_angle_beta   90.00000000
_cell_angle_gamma   90.00000000
_symmetry_Int_Tables_number   1
_chemical_formula_structural   VFeAs
_chemical_formula_sum   'V3 Fe3 As3'
_cell_volume   117.00082781
_cell_formula_units_Z   3
loop_
 _symmetry_equiv_pos_site_id
 _symmetry_equiv_pos_as_xyz
  1  'x, y, z'
loop_
 _atom_site_type_symbol
 _atom_site_label
 _atom_site_symmetry_multiplicity
 _atom_site_fract_x
 _atom_site_fract_y
 _atom_site_fract_z
 _atom_site_occupancy
  V  V0  1  0.50000000  0.58266176  0.00000000  1
  V  V1  1  0.50000000  0.41700473  0.41707638  1
  V  V2  1  0.50000000  0.99992834  0.58292362  1
  Fe  Fe3  1  -0.00000000  0.24744989  1.00000000  1
  Fe  Fe4  1  -0.00000000  0.75291282  0.75320678  1
  Fe  Fe5  1  -0.00000000  0.99970604  0.24679322  1
  As  As6  1  -0.00000000  0.33288234  0.66629670  1
  As  As7  1  -0.00000000  0.66658564  0.33370330  1
  As  As8  1  0.50000000  0.00076843  1.00000000  1
