# generated using pymatgen
data_Sr10Fe10O29
_symmetry_space_group_name_H-M   'P 1'
_cell_length_a   7.85183814
_cell_length_b   19.69593607
_cell_length_c   3.90601259
_cell_angle_alpha   90.00000000
_cell_angle_beta   90.00000000
_cell_angle_gamma   90.00000000
_symmetry_Int_Tables_number   1
_chemical_formula_structural   Sr10Fe10O29
_chemical_formula_sum   'Sr10 Fe10 O29'
_cell_volume   604.06212079
_cell_formula_units_Z   1
loop_
 _symmetry_equiv_pos_site_id
 _symmetry_equiv_pos_as_xyz
  1  'x, y, z'
loop_
 _atom_site_type_symbol
 _atom_site_label
 _atom_site_symmetry_multiplicity
 _atom_site_fract_x
 _atom_site_fract_y
 _atom_site_fract_z
 _atom_site_occupancy
  Sr  Sr0  1  0.25429463  0.10229458  0.49999900  1
  Sr  Sr1  1  0.25068839  0.30024849  0.49999900  1
  Sr  Sr2  1  0.25068839  0.49975151  0.49999900  1
  Sr  Sr3  1  0.25429463  0.69770542  0.49999900  1
  Sr  Sr4  1  0.26665674  0.90000000  0.49999900  1
  Sr  Sr5  1  0.74570537  0.10229458  0.49999900  1
  Sr  Sr6  1  0.74931161  0.30024849  0.49999900  1
  Sr  Sr7  1  0.74931161  0.49975151  0.49999900  1
  Sr  Sr8  1  0.74570537  0.69770542  0.49999900  1
  Sr  Sr9  1  0.73334326  0.90000000  0.49999900  1
  Fe  Fe10  1  -0.00000000  0.00634351  -0.00000000  1
  Fe  Fe11  1  -0.00000000  0.20146580  -0.00000000  1
  Fe  Fe12  1  -0.00000000  0.40000000  0.00000000  1
  Fe  Fe13  1  -0.00000000  0.59853420  -0.00000000  1
  Fe  Fe14  1  -0.00000000  0.79365649  -0.00000000  1
  Fe  Fe15  1  0.50000000  0.00017160  -0.00000000  1
  Fe  Fe16  1  0.50000000  0.20035042  0.00000000  1
  Fe  Fe17  1  0.50000000  0.40000000  0.00000000  1
  Fe  Fe18  1  0.50000000  0.59964958  -0.00000000  1
  Fe  Fe19  1  0.50000000  0.79982840  -0.00000000  1
  O  O20  1  0.24006885  0.99337083  -0.00000000  1
  O  O21  1  0.25056384  0.19882615  -0.00000000  1
  O  O22  1  0.24865966  0.40000000  -0.00000000  1
  O  O23  1  0.25056384  0.60117385  -0.00000000  1
  O  O24  1  0.24006885  0.80662917  0.00000000  1
  O  O25  1  0.75993115  0.99337083  0.00000000  1
  O  O26  1  0.74943616  0.19882615  -0.00000000  1
  O  O27  1  0.75134034  0.40000000  -0.00000000  1
  O  O28  1  0.74943616  0.60117385  -0.00000000  1
  O  O29  1  0.75993115  0.80662917  -0.00000000  1
  O  O30  1  -0.00000000  0.10159593  0.00000000  1
  O  O31  1  -0.00000000  0.29894879  -0.00000000  1
  O  O32  1  -0.00000000  0.50105121  -0.00000000  1
  O  O33  1  -0.00000000  0.69840407  -0.00000000  1
  O  O34  1  0.50000000  0.09810779  -0.00000000  1
  O  O35  1  0.50000000  0.30076249  -0.00000000  1
  O  O36  1  0.50000000  0.49923751  -0.00000000  1
  O  O37  1  0.50000000  0.70189221  0.00000000  1
  O  O38  1  0.50000000  0.90000000  -0.00000000  1
  O  O39  1  -0.00000000  0.98690320  0.49999900  1
  O  O40  1  -0.00000000  0.19912437  0.49999900  1
  O  O41  1  -0.00000000  0.40000000  0.49999900  1
  O  O42  1  -0.00000000  0.60087563  0.49999900  1
  O  O43  1  -0.00000000  0.81309680  0.49999900  1
  O  O44  1  0.50000000  0.00007719  0.49999900  1
  O  O45  1  0.50000000  0.19866744  0.49999900  1
  O  O46  1  0.50000000  0.40000000  0.49999900  1
  O  O47  1  0.50000000  0.60133256  0.49999900  1
  O  O48  1  0.50000000  0.79992281  0.49999900  1
