# generated using pymatgen
data_CaGaSn
_symmetry_space_group_name_H-M   'P 1'
_cell_length_a   4.56169156
_cell_length_b   4.56169156
_cell_length_c   17.28777019
_cell_angle_alpha   90.00000000
_cell_angle_beta   90.00000000
_cell_angle_gamma   120.05308151
_symmetry_Int_Tables_number   1
_chemical_formula_structural   CaGaSn
_chemical_formula_sum   'Ca4 Ga4 Sn4'
_cell_volume   311.37869904
_cell_formula_units_Z   4
loop_
 _symmetry_equiv_pos_site_id
 _symmetry_equiv_pos_as_xyz
  1  'x, y, z'
loop_
 _atom_site_type_symbol
 _atom_site_label
 _atom_site_symmetry_multiplicity
 _atom_site_fract_x
 _atom_site_fract_y
 _atom_site_fract_z
 _atom_site_occupancy
  Ca  Ca0  1  0.00000000  0.00000000  0.50000000  1
  Ca  Ca1  1  0.00000000  0.00000000  0.00000000  1
  Ca  Ca2  1  0.99933035  0.00066965  0.75000000  1
  Ca  Ca3  1  0.00066965  0.99933035  0.25000000  1
  Ga  Ga4  1  0.66607482  0.33392518  0.66525308  1
  Ga  Ga5  1  0.33392518  0.66607482  0.33474692  1
  Ga  Ga6  1  0.33392518  0.66607482  0.16525308  1
  Ga  Ga7  1  0.66607482  0.33392518  0.83474692  1
  Sn  Sn8  1  0.66692594  0.33307406  0.11203833  1
  Sn  Sn9  1  0.33307406  0.66692594  0.88796167  1
  Sn  Sn10  1  0.33307406  0.66692594  0.61203833  1
  Sn  Sn11  1  0.66692594  0.33307406  0.38796167  1
