# generated using pymatgen
data_GaAsO4
_symmetry_space_group_name_H-M   'P 1'
_cell_length_a   5.10928122
_cell_length_b   5.10928122
_cell_length_c   7.13254748
_cell_angle_alpha   90.00000000
_cell_angle_beta   90.00000000
_cell_angle_gamma   86.86361755
_symmetry_Int_Tables_number   1
_chemical_formula_structural   GaAsO4
_chemical_formula_sum   'Ga2 As2 O8'
_cell_volume   185.91450793
_cell_formula_units_Z   2
loop_
 _symmetry_equiv_pos_site_id
 _symmetry_equiv_pos_as_xyz
  1  'x, y, z'
loop_
 _atom_site_type_symbol
 _atom_site_label
 _atom_site_symmetry_multiplicity
 _atom_site_fract_x
 _atom_site_fract_y
 _atom_site_fract_z
 _atom_site_occupancy
  Ga  Ga0  1  0.82694724  0.17305276  0.75000000  1
  Ga  Ga1  1  0.17305276  0.82694724  0.25000000  1
  As  As2  1  0.32088652  0.32088652  0.50000000  1
  As  As3  1  0.67911348  0.67911348  0.00000000  1
  O  O4  1  0.17998942  0.21152622  0.70237459  1
  O  O5  1  0.21152622  0.17998942  0.29762541  1
  O  O6  1  0.82001058  0.78847378  0.20237459  1
  O  O7  1  0.78847378  0.82001058  0.79762541  1
  O  O8  1  0.26122136  0.65205364  0.47118841  1
  O  O9  1  0.65205364  0.26122136  0.52881159  1
  O  O10  1  0.73877864  0.34794636  0.97118841  1
  O  O11  1  0.34794636  0.73877864  0.02881159  1
