# generated using pymatgen
data_SrAl9Ni2
_symmetry_space_group_name_H-M   'P 1'
_cell_length_a   3.95509467
_cell_length_b   7.96490599
_cell_length_c   7.96408742
_cell_angle_alpha   120.00340611
_cell_angle_beta   90.00000000
_cell_angle_gamma   90.00000000
_symmetry_Int_Tables_number   1
_chemical_formula_structural   SrAl9Ni2
_chemical_formula_sum   'Sr1 Al9 Ni2'
_cell_volume   217.26475527
_cell_formula_units_Z   1
loop_
 _symmetry_equiv_pos_site_id
 _symmetry_equiv_pos_as_xyz
  1  'x, y, z'
loop_
 _atom_site_type_symbol
 _atom_site_label
 _atom_site_symmetry_multiplicity
 _atom_site_fract_x
 _atom_site_fract_y
 _atom_site_fract_z
 _atom_site_occupancy
  Sr  Sr0  1  -0.00000000  0.00000176  0.00000000  1
  Al  Al1  1  -0.00000000  0.49999906  -0.00000000  1
  Al  Al2  1  -0.00000000  0.49998805  0.50001100  1
  Al  Al3  1  -0.00000000  0.99997706  0.49998900  1
  Al  Al4  1  0.50000000  0.21281967  0.42564917  1
  Al  Al5  1  0.50000000  0.21283728  0.78718832  1
  Al  Al6  1  0.50000000  0.57434269  0.78718902  1
  Al  Al7  1  0.50000000  0.78717050  0.57435083  1
  Al  Al8  1  0.50000000  0.42564896  0.21281168  1
  Al  Al9  1  0.50000000  0.78715367  0.21281098  1
  Ni  Ni10  1  0.00000000  0.33330770  0.66665410  1
  Ni  Ni11  1  -0.00000000  0.66665360  0.33334590  1
