# generated using pymatgen
data_Ag2GeSe3
_symmetry_space_group_name_H-M   'P 1'
_cell_length_a   6.91131869
_cell_length_b   7.31801569
_cell_length_c   7.31801565
_cell_angle_alpha   59.73409141
_cell_angle_beta   90.00000000
_cell_angle_gamma   90.00000000
_symmetry_Int_Tables_number   1
_chemical_formula_structural   Ag2GeSe3
_chemical_formula_sum   'Ag4 Ge2 Se6'
_cell_volume   319.67472039
_cell_formula_units_Z   2
loop_
 _symmetry_equiv_pos_site_id
 _symmetry_equiv_pos_as_xyz
  1  'x, y, z'
loop_
 _atom_site_type_symbol
 _atom_site_label
 _atom_site_symmetry_multiplicity
 _atom_site_fract_x
 _atom_site_fract_y
 _atom_site_fract_z
 _atom_site_occupancy
  Ag  Ag0  1  0.50835231  0.69001761  0.98781977  1
  Ag  Ag1  1  0.50835231  0.01218023  0.30998239  1
  Ag  Ag2  1  0.00835231  0.30998239  0.01218023  1
  Ag  Ag3  1  0.00835231  0.98781977  0.69001761  1
  Ge  Ge4  1  0.53802403  0.34736253  0.65263747  1
  Ge  Ge5  1  0.03802403  0.65263747  0.34736253  1
  Se  Se6  1  0.12856816  0.64510475  0.03912152  1
  Se  Se7  1  0.12856816  0.96087848  0.35489525  1
  Se  Se8  1  0.62856816  0.35489525  0.96087848  1
  Se  Se9  1  0.62856816  0.03912152  0.64510475  1
  Se  Se10  1  0.17113504  0.33787283  0.66212717  1
  Se  Se11  1  0.67113504  0.66212717  0.33787283  1
