# generated using pymatgen
data_CaNi5
_symmetry_space_group_name_H-M   'P 1'
_cell_length_a   4.93574418
_cell_length_b   6.27061641
_cell_length_c   6.27061641
_cell_angle_alpha   77.27459886
_cell_angle_beta   66.82372239
_cell_angle_gamma   66.82372239
_symmetry_Int_Tables_number   1
_chemical_formula_structural   CaNi5
_chemical_formula_sum   'Ca2 Ni10'
_cell_volume   163.52427475
_cell_formula_units_Z   2
loop_
 _symmetry_equiv_pos_site_id
 _symmetry_equiv_pos_as_xyz
  1  'x, y, z'
loop_
 _atom_site_type_symbol
 _atom_site_label
 _atom_site_symmetry_multiplicity
 _atom_site_fract_x
 _atom_site_fract_y
 _atom_site_fract_z
 _atom_site_occupancy
  Ca  Ca0  1  0.04924940  0.00000000  -0.00000000  1
  Ca  Ca1  1  0.01362743  0.50000000  0.50000000  1
  Ni  Ni2  1  0.66990599  0.33399060  0.33399060  1
  Ni  Ni3  1  0.33788718  0.66600940  0.66600940  1
  Ni  Ni4  1  0.72395454  0.83482336  0.83482336  1
  Ni  Ni5  1  0.39360125  0.16517664  0.16517664  1
  Ni  Ni6  1  0.53079335  0.74965429  0.25034571  1
  Ni  Ni7  1  0.53079335  0.25034571  0.74965429  1
  Ni  Ni8  1  0.53032788  0.50944294  0.99099506  1
  Ni  Ni9  1  0.03076587  0.49055706  0.00900494  1
  Ni  Ni10  1  0.03076587  0.00900494  0.49055706  1
  Ni  Ni11  1  0.53032788  0.99099506  0.50944294  1
