# generated using pymatgen
data_NdIn4Ni
_symmetry_space_group_name_H-M   'P 1'
_cell_length_a   4.50918582
_cell_length_b   7.25521422
_cell_length_c   8.68745771
_cell_angle_alpha   90.00000000
_cell_angle_beta   105.04174567
_cell_angle_gamma   90.00000000
_symmetry_Int_Tables_number   1
_chemical_formula_structural   NdIn4Ni
_chemical_formula_sum   'Nd2 In8 Ni2'
_cell_volume   274.47319927
_cell_formula_units_Z   2
loop_
 _symmetry_equiv_pos_site_id
 _symmetry_equiv_pos_as_xyz
  1  'x, y, z'
loop_
 _atom_site_type_symbol
 _atom_site_label
 _atom_site_symmetry_multiplicity
 _atom_site_fract_x
 _atom_site_fract_y
 _atom_site_fract_z
 _atom_site_occupancy
  Nd  Nd0  1  0.88129972  0.75000000  0.76259945  1
  Nd  Nd1  1  0.11870028  0.25000000  0.23740055  1
  In  In2  1  0.50000000  0.50000000  -0.00000000  1
  In  In3  1  0.50000000  0.00000000  -0.00000000  1
  In  In4  1  0.07455175  0.75000000  0.14910350  1
  In  In5  1  0.92544825  0.25000000  0.85089650  1
  In  In6  1  0.68819304  0.54775839  0.37638608  1
  In  In7  1  0.31180696  0.45224161  0.62361392  1
  In  In8  1  0.68819304  0.95224161  0.37638608  1
  In  In9  1  0.31180696  0.04775839  0.62361392  1
  Ni  Ni10  1  0.22651290  0.75000000  0.45302580  1
  Ni  Ni11  1  0.77348710  0.25000000  0.54697420  1
