# generated using pymatgen
data_KB2SbO6
_symmetry_space_group_name_H-M   'P 1'
_cell_length_a   6.89307158
_cell_length_b   6.89307158
_cell_length_c   7.26887313
_cell_angle_alpha   94.11116651
_cell_angle_beta   116.00027317
_cell_angle_gamma   117.52428337
_symmetry_Int_Tables_number   1
_chemical_formula_structural   KB2SbO6
_chemical_formula_sum   'K2 B4 Sb2 O12'
_cell_volume   258.47471742
_cell_formula_units_Z   2
loop_
 _symmetry_equiv_pos_site_id
 _symmetry_equiv_pos_as_xyz
  1  'x, y, z'
loop_
 _atom_site_type_symbol
 _atom_site_label
 _atom_site_symmetry_multiplicity
 _atom_site_fract_x
 _atom_site_fract_y
 _atom_site_fract_z
 _atom_site_occupancy
  K  K0  1  0.75172530  0.15480788  0.94183370  1
  K  K1  1  0.28702582  0.19010839  0.44183370  1
  B  B2  1  0.10656008  0.59124585  0.43721594  1
  B  B3  1  0.34597009  0.33065586  0.93721594  1
  B  B4  1  0.82073256  0.28479902  0.52983908  1
  B  B5  1  0.74504006  0.70910652  0.02983908  1
  Sb  Sb6  1  0.02185806  0.77684854  0.76826860  1
  Sb  Sb7  1  0.49142006  0.74641054  0.26826860  1
  O  O8  1  0.34883644  0.84950247  0.02253174  1
  O  O9  1  0.67302927  0.67369530  0.52253174  1
  O  O10  1  0.64008536  0.05579621  0.47462193  1
  O  O11  1  0.91882572  0.83453657  0.97462193  1
  O  O12  1  0.86894679  0.43223533  0.70552463  1
  O  O13  1  0.77328929  0.83657784  0.20552463  1
  O  O14  1  0.17933959  0.78050631  0.58770149  1
  O  O15  1  0.30719519  0.40836190  0.08770149  1
  O  O16  1  0.93934314  0.35962660  0.41257594  1
  O  O17  1  0.55294934  0.47323280  0.91257594  1
  O  O18  1  0.17876460  0.60973370  0.28853696  1
  O  O19  1  0.17880325  0.10977236  0.78853696  1
