# generated using pymatgen
data_Sm4Mg7Ge6
_symmetry_space_group_name_H-M   'P 1'
_cell_length_a   4.41314360
_cell_length_b   8.56170199
_cell_length_c   10.88966593
_cell_angle_alpha   78.74273234
_cell_angle_beta   78.30921255
_cell_angle_gamma   75.06483943
_symmetry_Int_Tables_number   1
_chemical_formula_structural   Sm4Mg7Ge6
_chemical_formula_sum   'Sm4 Mg7 Ge6'
_cell_volume   384.83707014
_cell_formula_units_Z   1
loop_
 _symmetry_equiv_pos_site_id
 _symmetry_equiv_pos_as_xyz
  1  'x, y, z'
loop_
 _atom_site_type_symbol
 _atom_site_label
 _atom_site_symmetry_multiplicity
 _atom_site_fract_x
 _atom_site_fract_y
 _atom_site_fract_z
 _atom_site_occupancy
  Sm  Sm0  1  0.26664895  0.85341131  0.61329080  1
  Sm  Sm1  1  0.73335105  0.14658869  0.38670920  1
  Sm  Sm2  1  0.36990626  0.42139525  0.83879223  1
  Sm  Sm3  1  0.63009374  0.57860475  0.16120777  1
  Mg  Mg4  1  0.04049427  0.05846226  0.86054919  1
  Mg  Mg5  1  0.95950573  0.94153774  0.13945081  1
  Mg  Mg6  1  0.06306573  0.27128902  0.60257953  1
  Mg  Mg7  1  0.93693427  0.72871098  0.39742047  1
  Mg  Mg8  1  0.69022525  0.77220898  0.84734051  1
  Mg  Mg9  1  0.30977475  0.22779102  0.15265949  1
  Mg  Mg10  1  0.50000000  0.50000000  0.50000000  1
  Ge  Ge11  1  0.12104862  0.41109227  0.34681048  1
  Ge  Ge12  1  0.87895138  0.58890773  0.65318952  1
  Ge  Ge13  1  0.14971919  0.72130713  0.97925448  1
  Ge  Ge14  1  0.85028081  0.27869287  0.02074552  1
  Ge  Ge15  1  0.61097571  0.09165623  0.68639234  1
  Ge  Ge16  1  0.38902429  0.90834377  0.31360766  1
