# generated using pymatgen
data_Sr2YbTaO6
_symmetry_space_group_name_H-M   'P 1'
_cell_length_a   5.84682597
_cell_length_b   5.96301539
_cell_length_c   8.31834762
_cell_angle_alpha   90.00000000
_cell_angle_beta   89.97535621
_cell_angle_gamma   90.00000000
_symmetry_Int_Tables_number   1
_chemical_formula_structural   Sr2YbTaO6
_chemical_formula_sum   'Sr4 Yb2 Ta2 O12'
_cell_volume   290.01677766
_cell_formula_units_Z   2
loop_
 _symmetry_equiv_pos_site_id
 _symmetry_equiv_pos_as_xyz
  1  'x, y, z'
loop_
 _atom_site_type_symbol
 _atom_site_label
 _atom_site_symmetry_multiplicity
 _atom_site_fract_x
 _atom_site_fract_y
 _atom_site_fract_z
 _atom_site_occupancy
  Sr  Sr0  1  0.49024221  0.54318376  0.24883112  1
  Sr  Sr1  1  0.99024221  0.95681624  0.74883112  1
  Sr  Sr2  1  0.50975779  0.45681624  0.75116888  1
  Sr  Sr3  1  0.00975779  0.04318376  0.25116888  1
  Yb  Yb4  1  -0.00000000  0.50000000  0.50000000  1
  Yb  Yb5  1  0.50000000  -0.00000000  -0.00000000  1
  Ta  Ta6  1  0.50000000  -0.00000000  0.50000000  1
  Ta  Ta7  1  0.00000000  0.50000000  0.00000000  1
  O  O8  1  0.22576344  0.80701389  0.45772315  1
  O  O9  1  0.72576344  0.69298611  0.95772315  1
  O  O10  1  0.77423656  0.19298611  0.54227685  1
  O  O11  1  0.27423656  0.30701389  0.04227685  1
  O  O12  1  0.18810800  0.77369162  0.04860625  1
  O  O13  1  0.68810800  0.72630838  0.54860625  1
  O  O14  1  0.81189200  0.22630838  0.95139375  1
  O  O15  1  0.31189200  0.27369162  0.45139375  1
  O  O16  1  0.58718458  0.97081543  0.26802393  1
  O  O17  1  0.08718458  0.52918457  0.76802393  1
  O  O18  1  0.41281542  0.02918457  0.73197607  1
  O  O19  1  0.91281542  0.47081543  0.23197607  1
