# generated using pymatgen
data_TbFe4(CuO4)3
_symmetry_space_group_name_H-M   'P 1'
_cell_length_a   6.45737343
_cell_length_b   6.45737343
_cell_length_c   6.45737343
_cell_angle_alpha   109.47122063
_cell_angle_beta   109.47122063
_cell_angle_gamma   109.47122063
_symmetry_Int_Tables_number   1
_chemical_formula_structural   TbFe4(CuO4)3
_chemical_formula_sum   'Tb1 Fe4 Cu3 O12'
_cell_volume   207.27447179
_cell_formula_units_Z   1
loop_
 _symmetry_equiv_pos_site_id
 _symmetry_equiv_pos_as_xyz
  1  'x, y, z'
loop_
 _atom_site_type_symbol
 _atom_site_label
 _atom_site_symmetry_multiplicity
 _atom_site_fract_x
 _atom_site_fract_y
 _atom_site_fract_z
 _atom_site_occupancy
  Tb  Tb0  1  -0.00000000  -0.00000000  -0.00000000  1
  Fe  Fe1  1  -0.00000000  -0.00000000  0.50000000  1
  Fe  Fe2  1  0.50000000  -0.00000000  -0.00000000  1
  Fe  Fe3  1  -0.00000000  0.50000000  -0.00000000  1
  Fe  Fe4  1  0.50000000  0.50000000  0.50000000  1
  Cu  Cu5  1  0.50000000  -0.00000000  0.50000000  1
  Cu  Cu6  1  -0.00000000  0.50000000  0.50000000  1
  Cu  Cu7  1  0.50000000  0.50000000  -0.00000000  1
  O  O8  1  0.16509513  0.85689790  0.69180277  1
  O  O9  1  0.83490487  0.14310210  0.30819723  1
  O  O10  1  0.83490487  0.52670764  0.69180277  1
  O  O11  1  0.16509513  0.47329236  0.30819723  1
  O  O12  1  0.85689790  0.69180277  0.16509513  1
  O  O13  1  0.14310210  0.30819723  0.83490487  1
  O  O14  1  0.52670764  0.69180277  0.83490487  1
  O  O15  1  0.47329236  0.30819723  0.16509513  1
  O  O16  1  0.69180277  0.16509513  0.85689790  1
  O  O17  1  0.30819723  0.83490487  0.14310210  1
  O  O18  1  0.69180277  0.83490487  0.52670764  1
  O  O19  1  0.30819723  0.16509513  0.47329236  1
