# generated using pymatgen
data_La5RuPb3
_symmetry_space_group_name_H-M   'P 1'
_cell_length_a   6.97544259
_cell_length_b   9.84607202
_cell_length_c   9.84577336
_cell_angle_alpha   120.00099887
_cell_angle_beta   90.00078958
_cell_angle_gamma   89.99842091
_symmetry_Int_Tables_number   1
_chemical_formula_structural   La5RuPb3
_chemical_formula_sum   'La10 Ru2 Pb6'
_cell_volume   585.61321929
_cell_formula_units_Z   2
loop_
 _symmetry_equiv_pos_site_id
 _symmetry_equiv_pos_as_xyz
  1  'x, y, z'
loop_
 _atom_site_type_symbol
 _atom_site_label
 _atom_site_symmetry_multiplicity
 _atom_site_fract_x
 _atom_site_fract_y
 _atom_site_fract_z
 _atom_site_occupancy
  La  La0  1  0.74999404  0.23294214  0.00000000  1
  La  La1  1  0.74998013  0.76705213  0.76705049  1
  La  La2  1  0.74998013  0.00000164  0.23294951  1
  La  La3  1  0.25000158  0.76706924  1.00000000  1
  La  La4  1  0.25000146  0.23295438  0.23295531  1
  La  La5  1  0.25000146  -0.00000093  0.76704469  1
  La  La6  1  0.50000752  0.33331761  0.66668277  1
  La  La7  1  0.50000752  0.66663484  0.33331723  1
  La  La8  1  0.99997725  0.66667909  0.33330611  1
  La  La9  1  0.99997725  0.33337298  0.66669389  1
  Ru  Ru10  1  0.50001121  0.00000029  1.00000000  1
  Ru  Ru11  1  0.00001495  0.00000220  0.00000000  1
  Pb  Pb12  1  0.75000592  0.59463578  0.00000000  1
  Pb  Pb13  1  0.75000709  0.40535388  0.40535853  1
  Pb  Pb14  1  0.75000709  -0.00000465  0.59464147  1
  Pb  Pb15  1  0.25000651  0.40535568  1.00000000  1
  Pb  Pb16  1  0.25000943  0.59463790  0.59464209  1
  Pb  Pb17  1  0.25000943  0.99999581  0.40535791  1
