# generated using pymatgen
data_Tb5(MoO6)2
_symmetry_space_group_name_H-M   'P 1'
_cell_length_a   6.03550877
_cell_length_b   6.90604111
_cell_length_c   7.36431061
_cell_angle_alpha   105.56691607
_cell_angle_beta   90.00000000
_cell_angle_gamma   115.91091364
_symmetry_Int_Tables_number   1
_chemical_formula_structural   Tb5(MoO6)2
_chemical_formula_sum   'Tb5 Mo2 O12'
_cell_volume   263.52348883
_cell_formula_units_Z   1
loop_
 _symmetry_equiv_pos_site_id
 _symmetry_equiv_pos_as_xyz
  1  'x, y, z'
loop_
 _atom_site_type_symbol
 _atom_site_label
 _atom_site_symmetry_multiplicity
 _atom_site_fract_x
 _atom_site_fract_y
 _atom_site_fract_z
 _atom_site_occupancy
  Tb  Tb0  1  0.30130608  0.60261216  0.63745381  1
  Tb  Tb1  1  0.69869392  0.39738784  0.36254619  1
  Tb  Tb2  1  0.30787027  0.61574054  0.17331757  1
  Tb  Tb3  1  0.69212973  0.38425946  0.82668243  1
  Tb  Tb4  1  0.00000000  0.00000000  0.50000000  1
  Mo  Mo5  1  0.75373574  0.00000000  -0.00000000  1
  Mo  Mo6  1  0.24626426  0.00000000  -0.00000000  1
  O  O7  1  0.89886051  0.33147152  0.08442573  1
  O  O8  1  0.43261101  0.33147152  0.08442573  1
  O  O9  1  0.10113949  0.66852848  0.91557427  1
  O  O10  1  0.56738899  0.66852848  0.91557427  1
  O  O11  1  0.09564171  0.69257752  0.42566746  1
  O  O12  1  0.59693581  0.69257752  0.42566746  1
  O  O13  1  0.90435829  0.30742248  0.57433254  1
  O  O14  1  0.40306419  0.30742248  0.57433254  1
  O  O15  1  0.00251895  0.00503790  0.18757397  1
  O  O16  1  0.99748105  0.99496210  0.81242603  1
  O  O17  1  0.49969115  0.99938230  0.19434043  1
  O  O18  1  0.50030885  0.00061770  0.80565957  1
