# generated using pymatgen
data_Ba2ErGaSe5
_symmetry_space_group_name_H-M   'P 1'
_cell_length_a   7.39393163
_cell_length_b   8.74877109
_cell_length_c   9.51705356
_cell_angle_alpha   103.45969605
_cell_angle_beta   103.15644013
_cell_angle_gamma   107.33153945
_symmetry_Int_Tables_number   1
_chemical_formula_structural   Ba2ErGaSe5
_chemical_formula_sum   'Ba4 Er2 Ga2 Se10'
_cell_volume   541.51811485
_cell_formula_units_Z   2
loop_
 _symmetry_equiv_pos_site_id
 _symmetry_equiv_pos_as_xyz
  1  'x, y, z'
loop_
 _atom_site_type_symbol
 _atom_site_label
 _atom_site_symmetry_multiplicity
 _atom_site_fract_x
 _atom_site_fract_y
 _atom_site_fract_z
 _atom_site_occupancy
  Ba  Ba0  1  0.63311173  0.97776321  0.28799153  1
  Ba  Ba1  1  0.36688827  0.02223679  0.71200847  1
  Ba  Ba2  1  0.34429862  0.51135602  0.70791758  1
  Ba  Ba3  1  0.65570138  0.48864398  0.29208242  1
  Er  Er4  1  0.99808266  0.73000006  0.99858929  1
  Er  Er5  1  0.00191734  0.26999994  0.00141071  1
  Ga  Ga6  1  0.80629112  0.87230166  0.68836834  1
  Ga  Ga7  1  0.19370888  0.12769834  0.31163166  1
  Se  Se8  1  0.98770609  0.68189518  0.68706133  1
  Se  Se9  1  0.01229391  0.31810482  0.31293867  1
  Se  Se10  1  0.98409143  0.15526762  0.68894401  1
  Se  Se11  1  0.01590857  0.84473238  0.31105599  1
  Se  Se12  1  0.71531716  0.90978731  0.92888062  1
  Se  Se13  1  0.28468284  0.09021269  0.07111938  1
  Se  Se14  1  0.70843185  0.41216822  0.94535400  1
  Se  Se15  1  0.29156815  0.58783178  0.05464600  1
  Se  Se16  1  0.48855996  0.74196961  0.49254299  1
  Se  Se17  1  0.51144004  0.25803039  0.50745701  1
