# generated using pymatgen
data_Cs2NaMoCl6
_symmetry_space_group_name_H-M   'P 1'
_cell_length_a   7.50167712
_cell_length_b   7.50167742
_cell_length_c   7.50167741
_cell_angle_alpha   59.99999898
_cell_angle_beta   59.99999844
_cell_angle_gamma   59.99999849
_symmetry_Int_Tables_number   1
_chemical_formula_structural   Cs2NaMoCl6
_chemical_formula_sum   'Cs2 Na1 Mo1 Cl6'
_cell_volume   298.51085312
_cell_formula_units_Z   1
loop_
 _symmetry_equiv_pos_site_id
 _symmetry_equiv_pos_as_xyz
  1  'x, y, z'
loop_
 _atom_site_type_symbol
 _atom_site_label
 _atom_site_symmetry_multiplicity
 _atom_site_fract_x
 _atom_site_fract_y
 _atom_site_fract_z
 _atom_site_occupancy
  Cs  Cs0  1  0.25000000  0.25000000  0.25000000  1
  Cs  Cs1  1  0.75000000  0.75000000  0.75000000  1
  Na  Na2  1  0.50000000  0.50000000  0.50000000  1
  Mo  Mo3  1  -0.00000000  0.00000000  -0.00000000  1
  Cl  Cl4  1  0.23312917  0.76687083  0.23312917  1
  Cl  Cl5  1  0.76687083  0.76687083  0.23312917  1
  Cl  Cl6  1  0.76687083  0.23312917  0.76687083  1
  Cl  Cl7  1  0.76687083  0.23312917  0.23312917  1
  Cl  Cl8  1  0.23312917  0.76687083  0.76687083  1
  Cl  Cl9  1  0.23312917  0.23312917  0.76687083  1
