# generated using pymatgen
data_Rb2LiTbCl6
_symmetry_space_group_name_H-M   'P 1'
_cell_length_a   7.42632673
_cell_length_b   7.42632703
_cell_length_c   7.42632701
_cell_angle_alpha   59.99999888
_cell_angle_beta   59.99999845
_cell_angle_gamma   59.99999852
_symmetry_Int_Tables_number   1
_chemical_formula_structural   Rb2LiTbCl6
_chemical_formula_sum   'Rb2 Li1 Tb1 Cl6'
_cell_volume   289.60574982
_cell_formula_units_Z   1
loop_
 _symmetry_equiv_pos_site_id
 _symmetry_equiv_pos_as_xyz
  1  'x, y, z'
loop_
 _atom_site_type_symbol
 _atom_site_label
 _atom_site_symmetry_multiplicity
 _atom_site_fract_x
 _atom_site_fract_y
 _atom_site_fract_z
 _atom_site_occupancy
  Tb  Tb0  1  0.00000000  -0.00000000  0.00000000  1
  Rb  Rb1  1  0.25000000  0.25000000  0.25000000  1
  Rb  Rb2  1  0.75000000  0.75000000  0.75000000  1
  Li  Li3  1  0.50000000  0.50000000  0.50000000  1
  Cl  Cl4  1  0.25207051  0.74792949  0.25207050  1
  Cl  Cl5  1  0.74792949  0.74792950  0.25207051  1
  Cl  Cl6  1  0.74792949  0.25207051  0.74792950  1
  Cl  Cl7  1  0.74792949  0.25207051  0.25207051  1
  Cl  Cl8  1  0.25207051  0.74792949  0.74792949  1
  Cl  Cl9  1  0.25207051  0.25207050  0.74792949  1
