# generated using pymatgen
data_Na5Mn2P2(CO7)2
_symmetry_space_group_name_H-M   'P 1'
_cell_length_a   10.53573584
_cell_length_b   6.70268585
_cell_length_c   10.51821486
_cell_angle_alpha   90.00000000
_cell_angle_beta   120.86164073
_cell_angle_gamma   90.00000000
_symmetry_Int_Tables_number   1
_chemical_formula_structural   Na5Mn2P2(CO7)2
_chemical_formula_sum   'Na10 Mn4 P4 C4 O28'
_cell_volume   637.60218844
_cell_formula_units_Z   2
loop_
 _symmetry_equiv_pos_site_id
 _symmetry_equiv_pos_as_xyz
  1  'x, y, z'
loop_
 _atom_site_type_symbol
 _atom_site_label
 _atom_site_symmetry_multiplicity
 _atom_site_fract_x
 _atom_site_fract_y
 _atom_site_fract_z
 _atom_site_occupancy
  Na  Na0  1  0.65501416  0.25000000  0.08038044  1
  Na  Na1  1  0.01226107  0.00998611  0.25322167  1
  Na  Na2  1  0.01226107  0.49001389  0.25322167  1
  Na  Na3  1  0.48759778  0.99917067  0.24193915  1
  Na  Na4  1  0.48759778  0.50082933  0.24193915  1
  Na  Na5  1  0.48773893  0.50998611  0.74677833  1
  Na  Na6  1  0.48773893  0.99001389  0.74677833  1
  Na  Na7  1  0.01240222  0.49917067  0.75806085  1
  Na  Na8  1  0.01240222  0.00082933  0.75806085  1
  Na  Na9  1  0.84498584  0.75000000  0.91961956  1
  Mn  Mn10  1  0.28803063  0.75000000  0.35838610  1
  Mn  Mn11  1  0.78952960  0.75000000  0.35669821  1
  Mn  Mn12  1  0.21196937  0.25000000  0.64161390  1
  Mn  Mn13  1  0.71047040  0.25000000  0.64330179  1
  P  P14  1  0.35923528  0.25000000  0.41988746  1
  P  P15  1  0.85890873  0.25000000  0.41936265  1
  P  P16  1  0.14076472  0.75000000  0.58011254  1
  P  P17  1  0.64109127  0.75000000  0.58063735  1
  C  C18  1  0.16459083  0.75000000  0.06915484  1
  C  C19  1  0.67468702  0.75000000  0.06631022  1
  C  C20  1  0.33540917  0.25000000  0.93084516  1
  C  C21  1  0.82531298  0.25000000  0.93368978  1
  O  O22  1  0.41300991  0.25000000  0.07206819  1
  O  O23  1  0.88784194  0.25000000  0.07546935  1
  O  O24  1  0.09510471  0.75000000  0.14475656  1
  O  O25  1  0.59979612  0.75000000  0.13403036  1
  O  O26  1  0.30674914  0.75000000  0.14720386  1
  O  O27  1  0.81884364  0.75000000  0.14954458  1
  O  O28  1  0.27438632  0.06141070  0.33075462  1
  O  O29  1  0.27438632  0.43858930  0.33075462  1
  O  O30  1  0.77348279  0.06528853  0.32385679  1
  O  O31  1  0.77348279  0.43471147  0.32385679  1
  O  O32  1  0.01915427  0.25000000  0.44211525  1
  O  O33  1  0.12430549  0.75000000  0.42493243  1
  O  O34  1  0.51741541  0.25000000  0.43886505  1
  O  O35  1  0.62678264  0.75000000  0.42690097  1
  O  O36  1  0.37569451  0.25000000  0.57506757  1
  O  O37  1  0.48084573  0.75000000  0.55788475  1
  O  O38  1  0.87321736  0.25000000  0.57309903  1
  O  O39  1  0.98258459  0.75000000  0.56113495  1
  O  O40  1  0.22561368  0.56141070  0.66924538  1
  O  O41  1  0.22561368  0.93858930  0.66924538  1
  O  O42  1  0.72651721  0.56528853  0.67614321  1
  O  O43  1  0.72651721  0.93471147  0.67614321  1
  O  O44  1  0.19325086  0.25000000  0.85279614  1
  O  O45  1  0.68115636  0.25000000  0.85045542  1
  O  O46  1  0.40489529  0.25000000  0.85524344  1
  O  O47  1  0.90020388  0.25000000  0.86596964  1
  O  O48  1  0.08699009  0.75000000  0.92793181  1
  O  O49  1  0.61215806  0.75000000  0.92453065  1
