# generated using pymatgen
data_Na5Ni2P2(CO7)2
_symmetry_space_group_name_H-M   'P 1'
_cell_length_a   8.93791742
_cell_length_b   10.39800607
_cell_length_c   6.63499030
_cell_angle_alpha   90.00000000
_cell_angle_beta   90.00000000
_cell_angle_gamma   88.81034635
_symmetry_Int_Tables_number   1
_chemical_formula_structural   Na5Ni2P2(CO7)2
_chemical_formula_sum   'Na10 Ni4 P4 C4 O28'
_cell_volume   616.49999040
_cell_formula_units_Z   2
loop_
 _symmetry_equiv_pos_site_id
 _symmetry_equiv_pos_as_xyz
  1  'x, y, z'
loop_
 _atom_site_type_symbol
 _atom_site_label
 _atom_site_symmetry_multiplicity
 _atom_site_fract_x
 _atom_site_fract_y
 _atom_site_fract_z
 _atom_site_occupancy
  Na  Na0  1  0.08636647  0.89387769  0.25000000  1
  Na  Na1  1  0.25663854  0.13322958  0.00619737  1
  Na  Na2  1  0.25663854  0.13322958  0.49380263  1
  Na  Na3  1  0.26477389  0.61691126  0.01306048  1
  Na  Na4  1  0.26477389  0.61691126  0.48693952  1
  Na  Na5  1  0.74336146  0.36677042  0.50619737  1
  Na  Na6  1  0.74336146  0.36677042  0.99380263  1
  Na  Na7  1  0.73522611  0.88308874  0.51306048  1
  Na  Na8  1  0.73522611  0.88308874  0.98693952  1
  Na  Na9  1  0.91363353  0.60612231  0.75000000  1
  Ni  Ni10  1  0.35490231  0.39189922  0.75000000  1
  Ni  Ni11  1  0.34891467  0.89019249  0.75000000  1
  Ni  Ni12  1  0.64509769  0.10810078  0.25000000  1
  Ni  Ni13  1  0.65108533  0.60980751  0.25000000  1
  P  P14  1  0.42321718  0.35709805  0.25000000  1
  P  P15  1  0.41696626  0.85565732  0.25000000  1
  P  P16  1  0.57678282  0.14290195  0.75000000  1
  P  P17  1  0.58303374  0.64434268  0.75000000  1
  C  C18  1  0.07299944  0.36629688  0.75000000  1
  C  C19  1  0.06806630  0.85405284  0.75000000  1
  C  C20  1  0.92700056  0.13370312  0.25000000  1
  C  C21  1  0.93193370  0.64594716  0.25000000  1
  O  O22  1  0.06930924  0.13634413  0.25000000  1
  O  O23  1  0.07309805  0.66476102  0.25000000  1
  O  O24  1  0.14071405  0.47743826  0.75000000  1
  O  O25  1  0.12581714  0.96703678  0.75000000  1
  O  O26  1  0.16112678  0.26600519  0.75000000  1
  O  O27  1  0.16288602  0.75608559  0.75000000  1
  O  O28  1  0.32992339  0.39424901  0.06172230  1
  O  O29  1  0.32992339  0.39424901  0.43827770  1
  O  O30  1  0.31915844  0.89280965  0.06356922  1
  O  O31  1  0.31915844  0.89280965  0.43643078  1
  O  O32  1  0.42354751  0.07563902  0.75000000  1
  O  O33  1  0.43256466  0.57424491  0.75000000  1
  O  O34  1  0.45074836  0.20733046  0.25000000  1
  O  O35  1  0.44914025  0.70701438  0.25000000  1
  O  O36  1  0.54925164  0.29266954  0.75000000  1
  O  O37  1  0.55085975  0.79298562  0.75000000  1
  O  O38  1  0.57645249  0.42436098  0.25000000  1
  O  O39  1  0.56743534  0.92575509  0.25000000  1
  O  O40  1  0.67007661  0.10575099  0.56172230  1
  O  O41  1  0.67007661  0.10575099  0.93827770  1
  O  O42  1  0.68084156  0.60719035  0.56356922  1
  O  O43  1  0.68084156  0.60719035  0.93643078  1
  O  O44  1  0.83887322  0.23399481  0.25000000  1
  O  O45  1  0.83711398  0.74391441  0.25000000  1
  O  O46  1  0.85928595  0.02256174  0.25000000  1
  O  O47  1  0.87418286  0.53296322  0.25000000  1
  O  O48  1  0.93069076  0.36365587  0.75000000  1
  O  O49  1  0.92690195  0.83523898  0.75000000  1
