# generated using pymatgen
data_NaV3F10
_symmetry_space_group_name_H-M   'P 1'
_cell_length_a   7.59757772
_cell_length_b   7.63923664
_cell_length_c   8.82184779
_cell_angle_alpha   77.63541865
_cell_angle_beta   64.49362944
_cell_angle_gamma   60.18023588
_symmetry_Int_Tables_number   1
_chemical_formula_structural   NaV3F10
_chemical_formula_sum   'Na2 V6 F20'
_cell_volume   400.92802438
_cell_formula_units_Z   2
loop_
 _symmetry_equiv_pos_site_id
 _symmetry_equiv_pos_as_xyz
  1  'x, y, z'
loop_
 _atom_site_type_symbol
 _atom_site_label
 _atom_site_symmetry_multiplicity
 _atom_site_fract_x
 _atom_site_fract_y
 _atom_site_fract_z
 _atom_site_occupancy
  Na  Na0  1  0.98731922  1.00000000  1.00000000  1
  Na  Na1  1  0.73731922  0.50000000  0.50000000  1
  V  V2  1  0.50522792  0.00000000  0.00000000  1
  V  V3  1  0.25522792  0.50000000  0.50000000  1
  V  V4  1  0.75791791  0.00006881  0.49964310  1
  V  V5  1  0.25762982  0.99993119  0.50035690  1
  V  V6  1  0.50798572  0.49993119  0.99964310  1
  V  V7  1  0.00756101  0.50006881  0.00035690  1
  F  F8  1  0.87964514  0.00614178  0.26638670  1
  F  F9  1  0.15217262  0.99385822  0.73361330  1
  F  F10  1  0.63578692  0.49385822  0.76638670  1
  F  F11  1  0.89603184  0.50614178  0.23361330  1
  F  F12  1  0.80078291  0.40706282  0.00741862  1
  F  F13  1  0.21526335  0.59293718  0.99258138  1
  F  F14  1  0.95784473  0.09293718  0.50741862  1
  F  F15  1  0.55820153  0.90706282  0.49258138  1
  F  F16  1  0.34751190  0.70369072  0.49637248  1
  F  F17  1  0.54757410  0.29630927  0.50362752  1
  F  F18  1  0.80120162  0.79630927  0.99637248  1
  F  F19  1  0.59388337  0.20369072  0.00362752  1
  F  F20  1  0.37945778  0.00006194  0.24729731  1
  F  F21  1  0.62681704  0.99993806  0.75270269  1
  F  F22  1  0.12951973  0.49993806  0.74729731  1
  F  F23  1  0.37675409  0.50006194  0.25270269  1
  F  F24  1  0.96291065  0.70705613  0.50260587  1
  F  F25  1  0.17257265  0.29294387  0.49739413  1
  F  F26  1  0.41996678  0.79294387  0.00260587  1
  F  F27  1  0.21551552  0.20705613  0.99739413  1
