# generated using pymatgen
data_Sr5Cr3F19
_symmetry_space_group_name_H-M   'P 1'
_cell_length_a   7.39517117
_cell_length_b   10.84329755
_cell_length_c   10.91793460
_cell_angle_alpha   84.62543555
_cell_angle_beta   72.28153738
_cell_angle_gamma   71.97873648
_symmetry_Int_Tables_number   1
_chemical_formula_structural   Sr5Cr3F19
_chemical_formula_sum   'Sr10 Cr6 F38'
_cell_volume   793.04507912
_cell_formula_units_Z   2
loop_
 _symmetry_equiv_pos_site_id
 _symmetry_equiv_pos_as_xyz
  1  'x, y, z'
loop_
 _atom_site_type_symbol
 _atom_site_label
 _atom_site_symmetry_multiplicity
 _atom_site_fract_x
 _atom_site_fract_y
 _atom_site_fract_z
 _atom_site_occupancy
  Sr  Sr0  1  0.08094156  0.67714152  0.17148219  1
  Sr  Sr1  1  0.27899350  0.27765277  0.15998313  1
  Sr  Sr2  1  0.26462747  0.49637321  0.47974440  1
  Sr  Sr3  1  0.26157681  0.82315673  0.67075068  1
  Sr  Sr4  1  0.44198598  0.83801966  0.27507597  1
  Sr  Sr5  1  0.55499496  0.17171184  0.72001100  1
  Sr  Sr6  1  0.73612672  0.17776857  0.32214288  1
  Sr  Sr7  1  0.73515812  0.50338677  0.51711865  1
  Sr  Sr8  1  0.73331044  0.71908689  0.83097212  1
  Sr  Sr9  1  0.92604900  0.32345847  0.81865505  1
  Cr  Cr10  1  0.28486746  0.99877889  0.99225016  1
  Cr  Cr11  1  0.15413717  0.16603000  0.51285263  1
  Cr  Cr12  1  0.32344605  0.51899286  0.83197935  1
  Cr  Cr13  1  0.78720474  0.00574179  0.99792640  1
  Cr  Cr14  1  0.68127763  0.48339529  0.16158321  1
  Cr  Cr15  1  0.84236051  0.83513812  0.48304339  1
  F  F16  1  0.02444671  0.19992088  0.37618913  1
  F  F17  1  0.26729870  0.04514211  0.16261438  1
  F  F18  1  0.04905537  0.35063742  0.55017103  1
  F  F19  1  0.15024859  0.46356086  0.29579927  1
  F  F20  1  0.25194920  0.48413155  0.01500665  1
  F  F21  1  0.07403720  0.85092663  0.34340911  1
  F  F22  1  0.26906141  0.15439037  0.65343386  1
  F  F23  1  0.28174914  0.17403689  0.93590473  1
  F  F24  1  0.29133372  0.82872109  0.06060184  1
  F  F25  1  0.37833407  0.20814029  0.38552541  1
  F  F26  1  0.07386650  0.65386986  0.84924439  1
  F  F27  1  0.22767594  0.38642976  0.78660797  1
  F  F28  1  0.42534968  0.61956144  0.19478122  1
  F  F29  1  0.61330002  0.07724601  0.16360678  1
  F  F30  1  0.57436811  0.34447764  0.14899440  1
  F  F31  1  0.26369779  0.98021415  0.48145744  1
  F  F32  1  0.38422941  0.56390138  0.65052825  1
  F  F33  1  0.41319174  0.69180626  0.45307075  1
  F  F34  1  0.57783594  0.31036222  0.53665912  1
  F  F35  1  0.61551143  0.44239914  0.34368930  1
  F  F36  1  0.73290990  0.02065545  0.51720868  1
  F  F37  1  0.43174752  0.65691300  0.84656965  1
  F  F38  1  0.58587061  0.38828380  0.78795983  1
  F  F39  1  0.77613605  0.61761469  0.20323989  1
  F  F40  1  0.35324318  0.94172137  0.81834773  1
  F  F41  1  0.92644973  0.34178355  0.14880135  1
  F  F42  1  0.62574084  0.78670659  0.61277269  1
  F  F43  1  0.71168155  0.17350672  0.91825254  1
  F  F44  1  0.82922551  0.83518104  0.07292375  1
  F  F45  1  0.71661043  0.85617123  0.34824515  1
  F  F46  1  0.91666921  0.15670095  0.64799040  1
  F  F47  1  0.75760408  0.51430851  0.97718588  1
  F  F48  1  0.86212398  0.53465421  0.69831159  1
  F  F49  1  0.94990161  0.65069129  0.44183718  1
  F  F50  1  0.99190511  0.05562785  0.04547512  1
  F  F51  1  0.58265449  0.95608528  0.94262991  1
  F  F52  1  0.96702969  0.80006424  0.62232853  1
  F  F53  1  0.96569773  0.93882086  0.83665391  1
