# generated using pymatgen
data_Tc2P3
_symmetry_space_group_name_H-M   'P 1'
_cell_length_a   3.11468294
_cell_length_b   6.39718881
_cell_length_c   7.75845334
_cell_angle_alpha   78.78412921
_cell_angle_beta   78.42044631
_cell_angle_gamma   75.91024796
_symmetry_Int_Tables_number   1
_chemical_formula_structural   Tc2P3
_chemical_formula_sum   'Tc4 P6'
_cell_volume   145.15070275
_cell_formula_units_Z   2
loop_
 _symmetry_equiv_pos_site_id
 _symmetry_equiv_pos_as_xyz
  1  'x, y, z'
loop_
 _atom_site_type_symbol
 _atom_site_label
 _atom_site_symmetry_multiplicity
 _atom_site_fract_x
 _atom_site_fract_y
 _atom_site_fract_z
 _atom_site_occupancy
  P  P0  1  0.09774349  0.43311143  0.37140160  1
  P  P1  1  0.90225651  0.56688857  0.62859840  1
  P  P2  1  0.41134736  0.85524243  0.32206284  1
  P  P3  1  0.58865264  0.14475757  0.67793716  1
  P  P4  1  0.88964155  0.18056850  0.04014841  1
  P  P5  1  0.11035845  0.81943150  0.95985159  1
  Tc  Tc6  1  0.36552107  0.41351778  0.85544008  1
  Tc  Tc7  1  0.63447893  0.58648222  0.14455992  1
  Tc  Tc8  1  0.25007081  0.86314812  0.63671027  1
  Tc  Tc9  1  0.74992919  0.13685188  0.36328973  1
