# generated using pymatgen
data_SmAs2Au
_symmetry_space_group_name_H-M   'P 1'
_cell_length_a   5.77854635
_cell_length_b   5.76690551
_cell_length_c   20.68530336
_cell_angle_alpha   90.00000000
_cell_angle_beta   90.00000000
_cell_angle_gamma   90.00000000
_symmetry_Int_Tables_number   1
_chemical_formula_structural   SmAs2Au
_chemical_formula_sum   'Sm8 As16 Au8'
_cell_volume   689.32389157
_cell_formula_units_Z   8
loop_
 _symmetry_equiv_pos_site_id
 _symmetry_equiv_pos_as_xyz
  1  'x, y, z'
loop_
 _atom_site_type_symbol
 _atom_site_label
 _atom_site_symmetry_multiplicity
 _atom_site_fract_x
 _atom_site_fract_y
 _atom_site_fract_z
 _atom_site_occupancy
  Sm  Sm0  1  0.01489092  0.75000000  0.38247960  1
  Sm  Sm1  1  0.98510908  0.25000000  0.61752040  1
  Sm  Sm2  1  0.01489092  0.25000000  0.11752040  1
  Sm  Sm3  1  0.98510908  0.75000000  0.88247960  1
  Sm  Sm4  1  0.51563490  0.25000000  0.38296807  1
  Sm  Sm5  1  0.48436510  0.75000000  0.61703193  1
  Sm  Sm6  1  0.51563490  0.75000000  0.11703193  1
  Sm  Sm7  1  0.48436510  0.25000000  0.88296807  1
  As  As8  1  0.01633625  0.25000000  0.34250070  1
  As  As9  1  0.98366375  0.75000000  0.65749930  1
  As  As10  1  0.01633625  0.75000000  0.15749930  1
  As  As11  1  0.98366375  0.25000000  0.84250070  1
  As  As12  1  0.51479471  0.75000000  0.34369108  1
  As  As13  1  0.48520529  0.25000000  0.65630892  1
  As  As14  1  0.51479471  0.25000000  0.15630892  1
  As  As15  1  0.48520529  0.75000000  0.84369108  1
  As  As16  1  0.75687964  0.97418303  0.49952532  1
  As  As17  1  0.24312036  0.47418303  0.50047468  1
  As  As18  1  0.75687964  0.02581697  0.00047468  1
  As  As19  1  0.24312036  0.52581697  0.99952532  1
  As  As20  1  0.24312036  0.02581697  0.50047468  1
  As  As21  1  0.75687964  0.52581697  0.49952532  1
  As  As22  1  0.24312036  0.97418303  0.99952532  1
  As  As23  1  0.75687964  0.47418303  0.00047468  1
  Au  Au24  1  0.26932048  0.50000000  0.25000000  1
  Au  Au25  1  0.73067952  -0.00000000  0.75000000  1
  Au  Au26  1  0.73067952  0.50000000  0.75000000  1
  Au  Au27  1  0.26932048  -0.00000000  0.25000000  1
  Au  Au28  1  0.76792745  0.50000000  0.25000000  1
  Au  Au29  1  0.23207255  -0.00000000  0.75000000  1
  Au  Au30  1  0.23207255  0.50000000  0.75000000  1
  Au  Au31  1  0.76792745  -0.00000000  0.25000000  1
