# generated using pymatgen
data_Li32Mn13Cr3O48
_symmetry_space_group_name_H-M   'P 1'
_cell_length_a   5.01095054
_cell_length_b   8.70281608
_cell_length_c   19.46258543
_cell_angle_alpha   98.36818317
_cell_angle_beta   94.72403909
_cell_angle_gamma   89.89653254
_symmetry_Int_Tables_number   1
_chemical_formula_structural   Li32Mn13Cr3O48
_chemical_formula_sum   'Li32 Mn13 Cr3 O48'
_cell_volume   836.81772144
_cell_formula_units_Z   1
loop_
 _symmetry_equiv_pos_site_id
 _symmetry_equiv_pos_as_xyz
  1  'x, y, z'
loop_
 _atom_site_type_symbol
 _atom_site_label
 _atom_site_symmetry_multiplicity
 _atom_site_fract_x
 _atom_site_fract_y
 _atom_site_fract_z
 _atom_site_occupancy
  Li  Li0  1  0.99220247  0.16794448  0.24968864  1
  Li  Li1  1  0.87230813  0.37446908  0.37524310  1
  Li  Li2  1  0.74935246  0.24981376  0.00010527  1
  Li  Li3  1  0.74232417  0.91878815  -0.00002369  1
  Li  Li4  1  0.99247489  0.16915606  0.75046239  1
  Li  Li5  1  0.75651538  0.57944562  0.49993189  1
  Li  Li6  1  0.87667923  0.37435081  0.87487401  1
  Li  Li7  1  0.74890049  0.25133814  0.49970606  1
  Li  Li8  1  0.74431137  0.91965350  0.50018776  1
  Li  Li9  1  0.62486891  0.12498820  0.12497731  1
  Li  Li10  1  0.75762442  0.58158959  0.99988080  1
  Li  Li11  1  0.50992323  0.33142181  0.24971722  1
  Li  Li12  1  0.62631577  0.12436177  0.62486073  1
  Li  Li13  1  0.49989278  0.00001856  0.24996192  1
  Li  Li14  1  0.49091553  0.66843632  0.24984350  1
  Li  Li15  1  0.50767893  0.33205629  0.74983472  1
  Li  Li16  1  0.37459601  0.87451624  0.37474578  1
  Li  Li17  1  0.49949162  0.99983172  0.74993877  1
  Li  Li18  1  0.25095029  0.75024211  0.00011051  1
  Li  Li19  1  0.48936459  0.66792004  0.74911332  1
  Li  Li20  1  0.24238221  0.42012809  0.00077852  1
  Li  Li21  1  0.37550296  0.87449864  0.87512854  1
  Li  Li22  1  0.25591617  0.07926551  0.49944259  1
  Li  Li23  1  0.25095437  0.75078753  0.50021075  1
  Li  Li24  1  0.12485126  0.62520472  0.12506578  1
  Li  Li25  1  0.24315529  0.41977078  0.50026854  1
  Li  Li26  1  0.00891266  0.83096140  0.25042459  1
  Li  Li27  1  0.25702947  0.08011534  0.99987019  1
  Li  Li28  1  0.12503227  0.62440009  0.62512627  1
  Li  Li29  1  0.99836852  0.50160128  0.24990121  1
  Li  Li30  1  0.00861004  0.83093804  0.75045363  1
  Li  Li31  1  0.00136547  0.50063861  0.74996525  1
  Mn  Mn32  1  0.87260083  0.70990790  0.37429669  1
  Mn  Mn33  1  0.87606448  0.04133738  0.37496187  1
  Mn  Mn34  1  0.87522263  0.71044951  0.87555008  1
  Mn  Mn35  1  0.87499899  0.04128483  0.87502112  1
  Mn  Mn36  1  0.62586158  0.79156600  0.12508454  1
  Mn  Mn37  1  0.62444604  0.45873719  0.12509141  1
  Mn  Mn38  1  0.62550769  0.79131895  0.62488840  1
  Mn  Mn39  1  0.62534695  0.46026486  0.62540788  1
  Mn  Mn40  1  0.37639210  0.20753318  0.37563122  1
  Mn  Mn41  1  0.37255917  0.20672757  0.87442330  1
  Mn  Mn42  1  0.12456996  0.95857627  0.12514784  1
  Mn  Mn43  1  0.12580320  0.29133835  0.12514440  1
  Mn  Mn44  1  0.12305565  0.95655578  0.62435551  1
  Cr  Cr45  1  0.37017308  0.53961239  0.37508775  1
  Cr  Cr46  1  0.38026018  0.53953848  0.87493622  1
  Cr  Cr47  1  0.13091600  0.28925421  0.62502655  1
  O  O48  1  0.96417209  0.10663332  0.06915809  1
  O  O49  1  0.92883970  0.78540053  0.06918465  1
  O  O50  1  0.92798898  0.42742103  0.06806378  1
  O  O51  1  0.96232929  0.10263167  0.56858404  1
  O  O52  1  0.82181955  0.96468270  0.18088828  1
  O  O53  1  0.82228348  0.32266773  0.18187995  1
  O  O54  1  0.92854996  0.78452405  0.56913283  1
  O  O55  1  0.92688710  0.42710220  0.56805304  1
  O  O56  1  0.78550996  0.64339695  0.18060670  1
  O  O57  1  0.71229487  0.85753046  0.31903844  1
  O  O58  1  0.82151071  0.96493950  0.68097880  1
  O  O59  1  0.82341855  0.32377103  0.68184862  1
  O  O60  1  0.67810714  0.53596496  0.31893053  1
  O  O61  1  0.67860974  0.17780109  0.31808499  1
  O  O62  1  0.78669521  0.64411932  0.68080686  1
  O  O63  1  0.71388483  0.85706623  0.81934241  1
  O  O64  1  0.46399912  0.60632393  0.06901636  1
  O  O65  1  0.57266530  0.71369204  0.43095315  1
  O  O66  1  0.57194252  0.07158890  0.43180897  1
  O  O67  1  0.67431608  0.53762519  0.81942040  1
  O  O68  1  0.67770564  0.17776818  0.81823827  1
  O  O69  1  0.42783324  0.92762793  0.06820564  1
  O  O70  1  0.42824121  0.28524149  0.06905903  1
  O  O71  1  0.53807112  0.38968758  0.43173856  1
  O  O72  1  0.46359916  0.60691083  0.56916853  1
  O  O73  1  0.57586105  0.71757643  0.93164867  1
  O  O74  1  0.57213636  0.07234523  0.93185738  1
  O  O75  1  0.32241548  0.82264529  0.18171383  1
  O  O76  1  0.32195901  0.46467723  0.18093355  1
  O  O77  1  0.42802176  0.92780894  0.56821088  1
  O  O78  1  0.42401264  0.28700849  0.56930553  1
  O  O79  1  0.53224241  0.39345204  0.93083195  1
  O  O80  1  0.28603204  0.14359830  0.18088011  1
  O  O81  1  0.21869894  0.35720102  0.31920303  1
  O  O82  1  0.32267945  0.82229453  0.68186671  1
  O  O83  1  0.32651648  0.46731386  0.68172152  1
  O  O84  1  0.17297636  0.67991792  0.31722369  1
  O  O85  1  0.17794417  0.03530607  0.31897479  1
  O  O86  1  0.28323096  0.14296564  0.68085649  1
  O  O87  1  0.21213337  0.35293232  0.81855604  1
  O  O88  1  0.07533769  0.57448145  0.43168445  1
  O  O89  1  0.07204372  0.21509436  0.43090073  1
  O  O90  1  0.17622639  0.67739727  0.81814332  1
  O  O91  1  0.17792089  0.03439891  0.81910765  1
  O  O92  1  0.03598484  0.89370366  0.43062611  1
  O  O93  1  0.07351946  0.57381628  0.93187470  1
  O  O94  1  0.07112528  0.21497073  0.93091048  1
  O  O95  1  0.03715480  0.89431908  0.93092685  1
