# generated using pymatgen
data_Li2MnV(P2O7)2
_symmetry_space_group_name_H-M   'P 1'
_cell_length_a   4.85003947
_cell_length_b   24.98893284
_cell_length_c   7.05225970
_cell_angle_alpha   90.55536022
_cell_angle_beta   108.70793287
_cell_angle_gamma   89.72687219
_symmetry_Int_Tables_number   1
_chemical_formula_structural   Li2MnV(P2O7)2
_chemical_formula_sum   'Li6 Mn3 V3 P12 O42'
_cell_volume   809.51752814
_cell_formula_units_Z   3
loop_
 _symmetry_equiv_pos_site_id
 _symmetry_equiv_pos_as_xyz
  1  'x, y, z'
loop_
 _atom_site_type_symbol
 _atom_site_label
 _atom_site_symmetry_multiplicity
 _atom_site_fract_x
 _atom_site_fract_y
 _atom_site_fract_z
 _atom_site_occupancy
  Li  Li0  1  0.17253645  0.62027789  0.67474302  1
  Li  Li1  1  0.17386891  0.95399163  0.67320257  1
  Li  Li2  1  0.17690649  0.28717346  0.67421384  1
  Li  Li3  1  0.82313663  0.12023748  0.32382569  1
  Li  Li4  1  0.82539283  0.45363499  0.32673523  1
  Li  Li5  1  0.82334181  0.78679259  0.32442061  1
  Mn  Mn6  1  0.21306986  0.49958871  0.73119784  1
  Mn  Mn7  1  0.78520392  0.66649842  0.27138331  1
  Mn  Mn8  1  0.78507094  0.99987107  0.26890580  1
  V  V9  1  0.21607053  0.16647670  0.72690872  1
  V  V10  1  0.21474047  0.83311037  0.72733117  1
  V  V11  1  0.78570920  0.33306927  0.27077563  1
  P  P12  1  0.40225542  0.05913913  0.52203349  1
  P  P13  1  0.39872647  0.39337103  0.51831414  1
  P  P14  1  0.40107156  0.72567726  0.52177483  1
  P  P15  1  0.21352281  0.26119272  0.08533587  1
  P  P16  1  0.21292285  0.59579853  0.09079477  1
  P  P17  1  0.21339530  0.92843313  0.08858713  1
  P  P18  1  0.78993514  0.09550249  0.91366986  1
  P  P19  1  0.78728658  0.42865621  0.91180161  1
  P  P20  1  0.78879124  0.76201197  0.91330508  1
  P  P21  1  0.59999263  0.22690172  0.47650205  1
  P  P22  1  0.59910265  0.55931768  0.48340269  1
  P  P23  1  0.60149083  0.89361599  0.48155626  1
  O  O24  1  0.05136096  0.10836629  0.84682795  1
  O  O25  1  0.04979023  0.77502177  0.84623549  1
  O  O26  1  0.05782480  0.44236517  0.85385914  1
  O  O27  1  0.13121780  0.89865797  0.88872763  1
  O  O28  1  0.13300234  0.23206686  0.88453232  1
  O  O29  1  0.12623209  0.56747087  0.88892615  1
  O  O30  1  0.18888086  0.01197315  0.48204150  1
  O  O31  1  0.18689882  0.67851849  0.48183159  1
  O  O32  1  0.18966712  0.34555874  0.48243450  1
  O  O33  1  0.25013272  0.78024265  0.50486545  1
  O  O34  1  0.25072059  0.11367213  0.50523278  1
  O  O35  1  0.24349345  0.44699552  0.49638763  1
  O  O36  1  0.39572801  0.22596033  0.60365584  1
  O  O37  1  0.39163809  0.55713654  0.61024629  1
  O  O38  1  0.39172890  0.89179572  0.60509187  1
  O  O39  1  0.60170864  0.14517468  0.91489528  1
  O  O40  1  0.60123959  0.47842114  0.91521482  1
  O  O41  1  0.59991280  0.81171915  0.91382675  1
  O  O42  1  0.59791799  0.05134505  0.75274906  1
  O  O43  1  0.59621497  0.38563635  0.74990754  1
  O  O44  1  0.59690275  0.71780905  0.75237388  1
  O  O45  1  0.40469781  0.21802989  0.24549812  1
  O  O46  1  0.40455150  0.88567619  0.24908936  1
  O  O47  1  0.40236394  0.55214476  0.25024524  1
  O  O48  1  0.39794863  0.31095604  0.08382491  1
  O  O49  1  0.40083543  0.64515724  0.09002277  1
  O  O50  1  0.39740496  0.97811769  0.08564042  1
  O  O51  1  0.60458990  0.05795125  0.39175362  1
  O  O52  1  0.60843809  0.39169715  0.39462349  1
  O  O53  1  0.60396847  0.72435917  0.39213625  1
  O  O54  1  0.75309131  0.28106792  0.49312279  1
  O  O55  1  0.74991997  0.61320860  0.50690361  1
  O  O56  1  0.75545843  0.94719016  0.50440915  1
  O  O57  1  0.81253283  0.17948258  0.51494951  1
  O  O58  1  0.80968479  0.51140363  0.51771422  1
  O  O59  1  0.81105893  0.84559545  0.51596970  1
  O  O60  1  0.87348729  0.06759946  0.11434009  1
  O  O61  1  0.87247405  0.73434768  0.11406706  1
  O  O62  1  0.86832729  0.39903807  0.11018193  1
  O  O63  1  0.94859692  0.27458082  0.14829565  1
  O  O64  1  0.94307236  0.60945616  0.15045313  1
  O  O65  1  0.94174103  0.94227200  0.14617727  1
