# generated using pymatgen
data_Cs3Ba4C3O9F5
_symmetry_space_group_name_H-M   'P 1'
_cell_length_a   11.68832176
_cell_length_b   11.68826496
_cell_length_c   7.72598964
_cell_angle_alpha   90.00000000
_cell_angle_beta   90.00000000
_cell_angle_gamma   120.00013847
_symmetry_Int_Tables_number   1
_chemical_formula_structural   Cs3Ba4C3O9F5
_chemical_formula_sum   'Cs6 Ba8 C6 O18 F10'
_cell_volume   914.08451902
_cell_formula_units_Z   2
loop_
 _symmetry_equiv_pos_site_id
 _symmetry_equiv_pos_as_xyz
  1  'x, y, z'
loop_
 _atom_site_type_symbol
 _atom_site_label
 _atom_site_symmetry_multiplicity
 _atom_site_fract_x
 _atom_site_fract_y
 _atom_site_fract_z
 _atom_site_occupancy
  Cs  Cs0  1  0.12185721  0.24371219  0.06860658  1
  Cs  Cs1  1  0.75628713  0.87814396  0.06860604  1
  Cs  Cs2  1  0.12185606  0.87814295  0.06860603  1
  Cs  Cs3  1  0.87814279  0.75628781  0.56860658  1
  Cs  Cs4  1  0.24371287  0.12185604  0.56860604  1
  Cs  Cs5  1  0.87814394  0.12185705  0.56860603  1
  Ba  Ba6  1  0.66669304  0.33338743  0.36040990  1
  Ba  Ba7  1  0.33330696  0.66661257  0.86040990  1
  Ba  Ba8  1  0.46278915  0.53721062  0.40413939  1
  Ba  Ba9  1  0.46278987  0.92557990  0.40413820  1
  Ba  Ba10  1  0.07442001  0.53720891  0.40413827  1
  Ba  Ba11  1  0.53721085  0.46278938  0.90413939  1
  Ba  Ba12  1  0.53721013  0.07442010  0.90413820  1
  Ba  Ba13  1  0.92557999  0.46279109  0.90413827  1
  C  C14  1  0.60386650  0.80194745  0.63627458  1
  C  C15  1  0.19805282  0.80191947  0.63627488  1
  C  C16  1  0.19807909  0.39613135  0.63627211  1
  C  C17  1  0.39613350  0.19805255  0.13627458  1
  C  C18  1  0.80194718  0.19808053  0.13627488  1
  C  C19  1  0.80192091  0.60386865  0.13627211  1
  O  O20  1  0.63762135  0.81881975  0.47386407  1
  O  O21  1  0.18117982  0.81880127  0.47386391  1
  O  O22  1  0.18119736  0.36237662  0.47386455  1
  O  O23  1  0.36237865  0.18118025  0.97386407  1
  O  O24  1  0.81882018  0.18119873  0.97386391  1
  O  O25  1  0.81880264  0.63762338  0.97386455  1
  O  O26  1  0.58447927  0.88894510  0.71723360  1
  O  O27  1  0.11105326  0.69553305  0.71723385  1
  O  O28  1  0.30446609  0.41551978  0.71723431  1
  O  O29  1  0.11107935  0.41551895  0.71722636  1
  O  O30  1  0.30444148  0.88892149  0.71722566  1
  O  O31  1  0.58448089  0.69555855  0.71722517  1
  O  O32  1  0.41552073  0.11105490  0.21723360  1
  O  O33  1  0.88894674  0.30446695  0.21723385  1
  O  O34  1  0.69553391  0.58448022  0.21723431  1
  O  O35  1  0.88892065  0.58448105  0.21722636  1
  O  O36  1  0.69555852  0.11107851  0.21722566  1
  O  O37  1  0.41551911  0.30444145  0.21722517  1
  F  F38  1  0.42814534  0.57195140  0.08497922  1
  F  F39  1  0.42804654  0.85619009  0.08497538  1
  F  F40  1  0.14380618  0.57185380  0.08497902  1
  F  F41  1  0.57185466  0.42804860  0.58497922  1
  F  F42  1  0.57195346  0.14380991  0.58497538  1
  F  F43  1  0.85619382  0.42814620  0.58497902  1
  F  F44  1  0.33330207  0.66660327  0.49783350  1
  F  F45  1  0.66669793  0.33339673  0.99783350  1
  F  F46  1  0.00000013  0.00000005  0.81152541  1
  F  F47  1  0.99999987  -0.00000005  0.31152541  1
