# generated using pymatgen
data_K(WO3)3
_symmetry_space_group_name_H-M   'P 1'
_cell_length_a   7.53854746
_cell_length_b   7.53065772
_cell_length_c   7.78572572
_cell_angle_alpha   89.99305881
_cell_angle_beta   89.97639790
_cell_angle_gamma   120.34085276
_symmetry_Int_Tables_number   1
_chemical_formula_structural   K(WO3)3
_chemical_formula_sum   'K2 W6 O18'
_cell_volume   381.45940026
_cell_formula_units_Z   2
loop_
 _symmetry_equiv_pos_site_id
 _symmetry_equiv_pos_as_xyz
  1  'x, y, z'
loop_
 _atom_site_type_symbol
 _atom_site_label
 _atom_site_symmetry_multiplicity
 _atom_site_fract_x
 _atom_site_fract_y
 _atom_site_fract_z
 _atom_site_occupancy
  K  K0  1  0.00000400  0.99999940  0.26677846  1
  K  K1  1  0.00005750  0.99998993  0.76706805  1
  W  W2  1  0.00043676  0.50130624  0.50019206  1
  W  W3  1  0.00014287  0.49867868  0.00019777  1
  W  W4  1  0.49910381  0.49862559  0.50048966  1
  W  W5  1  0.50140698  0.50088511  0.00041192  1
  W  W6  1  0.49868883  0.99963782  0.00021540  1
  W  W7  1  0.50159228  0.00002368  0.50016876  1
  O  O8  1  0.01444593  0.50743679  0.75671372  1
  O  O9  1  0.20981312  0.79291212  0.00870615  1
  O  O10  1  0.20826117  0.78988873  0.49096774  1
  O  O11  1  0.21399675  0.41832022  0.49120792  1
  O  O12  1  0.49245688  0.98538579  0.74348915  1
  O  O13  1  0.21054677  0.42053462  0.00854008  1
  O  O14  1  0.58359402  0.78648744  0.00856543  1
  O  O15  1  0.58079730  0.79014310  0.49107454  1
  O  O16  1  0.49276433  0.50753641  0.74998041  1
  O  O17  1  0.50720364  0.49281143  0.24998993  1
  O  O18  1  0.41629781  0.21427260  0.99105984  1
  O  O19  1  0.41907936  0.20935088  0.50858054  1
  O  O20  1  0.78529558  0.58174365  0.50851733  1
  O  O21  1  0.50742225  0.01476972  0.25659897  1
  O  O22  1  0.78984809  0.57954126  0.99119301  1
  O  O23  1  0.78927103  0.20655175  0.99096855  1
  O  O24  1  0.79243690  0.21090089  0.50870370  1
  O  O25  1  0.98521903  0.49226314  0.24339991  1
