# generated using pymatgen
data_VF3
_symmetry_space_group_name_H-M   'P 1'
_cell_length_a   9.59878624
_cell_length_b   7.49794552
_cell_length_c   5.45869669
_cell_angle_alpha   136.17352997
_cell_angle_beta   151.54836642
_cell_angle_gamma   34.86048384
_symmetry_Int_Tables_number   1
_chemical_formula_structural   VF3
_chemical_formula_sum   'V2 F6'
_cell_volume   106.98223423
_cell_formula_units_Z   2
loop_
 _symmetry_equiv_pos_site_id
 _symmetry_equiv_pos_as_xyz
  1  'x, y, z'
loop_
 _atom_site_type_symbol
 _atom_site_label
 _atom_site_symmetry_multiplicity
 _atom_site_fract_x
 _atom_site_fract_y
 _atom_site_fract_z
 _atom_site_occupancy
  V  V0  1  -0.00000000  0.50000000  -0.00000000  1
  V  V1  1  -0.00000000  0.00000000  -0.00000000  1
  F  F2  1  0.50196064  0.35858139  0.60191752  1
  F  F3  1  0.12372594  0.25000001  0.24745188  1
  F  F4  1  0.09995688  0.14141861  0.60191753  1
  F  F5  1  0.49803936  0.64141861  0.39808248  1
  F  F6  1  0.87627406  0.74999999  0.75254812  1
  F  F7  1  0.90004312  0.85858139  0.39808247  1
