# generated using pymatgen
data_Li4Mn3Fe(BO3)4
_symmetry_space_group_name_H-M   'P 1'
_cell_length_a   5.24155733
_cell_length_b   5.24060195
_cell_length_c   20.93189820
_cell_angle_alpha   88.95499160
_cell_angle_beta   91.06415098
_cell_angle_gamma   60.26905050
_symmetry_Int_Tables_number   1
_chemical_formula_structural   Li4Mn3Fe(BO3)4
_chemical_formula_sum   'Li8 Mn6 Fe2 B8 O24'
_cell_volume   498.95314514
_cell_formula_units_Z   2
loop_
 _symmetry_equiv_pos_site_id
 _symmetry_equiv_pos_as_xyz
  1  'x, y, z'
loop_
 _atom_site_type_symbol
 _atom_site_label
 _atom_site_symmetry_multiplicity
 _atom_site_fract_x
 _atom_site_fract_y
 _atom_site_fract_z
 _atom_site_occupancy
  Li  Li0  1  0.32108954  0.65227445  0.66610175  1
  Li  Li1  1  0.34737827  0.67918516  0.91596114  1
  Li  Li2  1  0.32098967  0.65083401  0.16603703  1
  Li  Li3  1  0.34920593  0.67908507  0.41649431  1
  Li  Li4  1  0.65072873  0.33770911  0.79104720  1
  Li  Li5  1  0.66123932  0.35074644  0.54110394  1
  Li  Li6  1  0.65101729  0.33875697  0.29116298  1
  Li  Li7  1  0.66124138  0.34880713  0.04100505  1
  Mn  Mn8  1  0.32893708  0.00303992  0.05832099  1
  Mn  Mn9  1  0.67872724  0.00176048  0.93291253  1
  Mn  Mn10  1  0.67498518  0.00335052  0.43350833  1
  Mn  Mn11  1  0.99844218  0.32345654  0.68330272  1
  Mn  Mn12  1  0.99627862  0.32329306  0.18340395  1
  Mn  Mn13  1  0.99714790  0.67093171  0.30858853  1
  Fe  Fe14  1  0.33414476  0.99734432  0.55865332  1
  Fe  Fe15  1  0.00098974  0.67339805  0.80853653  1
  B  B16  1  0.00306850  0.34133543  0.93657066  1
  B  B17  1  0.00326515  0.34033397  0.43776713  1
  B  B18  1  0.33258721  0.00579938  0.81191519  1
  B  B19  1  0.33442804  0.00447337  0.31212401  1
  B  B20  1  0.65969143  0.99658121  0.68729395  1
  B  B21  1  0.65823033  0.99740372  0.18703558  1
  B  B22  1  0.99407657  0.66613003  0.56207620  1
  B  B23  1  0.99552545  0.66543479  0.06202861  1
  O  O24  1  0.06880342  0.25272959  0.79193397  1
  O  O25  1  0.06826167  0.24613115  0.29103801  1
  O  O26  1  0.25248896  0.06823460  0.95190677  1
  O  O27  1  0.03589223  0.57779087  0.91596524  1
  O  O28  1  0.25263146  0.06743302  0.45293688  1
  O  O29  1  0.03564963  0.57738259  0.41691100  1
  O  O30  1  0.58196239  0.02907466  0.82662458  1
  O  O31  1  0.26488752  0.65068597  0.56878822  1
  O  O32  1  0.57634170  0.04061681  0.32756297  1
  O  O33  1  0.27047164  0.63759724  0.06927378  1
  O  O34  1  0.35084492  0.73287514  0.81854988  1
  O  O35  1  0.36224796  0.72953699  0.31947006  1
  O  O36  1  0.62788158  0.27282640  0.69427008  1
  O  O37  1  0.62601692  0.27313428  0.19438711  1
  O  O38  1  0.72692673  0.37355377  0.94381819  1
  O  O39  1  0.42298114  0.96408435  0.66645669  1
  O  O40  1  0.72731328  0.37194134  0.44475931  1
  O  O41  1  0.42189037  0.96386325  0.16640108  1
  O  O42  1  0.96872465  0.41830432  0.57674031  1
  O  O43  1  0.95932887  0.42352844  0.07744165  1
  O  O44  1  0.74612190  0.93161650  0.54219190  1
  O  O45  1  0.75393629  0.93166834  0.04091158  1
  O  O46  1  0.93219604  0.74701230  0.70274623  1
  O  O47  1  0.93158220  0.74811525  0.20216788  1
