# generated using pymatgen
data_CsSO4
_symmetry_space_group_name_H-M   'P 1'
_cell_length_a   8.14646518
_cell_length_b   5.98053080
_cell_length_c   10.10740007
_cell_angle_alpha   90.00000000
_cell_angle_beta   107.46451170
_cell_angle_gamma   90.00000000
_symmetry_Int_Tables_number   1
_chemical_formula_structural   CsSO4
_chemical_formula_sum   'Cs4 S4 O16'
_cell_volume   469.73467222
_cell_formula_units_Z   4
loop_
 _symmetry_equiv_pos_site_id
 _symmetry_equiv_pos_as_xyz
  1  'x, y, z'
loop_
 _atom_site_type_symbol
 _atom_site_label
 _atom_site_symmetry_multiplicity
 _atom_site_fract_x
 _atom_site_fract_y
 _atom_site_fract_z
 _atom_site_occupancy
  Cs  Cs0  1  0.11912834  0.75636099  0.84876147  1
  Cs  Cs1  1  0.61912834  0.74363901  0.34876147  1
  Cs  Cs2  1  0.88087166  0.24363901  0.15123853  1
  Cs  Cs3  1  0.38087166  0.25636099  0.65123853  1
  S  S4  1  0.15575874  0.74463462  0.39318260  1
  S  S5  1  0.65575874  0.75536538  0.89318260  1
  S  S6  1  0.84424126  0.25536538  0.60681740  1
  S  S7  1  0.34424126  0.24463462  0.10681740  1
  O  O8  1  0.25439178  0.54154873  0.37488701  1
  O  O9  1  0.75439178  0.95845127  0.87488701  1
  O  O10  1  0.74560822  0.45845127  0.62511299  1
  O  O11  1  0.24560822  0.04154873  0.12511299  1
  O  O12  1  0.14627698  0.73736290  0.53866484  1
  O  O13  1  0.64627698  0.76263710  0.03866484  1
  O  O14  1  0.85372302  0.26263710  0.46133516  1
  O  O15  1  0.35372302  0.23736290  0.96133516  1
  O  O16  1  0.98343430  0.74614353  0.29074856  1
  O  O17  1  0.48343430  0.75385647  0.79074856  1
  O  O18  1  0.01656570  0.25385647  0.70925144  1
  O  O19  1  0.51656570  0.24614353  0.20925144  1
  O  O20  1  0.25132876  0.95495006  0.38432438  1
  O  O21  1  0.75132876  0.54504994  0.88432438  1
  O  O22  1  0.74867124  0.04504994  0.61567562  1
  O  O23  1  0.24867124  0.45495006  0.11567562  1
