# generated using pymatgen
data_Li2MnV(P2O7)2
_symmetry_space_group_name_H-M   'P 1'
_cell_length_a   4.84682565
_cell_length_b   10.91248279
_cell_length_c   10.90753447
_cell_angle_alpha   99.44198181
_cell_angle_beta   102.07461726
_cell_angle_gamma   101.98100958
_symmetry_Int_Tables_number   1
_chemical_formula_structural   Li2MnV(P2O7)2
_chemical_formula_sum   'Li4 Mn2 V2 P8 O28'
_cell_volume   538.72011855
_cell_formula_units_Z   2
loop_
 _symmetry_equiv_pos_site_id
 _symmetry_equiv_pos_as_xyz
  1  'x, y, z'
loop_
 _atom_site_type_symbol
 _atom_site_label
 _atom_site_symmetry_multiplicity
 _atom_site_fract_x
 _atom_site_fract_y
 _atom_site_fract_z
 _atom_site_occupancy
  Li  Li0  1  0.82303520  0.09392428  0.23209726  1
  Li  Li1  1  0.82641821  0.59188500  0.73162122  1
  Li  Li2  1  0.17670509  0.01982904  0.65764788  1
  Li  Li3  1  0.17443535  0.51680878  0.15681564  1
  Mn  Mn4  1  0.78649692  0.38496102  0.88558539  1
  Mn  Mn5  1  0.21431098  0.86487133  0.86567874  1
  V  V6  1  0.78400192  0.88564177  0.38605873  1
  V  V7  1  0.21373652  0.36328152  0.36372922  1
  P  P8  1  0.60022419  0.33082214  0.15014330  1
  P  P9  1  0.78894461  0.35021536  0.56379843  1
  P  P10  1  0.78557111  0.84740079  0.06277417  1
  P  P11  1  0.40058002  0.10153104  0.42155385  1
  P  P12  1  0.59982626  0.82885111  0.65101251  1
  P  P13  1  0.21162326  0.18893040  0.90026459  1
  P  P14  1  0.21334057  0.68507769  0.40163647  1
  P  P15  1  0.39968908  0.59667897  0.91920231  1
  O  O16  1  0.80915981  0.27626737  0.23949392  1
  O  O17  1  0.75576965  0.42301584  0.08146565  1
  O  O18  1  0.60411920  0.03569773  0.35920612  1
  O  O19  1  0.94264543  0.23949055  0.91040699  1
  O  O20  1  0.94991303  0.73719905  0.41275107  1
  O  O21  1  0.87328585  0.40852496  0.70663911  1
  O  O22  1  0.86747344  0.90376900  0.20675042  1
  O  O23  1  0.40244317  0.20298990  0.04539728  1
  O  O24  1  0.59597385  0.20397178  0.54974609  1
  O  O25  1  0.59751536  0.70195576  0.04708437  1
  O  O26  1  0.60181717  0.42513219  0.48983323  1
  O  O27  1  0.39089703  0.39010278  0.21424085  1
  O  O28  1  0.81570076  0.77798669  0.74208014  1
  O  O29  1  0.74942839  0.91821255  0.57697459  1
  O  O30  1  0.24611644  0.17341756  0.33081879  1
  O  O31  1  0.18643918  0.01047772  0.47224130  1
  O  O32  1  0.60817344  0.53101528  0.85957889  1
  O  O33  1  0.39943763  0.26261774  0.82543389  1
  O  O34  1  0.39915757  0.75833587  0.32576543  1
  O  O35  1  0.40413147  0.70046827  0.54852438  1
  O  O36  1  0.12485725  0.04591074  0.84223812  1
  O  O37  1  0.13340819  0.54137731  0.34514646  1
  O  O38  1  0.59874631  0.92356277  0.98948627  1
  O  O39  1  0.05067586  0.33575318  0.51141880  1
  O  O40  1  0.05690977  0.84024840  0.01326384  1
  O  O41  1  0.39695774  0.89165172  0.71781146  1
  O  O42  1  0.25063002  0.66773636  0.82748457  1
  O  O43  1  0.18927672  0.50797969  0.97352025  1
