# generated using pymatgen
data_Mg14TiCrO16
_symmetry_space_group_name_H-M   'P 1'
_cell_length_a   8.64745526
_cell_length_b   8.53548578
_cell_length_c   4.24762508
_cell_angle_alpha   90.00000000
_cell_angle_beta   90.00000000
_cell_angle_gamma   90.00000000
_symmetry_Int_Tables_number   1
_chemical_formula_structural   Mg14TiCrO16
_chemical_formula_sum   'Mg14 Ti1 Cr1 O16'
_cell_volume   313.51819008
_cell_formula_units_Z   1
loop_
 _symmetry_equiv_pos_site_id
 _symmetry_equiv_pos_as_xyz
  1  'x, y, z'
loop_
 _atom_site_type_symbol
 _atom_site_label
 _atom_site_symmetry_multiplicity
 _atom_site_fract_x
 _atom_site_fract_y
 _atom_site_fract_z
 _atom_site_occupancy
  Mg  Mg0  1  0.50000000  0.00000000  0.00000000  1
  Mg  Mg1  1  0.50000000  0.50000000  0.00000000  1
  Mg  Mg2  1  0.00000000  0.25276235  0.50000000  1
  Mg  Mg3  1  0.00000000  0.74723765  0.50000000  1
  Mg  Mg4  1  0.50000000  0.25055561  0.50000000  1
  Mg  Mg5  1  0.50000000  0.74944439  0.50000000  1
  Mg  Mg6  1  0.25331431  0.00000000  0.50000000  1
  Mg  Mg7  1  0.25357089  0.50000000  0.50000000  1
  Mg  Mg8  1  0.74668569  0.00000000  0.50000000  1
  Mg  Mg9  1  0.74642911  0.50000000  0.50000000  1
  Mg  Mg10  1  0.25285997  0.25151915  0.00000000  1
  Mg  Mg11  1  0.25285997  0.74848085  0.00000000  1
  Mg  Mg12  1  0.74714003  0.25151915  -0.00000000  1
  Mg  Mg13  1  0.74714003  0.74848085  -0.00000000  1
  Ti  Ti14  1  0.00000000  0.00000000  0.00000000  1
  Cr  Cr15  1  0.00000000  0.50000000  0.00000000  1
  O  O16  1  0.25591002  0.00000000  -0.00000000  1
  O  O17  1  0.26498349  0.50000000  0.00000000  1
  O  O18  1  0.74408998  0.00000000  0.00000000  1
  O  O19  1  0.73501651  0.50000000  0.00000000  1
  O  O20  1  0.24859608  0.24977137  0.50000000  1
  O  O21  1  0.24859608  0.75022863  0.50000000  1
  O  O22  1  0.75140392  0.24977137  0.50000000  1
  O  O23  1  0.75140392  0.75022863  0.50000000  1
  O  O24  1  0.00000000  0.00000000  0.50000000  1
  O  O25  1  0.00000000  0.50000000  0.50000000  1
  O  O26  1  0.50000000  0.00000000  0.50000000  1
  O  O27  1  0.50000000  0.50000000  0.50000000  1
  O  O28  1  0.00000000  0.25099482  0.00000000  1
  O  O29  1  0.00000000  0.74900518  0.00000000  1
  O  O30  1  0.50000000  0.24757882  -0.00000000  1
  O  O31  1  0.50000000  0.75242118  0.00000000  1
