# generated using pymatgen
data_BeH8SO8
_symmetry_space_group_name_H-M   'P 1'
_cell_length_a   7.73388730
_cell_length_b   7.73388730
_cell_length_c   7.73388730
_cell_angle_alpha   115.97786146
_cell_angle_beta   115.97786146
_cell_angle_gamma   97.12025893
_symmetry_Int_Tables_number   1
_chemical_formula_structural   BeH8SO8
_chemical_formula_sum   'Be2 H16 S2 O16'
_cell_volume   344.10444446
_cell_formula_units_Z   2
loop_
 _symmetry_equiv_pos_site_id
 _symmetry_equiv_pos_as_xyz
  1  'x, y, z'
loop_
 _atom_site_type_symbol
 _atom_site_label
 _atom_site_symmetry_multiplicity
 _atom_site_fract_x
 _atom_site_fract_y
 _atom_site_fract_z
 _atom_site_occupancy
  Be  Be0  1  0.75000100  0.25000000  0.50000000  1
  Be  Be1  1  0.25000000  0.75000100  0.50000000  1
  H  H2  1  0.41847442  0.26452103  0.41035701  1
  H  H3  1  0.85416401  0.00811740  0.58964199  1
  H  H4  1  0.23547897  0.08152558  0.58964299  1
  H  H5  1  0.49188160  0.64583499  0.41035701  1
  H  H6  1  0.91847442  0.50811740  0.15395339  1
  H  H7  1  0.35416501  0.76452003  0.84604561  1
  H  H8  1  0.99188260  0.58152358  0.84604561  1
  H  H9  1  0.73547897  0.14583499  0.15395339  1
  H  H10  1  0.58781957  0.36391122  0.68760429  1
  H  H11  1  0.67630693  0.90021628  0.31239671  1
  H  H12  1  0.13608778  0.91218143  0.31239571  1
  H  H13  1  0.59978572  0.82369307  0.68760429  1
  H  H14  1  0.08781857  0.40021628  0.22390835  1
  H  H15  1  0.17630693  0.86391022  0.77609165  1
  H  H16  1  0.09978572  0.41218143  0.77609265  1
  H  H17  1  0.63608978  0.32369207  0.22390835  1
  S  S18  1  -0.00000000  0.00000000  0.00000000  1
  S  S19  1  0.50000000  0.50000000  0.00000000  1
  O  O20  1  0.56503996  0.30408215  0.53116302  1
  O  O21  1  0.77291913  0.03387693  0.46883698  1
  O  O22  1  0.19591785  0.93496004  0.46883698  1
  O  O23  1  0.46612307  0.72708087  0.53116302  1
  O  O24  1  0.06503996  0.53387593  0.26095681  1
  O  O25  1  0.27291913  0.80408215  0.73904219  1
  O  O26  1  0.96612307  0.43496004  0.73904219  1
  O  O27  1  0.69591685  0.22708087  0.26095681  1
  O  O28  1  0.16360312  0.20899144  0.20748773  1
  O  O29  1  0.00150270  0.95611539  0.79251027  1
  O  O30  1  0.29100756  0.33639588  0.79251027  1
  O  O31  1  0.54388361  0.49849530  0.20748773  1
  O  O32  1  0.66360412  0.45611539  0.95461169  1
  O  O33  1  0.50150370  0.70899144  0.04538831  1
  O  O34  1  0.04388461  0.83639488  0.04538831  1
  O  O35  1  0.79100856  0.99849630  0.95461269  1
