# generated using pymatgen
data_Ca2TlSn
_symmetry_space_group_name_H-M   'P 1'
_cell_length_a   5.48094399
_cell_length_b   5.48080913
_cell_length_c   5.48086672
_cell_angle_alpha   60.00157334
_cell_angle_beta   59.99897972
_cell_angle_gamma   59.99957447
_symmetry_Int_Tables_number   1
_chemical_formula_structural   Ca2TlSn
_chemical_formula_sum   'Ca2 Tl1 Sn1'
_cell_volume   116.42190568
_cell_formula_units_Z   1
loop_
 _symmetry_equiv_pos_site_id
 _symmetry_equiv_pos_as_xyz
  1  'x, y, z'
loop_
 _atom_site_type_symbol
 _atom_site_label
 _atom_site_symmetry_multiplicity
 _atom_site_fract_x
 _atom_site_fract_y
 _atom_site_fract_z
 _atom_site_occupancy
  Ca  Ca0  1  0.00000011  0.99999923  0.00000058  1
  Ca  Ca1  1  0.49999971  0.49999981  0.50000073  1
  Tl  Tl2  1  0.75000147  0.75000135  0.74999992  1
  Sn  Sn3  1  0.24999871  0.24999962  0.24999876  1
