# generated using pymatgen
data_Hf3Al
_symmetry_space_group_name_H-M   'P 1'
_cell_length_a   6.15451684
_cell_length_b   6.15451655
_cell_length_c   5.00752078
_cell_angle_alpha   90.00000000
_cell_angle_beta   90.00000000
_cell_angle_gamma   120.00001208
_symmetry_Int_Tables_number   1
_chemical_formula_structural   Hf3Al
_chemical_formula_sum   'Hf6 Al2'
_cell_volume   164.26356631
_cell_formula_units_Z   2
loop_
 _symmetry_equiv_pos_site_id
 _symmetry_equiv_pos_as_xyz
  1  'x, y, z'
loop_
 _atom_site_type_symbol
 _atom_site_label
 _atom_site_symmetry_multiplicity
 _atom_site_fract_x
 _atom_site_fract_y
 _atom_site_fract_z
 _atom_site_occupancy
  Hf  Hf0  1  0.16968404  0.33936809  0.25000200  1
  Hf  Hf1  1  0.66063191  0.83031496  0.25000200  1
  Hf  Hf2  1  0.16968504  0.83031496  0.25000200  1
  Hf  Hf3  1  0.83031596  0.66063191  0.75000200  1
  Hf  Hf4  1  0.33936709  0.16968304  0.75000200  1
  Hf  Hf5  1  0.83031596  0.16968304  0.75000200  1
  Al  Al6  1  0.33333400  0.66666700  0.75000200  1
  Al  Al7  1  0.66666700  0.33333300  0.25000200  1
