# generated using pymatgen
data_InHg3
_symmetry_space_group_name_H-M   'P 1'
_cell_length_a   6.78943769
_cell_length_b   6.78943757
_cell_length_c   5.47053000
_cell_angle_alpha   90.00000000
_cell_angle_beta   90.00000000
_cell_angle_gamma   119.99999429
_symmetry_Int_Tables_number   1
_chemical_formula_structural   InHg3
_chemical_formula_sum   'In2 Hg6'
_cell_volume   218.38744473
_cell_formula_units_Z   2
loop_
 _symmetry_equiv_pos_site_id
 _symmetry_equiv_pos_as_xyz
  1  'x, y, z'
loop_
 _atom_site_type_symbol
 _atom_site_label
 _atom_site_symmetry_multiplicity
 _atom_site_fract_x
 _atom_site_fract_y
 _atom_site_fract_z
 _atom_site_occupancy
  In  In0  1  0.33333400  0.66666700  0.75000000  1
  In  In1  1  0.66666500  0.33333300  0.25000100  1
  Hg  Hg2  1  0.16668674  0.33337448  0.25000100  1
  Hg  Hg3  1  0.66662552  0.83331226  0.25000100  1
  Hg  Hg4  1  0.16668774  0.83331226  0.25000100  1
  Hg  Hg5  1  0.83331226  0.66662552  0.75000000  1
  Hg  Hg6  1  0.33337348  0.16668574  0.75000000  1
  Hg  Hg7  1  0.83331226  0.16668574  0.75000000  1
