# generated using pymatgen
data_HoGePd
_symmetry_space_group_name_H-M   'P 1'
_cell_length_a   11.35181979
_cell_length_b   11.35181979
_cell_length_c   11.35181979
_cell_angle_alpha   157.63124331
_cell_angle_beta   45.68502786
_cell_angle_gamma   140.70075793
_symmetry_Int_Tables_number   1
_chemical_formula_structural   HoGePd
_chemical_formula_sum   'Ho6 Ge6 Pd6'
_cell_volume   351.72202073
_cell_formula_units_Z   6
loop_
 _symmetry_equiv_pos_site_id
 _symmetry_equiv_pos_as_xyz
  1  'x, y, z'
loop_
 _atom_site_type_symbol
 _atom_site_label
 _atom_site_symmetry_multiplicity
 _atom_site_fract_x
 _atom_site_fract_y
 _atom_site_fract_z
 _atom_site_occupancy
  Ho  Ho0  1  0.62413489  0.45711526  0.16701862  1
  Ho  Ho1  1  0.29009664  0.45711626  0.83298138  1
  Ho  Ho2  1  0.86866186  0.53550332  0.33315854  1
  Ho  Ho3  1  0.20234378  0.53550232  0.66684146  1
  Ho  Ho4  1  0.95125984  0.45125984  0.50000000  1
  Ho  Ho5  1  0.53504202  0.53504202  -0.00000000  1
  Ge  Ge6  1  0.56142704  0.15516842  0.40625862  1
  Ge  Ge7  1  0.74891080  0.15516842  0.59374138  1
  Ge  Ge8  1  0.07413221  0.83828318  0.23585003  1
  Ge  Ge9  1  0.60243315  0.83828318  0.76415097  1
  Ge  Ge10  1  0.21808176  0.15322400  0.06485776  1
  Ge  Ge11  1  0.08836724  0.15322500  0.93514324  1
  Pd  Pd12  1  0.25006926  0.82236139  0.42770887  1
  Pd  Pd13  1  0.39465252  0.82236139  0.57229213  1
  Pd  Pd14  1  0.43523399  0.16764434  0.26758965  1
  Pd  Pd15  1  0.90005468  0.16764434  0.73241035  1
  Pd  Pd16  1  0.93107517  0.82655966  0.10451551  1
  Pd  Pd17  1  0.72204415  0.82655966  0.89548449  1
