# generated using pymatgen
data_Lu3Sc
_symmetry_space_group_name_H-M   'P 1'
_cell_length_a   6.94461248
_cell_length_b   6.94462918
_cell_length_c   5.41513768
_cell_angle_alpha   90.01965759
_cell_angle_beta   90.00144942
_cell_angle_gamma   119.99779981
_symmetry_Int_Tables_number   1
_chemical_formula_structural   Lu3Sc
_chemical_formula_sum   'Lu6 Sc2'
_cell_volume   226.17614802
_cell_formula_units_Z   2
loop_
 _symmetry_equiv_pos_site_id
 _symmetry_equiv_pos_as_xyz
  1  'x, y, z'
loop_
 _atom_site_type_symbol
 _atom_site_label
 _atom_site_symmetry_multiplicity
 _atom_site_fract_x
 _atom_site_fract_y
 _atom_site_fract_z
 _atom_site_occupancy
  Lu  Lu0  1  0.83167074  0.16835733  0.74997104  1
  Lu  Lu1  1  0.33659637  0.16825362  0.74997906  1
  Lu  Lu2  1  0.83164316  0.66331048  0.75002094  1
  Lu  Lu3  1  0.16837509  0.83169861  0.25000509  1
  Lu  Lu4  1  0.66335250  0.83166721  0.25000399  1
  Lu  Lu5  1  0.16834278  0.33666250  0.24996799  1
  Sc  Sc6  1  0.66671447  0.33337073  0.25000656  1
  Sc  Sc7  1  0.33330589  0.66667851  0.75004533  1
