# generated using pymatgen
data_MgS2
_symmetry_space_group_name_H-M   'P 1'
_cell_length_a   3.97448330
_cell_length_b   3.97593083
_cell_length_c   9.13380948
_cell_angle_alpha   90.02410486
_cell_angle_beta   89.99999993
_cell_angle_gamma   119.98796684
_symmetry_Int_Tables_number   1
_chemical_formula_structural   MgS2
_chemical_formula_sum   'Mg2 S4'
_cell_volume   125.01285479
_cell_formula_units_Z   2
loop_
 _symmetry_equiv_pos_site_id
 _symmetry_equiv_pos_as_xyz
  1  'x, y, z'
loop_
 _atom_site_type_symbol
 _atom_site_label
 _atom_site_symmetry_multiplicity
 _atom_site_fract_x
 _atom_site_fract_y
 _atom_site_fract_z
 _atom_site_occupancy
  Mg  Mg0  1  0.16965707  0.33931413  0.27763370  1
  Mg  Mg1  1  0.21919138  0.43838275  0.77766736  1
  S  S2  1  0.84144576  0.68289152  0.14168410  1
  S  S3  1  0.50890090  0.01779980  0.41393908  1
  S  S4  1  0.54723022  0.09446044  0.64175567  1
  S  S5  1  0.88024168  0.76048336  0.91398508  1
