# generated using pymatgen
data_MgAu2
_symmetry_space_group_name_H-M   'P 1'
_cell_length_a   4.92716818
_cell_length_b   4.99822799
_cell_length_c   5.08944461
_cell_angle_alpha   60.59115346
_cell_angle_beta   90.00000000
_cell_angle_gamma   90.00000000
_symmetry_Int_Tables_number   1
_chemical_formula_structural   MgAu2
_chemical_formula_sum   'Mg2 Au4'
_cell_volume   109.18696690
_cell_formula_units_Z   2
loop_
 _symmetry_equiv_pos_site_id
 _symmetry_equiv_pos_as_xyz
  1  'x, y, z'
loop_
 _atom_site_type_symbol
 _atom_site_label
 _atom_site_symmetry_multiplicity
 _atom_site_fract_x
 _atom_site_fract_y
 _atom_site_fract_z
 _atom_site_occupancy
  Mg  Mg0  1  -0.00000000  0.29175064  0.33333200  1
  Mg  Mg1  1  0.50000000  0.70824836  0.33333300  1
  Au  Au2  1  0.50000000  0.36379045  0.01074259  1
  Au  Au3  1  -0.00000000  0.95879896  0.01074359  1
  Au  Au4  1  0.00000000  0.63621055  0.65592341  1
  Au  Au5  1  0.50000000  0.04120004  0.65592341  1
