# generated using pymatgen
data_LiMg
_symmetry_space_group_name_H-M   'P 1'
_cell_length_a   4.91262477
_cell_length_b   3.34024935
_cell_length_c   4.93395895
_cell_angle_alpha   90.00000000
_cell_angle_beta   90.00000000
_cell_angle_gamma   90.00000000
_symmetry_Int_Tables_number   1
_chemical_formula_structural   LiMg
_chemical_formula_sum   'Li2 Mg2'
_cell_volume   80.96326502
_cell_formula_units_Z   2
loop_
 _symmetry_equiv_pos_site_id
 _symmetry_equiv_pos_as_xyz
  1  'x, y, z'
loop_
 _atom_site_type_symbol
 _atom_site_label
 _atom_site_symmetry_multiplicity
 _atom_site_fract_x
 _atom_site_fract_y
 _atom_site_fract_z
 _atom_site_occupancy
  Li  Li0  1  0.24999900  -0.00000000  0.24288237  1
  Li  Li1  1  0.74999900  -0.00000000  0.75711663  1
  Mg  Mg2  1  0.74999900  0.50000200  0.25612641  1
  Mg  Mg3  1  0.24999900  0.50000200  0.74387259  1
