# generated using pymatgen
data_Sr4Nb2O9
_symmetry_space_group_name_H-M   'P 1'
_cell_length_a   5.96043156
_cell_length_b   15.81185843
_cell_length_c   5.93270826
_cell_angle_alpha   90.02231085
_cell_angle_beta   119.79588019
_cell_angle_gamma   89.99844213
_symmetry_Int_Tables_number   1
_chemical_formula_structural   Sr4Nb2O9
_chemical_formula_sum   'Sr8 Nb4 O18'
_cell_volume   485.21454850
_cell_formula_units_Z   2
loop_
 _symmetry_equiv_pos_site_id
 _symmetry_equiv_pos_as_xyz
  1  'x, y, z'
loop_
 _atom_site_type_symbol
 _atom_site_label
 _atom_site_symmetry_multiplicity
 _atom_site_fract_x
 _atom_site_fract_y
 _atom_site_fract_z
 _atom_site_occupancy
  Sr  Sr0  1  0.64085343  0.13305915  0.33673525  1
  Sr  Sr1  1  0.35914680  0.86693768  0.66326655  1
  Sr  Sr2  1  0.99116325  0.25243045  0.00371040  1
  Sr  Sr3  1  0.00882790  0.74756468  0.99629098  1
  Sr  Sr4  1  -0.00000004  0.00000091  0.99999772  1
  Sr  Sr5  1  0.99999894  0.50000020  -0.00000098  1
  Sr  Sr6  1  0.33965529  0.64346722  0.66583890  1
  Sr  Sr7  1  0.66034827  0.35653600  0.33416815  1
  Nb  Nb8  1  0.32444660  0.34363910  0.66874161  1
  Nb  Nb9  1  0.67555312  0.65636405  0.33125731  1
  Nb  Nb10  1  0.69433453  0.84910547  0.33693143  1
  Nb  Nb11  1  0.30567226  0.15089195  0.66306253  1
  O  O12  1  0.92756425  0.60534879  0.65239040  1
  O  O13  1  0.07244586  0.39464799  0.34761712  1
  O  O14  1  0.73802977  0.60508880  0.07621247  1
  O  O15  1  0.26196913  0.39491331  0.92379283  1
  O  O16  1  0.36237277  0.60328305  0.27254118  1
  O  O17  1  0.63762281  0.39671558  0.72745721  1
  O  O18  1  0.54409625  0.24764306  0.96021594  1
  O  O19  1  0.45589414  0.75235743  0.03977565  1
  O  O20  1  0.39376515  0.24379823  0.44936619  1
  O  O21  1  0.60623540  0.75620105  0.55062635  1
  O  O22  1  0.01583805  0.25044361  0.58832179  1
  O  O23  1  0.98415500  0.74955701  0.41167217  1
  O  O24  1  0.04677887  0.09793312  0.35374294  1
  O  O25  1  0.95323015  0.90207095  0.64626124  1
  O  O26  1  0.23212919  0.11221139  0.92633634  1
  O  O27  1  0.76786885  0.88778557  0.07366060  1
  O  O28  1  0.59902374  0.08614887  0.72236713  1
  O  O29  1  0.40098326  0.91385433  0.27763458  1
