# generated using pymatgen
data_Pr3Ni13B2
_symmetry_space_group_name_H-M   'P 1'
_cell_length_a   5.04814347
_cell_length_b   5.04627868
_cell_length_c   10.95981457
_cell_angle_alpha   89.99972953
_cell_angle_beta   90.00054066
_cell_angle_gamma   120.01223539
_symmetry_Int_Tables_number   1
_chemical_formula_structural   Pr3Ni13B2
_chemical_formula_sum   'Pr3 Ni13 B2'
_cell_volume   241.75930572
_cell_formula_units_Z   1
loop_
 _symmetry_equiv_pos_site_id
 _symmetry_equiv_pos_as_xyz
  1  'x, y, z'
loop_
 _atom_site_type_symbol
 _atom_site_label
 _atom_site_symmetry_multiplicity
 _atom_site_fract_x
 _atom_site_fract_y
 _atom_site_fract_z
 _atom_site_occupancy
  Pr  Pr0  1  0.99998481  -0.00000000  -0.00005808  1
  Pr  Pr1  1  0.99997426  0.00000000  0.32957128  1
  Pr  Pr2  1  0.00000867  1.00000000  0.67048854  1
  Ni  Ni3  1  0.50000234  0.00000000  0.50001024  1
  Ni  Ni4  1  0.50000196  0.50000114  0.50000320  1
  Ni  Ni5  1  0.00000082  0.49999886  0.50000320  1
  Ni  Ni6  1  0.33331886  0.66666261  0.31900507  1
  Ni  Ni7  1  0.66665625  0.33333739  0.31900507  1
  Ni  Ni8  1  0.66668946  0.33335664  0.68099513  1
  Ni  Ni9  1  0.33333282  0.66664336  0.68099513  1
  Ni  Ni10  1  0.49998819  1.00000000  0.13313999  1
  Ni  Ni11  1  0.49998908  0.49999925  0.13312934  1
  Ni  Ni12  1  -0.00001017  0.50000075  0.13312934  1
  Ni  Ni13  1  0.49999164  1.00000000  0.86685721  1
  Ni  Ni14  1  0.49999236  0.49999938  0.86685597  1
  Ni  Ni15  1  -0.00000702  0.50000062  0.86685597  1
  B  B16  1  0.33330530  0.66662495  0.00000670  1
  B  B17  1  0.66668036  0.33337505  0.00000670  1
