# generated using pymatgen
data_Ho3Co11B4
_symmetry_space_group_name_H-M   'P 1'
_cell_length_a   5.03443587
_cell_length_b   5.03694573
_cell_length_c   9.77995810
_cell_angle_alpha   89.99988799
_cell_angle_beta   90.00022412
_cell_angle_gamma   119.98352148
_symmetry_Int_Tables_number   1
_chemical_formula_structural   Ho3Co11B4
_chemical_formula_sum   'Ho3 Co11 B4'
_cell_volume   214.81163480
_cell_formula_units_Z   1
loop_
 _symmetry_equiv_pos_site_id
 _symmetry_equiv_pos_as_xyz
  1  'x, y, z'
loop_
 _atom_site_type_symbol
 _atom_site_label
 _atom_site_symmetry_multiplicity
 _atom_site_fract_x
 _atom_site_fract_y
 _atom_site_fract_z
 _atom_site_occupancy
  Ho  Ho0  1  0.99998163  1.00000000  0.99997471  1
  Ho  Ho1  1  0.99999554  1.00000000  0.34177640  1
  Ho  Ho2  1  0.00000432  0.00000000  0.65827396  1
  Co  Co3  1  0.33329322  0.66664164  0.99989433  1
  Co  Co4  1  0.66665158  0.33335836  0.99989433  1
  Co  Co5  1  0.49999978  0.00000000  0.50001746  1
  Co  Co6  1  0.50000041  0.49999938  0.50004606  1
  Co  Co7  1  0.00000103  0.50000062  0.50004606  1
  Co  Co8  1  0.49999799  0.00000000  0.20248691  1
  Co  Co9  1  0.49999136  0.50000615  0.20247843  1
  Co  Co10  1  0.99998521  0.49999385  0.20247843  1
  Co  Co11  1  0.50000182  -0.00000000  0.79753084  1
  Co  Co12  1  0.50000488  0.49999714  0.79754759  1
  Co  Co13  1  0.00000774  0.50000286  0.79754759  1
  B  B14  1  0.33328944  0.66661025  0.34970591  1
  B  B15  1  0.66667919  0.33338975  0.34970591  1
  B  B16  1  0.66671557  0.33341626  0.65029752  1
  B  B17  1  0.33329931  0.66658374  0.65029752  1
