# generated using pymatgen
data_Nd2AlGe6
_symmetry_space_group_name_H-M   'P 1'
_cell_length_a   6.07735963
_cell_length_b   6.07735963
_cell_length_c   10.71426086
_cell_angle_alpha   97.96210347
_cell_angle_beta   97.96210347
_cell_angle_gamma   92.43706703
_symmetry_Int_Tables_number   1
_chemical_formula_structural   Nd2AlGe6
_chemical_formula_sum   'Nd4 Al2 Ge12'
_cell_volume   387.36190442
_cell_formula_units_Z   2
loop_
 _symmetry_equiv_pos_site_id
 _symmetry_equiv_pos_as_xyz
  1  'x, y, z'
loop_
 _atom_site_type_symbol
 _atom_site_label
 _atom_site_symmetry_multiplicity
 _atom_site_fract_x
 _atom_site_fract_y
 _atom_site_fract_z
 _atom_site_occupancy
  Nd  Nd0  1  0.83785956  0.33407564  0.33770422  1
  Nd  Nd1  1  0.33407564  0.83785956  0.33770422  1
  Nd  Nd2  1  0.16214044  0.66592436  0.66229578  1
  Nd  Nd3  1  0.66592436  0.16214044  0.66229578  1
  Al  Al4  1  0.79961494  0.79961494  0.19547876  1
  Al  Al5  1  0.20038506  0.20038506  0.80452124  1
  Ge  Ge6  1  0.14682201  0.14682201  0.56300624  1
  Ge  Ge7  1  0.85317799  0.85317799  0.43699376  1
  Ge  Ge8  1  0.36058864  0.36058864  0.41782944  1
  Ge  Ge9  1  0.63941136  0.63941136  0.58217056  1
  Ge  Ge10  1  0.06564291  0.49281339  0.11525086  1
  Ge  Ge11  1  0.49281339  0.06564291  0.11525086  1
  Ge  Ge12  1  0.93435709  0.50718661  0.88474914  1
  Ge  Ge13  1  0.50718661  0.93435709  0.88474914  1
  Ge  Ge14  1  0.06916607  0.06916607  0.11495088  1
  Ge  Ge15  1  0.93083393  0.93083393  0.88504912  1
  Ge  Ge16  1  0.48887408  0.48887408  0.11519639  1
  Ge  Ge17  1  0.51112592  0.51112592  0.88480361  1
