# generated using pymatgen
data_La3Sn5
_symmetry_space_group_name_H-M   'P 1'
_cell_length_a   6.70867844
_cell_length_b   6.70867844
_cell_length_c   10.72305962
_cell_angle_alpha   90.00000000
_cell_angle_beta   90.00000000
_cell_angle_gamma   102.46769503
_symmetry_Int_Tables_number   1
_chemical_formula_structural   La3Sn5
_chemical_formula_sum   'La6 Sn10'
_cell_volume   471.22508234
_cell_formula_units_Z   2
loop_
 _symmetry_equiv_pos_site_id
 _symmetry_equiv_pos_as_xyz
  1  'x, y, z'
loop_
 _atom_site_type_symbol
 _atom_site_label
 _atom_site_symmetry_multiplicity
 _atom_site_fract_x
 _atom_site_fract_y
 _atom_site_fract_z
 _atom_site_occupancy
  La  La0  1  0.63614132  0.63614132  0.25000000  1
  La  La1  1  0.36385868  0.36385868  0.75000000  1
  La  La2  1  0.79786327  0.20213673  0.50000000  1
  La  La3  1  0.79786327  0.20213673  0.00000000  1
  La  La4  1  0.20213673  0.79786327  0.50000000  1
  La  La5  1  0.20213673  0.79786327  -0.00000000  1
  Sn  Sn6  1  0.02633902  0.02633902  0.25000000  1
  Sn  Sn7  1  0.97366098  0.97366098  0.75000000  1
  Sn  Sn8  1  0.31942685  0.31942685  0.04853737  1
  Sn  Sn9  1  0.68057315  0.68057315  0.95146263  1
  Sn  Sn10  1  0.31942685  0.31942685  0.45146263  1
  Sn  Sn11  1  0.68057315  0.68057315  0.54853737  1
  Sn  Sn12  1  0.07608473  0.49390602  0.25000000  1
  Sn  Sn13  1  0.50609398  0.92391527  0.75000000  1
  Sn  Sn14  1  0.92391527  0.50609398  0.75000000  1
  Sn  Sn15  1  0.49390602  0.07608473  0.25000000  1
