# generated using pymatgen
data_Er3Ni13B2
_symmetry_space_group_name_H-M   'P 1'
_cell_length_a   4.90068247
_cell_length_b   4.92369575
_cell_length_c   10.90508639
_cell_angle_alpha   89.99835677
_cell_angle_beta   90.00330184
_cell_angle_gamma   119.84549645
_symmetry_Int_Tables_number   1
_chemical_formula_structural   Er3Ni13B2
_chemical_formula_sum   'Er3 Ni13 B2'
_cell_volume   228.23463799
_cell_formula_units_Z   1
loop_
 _symmetry_equiv_pos_site_id
 _symmetry_equiv_pos_as_xyz
  1  'x, y, z'
loop_
 _atom_site_type_symbol
 _atom_site_label
 _atom_site_symmetry_multiplicity
 _atom_site_fract_x
 _atom_site_fract_y
 _atom_site_fract_z
 _atom_site_occupancy
  Er  Er0  1  0.99999717  1.00000000  0.00031815  1
  Er  Er1  1  0.99998811  0.00000000  0.32931571  1
  Er  Er2  1  0.00000051  1.00000000  0.67035434  1
  Ni  Ni3  1  0.49999864  0.00000000  0.50001092  1
  Ni  Ni4  1  0.49999636  0.50000154  0.49998907  1
  Ni  Ni5  1  0.99999482  0.49999846  0.49998907  1
  Ni  Ni6  1  0.33338686  0.66680107  0.31925777  1
  Ni  Ni7  1  0.66658579  0.33319893  0.31925777  1
  Ni  Ni8  1  0.66661780  0.33322094  0.68037839  1
  Ni  Ni9  1  0.33339686  0.66677906  0.68037839  1
  Ni  Ni10  1  0.49998906  0.00000000  0.13390815  1
  Ni  Ni11  1  0.49999301  0.49999426  0.13410825  1
  Ni  Ni12  1  0.99999875  0.50000574  0.13410825  1
  Ni  Ni13  1  0.49998612  0.00000000  0.86635142  1
  Ni  Ni14  1  0.49999380  0.50000095  0.86611637  1
  Ni  Ni15  1  0.99999285  0.49999905  0.86611637  1
  B  B16  1  0.33334432  0.66670516  0.00002080  1
  B  B17  1  0.66663916  0.33329484  0.00002080  1
