# generated using pymatgen
data_Ho2ZnTe2(SO7)2
_symmetry_space_group_name_H-M   'P 1'
_cell_length_a   5.28201908
_cell_length_b   7.89648358
_cell_length_c   8.15476102
_cell_angle_alpha   63.94117857
_cell_angle_beta   73.37697746
_cell_angle_gamma   85.28893149
_symmetry_Int_Tables_number   1
_chemical_formula_structural   Ho2ZnTe2(SO7)2
_chemical_formula_sum   'Ho2 Zn1 Te2 S2 O14'
_cell_volume   292.40904069
_cell_formula_units_Z   1
loop_
 _symmetry_equiv_pos_site_id
 _symmetry_equiv_pos_as_xyz
  1  'x, y, z'
loop_
 _atom_site_type_symbol
 _atom_site_label
 _atom_site_symmetry_multiplicity
 _atom_site_fract_x
 _atom_site_fract_y
 _atom_site_fract_z
 _atom_site_occupancy
  Ho  Ho0  1  0.91931514  0.74671368  0.98420913  1
  Ho  Ho1  1  0.08068486  0.25328632  0.01579087  1
  Zn  Zn2  1  0.00000000  -0.00000000  0.50000000  1
  Te  Te3  1  0.48461080  0.72676230  0.66294552  1
  Te  Te4  1  0.51538920  0.27323770  0.33705448  1
  S  S5  1  0.24045817  0.75416033  0.24936247  1
  S  S6  1  0.75954183  0.24583967  0.75063753  1
  O  O7  1  0.11130208  0.59272531  0.25089345  1
  O  O8  1  0.88869792  0.40727469  0.74910655  1
  O  O9  1  0.13208384  0.76846829  0.43143786  1
  O  O10  1  0.86791616  0.23153171  0.56856214  1
  O  O11  1  0.53036556  0.73257129  0.21603980  1
  O  O12  1  0.46963444  0.26742871  0.78396020  1
  O  O13  1  0.17771956  0.92521066  0.08796169  1
  O  O14  1  0.82228044  0.07478934  0.91203831  1
  O  O15  1  0.24658850  0.56017635  0.89569319  1
  O  O16  1  0.75341150  0.43982365  0.10430681  1
  O  O17  1  0.72398201  0.80520894  0.75426286  1
  O  O18  1  0.27601799  0.19479106  0.24573714  1
  O  O19  1  0.24857260  0.92375840  0.66862611  1
  O  O20  1  0.75142740  0.07624160  0.33137389  1
