# generated using pymatgen
data_Zn3As2(H2O3)4
_symmetry_space_group_name_H-M   'P 1'
_cell_length_a   5.49713761
_cell_length_b   6.07600165
_cell_length_c   7.71482195
_cell_angle_alpha   91.89575768
_cell_angle_beta   95.75818848
_cell_angle_gamma   91.10845104
_symmetry_Int_Tables_number   1
_chemical_formula_structural   Zn3As2(H2O3)4
_chemical_formula_sum   'Zn3 As2 H8 O12'
_cell_volume   256.17272641
_cell_formula_units_Z   1
loop_
 _symmetry_equiv_pos_site_id
 _symmetry_equiv_pos_as_xyz
  1  'x, y, z'
loop_
 _atom_site_type_symbol
 _atom_site_label
 _atom_site_symmetry_multiplicity
 _atom_site_fract_x
 _atom_site_fract_y
 _atom_site_fract_z
 _atom_site_occupancy
  Zn  Zn0  1  0.50000000  -0.00000000  0.50000000  1
  Zn  Zn1  1  0.80888086  0.24111665  0.89643620  1
  Zn  Zn2  1  0.19111914  0.75888335  0.10356380  1
  As  As3  1  0.33674213  0.26002699  0.12883287  1
  As  As4  1  0.66325787  0.73997301  0.87116713  1
  H  H5  1  0.24907028  0.21340007  0.72841858  1
  H  H6  1  0.75092972  0.78659993  0.27158142  1
  H  H7  1  0.09822283  0.22587169  0.54069555  1
  H  H8  1  0.90177717  0.77412831  0.45930445  1
  H  H9  1  0.75043358  0.40749677  0.52770608  1
  H  H10  1  0.24956642  0.59250323  0.47229392  1
  H  H11  1  0.77098055  0.31047100  0.33407252  1
  H  H12  1  0.22901945  0.68952900  0.66592748  1
  O  O13  1  0.22573637  0.48124175  0.23753352  1
  O  O14  1  0.77426363  0.51875825  0.76246648  1
  O  O15  1  0.64208753  0.30301362  0.10679893  1
  O  O16  1  0.35791247  0.69698638  0.89320107  1
  O  O17  1  0.31096476  0.02520043  0.25177592  1
  O  O18  1  0.68903524  0.97479957  0.74822408  1
  O  O19  1  0.16778289  0.19631868  0.93278963  1
  O  O20  1  0.83221711  0.80368132  0.06721037  1
  O  O21  1  0.26732912  0.22396079  0.60089026  1
  O  O22  1  0.73267088  0.77603921  0.39910974  1
  O  O23  1  0.78392552  0.27213331  0.45922626  1
  O  O24  1  0.21607448  0.72786669  0.54077374  1
