# generated using pymatgen
data_Eu5CdCu2
_symmetry_space_group_name_H-M   'P 1'
_cell_length_a   8.12387408
_cell_length_b   8.12387408
_cell_length_c   9.40255667
_cell_angle_alpha   115.59476875
_cell_angle_beta   115.59476875
_cell_angle_gamma   90.00000000
_symmetry_Int_Tables_number   1
_chemical_formula_structural   Eu5CdCu2
_chemical_formula_sum   'Eu10 Cd2 Cu4'
_cell_volume   491.26763163
_cell_formula_units_Z   2
loop_
 _symmetry_equiv_pos_site_id
 _symmetry_equiv_pos_as_xyz
  1  'x, y, z'
loop_
 _atom_site_type_symbol
 _atom_site_label
 _atom_site_symmetry_multiplicity
 _atom_site_fract_x
 _atom_site_fract_y
 _atom_site_fract_z
 _atom_site_occupancy
  Eu  Eu0  1  0.50000000  0.50000000  0.00000000  1
  Eu  Eu1  1  0.00000000  0.00000000  0.00000000  1
  Eu  Eu2  1  0.02669892  0.52669892  0.71999387  1
  Eu  Eu3  1  0.69329494  0.19329494  0.71999387  1
  Eu  Eu4  1  0.19329494  0.02669892  0.71999387  1
  Eu  Eu5  1  0.52669892  0.69329494  0.71999387  1
  Eu  Eu6  1  0.97330108  0.47330108  0.28000613  1
  Eu  Eu7  1  0.30670506  0.80670506  0.28000613  1
  Eu  Eu8  1  0.80670506  0.97330108  0.28000613  1
  Eu  Eu9  1  0.47330108  0.30670506  0.28000613  1
  Cd  Cd10  1  0.25000000  0.25000000  0.50000000  1
  Cd  Cd11  1  0.75000000  0.75000000  0.50000000  1
  Cu  Cu12  1  0.61501854  0.11501854  1.00000000  1
  Cu  Cu13  1  0.38498146  0.88498146  0.00000000  1
  Cu  Cu14  1  0.88498146  0.61501854  0.00000000  1
  Cu  Cu15  1  0.11501854  0.38498146  0.00000000  1
