# generated using pymatgen
data_LiH2N
_symmetry_space_group_name_H-M   'P 1'
_cell_length_a   4.86517071
_cell_length_b   4.86517071
_cell_length_c   6.36415195
_cell_angle_alpha   112.27563434
_cell_angle_beta   112.27563434
_cell_angle_gamma   90.47514745
_symmetry_Int_Tables_number   1
_chemical_formula_structural   LiH2N
_chemical_formula_sum   'Li4 H8 N4'
_cell_volume   126.94575738
_cell_formula_units_Z   4
loop_
 _symmetry_equiv_pos_site_id
 _symmetry_equiv_pos_as_xyz
  1  'x, y, z'
loop_
 _atom_site_type_symbol
 _atom_site_label
 _atom_site_symmetry_multiplicity
 _atom_site_fract_x
 _atom_site_fract_y
 _atom_site_fract_z
 _atom_site_occupancy
  Li  Li0  1  0.99253077  0.74253077  0.48506155  1
  Li  Li1  1  0.75746923  0.50746923  0.01493845  1
  Li  Li2  1  0.00746923  0.25746923  0.51493845  1
  Li  Li3  1  0.24253077  0.49253077  0.98506155  1
  H  H4  1  0.59892646  0.01485523  0.16844799  1
  H  H5  1  0.06952153  0.15359275  0.16844799  1
  H  H6  1  0.34640725  0.43047847  0.33155201  1
  H  H7  1  0.48514477  0.90107354  0.33155201  1
  H  H8  1  0.40107354  0.98514477  0.83155201  1
  H  H9  1  0.93047847  0.84640725  0.83155201  1
  H  H10  1  0.65359275  0.56952153  0.66844799  1
  H  H11  1  0.51485523  0.09892646  0.66844799  1
  N  N12  1  0.63552362  0.86447638  0.25000000  1
  N  N13  1  0.11447638  0.38552362  0.25000000  1
  N  N14  1  0.36447638  0.13552362  0.75000000  1
  N  N15  1  0.88552362  0.61447638  0.75000000  1
