# generated using pymatgen
data_CsCoO2
_symmetry_space_group_name_H-M   'P 1'
_cell_length_a   6.23959776
_cell_length_b   7.02714114
_cell_length_c   8.33028336
_cell_angle_alpha   90.00000000
_cell_angle_beta   90.00000000
_cell_angle_gamma   116.35708303
_symmetry_Int_Tables_number   1
_chemical_formula_structural   CsCoO2
_chemical_formula_sum   'Cs4 Co4 O8'
_cell_volume   327.28390739
_cell_formula_units_Z   4
loop_
 _symmetry_equiv_pos_site_id
 _symmetry_equiv_pos_as_xyz
  1  'x, y, z'
loop_
 _atom_site_type_symbol
 _atom_site_label
 _atom_site_symmetry_multiplicity
 _atom_site_fract_x
 _atom_site_fract_y
 _atom_site_fract_z
 _atom_site_occupancy
  Cs  Cs0  1  0.16134582  0.32269163  0.56938653  1
  Cs  Cs1  1  0.83865418  0.67730837  0.43061347  1
  Cs  Cs2  1  0.33865418  0.67730837  0.06938653  1
  Cs  Cs3  1  0.66134582  0.32269163  0.93061347  1
  Co  Co4  1  0.45265736  0.90531472  0.64710225  1
  Co  Co5  1  0.54734264  0.09468528  0.35289775  1
  Co  Co6  1  0.04734264  0.09468528  0.14710225  1
  Co  Co7  1  0.95265736  0.90531472  0.85289775  1
  O  O8  1  0.09670806  0.19341612  0.92678821  1
  O  O9  1  0.90329194  0.80658388  0.07321179  1
  O  O10  1  0.40329194  0.80658388  0.42678821  1
  O  O11  1  0.59670806  0.19341612  0.57321179  1
  O  O12  1  0.16496118  0.82992237  0.75000000  1
  O  O13  1  0.33503882  0.17007763  0.25000000  1
  O  O14  1  0.83503882  0.17007763  0.25000000  1
  O  O15  1  0.66496118  0.82992237  0.75000000  1
