# generated using pymatgen
data_Ba2DyInTe5
_symmetry_space_group_name_H-M   'P 1'
_cell_length_a   4.59045401
_cell_length_b   10.50248659
_cell_length_c   14.39944862
_cell_angle_alpha   90.00000000
_cell_angle_beta   90.00000000
_cell_angle_gamma   102.62337061
_symmetry_Int_Tables_number   1
_chemical_formula_structural   Ba2DyInTe5
_chemical_formula_sum   'Ba4 Dy2 In2 Te10'
_cell_volume   677.43367509
_cell_formula_units_Z   2
loop_
 _symmetry_equiv_pos_site_id
 _symmetry_equiv_pos_as_xyz
  1  'x, y, z'
loop_
 _atom_site_type_symbol
 _atom_site_label
 _atom_site_symmetry_multiplicity
 _atom_site_fract_x
 _atom_site_fract_y
 _atom_site_fract_z
 _atom_site_occupancy
  Ba  Ba0  1  0.13045378  0.26090756  0.18424652  1
  Ba  Ba1  1  0.86954622  0.73909244  0.68424652  1
  Ba  Ba2  1  0.11926800  0.23853601  0.81799837  1
  Ba  Ba3  1  0.88073200  0.76146399  0.31799837  1
  Dy  Dy4  1  0.20951699  0.41903397  0.48169799  1
  Dy  Dy5  1  0.79048301  0.58096603  0.98169799  1
  In  In6  1  0.44369321  0.88738643  0.06555195  1
  In  In7  1  0.55630679  0.11261357  0.56555195  1
  Te  Te8  1  0.35561656  0.71123313  0.49876315  1
  Te  Te9  1  0.64438344  0.28876687  0.99876315  1
  Te  Te10  1  0.29212828  0.58425656  0.83949448  1
  Te  Te11  1  0.70787172  0.41574344  0.33949448  1
  Te  Te12  1  0.31003587  0.62007173  0.13393163  1
  Te  Te13  1  0.68996413  0.37992827  0.63393163  1
  Te  Te14  1  0.50411745  0.00823489  0.23790193  1
  Te  Te15  1  0.49588255  0.99176511  0.73790193  1
  Te  Te16  1  0.04993461  0.09986923  0.44858399  1
  Te  Te17  1  0.95006539  0.90013077  0.94858399  1
