# generated using pymatgen
data_LiFe6Ge5
_symmetry_space_group_name_H-M   'P 1'
_cell_length_a   5.00668209
_cell_length_b   4.99832594
_cell_length_c   14.72550463
_cell_angle_alpha   80.22174014
_cell_angle_beta   80.21216016
_cell_angle_gamma   59.94468214
_symmetry_Int_Tables_number   1
_chemical_formula_structural   LiFe6Ge5
_chemical_formula_sum   'Li2 Fe12 Ge10'
_cell_volume   312.76158190
_cell_formula_units_Z   2
loop_
 _symmetry_equiv_pos_site_id
 _symmetry_equiv_pos_as_xyz
  1  'x, y, z'
loop_
 _atom_site_type_symbol
 _atom_site_label
 _atom_site_symmetry_multiplicity
 _atom_site_fract_x
 _atom_site_fract_y
 _atom_site_fract_z
 _atom_site_occupancy
  Li  Li0  1  0.09129063  0.08040648  0.73701226  1
  Li  Li1  1  0.90870937  0.91959352  0.26298774  1
  Fe  Fe2  1  0.04619696  0.54546710  0.86185038  1
  Fe  Fe3  1  0.54648556  0.54546710  0.86185038  1
  Fe  Fe4  1  0.95380304  0.45453290  0.13814962  1
  Fe  Fe5  1  0.45351444  0.45453290  0.13814962  1
  Fe  Fe6  1  0.14405697  0.63859831  0.58292050  1
  Fe  Fe7  1  0.63442423  0.63859831  0.58292050  1
  Fe  Fe8  1  0.85594303  0.36140169  0.41707950  1
  Fe  Fe9  1  0.36557577  0.36140169  0.41707950  1
  Fe  Fe10  1  0.36531013  0.85139053  0.41798922  1
  Fe  Fe11  1  0.63468987  0.14860947  0.58201078  1
  Fe  Fe12  1  0.45317575  0.95530454  0.13834396  1
  Fe  Fe13  1  0.54682425  0.04469546  0.86165604  1
  Ge  Ge14  1  0.33354850  0.33303625  0.99986674  1
  Ge  Ge15  1  0.66645150  0.66696375  0.00013326  1
  Ge  Ge16  1  0.02884647  0.03040838  0.91189869  1
  Ge  Ge17  1  0.97115353  0.96959162  0.08810131  1
  Ge  Ge18  1  0.42552277  0.42494195  0.72401250  1
  Ge  Ge19  1  0.57447723  0.57505805  0.27598750  1
  Ge  Ge20  1  0.14638282  0.14982386  0.55741051  1
  Ge  Ge21  1  0.85361718  0.85017614  0.44258949  1
  Ge  Ge22  1  0.24102999  0.24077995  0.27716006  1
  Ge  Ge23  1  0.75897001  0.75922005  0.72283994  1
