# generated using pymatgen
data_BaNdInO4
_symmetry_space_group_name_H-M   'P 1'
_cell_length_a   6.12815484
_cell_length_b   8.36845572
_cell_length_c   9.23681614
_cell_angle_alpha   103.39821821
_cell_angle_beta   90.00000000
_cell_angle_gamma   90.00000000
_symmetry_Int_Tables_number   1
_chemical_formula_structural   BaNdInO4
_chemical_formula_sum   'Ba4 Nd4 In4 O16'
_cell_volume   460.80094587
_cell_formula_units_Z   4
loop_
 _symmetry_equiv_pos_site_id
 _symmetry_equiv_pos_as_xyz
  1  'x, y, z'
loop_
 _atom_site_type_symbol
 _atom_site_label
 _atom_site_symmetry_multiplicity
 _atom_site_fract_x
 _atom_site_fract_y
 _atom_site_fract_z
 _atom_site_occupancy
  Ba  Ba0  1  0.24834560  0.53120281  0.14657035  1
  Ba  Ba1  1  0.74834560  0.96879719  0.85342965  1
  Ba  Ba2  1  0.75165440  0.46879719  0.85342965  1
  Ba  Ba3  1  0.25165440  0.03120281  0.14657035  1
  Nd  Nd4  1  0.75400248  0.60676306  0.45273060  1
  Nd  Nd5  1  0.25400248  0.89323694  0.54726940  1
  Nd  Nd6  1  0.24599752  0.39323694  0.54726940  1
  Nd  Nd7  1  0.74599752  0.10676306  0.45273060  1
  In  In8  1  0.24430946  0.70650300  0.83097084  1
  In  In9  1  0.74430946  0.79349700  0.16902916  1
  In  In10  1  0.75569054  0.29349700  0.16902916  1
  In  In11  1  0.25569054  0.20650300  0.83097084  1
  O  O12  1  0.69476380  0.54747258  0.18405596  1
  O  O13  1  0.19476380  0.95252742  0.81594404  1
  O  O14  1  0.30523620  0.45252742  0.81594404  1
  O  O15  1  0.80523620  0.04747258  0.18405596  1
  O  O16  1  0.51112214  0.77151704  0.98774697  1
  O  O17  1  0.01112214  0.72848296  0.01225303  1
  O  O18  1  0.48887786  0.22848296  0.01225303  1
  O  O19  1  0.98887786  0.27151704  0.98774697  1
  O  O20  1  0.95616662  0.83004720  0.38777154  1
  O  O21  1  0.45616662  0.66995280  0.61222846  1
  O  O22  1  0.04383338  0.16995280  0.61222846  1
  O  O23  1  0.54383338  0.33004720  0.38777154  1
  O  O24  1  0.99387071  0.62595116  0.64772410  1
  O  O25  1  0.49387071  0.87404884  0.35227590  1
  O  O26  1  0.00612929  0.37404884  0.35227590  1
  O  O27  1  0.50612929  0.12595116  0.64772410  1
