# generated using pymatgen
data_Li2In2SiS6
_symmetry_space_group_name_H-M   'P 1'
_cell_length_a   7.08347417
_cell_length_b   7.08347417
_cell_length_c   12.19230841
_cell_angle_alpha   90.57248344
_cell_angle_beta   106.51139511
_cell_angle_gamma   119.57862477
_symmetry_Int_Tables_number   1
_chemical_formula_structural   Li2In2SiS6
_chemical_formula_sum   'Li4 In4 Si2 S12'
_cell_volume   501.73933043
_cell_formula_units_Z   2
loop_
 _symmetry_equiv_pos_site_id
 _symmetry_equiv_pos_as_xyz
  1  'x, y, z'
loop_
 _atom_site_type_symbol
 _atom_site_label
 _atom_site_symmetry_multiplicity
 _atom_site_fract_x
 _atom_site_fract_y
 _atom_site_fract_z
 _atom_site_occupancy
  Li  Li0  1  0.14255311  0.40232964  0.15765938  1
  Li  Li1  1  0.25532975  0.01510627  0.65765938  1
  Li  Li2  1  0.90537383  0.39953791  0.50289039  1
  Li  Li3  1  0.60335248  0.59751656  0.00289039  1
  In  In4  1  0.88782346  0.11911897  0.81185895  1
  In  In5  1  0.19273997  0.92403549  0.31185895  1
  In  In6  1  0.59449437  0.77226623  0.50694732  1
  In  In7  1  0.23468109  0.91245295  0.00694732  1
  Si  Si8  1  0.74588568  0.54240571  0.75232869  1
  Si  Si9  1  0.70992299  0.00644301  0.25232869  1
  S  S10  1  0.22433467  0.26100279  0.99462105  1
  S  S11  1  0.23361825  0.77028638  0.49462105  1
  S  S12  1  0.99684069  0.66584383  0.12110661  1
  S  S13  1  0.95526278  0.12426593  0.62110661  1
  S  S14  1  0.60435702  0.71523389  0.80698523  1
  S  S15  1  0.59175133  0.20262821  0.30698523  1
  S  S16  1  0.11048464  0.71934914  0.80171417  1
  S  S17  1  0.58236503  0.69122952  0.30171417  1
  S  S18  1  0.62353920  0.25052352  0.82733145  1
  S  S19  1  0.07680793  0.20379225  0.32733145  1
  S  S20  1  0.60687043  0.43992048  0.56757776  1
  S  S21  1  0.62765728  0.96070732  0.06757776  1
