# generated using pymatgen
data_RbPPbS4
_symmetry_space_group_name_H-M   'P 1'
_cell_length_a   6.51319811
_cell_length_b   6.80138796
_cell_length_c   17.65903885
_cell_angle_alpha   90.00000000
_cell_angle_beta   90.00000000
_cell_angle_gamma   90.00000000
_symmetry_Int_Tables_number   1
_chemical_formula_structural   RbPPbS4
_chemical_formula_sum   'Rb4 P4 Pb4 S16'
_cell_volume   782.27400429
_cell_formula_units_Z   4
loop_
 _symmetry_equiv_pos_site_id
 _symmetry_equiv_pos_as_xyz
  1  'x, y, z'
loop_
 _atom_site_type_symbol
 _atom_site_label
 _atom_site_symmetry_multiplicity
 _atom_site_fract_x
 _atom_site_fract_y
 _atom_site_fract_z
 _atom_site_occupancy
  Rb  Rb0  1  0.96991042  0.75000000  0.20593194  1
  Rb  Rb1  1  0.53008958  0.75000000  0.70593194  1
  Rb  Rb2  1  0.03008958  0.25000000  0.79406806  1
  Rb  Rb3  1  0.46991042  0.25000000  0.29406806  1
  P  P4  1  0.71841077  0.75000000  0.40266807  1
  P  P5  1  0.78158923  0.75000000  0.90266807  1
  P  P6  1  0.28158923  0.25000000  0.59733193  1
  P  P7  1  0.21841077  0.25000000  0.09733193  1
  Pb  Pb8  1  0.21167428  0.75000000  0.48161470  1
  Pb  Pb9  1  0.28832572  0.75000000  0.98161470  1
  Pb  Pb10  1  0.78832572  0.25000000  0.51838530  1
  Pb  Pb11  1  0.71167428  0.25000000  0.01838530  1
  S  S12  1  0.45514106  0.75000000  0.33993921  1
  S  S13  1  0.04485894  0.75000000  0.83993921  1
  S  S14  1  0.54485894  0.25000000  0.66006079  1
  S  S15  1  0.95514106  0.25000000  0.16006079  1
  S  S16  1  0.65387469  0.75000000  0.51731431  1
  S  S17  1  0.84612531  0.75000000  0.01731431  1
  S  S18  1  0.34612531  0.25000000  0.48268569  1
  S  S19  1  0.15387469  0.25000000  0.98268569  1
  S  S20  1  0.89322752  0.99296864  0.37917118  1
  S  S21  1  0.60677248  0.50703136  0.87917118  1
  S  S22  1  0.10677248  0.49296864  0.62082882  1
  S  S23  1  0.39322752  0.00703136  0.12082882  1
  S  S24  1  0.10677248  0.00703136  0.62082882  1
  S  S25  1  0.39322752  0.49296864  0.12082882  1
  S  S26  1  0.89322752  0.50703136  0.37917118  1
  S  S27  1  0.60677248  0.99296864  0.87917118  1
