# generated using pymatgen
data_KEr2Cu3Se5
_symmetry_space_group_name_H-M   'P 1'
_cell_length_a   4.11112515
_cell_length_b   7.49408433
_cell_length_c   17.02042146
_cell_angle_alpha   90.00000000
_cell_angle_beta   90.00000000
_cell_angle_gamma   105.91979227
_symmetry_Int_Tables_number   1
_chemical_formula_structural   KEr2Cu3Se5
_chemical_formula_sum   'K2 Er4 Cu6 Se10'
_cell_volume   504.27227445
_cell_formula_units_Z   2
loop_
 _symmetry_equiv_pos_site_id
 _symmetry_equiv_pos_as_xyz
  1  'x, y, z'
loop_
 _atom_site_type_symbol
 _atom_site_label
 _atom_site_symmetry_multiplicity
 _atom_site_fract_x
 _atom_site_fract_y
 _atom_site_fract_z
 _atom_site_occupancy
  K  K0  1  0.06222385  0.12444770  0.25000000  1
  K  K1  1  0.93777615  0.87555230  0.75000000  1
  Er  Er2  1  0.19218987  0.38437974  0.90688678  1
  Er  Er3  1  0.80781013  0.61562026  0.09311322  1
  Er  Er4  1  0.19218987  0.38437974  0.59311322  1
  Er  Er5  1  0.80781013  0.61562026  0.40688678  1
  Cu  Cu6  1  0.65960436  0.31920871  0.75000000  1
  Cu  Cu7  1  0.34039564  0.68079129  0.25000000  1
  Cu  Cu8  1  0.41632222  0.83264444  0.97009729  1
  Cu  Cu9  1  0.58367778  0.16735556  0.02990271  1
  Cu  Cu10  1  0.41632222  0.83264444  0.52990271  1
  Cu  Cu11  1  0.58367778  0.16735556  0.47009729  1
  Se  Se12  1  0.55986253  0.11972507  0.88163752  1
  Se  Se13  1  0.44013747  0.88027493  0.11836248  1
  Se  Se14  1  0.55986253  0.11972507  0.61836248  1
  Se  Se15  1  0.44013747  0.88027493  0.38163752  1
  Se  Se16  1  0.24912991  0.49825981  0.75000000  1
  Se  Se17  1  0.75087009  0.50174019  0.25000000  1
  Se  Se18  1  0.16597320  0.33194639  0.07048014  1
  Se  Se19  1  0.83402680  0.66805361  0.92951986  1
  Se  Se20  1  0.16597320  0.33194639  0.42951986  1
  Se  Se21  1  0.83402680  0.66805361  0.57048014  1
