# generated using pymatgen
data_YCo9Si4
_symmetry_space_group_name_H-M   'P 1'
_cell_length_a   7.71900762
_cell_length_b   7.71900762
_cell_length_c   7.90854024
_cell_angle_alpha   119.21034644
_cell_angle_beta   119.21034644
_cell_angle_gamma   90.00000000
_symmetry_Int_Tables_number   1
_chemical_formula_structural   YCo9Si4
_chemical_formula_sum   'Y2 Co18 Si8'
_cell_volume   340.99777236
_cell_formula_units_Z   2
loop_
 _symmetry_equiv_pos_site_id
 _symmetry_equiv_pos_as_xyz
  1  'x, y, z'
loop_
 _atom_site_type_symbol
 _atom_site_label
 _atom_site_symmetry_multiplicity
 _atom_site_fract_x
 _atom_site_fract_y
 _atom_site_fract_z
 _atom_site_occupancy
  Y  Y0  1  0.75000000  0.75000000  0.50000000  1
  Y  Y1  1  0.25000000  0.25000000  0.50000000  1
  Co  Co2  1  0.30155521  0.56947108  1.00000000  1
  Co  Co3  1  0.69844479  0.43052892  0.00000000  1
  Co  Co4  1  0.19844479  0.06947108  0.00000000  1
  Co  Co5  1  0.80155521  0.93052892  1.00000000  1
  Co  Co6  1  0.43052892  0.30155521  1.00000000  1
  Co  Co7  1  0.56947108  0.69844479  0.00000000  1
  Co  Co8  1  0.93052892  0.19844479  0.00000000  1
  Co  Co9  1  0.06947108  0.80155521  1.00000000  1
  Co  Co10  1  0.54993093  0.31111183  0.36104275  1
  Co  Co11  1  0.81111183  0.04993093  0.36104275  1
  Co  Co12  1  0.31111183  0.81111183  0.36104275  1
  Co  Co13  1  0.04993093  0.54993093  0.36104275  1
  Co  Co14  1  0.45006907  0.68888817  0.63895725  1
  Co  Co15  1  0.18888817  0.95006907  0.63895725  1
  Co  Co16  1  0.68888817  0.18888817  0.63895725  1
  Co  Co17  1  0.95006907  0.45006907  0.63895725  1
  Co  Co18  1  0.00000000  0.50000000  0.00000000  1
  Co  Co19  1  0.50000000  0.00000000  0.00000000  1
  Si  Si20  1  0.95390631  0.79168390  0.24559020  1
  Si  Si21  1  0.29168390  0.45390631  0.24559020  1
  Si  Si22  1  0.79168390  0.29168390  0.24559020  1
  Si  Si23  1  0.45390631  0.95390631  0.24559020  1
  Si  Si24  1  0.04609369  0.20831610  0.75440980  1
  Si  Si25  1  0.70831610  0.54609369  0.75440980  1
  Si  Si26  1  0.20831610  0.70831610  0.75440980  1
  Si  Si27  1  0.54609369  0.04609369  0.75440980  1
