# generated using pymatgen
data_Nd3(SnPd)5
_symmetry_space_group_name_H-M   'P 1'
_cell_length_a   4.60213023
_cell_length_b   9.06427283
_cell_length_c   14.51452828
_cell_angle_alpha   99.30614645
_cell_angle_beta   90.00000000
_cell_angle_gamma   104.70610294
_symmetry_Int_Tables_number   1
_chemical_formula_structural   Nd3(SnPd)5
_chemical_formula_sum   'Nd6 Sn10 Pd10'
_cell_volume   577.39546488
_cell_formula_units_Z   2
loop_
 _symmetry_equiv_pos_site_id
 _symmetry_equiv_pos_as_xyz
  1  'x, y, z'
loop_
 _atom_site_type_symbol
 _atom_site_label
 _atom_site_symmetry_multiplicity
 _atom_site_fract_x
 _atom_site_fract_y
 _atom_site_fract_z
 _atom_site_occupancy
  Nd  Nd0  1  0.36304121  0.72608241  0.62910694  1
  Nd  Nd1  1  0.63695879  0.27391759  0.37089306  1
  Nd  Nd2  1  0.39832692  0.79665383  0.28504974  1
  Nd  Nd3  1  0.60167308  0.20334617  0.71495026  1
  Nd  Nd4  1  0.63576028  0.27152056  0.08589772  1
  Nd  Nd5  1  0.36423972  0.72847944  0.91410228  1
  Sn  Sn6  1  0.03059146  0.06118291  0.21984982  1
  Sn  Sn7  1  0.96940854  0.93881709  0.78015018  1
  Sn  Sn8  1  0.14941846  0.29883693  0.55146006  1
  Sn  Sn9  1  0.85058154  0.70116307  0.44853994  1
  Sn  Sn10  1  0.20354802  0.40709604  0.23994301  1
  Sn  Sn11  1  0.79645198  0.59290396  0.76005699  1
  Sn  Sn12  1  0.84792099  0.69584197  0.09414432  1
  Sn  Sn13  1  0.15207901  0.30415803  0.90585568  1
  Sn  Sn14  1  0.50000000  -0.00000000  0.50000000  1
  Sn  Sn15  1  -0.00000000  -0.00000000  -0.00000000  1
  Pd  Pd16  1  0.46457355  0.92914710  0.11373216  1
  Pd  Pd17  1  0.53542645  0.07085290  0.88626784  1
  Pd  Pd18  1  0.21656352  0.43312704  0.74091287  1
  Pd  Pd19  1  0.78343648  0.56687296  0.25908713  1
  Pd  Pd20  1  0.26080939  0.52161878  0.43197105  1
  Pd  Pd21  1  0.73919061  0.47838122  0.56802895  1
  Pd  Pd22  1  0.26517863  0.53035726  0.07372453  1
  Pd  Pd23  1  0.73482137  0.46964274  0.92627547  1
  Pd  Pd24  1  0.00816401  0.01632802  0.40192618  1
  Pd  Pd25  1  0.99183599  0.98367198  0.59807382  1
