# generated using pymatgen
data_Ba2MgSi2O7
_symmetry_space_group_name_H-M   'P 1'
_cell_length_a   6.92010948
_cell_length_b   6.92010948
_cell_length_c   8.56508264
_cell_angle_alpha   102.62934834
_cell_angle_beta   102.62934834
_cell_angle_gamma   104.08451094
_symmetry_Int_Tables_number   1
_chemical_formula_structural   Ba2MgSi2O7
_chemical_formula_sum   'Ba4 Mg2 Si4 O14'
_cell_volume   371.84997141
_cell_formula_units_Z   2
loop_
 _symmetry_equiv_pos_site_id
 _symmetry_equiv_pos_as_xyz
  1  'x, y, z'
loop_
 _atom_site_type_symbol
 _atom_site_label
 _atom_site_symmetry_multiplicity
 _atom_site_fract_x
 _atom_site_fract_y
 _atom_site_fract_z
 _atom_site_occupancy
  Ba  Ba0  1  0.18411536  0.26942648  0.47525087  1
  Ba  Ba1  1  0.73057352  0.81588464  0.02474913  1
  Ba  Ba2  1  0.81588464  0.73057352  0.52474913  1
  Ba  Ba3  1  0.26942648  0.18411536  0.97525087  1
  Mg  Mg4  1  0.25727382  0.74272618  0.25000000  1
  Mg  Mg5  1  0.74272618  0.25727382  0.75000000  1
  Si  Si6  1  0.39593903  0.83007176  0.63496425  1
  Si  Si7  1  0.16992824  0.60406097  0.86503575  1
  Si  Si8  1  0.60406097  0.16992824  0.36503575  1
  Si  Si9  1  0.83007176  0.39593903  0.13496425  1
  O  O10  1  0.33266646  0.66733354  0.75000000  1
  O  O11  1  0.66733354  0.33266646  0.25000000  1
  O  O12  1  0.64419092  0.95622228  0.72801035  1
  O  O13  1  0.04377772  0.35580908  0.77198965  1
  O  O14  1  0.35580908  0.04377772  0.27198965  1
  O  O15  1  0.95622228  0.64419092  0.22801035  1
  O  O16  1  0.37589452  0.67347077  0.45392328  1
  O  O17  1  0.32652923  0.62410548  0.04607672  1
  O  O18  1  0.62410548  0.32652923  0.54607672  1
  O  O19  1  0.67347077  0.37589452  0.95392328  1
  O  O20  1  0.24395322  0.97621418  0.63112130  1
  O  O21  1  0.02378582  0.75604678  0.86887870  1
  O  O22  1  0.75604678  0.02378582  0.36887870  1
  O  O23  1  0.97621418  0.24395322  0.13112130  1
