# generated using pymatgen
data_NdCu6
_symmetry_space_group_name_H-M   'P 1'
_cell_length_a   5.11312445
_cell_length_b   8.06838593
_cell_length_c   10.14621885
_cell_angle_alpha   90.00000000
_cell_angle_beta   90.00000000
_cell_angle_gamma   90.00000000
_symmetry_Int_Tables_number   1
_chemical_formula_structural   NdCu6
_chemical_formula_sum   'Nd4 Cu24'
_cell_volume   418.57882285
_cell_formula_units_Z   4
loop_
 _symmetry_equiv_pos_site_id
 _symmetry_equiv_pos_as_xyz
  1  'x, y, z'
loop_
 _atom_site_type_symbol
 _atom_site_label
 _atom_site_symmetry_multiplicity
 _atom_site_fract_x
 _atom_site_fract_y
 _atom_site_fract_z
 _atom_site_occupancy
  Nd  Nd0  1  0.75000000  0.24059774  0.93605241  1
  Nd  Nd1  1  0.75000000  0.74059774  0.56394759  1
  Nd  Nd2  1  0.25000000  0.75940226  0.06394759  1
  Nd  Nd3  1  0.25000000  0.25940226  0.43605241  1
  Cu  Cu4  1  0.75000000  0.35335331  0.64308453  1
  Cu  Cu5  1  0.75000000  0.85335331  0.85691547  1
  Cu  Cu6  1  0.25000000  0.64664669  0.35691547  1
  Cu  Cu7  1  0.25000000  0.14664669  0.14308453  1
  Cu  Cu8  1  0.75000000  0.68115044  0.25243127  1
  Cu  Cu9  1  0.75000000  0.18115044  0.24756873  1
  Cu  Cu10  1  0.25000000  0.31884956  0.74756873  1
  Cu  Cu11  1  0.25000000  0.81884956  0.75243127  1
  Cu  Cu12  1  0.75000000  0.93851465  0.09667918  1
  Cu  Cu13  1  0.75000000  0.43851465  0.40332082  1
  Cu  Cu14  1  0.25000000  0.06148535  0.90332082  1
  Cu  Cu15  1  0.25000000  0.56148535  0.59667918  1
  Cu  Cu16  1  0.75000000  0.59851037  0.01490135  1
  Cu  Cu17  1  0.75000000  0.09851037  0.48509865  1
  Cu  Cu18  1  0.25000000  0.40148963  0.98509865  1
  Cu  Cu19  1  0.25000000  0.90148963  0.51490135  1
  Cu  Cu20  1  0.99551496  0.06774366  0.69181334  1
  Cu  Cu21  1  0.50448504  0.56774366  0.80818666  1
  Cu  Cu22  1  0.49551496  0.93225634  0.30818666  1
  Cu  Cu23  1  0.00448504  0.43225634  0.19181334  1
  Cu  Cu24  1  0.00448504  0.93225634  0.30818666  1
  Cu  Cu25  1  0.49551496  0.43225634  0.19181334  1
  Cu  Cu26  1  0.50448504  0.06774366  0.69181334  1
  Cu  Cu27  1  0.99551496  0.56774366  0.80818666  1
