# generated using pymatgen
data_K4Mg(WO4)3
_symmetry_space_group_name_H-M   'P 1'
_cell_length_a   7.94344566
_cell_length_b   10.14261236
_cell_length_c   10.26094159
_cell_angle_alpha   93.13017317
_cell_angle_beta   106.58668696
_cell_angle_gamma   106.07273916
_symmetry_Int_Tables_number   1
_chemical_formula_structural   K4Mg(WO4)3
_chemical_formula_sum   'K8 Mg2 W6 O24'
_cell_volume   753.26793368
_cell_formula_units_Z   2
loop_
 _symmetry_equiv_pos_site_id
 _symmetry_equiv_pos_as_xyz
  1  'x, y, z'
loop_
 _atom_site_type_symbol
 _atom_site_label
 _atom_site_symmetry_multiplicity
 _atom_site_fract_x
 _atom_site_fract_y
 _atom_site_fract_z
 _atom_site_occupancy
  K  K0  1  0.64782862  0.56708827  0.88664645  1
  K  K1  1  0.35217138  0.43291173  0.11335355  1
  K  K2  1  -0.00000000  -0.00000000  -0.00000000  1
  K  K3  1  0.77935464  0.23915464  0.77550636  1
  K  K4  1  0.22064536  0.76084536  0.22449364  1
  K  K5  1  0.74412961  0.52209055  0.47420387  1
  K  K6  1  0.25587039  0.47790945  0.52579613  1
  K  K7  1  0.50000000  -0.00000000  -0.00000000  1
  Mg  Mg8  1  0.16177211  0.87811613  0.55173117  1
  Mg  Mg9  1  0.83822789  0.12188387  0.44826883  1
  W  W10  1  0.12161327  0.64389191  0.81307145  1
  W  W11  1  0.87838673  0.35610809  0.18692855  1
  W  W12  1  0.23593649  0.18742402  0.74253447  1
  W  W13  1  0.76406351  0.81257598  0.25746553  1
  W  W14  1  0.61844341  0.85140529  0.61097341  1
  W  W15  1  0.38155659  0.14859471  0.38902659  1
  O  O16  1  0.24340221  0.00807809  0.72910276  1
  O  O17  1  0.75659779  0.99192191  0.27089724  1
  O  O18  1  0.44623351  0.30705714  0.73211417  1
  O  O19  1  0.55376649  0.69294286  0.26788583  1
  O  O20  1  0.60993422  0.67395487  0.63077749  1
  O  O21  1  0.39006578  0.32604513  0.36922251  1
  O  O22  1  0.90522314  0.51138456  0.79002415  1
  O  O23  1  0.09477686  0.48861544  0.20997585  1
  O  O24  1  0.03261136  0.22019200  0.62599485  1
  O  O25  1  0.96738864  0.77980800  0.37400515  1
  O  O26  1  0.38654713  0.85024977  0.50922493  1
  O  O27  1  0.61345287  0.14975023  0.49077507  1
  O  O28  1  0.11296547  0.70178815  0.64453422  1
  O  O29  1  0.88703453  0.29821185  0.35546578  1
  O  O30  1  0.15795199  0.78480392  0.94570737  1
  O  O31  1  0.84204801  0.21519608  0.05429263  1
  O  O32  1  0.68014448  0.94897523  0.77919139  1
  O  O33  1  0.31985552  0.05102477  0.22080861  1
  O  O34  1  0.20322293  0.07352027  0.46813102  1
  O  O35  1  0.79677707  0.92647973  0.53186898  1
  O  O36  1  0.22291090  0.21808695  0.91334993  1
  O  O37  1  0.77708910  0.78191305  0.08665007  1
  O  O38  1  0.30490966  0.56645286  0.86463202  1
  O  O39  1  0.69509034  0.43354714  0.13536798  1
