# generated using pymatgen
data_Mg14TiCuO16
_symmetry_space_group_name_H-M   'P 1'
_cell_length_a   8.57209372
_cell_length_b   8.61892722
_cell_length_c   4.23942272
_cell_angle_alpha   90.00000000
_cell_angle_beta   90.00000000
_cell_angle_gamma   90.00000000
_symmetry_Int_Tables_number   1
_chemical_formula_structural   Mg14TiCuO16
_chemical_formula_sum   'Mg14 Ti1 Cu1 O16'
_cell_volume   313.21809729
_cell_formula_units_Z   1
loop_
 _symmetry_equiv_pos_site_id
 _symmetry_equiv_pos_as_xyz
  1  'x, y, z'
loop_
 _atom_site_type_symbol
 _atom_site_label
 _atom_site_symmetry_multiplicity
 _atom_site_fract_x
 _atom_site_fract_y
 _atom_site_fract_z
 _atom_site_occupancy
  Mg  Mg0  1  0.50000000  0.00000000  0.00000000  1
  Mg  Mg1  1  0.50000000  0.50000000  0.00000000  1
  Mg  Mg2  1  -0.00000000  0.24109214  0.50000000  1
  Mg  Mg3  1  0.00000000  0.75890786  0.50000000  1
  Mg  Mg4  1  0.50000000  0.24770183  0.50000000  1
  Mg  Mg5  1  0.50000000  0.75229817  0.50000000  1
  Mg  Mg6  1  0.24715745  -0.00000000  0.50000000  1
  Mg  Mg7  1  0.25258220  0.50000000  0.50000000  1
  Mg  Mg8  1  0.75284255  0.00000000  0.50000000  1
  Mg  Mg9  1  0.74741780  0.50000000  0.50000000  1
  Mg  Mg10  1  0.25052623  0.24313235  0.00000000  1
  Mg  Mg11  1  0.25052623  0.75686765  0.00000000  1
  Mg  Mg12  1  0.74947377  0.24313235  -0.00000000  1
  Mg  Mg13  1  0.74947377  0.75686765  -0.00000000  1
  Ti  Ti14  1  0.00000000  0.50000000  0.00000000  1
  Cu  Cu15  1  0.00000000  0.00000000  0.00000000  1
  O  O16  1  0.26441138  0.00000000  0.00000000  1
  O  O17  1  0.24821255  0.50000000  -0.00000000  1
  O  O18  1  0.73558862  0.00000000  0.00000000  1
  O  O19  1  0.75178745  0.50000000  0.00000000  1
  O  O20  1  0.24816902  0.25096057  0.50000000  1
  O  O21  1  0.24816902  0.74903943  0.50000000  1
  O  O22  1  0.75183098  0.25096057  0.50000000  1
  O  O23  1  0.75183098  0.74903943  0.50000000  1
  O  O24  1  0.00000000  0.00000000  0.50000000  1
  O  O25  1  0.00000000  0.50000000  0.50000000  1
  O  O26  1  0.50000000  0.00000000  0.50000000  1
  O  O27  1  0.50000000  0.50000000  0.50000000  1
  O  O28  1  0.00000000  0.26967645  0.00000000  1
  O  O29  1  0.00000000  0.73032355  0.00000000  1
  O  O30  1  0.50000000  0.25437228  0.00000000  1
  O  O31  1  0.50000000  0.74562772  0.00000000  1
