# generated using pymatgen
data_As2O3
_symmetry_space_group_name_H-M   'P 1'
_cell_length_a   4.68354134
_cell_length_b   11.32103855
_cell_length_c   13.85035261
_cell_angle_alpha   98.51573550
_cell_angle_beta   90.00000000
_cell_angle_gamma   90.00000000
_symmetry_Int_Tables_number   1
_chemical_formula_structural   As2O3
_chemical_formula_sum   'As16 O24'
_cell_volume   726.28466133
_cell_formula_units_Z   8
loop_
 _symmetry_equiv_pos_site_id
 _symmetry_equiv_pos_as_xyz
  1  'x, y, z'
loop_
 _atom_site_type_symbol
 _atom_site_label
 _atom_site_symmetry_multiplicity
 _atom_site_fract_x
 _atom_site_fract_y
 _atom_site_fract_z
 _atom_site_occupancy
  As  As0  1  0.25861866  0.40443441  0.77180199  1
  As  As1  1  0.75861866  0.59556559  0.72819801  1
  As  As2  1  0.74138134  0.59556559  0.22819801  1
  As  As3  1  0.24138134  0.40443441  0.27180199  1
  As  As4  1  0.31569076  0.33992964  0.53873720  1
  As  As5  1  0.81569076  0.66007036  0.96126280  1
  As  As6  1  0.68430924  0.66007036  0.46126280  1
  As  As7  1  0.18430924  0.33992964  0.03873720  1
  As  As8  1  0.80889406  0.09131764  0.22306397  1
  As  As9  1  0.30889406  0.90868236  0.27693603  1
  As  As10  1  0.19110594  0.90868236  0.77693603  1
  As  As11  1  0.69110594  0.09131764  0.72306397  1
  As  As12  1  0.81592317  0.15759171  0.45561893  1
  As  As13  1  0.31592317  0.84240829  0.04438107  1
  As  As14  1  0.18407683  0.84240829  0.54438107  1
  As  As15  1  0.68407683  0.15759171  0.95561893  1
  O  O16  1  0.08665146  0.51143472  0.70183596  1
  O  O17  1  0.58665146  0.48856528  0.79816404  1
  O  O18  1  0.91334854  0.48856528  0.29816404  1
  O  O19  1  0.41334854  0.51143472  0.20183596  1
  O  O20  1  0.35429027  0.30176707  0.66298251  1
  O  O21  1  0.85429027  0.69823293  0.83701749  1
  O  O22  1  0.64570973  0.69823293  0.33701749  1
  O  O23  1  0.14570973  0.30176707  0.16298251  1
  O  O24  1  0.44061209  0.19358893  0.47962035  1
  O  O25  1  0.94061209  0.80641107  0.02037965  1
  O  O26  1  0.55938791  0.80641107  0.52037965  1
  O  O27  1  0.05938791  0.19358893  0.97962035  1
  O  O28  1  0.66891935  0.96975906  0.28526289  1
  O  O29  1  0.16891935  0.03024094  0.21473711  1
  O  O30  1  0.33108065  0.03024094  0.71473711  1
  O  O31  1  0.83108065  0.96975906  0.78526289  1
  O  O32  1  0.83852094  0.20109449  0.33268721  1
  O  O33  1  0.33852094  0.79890551  0.16731279  1
  O  O34  1  0.16147906  0.79890551  0.66731279  1
  O  O35  1  0.66147906  0.20109449  0.83268721  1
  O  O36  1  0.94042551  0.30190817  0.51780862  1
  O  O37  1  0.44042551  0.69809183  0.98219138  1
  O  O38  1  0.05957449  0.69809183  0.48219138  1
  O  O39  1  0.55957449  0.30190817  0.01780862  1
