# generated using pymatgen
data_K2U(Si2O5)3
_symmetry_space_group_name_H-M   'P 1'
_cell_length_a   7.30284317
_cell_length_b   12.22390018
_cell_length_c   17.41857555
_cell_angle_alpha   99.69951397
_cell_angle_beta   90.95854177
_cell_angle_gamma   106.13428150
_symmetry_Int_Tables_number   1
_chemical_formula_structural   K2U(Si2O5)3
_chemical_formula_sum   'K8 U4 Si24 O60'
_cell_volume   1469.02616781
_cell_formula_units_Z   4
loop_
 _symmetry_equiv_pos_site_id
 _symmetry_equiv_pos_as_xyz
  1  'x, y, z'
loop_
 _atom_site_type_symbol
 _atom_site_label
 _atom_site_symmetry_multiplicity
 _atom_site_fract_x
 _atom_site_fract_y
 _atom_site_fract_z
 _atom_site_occupancy
  K  K0  1  0.70133154  0.37573473  0.48128280  1
  K  K1  1  0.29866846  0.62426527  0.51871720  1
  K  K2  1  0.64384514  0.32402979  0.96240995  1
  K  K3  1  0.35615486  0.67597021  0.03759005  1
  K  K4  1  0.61556371  0.20485240  0.75020844  1
  K  K5  1  0.38443629  0.79514760  0.24979156  1
  K  K6  1  0.39449139  0.75973267  0.73985656  1
  K  K7  1  0.60550861  0.24026733  0.26014344  1
  U  U8  1  0.89192554  0.77378944  0.13578101  1
  U  U9  1  0.10807446  0.22621056  0.86421899  1
  U  U10  1  0.87656850  0.73817157  0.61007519  1
  U  U11  1  0.12343150  0.26182843  0.38992481  1
  Si  Si12  1  0.96885109  0.50671275  0.69266647  1
  Si  Si13  1  0.03114891  0.49328725  0.30733353  1
  Si  Si14  1  0.94343416  0.89552242  0.34125445  1
  Si  Si15  1  0.05656584  0.10447758  0.65874555  1
  Si  Si16  1  0.93101713  0.48853604  0.13492088  1
  Si  Si17  1  0.06898287  0.51146396  0.86507912  1
  Si  Si18  1  0.92309591  0.83900348  0.82777012  1
  Si  Si19  1  0.07690409  0.16099652  0.17222988  1
  Si  Si20  1  0.83881428  0.66613818  0.40373937  1
  Si  Si21  1  0.16118572  0.33386182  0.59626063  1
  Si  Si22  1  0.80938125  0.64089688  0.93169684  1
  Si  Si23  1  0.19061875  0.35910312  0.06830316  1
  Si  Si24  1  0.73425366  0.02228799  0.92238247  1
  Si  Si25  1  0.26574634  0.97771201  0.07761753  1
  Si  Si26  1  0.69455974  0.94029648  0.56446796  1
  Si  Si27  1  0.30544026  0.05970352  0.43553204  1
  Si  Si28  1  0.55185128  0.48990910  0.66802755  1
  Si  Si29  1  0.44814872  0.51009090  0.33197245  1
  Si  Si30  1  0.44834362  0.48015752  0.83492310  1
  Si  Si31  1  0.55165638  0.51984248  0.16507690  1
  Si  Si32  1  0.31368994  0.97117995  0.60003109  1
  Si  Si33  1  0.68631006  0.02882005  0.39996891  1
  Si  Si34  1  0.30651782  0.99009228  0.89472407  1
  Si  Si35  1  0.69348218  0.00990772  0.10527593  1
  O  O36  1  0.98879420  0.15066183  0.74243485  1
  O  O37  1  0.01120580  0.84933817  0.25756515  1
  O  O38  1  0.97099739  0.38901728  0.35577949  1
  O  O39  1  0.02900261  0.61098272  0.64422051  1
  O  O40  1  0.97095277  0.37512806  0.86023239  1
  O  O41  1  0.02904723  0.62487194  0.13976761  1
  O  O42  1  0.96573251  0.44064761  0.21505443  1
  O  O43  1  0.03426749  0.55935239  0.78494557  1
  O  O44  1  0.93302646  0.59660461  0.33403024  1
  O  O45  1  0.06697354  0.40339539  0.66596976  1
  O  O46  1  0.92265620  0.80380816  0.40110876  1
  O  O47  1  0.07734380  0.19619184  0.59889124  1
  O  O48  1  0.90385735  0.98282362  0.61427020  1
  O  O49  1  0.09614265  0.01717638  0.38572980  1
  O  O50  1  0.89042116  0.64096610  0.48841550  1
  O  O51  1  0.10957884  0.35903390  0.51158450  1
  O  O52  1  0.86973382  0.95452069  0.87199608  1
  O  O53  1  0.13026618  0.04547931  0.12800392  1
  O  O54  1  0.85076702  0.80433491  0.73649058  1
  O  O55  1  0.14923298  0.19566509  0.26350942  1
  O  O56  1  0.82482472  0.73422903  0.87407357  1
  O  O57  1  0.17517528  0.26577097  0.12592643  1
  O  O58  1  0.81720068  0.15645502  0.91465412  1
  O  O59  1  0.18279932  0.84354498  0.08534588  1
  O  O60  1  0.73916593  0.92830870  0.33481906  1
  O  O61  1  0.26083407  0.07169130  0.66518094  1
  O  O62  1  0.73650849  0.44094331  0.68275380  1
  O  O63  1  0.26349151  0.55905669  0.31724620  1
  O  O64  1  0.71289514  0.99921440  0.48677830  1
  O  O65  1  0.28710486  0.00078560  0.51322170  1
  O  O66  1  0.69893562  0.89217212  0.13372802  1
  O  O67  1  0.30106438  0.10782788  0.86627198  1
  O  O68  1  0.64739715  0.52069796  0.89033032  1
  O  O69  1  0.35260285  0.47930204  0.10966968  1
  O  O70  1  0.64233652  0.80147929  0.55228559  1
  O  O71  1  0.35766348  0.19852071  0.44771441  1
  O  O72  1  0.60667962  0.62442579  0.38101355  1
  O  O73  1  0.39332038  0.37557421  0.61898645  1
  O  O74  1  0.60215884  0.59492785  0.62027700  1
  O  O75  1  0.39784116  0.40507215  0.37972300  1
  O  O76  1  0.54501207  0.99287664  0.62010639  1
  O  O77  1  0.45498793  0.00712336  0.37989361  1
  O  O78  1  0.51459196  0.96243169  0.88220196  1
  O  O79  1  0.48540804  0.03756831  0.11779804  1
  O  O80  1  0.47870286  0.53381235  0.75374910  1
  O  O81  1  0.52129714  0.46618765  0.24625090  1
  O  O82  1  0.37210693  0.34101983  0.81886011  1
  O  O83  1  0.62789307  0.65898017  0.18113989  1
  O  O84  1  0.30325315  0.54468205  0.88367004  1
  O  O85  1  0.69674685  0.45531795  0.11632996  1
  O  O86  1  0.26315030  0.99694961  0.98712655  1
  O  O87  1  0.73684970  0.00305039  0.01287345  1
  O  O88  1  0.24469713  0.31185456  0.98240813  1
  O  O89  1  0.75530287  0.68814544  0.01759187  1
  O  O90  1  0.19102254  0.84225801  0.60758578  1
  O  O91  1  0.80897746  0.15774199  0.39241422  1
  O  O92  1  0.15865485  0.87242938  0.84104736  1
  O  O93  1  0.84134515  0.12757062  0.15895264  1
  O  O94  1  0.00522263  0.59869879  0.93603034  1
  O  O95  1  0.99477737  0.40130121  0.06396966  1
