# generated using pymatgen
data_Sb2H3CNF14
_symmetry_space_group_name_H-M   'P 1'
_cell_length_a   7.82135352
_cell_length_b   7.84499096
_cell_length_c   10.15989087
_cell_angle_alpha   90.00000000
_cell_angle_beta   98.43888326
_cell_angle_gamma   90.00000000
_symmetry_Int_Tables_number   1
_chemical_formula_structural   Sb2H3CNF14
_chemical_formula_sum   'Sb4 H6 C2 N2 F28'
_cell_volume   616.64561294
_cell_formula_units_Z   2
loop_
 _symmetry_equiv_pos_site_id
 _symmetry_equiv_pos_as_xyz
  1  'x, y, z'
loop_
 _atom_site_type_symbol
 _atom_site_label
 _atom_site_symmetry_multiplicity
 _atom_site_fract_x
 _atom_site_fract_y
 _atom_site_fract_z
 _atom_site_occupancy
  Sb  Sb0  1  0.24955662  0.25000000  0.47417775  1
  Sb  Sb1  1  0.75044338  0.75000000  0.52582225  1
  Sb  Sb2  1  0.49790341  0.25000000  0.16675332  1
  Sb  Sb3  1  0.50209659  0.75000000  0.83324668  1
  H  H4  1  0.82757287  0.25000000  0.68060069  1
  H  H5  1  0.17242713  0.75000000  0.31939931  1
  H  H6  1  0.72343729  0.35871239  0.78932170  1
  H  H7  1  0.27656271  0.85871239  0.21067830  1
  H  H8  1  0.27656271  0.64128761  0.21067830  1
  H  H9  1  0.72343729  0.14128761  0.78932170  1
  C  C10  1  0.95756312  0.25000000  0.87529934  1
  C  C11  1  0.04243688  0.75000000  0.12470066  1
  N  N12  1  0.79551756  0.25000000  0.77588671  1
  N  N13  1  0.20448244  0.75000000  0.22411329  1
  F  F14  1  0.09409572  0.25000000  0.31237710  1
  F  F15  1  0.90590428  0.75000000  0.68762290  1
  F  F16  1  0.26327013  0.00816064  0.45972985  1
  F  F17  1  0.73672987  0.50816064  0.54027015  1
  F  F18  1  0.73672987  0.99183936  0.54027015  1
  F  F19  1  0.26327013  0.49183936  0.45972985  1
  F  F20  1  0.45169679  0.25000000  0.36073517  1
  F  F21  1  0.54830321  0.75000000  0.63926483  1
  F  F22  1  0.53221323  0.25000000  0.98572468  1
  F  F23  1  0.46778677  0.75000000  0.01427532  1
  F  F24  1  0.66103737  0.07704057  0.22127271  1
  F  F25  1  0.33896263  0.57704057  0.77872729  1
  F  F26  1  0.33896263  0.92295943  0.77872729  1
  F  F27  1  0.66103737  0.42295943  0.22127271  1
  F  F28  1  0.32040605  0.42157780  0.13807155  1
  F  F29  1  0.67959395  0.92157780  0.86192845  1
  F  F30  1  0.67959395  0.57842220  0.86192845  1
  F  F31  1  0.32040605  0.07842220  0.13807155  1
  F  F32  1  0.07444840  0.25000000  0.58574360  1
  F  F33  1  0.92555160  0.75000000  0.41425640  1
  F  F34  1  0.43530546  0.25000000  0.61765106  1
  F  F35  1  0.56469454  0.75000000  0.38234894  1
  F  F36  1  0.04812265  0.10997923  0.85642847  1
  F  F37  1  0.95187735  0.60997923  0.14357153  1
  F  F38  1  0.95187735  0.89002077  0.14357153  1
  F  F39  1  0.04812265  0.39002077  0.85642847  1
  F  F40  1  0.91438951  0.25000000  0.99803572  1
  F  F41  1  0.08561049  0.75000000  0.00196428  1
