# generated using pymatgen
data_RbLi6B2O6F
_symmetry_space_group_name_H-M   'P 1'
_cell_length_a   5.17364180
_cell_length_b   8.54802455
_cell_length_c   16.27192172
_cell_angle_alpha   90.00000000
_cell_angle_beta   90.00000000
_cell_angle_gamma   90.00000000
_symmetry_Int_Tables_number   1
_chemical_formula_structural   RbLi6B2O6F
_chemical_formula_sum   'Rb4 Li24 B8 O24 F4'
_cell_volume   719.61625348
_cell_formula_units_Z   4
loop_
 _symmetry_equiv_pos_site_id
 _symmetry_equiv_pos_as_xyz
  1  'x, y, z'
loop_
 _atom_site_type_symbol
 _atom_site_label
 _atom_site_symmetry_multiplicity
 _atom_site_fract_x
 _atom_site_fract_y
 _atom_site_fract_z
 _atom_site_occupancy
  Rb  Rb0  1  0.38146439  0.37597110  0.75000000  1
  Rb  Rb1  1  0.11853561  0.87597110  0.75000000  1
  Rb  Rb2  1  0.61853561  0.62402890  0.25000000  1
  Rb  Rb3  1  0.88146439  0.12402890  0.25000000  1
  Li  Li4  1  0.88088075  0.21248247  0.63900205  1
  Li  Li5  1  0.61911925  0.71248247  0.86099795  1
  Li  Li6  1  0.11911925  0.78751753  0.13900205  1
  Li  Li7  1  0.38088075  0.28751753  0.36099795  1
  Li  Li8  1  0.11911925  0.78751753  0.36099795  1
  Li  Li9  1  0.38088075  0.28751753  0.13900205  1
  Li  Li10  1  0.88088075  0.21248247  0.86099795  1
  Li  Li11  1  0.61911925  0.71248247  0.63900205  1
  Li  Li12  1  0.63693924  0.42755559  0.55786508  1
  Li  Li13  1  0.86306076  0.92755559  0.94213492  1
  Li  Li14  1  0.36306076  0.57244441  0.05786508  1
  Li  Li15  1  0.13693924  0.07244441  0.44213492  1
  Li  Li16  1  0.36306076  0.57244441  0.44213492  1
  Li  Li17  1  0.13693924  0.07244441  0.05786508  1
  Li  Li18  1  0.63693924  0.42755559  0.94213492  1
  Li  Li19  1  0.86306076  0.92755559  0.55786508  1
  Li  Li20  1  0.20328562  0.30112719  0.53755340  1
  Li  Li21  1  0.29671438  0.80112719  0.96244660  1
  Li  Li22  1  0.79671438  0.69887281  0.03755340  1
  Li  Li23  1  0.70328562  0.19887281  0.46244660  1
  Li  Li24  1  0.79671438  0.69887281  0.46244660  1
  Li  Li25  1  0.70328562  0.19887281  0.03755340  1
  Li  Li26  1  0.20328562  0.30112719  0.96244660  1
  Li  Li27  1  0.29671438  0.80112719  0.53755340  1
  B  B28  1  0.09343214  0.56963039  0.58731464  1
  B  B29  1  0.40656786  0.06963039  0.91268536  1
  B  B30  1  0.90656786  0.43036961  0.08731464  1
  B  B31  1  0.59343214  0.93036961  0.41268536  1
  B  B32  1  0.90656786  0.43036961  0.41268536  1
  B  B33  1  0.59343214  0.93036961  0.08731464  1
  B  B34  1  0.09343214  0.56963039  0.91268536  1
  B  B35  1  0.40656786  0.06963039  0.58731464  1
  O  O36  1  0.36059774  0.57663986  0.57161242  1
  O  O37  1  0.13940226  0.07663986  0.92838758  1
  O  O38  1  0.63940226  0.42336014  0.07161242  1
  O  O39  1  0.86059774  0.92336014  0.42838758  1
  O  O40  1  0.63940226  0.42336014  0.42838758  1
  O  O41  1  0.86059774  0.92336014  0.07161242  1
  O  O42  1  0.36059774  0.57663986  0.92838758  1
  O  O43  1  0.13940226  0.07663986  0.57161242  1
  O  O44  1  0.97648046  0.42997858  0.60650154  1
  O  O45  1  0.52351954  0.92997858  0.89349846  1
  O  O46  1  0.02351954  0.57002142  0.10650154  1
  O  O47  1  0.47648046  0.07002142  0.39349846  1
  O  O48  1  0.02351954  0.57002142  0.39349846  1
  O  O49  1  0.47648046  0.07002142  0.10650154  1
  O  O50  1  0.97648046  0.42997858  0.89349846  1
  O  O51  1  0.52351954  0.92997858  0.60650154  1
  O  O52  1  0.54714865  0.20838549  0.57744143  1
  O  O53  1  0.95285135  0.70838549  0.92255857  1
  O  O54  1  0.45285135  0.79161451  0.07744143  1
  O  O55  1  0.04714865  0.29161451  0.42255857  1
  O  O56  1  0.45285135  0.79161451  0.42255857  1
  O  O57  1  0.04714865  0.29161451  0.07744143  1
  O  O58  1  0.54714865  0.20838549  0.92255857  1
  O  O59  1  0.95285135  0.70838549  0.57744143  1
  F  F60  1  0.59014444  0.67988365  0.75000000  1
  F  F61  1  0.90985556  0.17988365  0.75000000  1
  F  F62  1  0.40985556  0.32011635  0.25000000  1
  F  F63  1  0.09014444  0.82011635  0.25000000  1
