# generated using pymatgen
data_RbAlCu(PO4)2
_symmetry_space_group_name_H-M   'P 1'
_cell_length_a   5.12947549
_cell_length_b   9.46424440
_cell_length_c   14.21725296
_cell_angle_alpha   90.00000000
_cell_angle_beta   90.00000000
_cell_angle_gamma   100.20833814
_symmetry_Int_Tables_number   1
_chemical_formula_structural   RbAlCu(PO4)2
_chemical_formula_sum   'Rb4 Al4 Cu4 P8 O32'
_cell_volume   679.27345360
_cell_formula_units_Z   4
loop_
 _symmetry_equiv_pos_site_id
 _symmetry_equiv_pos_as_xyz
  1  'x, y, z'
loop_
 _atom_site_type_symbol
 _atom_site_label
 _atom_site_symmetry_multiplicity
 _atom_site_fract_x
 _atom_site_fract_y
 _atom_site_fract_z
 _atom_site_occupancy
  Rb  Rb0  1  0.78653609  0.71304781  0.67400063  1
  Rb  Rb1  1  0.21346391  0.78695219  0.17400063  1
  Rb  Rb2  1  0.21346391  0.28695219  0.32599937  1
  Rb  Rb3  1  0.78653609  0.21304781  0.82599937  1
  Al  Al4  1  0.24565767  0.88891555  0.87031431  1
  Al  Al5  1  0.75434233  0.61108445  0.37031431  1
  Al  Al6  1  0.75434233  0.11108445  0.12968569  1
  Al  Al7  1  0.24565767  0.38891555  0.62968569  1
  Cu  Cu8  1  0.76046489  0.54955861  0.95779527  1
  Cu  Cu9  1  0.23953511  0.95044139  0.45779527  1
  Cu  Cu10  1  0.23953511  0.45044139  0.04220473  1
  Cu  Cu11  1  0.76046489  0.04955861  0.54220473  1
  P  P12  1  0.27311746  0.54949058  0.82813305  1
  P  P13  1  0.72688254  0.95050942  0.32813305  1
  P  P14  1  0.72688254  0.45050942  0.17186695  1
  P  P15  1  0.27311746  0.04949058  0.67186695  1
  P  P16  1  0.72088010  0.83552209  0.98751415  1
  P  P17  1  0.27911990  0.66447791  0.48751415  1
  P  P18  1  0.27911990  0.16447791  0.01248585  1
  P  P19  1  0.72088010  0.33552209  0.51248585  1
  O  O20  1  0.23020562  0.07518119  0.92205390  1
  O  O21  1  0.76979438  0.42481881  0.42205390  1
  O  O22  1  0.76979438  0.92481881  0.07794610  1
  O  O23  1  0.23020562  0.57518119  0.57794610  1
  O  O24  1  0.58701022  0.91234472  0.90949236  1
  O  O25  1  0.41298978  0.58765528  0.40949236  1
  O  O26  1  0.41298978  0.08765528  0.09050764  1
  O  O27  1  0.58701022  0.41234472  0.59050764  1
  O  O28  1  0.56479699  0.52988126  0.83984171  1
  O  O29  1  0.43520301  0.97011874  0.33984171  1
  O  O30  1  0.43520301  0.47011874  0.16015829  1
  O  O31  1  0.56479699  0.02988126  0.66015829  1
  O  O32  1  0.25093066  0.70772948  0.81149683  1
  O  O33  1  0.74906934  0.79227052  0.31149683  1
  O  O34  1  0.74906934  0.29227052  0.18850317  1
  O  O35  1  0.25093066  0.20772948  0.68850317  1
  O  O36  1  0.54869978  0.68724293  0.01039174  1
  O  O37  1  0.45130022  0.81275707  0.51039174  1
  O  O38  1  0.45130022  0.31275707  0.98960826  1
  O  O39  1  0.54869978  0.18724293  0.48960826  1
  O  O40  1  0.98904870  0.80380500  0.94902919  1
  O  O41  1  0.01095130  0.69619500  0.44902919  1
  O  O42  1  0.01095130  0.19619500  0.05097081  1
  O  O43  1  0.98904870  0.30380500  0.55097081  1
  O  O44  1  0.09513442  0.48451380  0.91404218  1
  O  O45  1  0.90486558  0.01548620  0.41404218  1
  O  O46  1  0.90486558  0.51548620  0.08595782  1
  O  O47  1  0.09513442  0.98451380  0.58595782  1
  O  O48  1  0.15834712  0.95897146  0.75840766  1
  O  O49  1  0.84165288  0.54102854  0.25840766  1
  O  O50  1  0.84165288  0.04102854  0.24159234  1
  O  O51  1  0.15834712  0.45897146  0.74159234  1
