# generated using pymatgen
data_UTeO5
_symmetry_space_group_name_H-M   'P 1'
_cell_length_a   5.55952120
_cell_length_b   7.85257025
_cell_length_c   10.43071199
_cell_angle_alpha   90.00000000
_cell_angle_beta   90.00000000
_cell_angle_gamma   90.00000000
_symmetry_Int_Tables_number   1
_chemical_formula_structural   UTeO5
_chemical_formula_sum   'U4 Te4 O20'
_cell_volume   455.36869904
_cell_formula_units_Z   4
loop_
 _symmetry_equiv_pos_site_id
 _symmetry_equiv_pos_as_xyz
  1  'x, y, z'
loop_
 _atom_site_type_symbol
 _atom_site_label
 _atom_site_symmetry_multiplicity
 _atom_site_fract_x
 _atom_site_fract_y
 _atom_site_fract_z
 _atom_site_occupancy
  U  U0  1  0.96791988  0.00687875  0.51493576  1
  U  U1  1  0.03208012  0.50687875  0.48506424  1
  U  U2  1  0.96791988  0.50687875  0.98506424  1
  U  U3  1  0.03208012  0.00687875  0.01493576  1
  Te  Te4  1  0.64347607  0.25207703  0.74915369  1
  Te  Te5  1  0.35652393  0.75207703  0.25084631  1
  Te  Te6  1  0.64347607  0.75207703  0.75084631  1
  Te  Te7  1  0.35652393  0.25207703  0.24915369  1
  O  O8  1  0.73433551  0.00516096  0.70716012  1
  O  O9  1  0.26566449  0.50516096  0.29283988  1
  O  O10  1  0.73433551  0.50516096  0.79283988  1
  O  O11  1  0.26566449  0.00516096  0.20716012  1
  O  O12  1  0.85258701  0.28415584  0.60300132  1
  O  O13  1  0.14741299  0.78415584  0.39699868  1
  O  O14  1  0.85258701  0.78415584  0.89699868  1
  O  O15  1  0.14741299  0.28415584  0.10300132  1
  O  O16  1  0.86321861  0.22925887  0.89209240  1
  O  O17  1  0.13678139  0.72925887  0.10790760  1
  O  O18  1  0.86321861  0.72925887  0.60790760  1
  O  O19  1  0.13678139  0.22925887  0.39209240  1
  O  O20  1  0.76358863  0.01462481  0.11323482  1
  O  O21  1  0.23641137  0.51462481  0.88676518  1
  O  O22  1  0.76358863  0.51462481  0.38676518  1
  O  O23  1  0.23641137  0.01462481  0.61323482  1
  O  O24  1  0.69758202  0.50384373  0.08484632  1
  O  O25  1  0.30241798  0.00384373  0.91515368  1
  O  O26  1  0.69758202  0.00384373  0.41515368  1
  O  O27  1  0.30241798  0.50384373  0.58484632  1
