# generated using pymatgen
data_Tm2PbS4
_symmetry_space_group_name_H-M   'P 1'
_cell_length_a   3.94601416
_cell_length_b   11.99528174
_cell_length_c   14.25956358
_cell_angle_alpha   90.00000000
_cell_angle_beta   90.00000000
_cell_angle_gamma   90.00000000
_symmetry_Int_Tables_number   1
_chemical_formula_structural   Tm2PbS4
_chemical_formula_sum   'Tm8 Pb4 S16'
_cell_volume   674.95578850
_cell_formula_units_Z   4
loop_
 _symmetry_equiv_pos_site_id
 _symmetry_equiv_pos_as_xyz
  1  'x, y, z'
loop_
 _atom_site_type_symbol
 _atom_site_label
 _atom_site_symmetry_multiplicity
 _atom_site_fract_x
 _atom_site_fract_y
 _atom_site_fract_z
 _atom_site_occupancy
  Tm  Tm0  1  0.75000000  0.06324306  0.11132774  1
  Tm  Tm1  1  0.75000000  0.56324306  0.38867226  1
  Tm  Tm2  1  0.25000000  0.93675694  0.88867226  1
  Tm  Tm3  1  0.25000000  0.43675694  0.61132774  1
  Tm  Tm4  1  0.75000000  0.08185003  0.59914486  1
  Tm  Tm5  1  0.75000000  0.58185003  0.90085514  1
  Tm  Tm6  1  0.25000000  0.91814997  0.40085514  1
  Tm  Tm7  1  0.25000000  0.41814997  0.09914486  1
  Pb  Pb8  1  0.75000000  0.73828258  0.16511540  1
  Pb  Pb9  1  0.75000000  0.23828258  0.33488460  1
  Pb  Pb10  1  0.25000000  0.26171742  0.83488460  1
  Pb  Pb11  1  0.25000000  0.76171742  0.66511540  1
  S  S12  1  0.75000000  0.29313181  0.66934322  1
  S  S13  1  0.75000000  0.79313181  0.83065678  1
  S  S14  1  0.25000000  0.70686819  0.33065678  1
  S  S15  1  0.25000000  0.20686819  0.16934322  1
  S  S16  1  0.75000000  0.37246162  0.97232526  1
  S  S17  1  0.75000000  0.87246162  0.52767474  1
  S  S18  1  0.25000000  0.62753838  0.02767474  1
  S  S19  1  0.25000000  0.12753838  0.47232526  1
  S  S20  1  0.75000000  0.47611187  0.21466927  1
  S  S21  1  0.75000000  0.97611187  0.28533073  1
  S  S22  1  0.25000000  0.52388813  0.78533073  1
  S  S23  1  0.25000000  0.02388813  0.71466927  1
  S  S24  1  0.75000000  0.08581211  0.92377227  1
  S  S25  1  0.75000000  0.58581211  0.57622773  1
  S  S26  1  0.25000000  0.91418789  0.07622773  1
  S  S27  1  0.25000000  0.41418789  0.42377227  1
