# generated using pymatgen
data_NaP15
_symmetry_space_group_name_H-M   'P 1'
_cell_length_a   7.15960658
_cell_length_b   9.24080281
_cell_length_c   11.84329169
_cell_angle_alpha   92.13038718
_cell_angle_beta   99.50615838
_cell_angle_gamma   108.18456158
_symmetry_Int_Tables_number   1
_chemical_formula_structural   NaP15
_chemical_formula_sum   'Na2 P30'
_cell_volume   730.90370488
_cell_formula_units_Z   2
loop_
 _symmetry_equiv_pos_site_id
 _symmetry_equiv_pos_as_xyz
  1  'x, y, z'
loop_
 _atom_site_type_symbol
 _atom_site_label
 _atom_site_symmetry_multiplicity
 _atom_site_fract_x
 _atom_site_fract_y
 _atom_site_fract_z
 _atom_site_occupancy
  Na  Na0  1  0.78813128  0.79002559  0.00031972  1
  Na  Na1  1  0.21186872  0.20997441  0.99968028  1
  P  P2  1  0.66274066  0.31164224  0.56868025  1
  P  P3  1  0.33725934  0.68835776  0.43131975  1
  P  P4  1  0.70817082  0.13482477  0.82913566  1
  P  P5  1  0.29182918  0.86517523  0.17086434  1
  P  P6  1  0.34214759  0.80634460  0.85102883  1
  P  P7  1  0.65785241  0.19365540  0.14897117  1
  P  P8  1  0.74290938  0.51619141  0.82624815  1
  P  P9  1  0.25709062  0.48380859  0.17375185  1
  P  P10  1  0.52751079  0.91959120  0.72465081  1
  P  P11  1  0.47248921  0.08040880  0.27534919  1
  P  P12  1  0.50789237  0.28108424  0.82496197  1
  P  P13  1  0.49210763  0.71891576  0.17503803  1
  P  P14  1  0.98543781  0.55871696  0.16869325  1
  P  P15  1  0.01456219  0.44128304  0.83130675  1
  P  P16  1  0.02309501  0.90024407  0.66226000  1
  P  P17  1  0.97690499  0.09975593  0.33774000  1
  P  P18  1  0.20719588  0.59453712  0.72870885  1
  P  P19  1  0.79280412  0.40546288  0.27129115  1
  P  P20  1  0.88794097  0.24155429  0.70127490  1
  P  P21  1  0.11205903  0.75844571  0.29872510  1
  P  P22  1  0.61879706  0.76318544  0.36352758  1
  P  P23  1  0.38120294  0.23681456  0.63647242  1
  P  P24  1  0.10869489  0.91073085  0.84790440  1
  P  P25  1  0.89130511  0.08926915  0.15209560  1
  P  P26  1  0.69114953  0.54459043  0.63783658  1
  P  P27  1  0.30885047  0.45540957  0.36216342  1
  P  P28  1  0.98827072  0.66113049  0.59772113  1
  P  P29  1  0.01172928  0.33886951  0.40227887  1
  P  P30  1  0.30817573  0.98829010  0.59536599  1
  P  P31  1  0.69182427  0.01170990  0.40463401  1
