# generated using pymatgen
data_Ba4Y2Fe2O11
_symmetry_space_group_name_H-M   'P 1'
_cell_length_a   6.14441798
_cell_length_b   8.22726407
_cell_length_c   12.32419778
_cell_angle_alpha   90.00000000
_cell_angle_beta   90.00000000
_cell_angle_gamma   90.00000000
_symmetry_Int_Tables_number   1
_chemical_formula_structural   Ba4Y2Fe2O11
_chemical_formula_sum   'Ba8 Y4 Fe4 O22'
_cell_volume   623.00975623
_cell_formula_units_Z   2
loop_
 _symmetry_equiv_pos_site_id
 _symmetry_equiv_pos_as_xyz
  1  'x, y, z'
loop_
 _atom_site_type_symbol
 _atom_site_label
 _atom_site_symmetry_multiplicity
 _atom_site_fract_x
 _atom_site_fract_y
 _atom_site_fract_z
 _atom_site_occupancy
  Ba  Ba0  1  0.72657980  0.23789673  0.86745789  1
  Ba  Ba1  1  0.72657980  0.76210327  0.86745789  1
  Ba  Ba2  1  0.22657980  0.76210327  0.13254211  1
  Ba  Ba3  1  0.22657980  0.23789673  0.13254211  1
  Ba  Ba4  1  0.24387935  0.22897543  0.60711991  1
  Ba  Ba5  1  0.24387935  0.77102457  0.60711991  1
  Ba  Ba6  1  0.74387935  0.77102457  0.39288009  1
  Ba  Ba7  1  0.74387935  0.22897543  0.39288009  1
  Y  Y8  1  0.74345764  0.50000000  0.62500532  1
  Y  Y9  1  0.24345764  0.50000000  0.37499468  1
  Y  Y10  1  0.22445364  -0.00000000  0.87434758  1
  Y  Y11  1  0.72445364  -0.00000000  0.12565242  1
  Fe  Fe12  1  0.73098445  -0.00000000  0.63816892  1
  Fe  Fe13  1  0.23098445  -0.00000000  0.36183108  1
  Fe  Fe14  1  0.22061450  0.50000000  0.84108863  1
  Fe  Fe15  1  0.72061450  0.50000000  0.15891137  1
  O  O16  1  0.52393114  0.50000000  0.48475912  1
  O  O17  1  0.02393114  0.50000000  0.51524088  1
  O  O18  1  0.75532234  0.22843955  0.62819599  1
  O  O19  1  0.75532234  0.77156045  0.62819599  1
  O  O20  1  0.25532234  0.77156045  0.37180401  1
  O  O21  1  0.25532234  0.22843955  0.37180401  1
  O  O22  1  0.23238056  0.29217047  0.89615776  1
  O  O23  1  0.23238056  0.70782953  0.89615776  1
  O  O24  1  0.73238056  0.70782953  0.10384224  1
  O  O25  1  0.73238056  0.29217047  0.10384224  1
  O  O26  1  0.45811373  0.50000000  0.75083678  1
  O  O27  1  0.95811373  0.50000000  0.24916322  1
  O  O28  1  0.44398524  0.50000000  0.21352089  1
  O  O29  1  0.94398524  0.50000000  0.78647911  1
  O  O30  1  0.49850248  -0.00000000  0.75461227  1
  O  O31  1  0.99850248  -0.00000000  0.24538773  1
  O  O32  1  0.47970924  -0.00000000  0.26366455  1
  O  O33  1  0.97970924  -0.00000000  0.73633545  1
  O  O34  1  0.44110915  -0.00000000  0.01524520  1
  O  O35  1  0.94110915  -0.00000000  0.98475480  1
  O  O36  1  0.53881472  -0.00000000  0.51944605  1
  O  O37  1  0.03881472  -0.00000000  0.48055395  1
