# generated using pymatgen
data_La2Zn(SeO)2
_symmetry_space_group_name_H-M   'P 1'
_cell_length_a   5.77696463
_cell_length_b   14.62648866
_cell_length_c   14.62648866
_cell_angle_alpha   104.10740125
_cell_angle_beta   90.00000000
_cell_angle_gamma   90.00000000
_symmetry_Int_Tables_number   1
_chemical_formula_structural   La2Zn(SeO)2
_chemical_formula_sum   'La16 Zn8 Se16 O16'
_cell_volume   1198.61635523
_cell_formula_units_Z   8
loop_
 _symmetry_equiv_pos_site_id
 _symmetry_equiv_pos_as_xyz
  1  'x, y, z'
loop_
 _atom_site_type_symbol
 _atom_site_label
 _atom_site_symmetry_multiplicity
 _atom_site_fract_x
 _atom_site_fract_y
 _atom_site_fract_z
 _atom_site_occupancy
  La  La0  1  0.75000000  0.06851828  0.56851828  1
  La  La1  1  0.25000000  0.43148172  0.93148172  1
  La  La2  1  0.25000000  0.93148172  0.43148172  1
  La  La3  1  0.75000000  0.56851828  0.06851828  1
  La  La4  1  0.27521386  0.68089892  0.68089892  1
  La  La5  1  0.72478614  0.31910108  0.31910108  1
  La  La6  1  0.77521386  0.81910108  0.81910108  1
  La  La7  1  0.22478614  0.18089892  0.18089892  1
  La  La8  1  0.76772534  0.55722798  0.80730442  1
  La  La9  1  0.23227466  0.19269558  0.44277202  1
  La  La10  1  0.26772534  0.69269558  0.94277202  1
  La  La11  1  0.73227466  0.05722798  0.30730442  1
  La  La12  1  0.23227466  0.44277202  0.19269558  1
  La  La13  1  0.76772534  0.80730442  0.55722798  1
  La  La14  1  0.73227466  0.30730442  0.05722798  1
  La  La15  1  0.26772534  0.94277202  0.69269558  1
  Zn  Zn16  1  0.50000000  0.93025289  0.06974711  1
  Zn  Zn17  1  -0.00000000  0.43025289  0.56974711  1
  Zn  Zn18  1  0.50000000  0.06974711  0.93025289  1
  Zn  Zn19  1  -0.00000000  0.56974711  0.43025289  1
  Zn  Zn20  1  0.50000000  0.68932791  0.31067209  1
  Zn  Zn21  1  -0.00000000  0.18932791  0.81067209  1
  Zn  Zn22  1  0.50000000  0.31067209  0.68932791  1
  Zn  Zn23  1  -0.00000000  0.81067209  0.18932791  1
  Se  Se24  1  0.75000000  0.83335292  0.33335292  1
  Se  Se25  1  0.25000000  0.66664708  0.16664708  1
  Se  Se26  1  0.25000000  0.16664708  0.66664708  1
  Se  Se27  1  0.75000000  0.33335292  0.83335292  1
  Se  Se28  1  0.28984724  0.91528690  0.91528690  1
  Se  Se29  1  0.71015276  0.08471310  0.08471310  1
  Se  Se30  1  0.78984724  0.58471310  0.58471310  1
  Se  Se31  1  0.21015276  0.41528690  0.41528690  1
  Se  Se32  1  0.76081264  0.78983206  0.04270210  1
  Se  Se33  1  0.23918736  0.95729790  0.21016794  1
  Se  Se34  1  0.26081264  0.45729790  0.71016794  1
  Se  Se35  1  0.73918736  0.28983206  0.54270210  1
  Se  Se36  1  0.23918736  0.21016794  0.95729790  1
  Se  Se37  1  0.76081264  0.04270210  0.78983206  1
  Se  Se38  1  0.73918736  0.54270210  0.28983206  1
  Se  Se39  1  0.26081264  0.71016794  0.45729790  1
  O  O40  1  0.00517351  0.56509913  0.94032891  1
  O  O41  1  0.99482649  0.05967109  0.43490087  1
  O  O42  1  0.50517351  0.55967109  0.93490087  1
  O  O43  1  0.49482649  0.06509913  0.44032891  1
  O  O44  1  0.99482649  0.43490087  0.05967109  1
  O  O45  1  0.00517351  0.94032891  0.56509913  1
  O  O46  1  0.49482649  0.44032891  0.06509913  1
  O  O47  1  0.50517351  0.93490087  0.55967109  1
  O  O48  1  0.02417423  0.81336882  0.68819007  1
  O  O49  1  0.97582577  0.31180993  0.18663118  1
  O  O50  1  0.52417423  0.81180993  0.68663118  1
  O  O51  1  0.47582577  0.31336882  0.18819007  1
  O  O52  1  0.97582577  0.18663118  0.31180993  1
  O  O53  1  0.02417423  0.68819007  0.81336882  1
  O  O54  1  0.47582577  0.18819007  0.31336882  1
  O  O55  1  0.52417423  0.68663118  0.81180993  1
