# generated using pymatgen
data_Rb2ScSi4O10F
_symmetry_space_group_name_H-M   'P 1'
_cell_length_a   8.44875850
_cell_length_b   9.12125031
_cell_length_c   9.12125031
_cell_angle_alpha   77.61410172
_cell_angle_beta   62.41034724
_cell_angle_gamma   62.41034724
_symmetry_Int_Tables_number   1
_chemical_formula_structural   Rb2ScSi4O10F
_chemical_formula_sum   'Rb4 Sc2 Si8 O20 F2'
_cell_volume   552.14180605
_cell_formula_units_Z   2
loop_
 _symmetry_equiv_pos_site_id
 _symmetry_equiv_pos_as_xyz
  1  'x, y, z'
loop_
 _atom_site_type_symbol
 _atom_site_label
 _atom_site_symmetry_multiplicity
 _atom_site_fract_x
 _atom_site_fract_y
 _atom_site_fract_z
 _atom_site_occupancy
  Rb  Rb0  1  0.30750129  0.38085780  0.00413962  1
  Rb  Rb1  1  0.69249871  0.61914220  0.99586038  1
  Rb  Rb2  1  0.31164091  0.99586038  0.38085780  1
  Rb  Rb3  1  0.68835909  0.00413962  0.61914220  1
  Sc  Sc4  1  0.24262280  0.00000000  0.00000000  1
  Sc  Sc5  1  0.75737720  0.00000000  0.00000000  1
  Si  Si6  1  0.18230120  0.32143766  0.69457963  1
  Si  Si7  1  0.19831849  0.67856234  0.30542037  1
  Si  Si8  1  0.87688083  0.30542037  0.32143766  1
  Si  Si9  1  0.50373886  0.69457963  0.67856234  1
  Si  Si10  1  0.81769880  0.67856234  0.30542037  1
  Si  Si11  1  0.80168151  0.32143766  0.69457963  1
  Si  Si12  1  0.12311917  0.69457963  0.67856234  1
  Si  Si13  1  0.49626114  0.30542037  0.32143766  1
  O  O14  1  0.96205508  0.35791217  0.71797766  1
  O  O15  1  0.03794492  0.64208783  0.28202234  1
  O  O16  1  0.68003275  0.28202234  0.35791217  1
  O  O17  1  0.31996725  0.71797766  0.64208783  1
  O  O18  1  0.25744860  0.18428783  0.81689043  1
  O  O19  1  0.25862687  0.81571217  0.18310957  1
  O  O20  1  0.07433904  0.18310957  0.18428783  1
  O  O21  1  0.44173644  0.81689043  0.81571217  1
  O  O22  1  0.74255140  0.81571217  0.18310957  1
  O  O23  1  0.74137313  0.18428783  0.81689043  1
  O  O24  1  0.92566096  0.81689043  0.81571217  1
  O  O25  1  0.55826356  0.18310957  0.18428783  1
  O  O26  1  0.16519124  0.49977208  0.73085122  1
  O  O27  1  0.39581454  0.50022792  0.26914878  1
  O  O28  1  0.89604246  0.26914878  0.49977208  1
  O  O29  1  0.66496332  0.73085122  0.50022792  1
  O  O30  1  0.83480876  0.50022792  0.26914878  1
  O  O31  1  0.60418546  0.49977208  0.73085122  1
  O  O32  1  0.10395754  0.73085122  0.50022792  1
  O  O33  1  0.33503668  0.26914878  0.49977208  1
  F  F34  1  -0.00000000  0.00000000  0.00000000  1
  F  F35  1  0.50000000  0.00000000  0.00000000  1
