# generated using pymatgen
data_Na3B6ClO10
_symmetry_space_group_name_H-M   'P 1'
_cell_length_a   7.48956324
_cell_length_b   10.00589815
_cell_length_c   12.89428475
_cell_angle_alpha   90.00000000
_cell_angle_beta   90.00000000
_cell_angle_gamma   90.00000000
_symmetry_Int_Tables_number   1
_chemical_formula_structural   Na3B6ClO10
_chemical_formula_sum   'Na12 B24 Cl4 O40'
_cell_volume   966.29521015
_cell_formula_units_Z   4
loop_
 _symmetry_equiv_pos_site_id
 _symmetry_equiv_pos_as_xyz
  1  'x, y, z'
loop_
 _atom_site_type_symbol
 _atom_site_label
 _atom_site_symmetry_multiplicity
 _atom_site_fract_x
 _atom_site_fract_y
 _atom_site_fract_z
 _atom_site_occupancy
  Na  Na0  1  0.55270037  0.70917788  0.25710265  1
  Na  Na1  1  0.94729963  0.29082212  0.75710265  1
  Na  Na2  1  0.05270037  0.79082212  0.74289735  1
  Na  Na3  1  0.44729963  0.20917788  0.24289735  1
  Na  Na4  1  0.02520151  0.75891597  0.24574830  1
  Na  Na5  1  0.47479849  0.24108403  0.74574830  1
  Na  Na6  1  0.52520151  0.74108403  0.75425170  1
  Na  Na7  1  0.97479849  0.25891597  0.25425170  1
  Na  Na8  1  0.86899300  0.50336306  0.05762171  1
  Na  Na9  1  0.63100700  0.49663694  0.55762171  1
  Na  Na10  1  0.36899300  0.99663694  0.94237829  1
  Na  Na11  1  0.13100700  0.00336306  0.44237829  1
  B  B12  1  0.74885731  0.99896259  0.25620559  1
  B  B13  1  0.75114269  0.00103741  0.75620559  1
  B  B14  1  0.24885731  0.50103741  0.74379441  1
  B  B15  1  0.25114269  0.49896259  0.24379441  1
  B  B16  1  0.97682807  0.23352760  0.98092305  1
  B  B17  1  0.52317193  0.76647240  0.48092305  1
  B  B18  1  0.47682807  0.26647240  0.01907695  1
  B  B19  1  0.02317193  0.73352760  0.51907695  1
  B  B20  1  0.24839589  0.63112630  0.91037579  1
  B  B21  1  0.25160411  0.36887370  0.41037579  1
  B  B22  1  0.74839589  0.86887370  0.08962421  1
  B  B23  1  0.75160411  0.13112630  0.58962421  1
  B  B24  1  0.88599249  0.00183402  0.93387354  1
  B  B25  1  0.61400751  0.99816598  0.43387354  1
  B  B26  1  0.38599249  0.49816598  0.06612646  1
  B  B27  1  0.11400751  0.50183402  0.56612646  1
  B  B28  1  0.98340409  0.76962983  0.97600375  1
  B  B29  1  0.51659591  0.23037017  0.47600375  1
  B  B30  1  0.48340409  0.73037017  0.02399625  1
  B  B31  1  0.01659591  0.26962983  0.52399625  1
  B  B32  1  0.23975268  0.37049499  0.91151662  1
  B  B33  1  0.26024732  0.62950501  0.41151662  1
  B  B34  1  0.73975268  0.12950501  0.08848338  1
  B  B35  1  0.76024732  0.87049499  0.58848338  1
  Cl  Cl36  1  0.81910352  0.51646857  0.27964383  1
  Cl  Cl37  1  0.68089648  0.48353143  0.77964383  1
  Cl  Cl38  1  0.31910352  0.98353143  0.72035617  1
  Cl  Cl39  1  0.18089648  0.01646857  0.22035617  1
  O  O40  1  0.81487813  0.00010034  0.04479814  1
  O  O41  1  0.68512187  0.99989966  0.54479814  1
  O  O42  1  0.31487813  0.49989966  0.95520186  1
  O  O43  1  0.18512187  0.50010034  0.45520186  1
  O  O44  1  0.87136453  0.76137520  0.06097350  1
  O  O45  1  0.62863547  0.23862480  0.56097350  1
  O  O46  1  0.37136453  0.73862480  0.93902650  1
  O  O47  1  0.12863547  0.26137520  0.43902650  1
  O  O48  1  0.86391340  0.23872023  0.06547819  1
  O  O49  1  0.63608660  0.76127977  0.56547819  1
  O  O50  1  0.36391340  0.26127977  0.93452181  1
  O  O51  1  0.13608660  0.73872023  0.43452181  1
  O  O52  1  0.75183779  0.87832345  0.20419254  1
  O  O53  1  0.74816221  0.12167655  0.70419254  1
  O  O54  1  0.25183779  0.62167655  0.79580746  1
  O  O55  1  0.24816221  0.37832345  0.29580746  1
  O  O56  1  0.72830682  0.11766811  0.20257970  1
  O  O57  1  0.77169318  0.88233189  0.70257970  1
  O  O58  1  0.22830682  0.38233189  0.79742030  1
  O  O59  1  0.27169318  0.61766811  0.29742030  1
  O  O60  1  0.00281609  0.88462862  0.91913743  1
  O  O61  1  0.49718391  0.11537138  0.41913743  1
  O  O62  1  0.50281609  0.61537138  0.08086257  1
  O  O63  1  0.99718391  0.38462862  0.58086257  1
  O  O64  1  0.76489751  0.00177311  0.36203019  1
  O  O65  1  0.73510249  0.99822689  0.86203019  1
  O  O66  1  0.26489751  0.49822689  0.63796981  1
  O  O67  1  0.23510249  0.50177311  0.13796981  1
  O  O68  1  0.99270538  0.12312341  0.91869093  1
  O  O69  1  0.50729462  0.87687659  0.41869093  1
  O  O70  1  0.49270538  0.37687659  0.08130907  1
  O  O71  1  0.00729462  0.62312341  0.58130907  1
  O  O72  1  0.06889813  0.65362869  0.94954551  1
  O  O73  1  0.43110187  0.34637131  0.44954551  1
  O  O74  1  0.56889813  0.84637131  0.05045449  1
  O  O75  1  0.93110187  0.15362869  0.55045449  1
  O  O76  1  0.06382152  0.35021526  0.95747845  1
  O  O77  1  0.43617848  0.64978474  0.45747845  1
  O  O78  1  0.56382152  0.14978474  0.04252155  1
  O  O79  1  0.93617848  0.85021526  0.54252155  1
