# generated using pymatgen
data_K3NaCu4(S2O9)2
_symmetry_space_group_name_H-M   'P 1'
_cell_length_a   4.96535496
_cell_length_b   14.62420463
_cell_length_c   24.60155172
_cell_angle_alpha   90.00000000
_cell_angle_beta   90.00000000
_cell_angle_gamma   90.00000000
_symmetry_Int_Tables_number   1
_chemical_formula_structural   K3NaCu4(S2O9)2
_chemical_formula_sum   'K12 Na4 Cu16 S16 O72'
_cell_volume   1786.42610526
_cell_formula_units_Z   4
loop_
 _symmetry_equiv_pos_site_id
 _symmetry_equiv_pos_as_xyz
  1  'x, y, z'
loop_
 _atom_site_type_symbol
 _atom_site_label
 _atom_site_symmetry_multiplicity
 _atom_site_fract_x
 _atom_site_fract_y
 _atom_site_fract_z
 _atom_site_occupancy
  K  K0  1  0.98904784  0.53493255  0.26357735  1
  K  K1  1  0.48904784  0.46506745  0.73642265  1
  K  K2  1  0.48904784  0.96506745  0.76357735  1
  K  K3  1  0.98904784  0.03493255  0.23642265  1
  K  K4  1  0.42151540  0.43052385  0.54170244  1
  K  K5  1  0.92151540  0.56947615  0.45829756  1
  K  K6  1  0.92151540  0.06947615  0.04170244  1
  K  K7  1  0.42151540  0.93052385  0.95829756  1
  K  K8  1  0.90253106  0.37901653  0.07439802  1
  K  K9  1  0.40253106  0.62098347  0.92560198  1
  K  K10  1  0.40253106  0.12098347  0.57439802  1
  K  K11  1  0.90253106  0.87901653  0.42560198  1
  Na  Na12  1  0.92989870  0.76082658  0.84927389  1
  Na  Na13  1  0.42989870  0.23917342  0.15072611  1
  Na  Na14  1  0.42989870  0.73917342  0.34927389  1
  Na  Na15  1  0.92989870  0.26082658  0.65072611  1
  Cu  Cu16  1  0.94448472  0.84819827  0.14257669  1
  Cu  Cu17  1  0.44448472  0.15180173  0.85742331  1
  Cu  Cu18  1  0.44448472  0.65180173  0.64257669  1
  Cu  Cu19  1  0.94448472  0.34819827  0.35742331  1
  Cu  Cu20  1  0.44183590  0.73539630  0.19648336  1
  Cu  Cu21  1  0.94183590  0.26460370  0.80351664  1
  Cu  Cu22  1  0.94183590  0.76460370  0.69648336  1
  Cu  Cu23  1  0.44183590  0.23539630  0.30351664  1
  Cu  Cu24  1  0.38760041  0.73871257  0.07800994  1
  Cu  Cu25  1  0.88760041  0.26128743  0.92199006  1
  Cu  Cu26  1  0.88760041  0.76128743  0.57800994  1
  Cu  Cu27  1  0.38760041  0.23871257  0.42199006  1
  Cu  Cu28  1  0.88406783  0.64517319  0.12695493  1
  Cu  Cu29  1  0.38406783  0.35482681  0.87304507  1
  Cu  Cu30  1  0.38406783  0.85482681  0.62695493  1
  Cu  Cu31  1  0.88406783  0.14517319  0.37304507  1
  S  S32  1  0.93659446  0.77084584  0.27231492  1
  S  S33  1  0.43659446  0.22915416  0.72768508  1
  S  S34  1  0.43659446  0.72915416  0.77231492  1
  S  S35  1  0.93659446  0.27084584  0.22768508  1
  S  S36  1  0.89962863  0.76688131  0.00211380  1
  S  S37  1  0.39962863  0.23311869  0.99788620  1
  S  S38  1  0.39962863  0.73311869  0.50211380  1
  S  S39  1  0.89962863  0.26688131  0.49788620  1
  S  S40  1  0.44694943  0.98280667  0.12733763  1
  S  S41  1  0.94694943  0.01719333  0.87266237  1
  S  S42  1  0.94694943  0.51719333  0.62733763  1
  S  S43  1  0.44694943  0.48280667  0.37266237  1
  S  S44  1  0.39347377  0.51618668  0.14268828  1
  S  S45  1  0.89347377  0.48381332  0.85731172  1
  S  S46  1  0.89347377  0.98381332  0.64268828  1
  S  S47  1  0.39347377  0.01618668  0.35731172  1
  O  O48  1  0.15834171  0.73392020  0.14251423  1
  O  O49  1  0.65834171  0.26607980  0.85748577  1
  O  O50  1  0.65834171  0.76607980  0.64251423  1
  O  O51  1  0.15834171  0.23392020  0.35748577  1
  O  O52  1  0.66839785  0.75298053  0.13266409  1
  O  O53  1  0.16839785  0.24701947  0.86733591  1
  O  O54  1  0.16839785  0.74701947  0.63266409  1
  O  O55  1  0.66839785  0.25298053  0.36733591  1
  O  O56  1  0.89800042  0.77039936  0.33204299  1
  O  O57  1  0.39800042  0.22960064  0.66795701  1
  O  O58  1  0.39800042  0.72960064  0.83204299  1
  O  O59  1  0.89800042  0.27039936  0.16795701  1
  O  O60  1  0.60395120  0.74233163  0.00994609  1
  O  O61  1  0.10395120  0.25766837  0.99005391  1
  O  O62  1  0.10395120  0.75766837  0.50994609  1
  O  O63  1  0.60395120  0.24233163  0.49005391  1
  O  O64  1  0.43517126  0.41790362  0.13350075  1
  O  O65  1  0.93517126  0.58209638  0.86649925  1
  O  O66  1  0.93517126  0.08209638  0.63350075  1
  O  O67  1  0.43517126  0.91790362  0.36649925  1
  O  O68  1  0.74112178  0.96414401  0.14069689  1
  O  O69  1  0.24112178  0.03585599  0.85930311  1
  O  O70  1  0.24112178  0.53585599  0.64069689  1
  O  O71  1  0.74112178  0.46414401  0.35930311  1
  O  O72  1  0.38736400  0.07726806  0.14428287  1
  O  O73  1  0.88736400  0.92273194  0.85571713  1
  O  O74  1  0.88736400  0.42273194  0.64428287  1
  O  O75  1  0.38736400  0.57726806  0.35571713  1
  O  O76  1  0.09923623  0.53444292  0.12808065  1
  O  O77  1  0.59923623  0.46555708  0.87191935  1
  O  O78  1  0.59923623  0.96555708  0.62808065  1
  O  O79  1  0.09923623  0.03444292  0.37191935  1
  O  O80  1  0.56677182  0.57017120  0.10283993  1
  O  O81  1  0.06677182  0.42982880  0.89716007  1
  O  O82  1  0.06677182  0.92982880  0.60283993  1
  O  O83  1  0.56677182  0.07017120  0.39716007  1
  O  O84  1  0.89892264  0.86054001  0.24725424  1
  O  O85  1  0.39892264  0.13945999  0.75274576  1
  O  O86  1  0.39892264  0.63945999  0.74725424  1
  O  O87  1  0.89892264  0.36054001  0.25274576  1
  O  O88  1  0.21971415  0.73465739  0.26309444  1
  O  O89  1  0.71971415  0.26534261  0.73690556  1
  O  O90  1  0.71971415  0.76534261  0.76309444  1
  O  O91  1  0.21971415  0.23465739  0.23690556  1
  O  O92  1  0.74579588  0.70250523  0.24704216  1
  O  O93  1  0.24579588  0.29749477  0.75295784  1
  O  O94  1  0.24579588  0.79749477  0.74704216  1
  O  O95  1  0.74579588  0.20250523  0.25295784  1
  O  O96  1  0.27980827  0.91748459  0.16066354  1
  O  O97  1  0.77980827  0.08251541  0.83933646  1
  O  O98  1  0.77980827  0.58251541  0.66066354  1
  O  O99  1  0.27980827  0.41748459  0.33933646  1
  O  O100  1  0.95318558  0.85979983  0.02221549  1
  O  O101  1  0.45318558  0.14020017  0.97778451  1
  O  O102  1  0.45318558  0.64020017  0.52221549  1
  O  O103  1  0.95318558  0.35979983  0.47778451  1
  O  O104  1  0.44889366  0.54679639  0.19848371  1
  O  O105  1  0.94889366  0.45320361  0.80151629  1
  O  O106  1  0.94889366  0.95320361  0.69848371  1
  O  O107  1  0.44889366  0.04679639  0.30151629  1
  O  O108  1  0.95757414  0.75708047  0.94360985  1
  O  O109  1  0.45757414  0.24291953  0.05639015  1
  O  O110  1  0.45757414  0.74291953  0.44360985  1
  O  O111  1  0.95757414  0.25708047  0.55639015  1
  O  O112  1  0.06648820  0.69734402  0.03318376  1
  O  O113  1  0.56648820  0.30265598  0.96681624  1
  O  O114  1  0.56648820  0.80265598  0.53318376  1
  O  O115  1  0.06648820  0.19734402  0.46681624  1
  O  O116  1  0.40233305  0.96936583  0.06864591  1
  O  O117  1  0.90233305  0.03063417  0.93135409  1
  O  O118  1  0.90233305  0.53063417  0.56864591  1
  O  O119  1  0.40233305  0.46936583  0.43135409  1
