# generated using pymatgen
data_Dy4GaSbS9
_symmetry_space_group_name_H-M   'P 1'
_cell_length_a   9.88592498
_cell_length_b   9.88592498
_cell_length_c   13.53479395
_cell_angle_alpha   90.00000000
_cell_angle_beta   90.00000000
_cell_angle_gamma   90.94831207
_symmetry_Int_Tables_number   1
_chemical_formula_structural   Dy4GaSbS9
_chemical_formula_sum   'Dy16 Ga4 Sb4 S36'
_cell_volume   1322.59470854
_cell_formula_units_Z   4
loop_
 _symmetry_equiv_pos_site_id
 _symmetry_equiv_pos_as_xyz
  1  'x, y, z'
loop_
 _atom_site_type_symbol
 _atom_site_label
 _atom_site_symmetry_multiplicity
 _atom_site_fract_x
 _atom_site_fract_y
 _atom_site_fract_z
 _atom_site_occupancy
  Dy  Dy0  1  0.62566103  0.04274905  0.68299971  1
  Dy  Dy1  1  0.95725095  0.37433897  0.31700029  1
  Dy  Dy2  1  0.12566103  0.54274905  0.81700029  1
  Dy  Dy3  1  0.45725095  0.87433897  0.18299971  1
  Dy  Dy4  1  0.12787116  0.09114260  0.81289256  1
  Dy  Dy5  1  0.90885740  0.87212884  0.18710744  1
  Dy  Dy6  1  0.62787116  0.59114260  0.68710744  1
  Dy  Dy7  1  0.40885740  0.37212884  0.31289256  1
  Dy  Dy8  1  0.33760050  0.32025968  0.60082112  1
  Dy  Dy9  1  0.67974032  0.66239950  0.39917888  1
  Dy  Dy10  1  0.83760050  0.82025968  0.89917888  1
  Dy  Dy11  1  0.17974032  0.16239950  0.10082112  1
  Dy  Dy12  1  0.44984373  0.32863085  0.89629125  1
  Dy  Dy13  1  0.67136915  0.55015627  0.10370875  1
  Dy  Dy14  1  0.94984373  0.82863085  0.60370875  1
  Dy  Dy15  1  0.17136915  0.05015627  0.39629125  1
  Ga  Ga16  1  0.38677792  0.82379614  0.90867872  1
  Ga  Ga17  1  0.17620386  0.61322208  0.09132128  1
  Ga  Ga18  1  0.88677792  0.32379614  0.59132128  1
  Ga  Ga19  1  0.67620386  0.11322208  0.40867872  1
  Sb  Sb20  1  0.33001150  0.83148819  0.61319021  1
  Sb  Sb21  1  0.16851181  0.66998850  0.38680979  1
  Sb  Sb22  1  0.83001150  0.33148819  0.88680979  1
  Sb  Sb23  1  0.66851181  0.16998850  0.11319021  1
  S  S24  1  0.16355803  0.01507497  0.59922404  1
  S  S25  1  0.98492503  0.83644197  0.40077596  1
  S  S26  1  0.66355803  0.51507497  0.90077596  1
  S  S27  1  0.48492503  0.33644197  0.09922404  1
  S  S28  1  0.66253200  0.14727523  0.91849451  1
  S  S29  1  0.85272477  0.33746800  0.08150549  1
  S  S30  1  0.16253200  0.64727523  0.58150549  1
  S  S31  1  0.35272477  0.83746800  0.41849451  1
  S  S32  1  0.20410072  0.81846008  0.80275551  1
  S  S33  1  0.18153992  0.79589928  0.19724449  1
  S  S34  1  0.70410072  0.31846008  0.69724449  1
  S  S35  1  0.68153992  0.29589928  0.30275551  1
  S  S36  1  0.57746430  0.82157304  0.80909552  1
  S  S37  1  0.17842696  0.42253570  0.19090448  1
  S  S38  1  0.07746430  0.32157304  0.69090448  1
  S  S39  1  0.67842696  0.92253570  0.30909552  1
  S  S40  1  0.87499422  0.12500578  0.50000000  1
  S  S41  1  0.37499422  0.62500578  -0.00000000  1
  S  S42  1  0.49197116  0.11671621  0.51127142  1
  S  S43  1  0.88328379  0.50802884  0.48872858  1
  S  S44  1  0.99197116  0.61671621  0.98872858  1
  S  S45  1  0.38328379  0.00802884  0.01127142  1
  S  S46  1  0.68143584  0.81162416  0.56839800  1
  S  S47  1  0.18837584  0.31856416  0.43160200  1
  S  S48  1  0.18143584  0.31162416  0.93160200  1
  S  S49  1  0.68837584  0.81856416  0.06839800  1
  S  S50  1  0.88163222  0.00284247  0.75147581  1
  S  S51  1  0.99715753  0.11836778  0.24852419  1
  S  S52  1  0.38163222  0.50284247  0.74852419  1
  S  S53  1  0.49715753  0.61836778  0.25147581  1
  S  S54  1  0.50053555  0.49946445  0.50000000  1
  S  S55  1  0.00053555  0.99946445  -0.00000000  1
  S  S56  1  0.39049714  0.14233434  0.75458714  1
  S  S57  1  0.85766566  0.60950286  0.24541286  1
  S  S58  1  0.89049714  0.64233434  0.74541286  1
  S  S59  1  0.35766566  0.10950286  0.25458714  1
