# generated using pymatgen
data_VH6SO8
_symmetry_space_group_name_H-M   'P 1'
_cell_length_a   7.54235267
_cell_length_b   7.52226583
_cell_length_c   12.12780173
_cell_angle_alpha   90.00000000
_cell_angle_beta   106.85129030
_cell_angle_gamma   90.00000000
_symmetry_Int_Tables_number   1
_chemical_formula_structural   VH6SO8
_chemical_formula_sum   'V4 H24 S4 O32'
_cell_volume   658.53208144
_cell_formula_units_Z   4
loop_
 _symmetry_equiv_pos_site_id
 _symmetry_equiv_pos_as_xyz
  1  'x, y, z'
loop_
 _atom_site_type_symbol
 _atom_site_label
 _atom_site_symmetry_multiplicity
 _atom_site_fract_x
 _atom_site_fract_y
 _atom_site_fract_z
 _atom_site_occupancy
  V  V0  1  0.93208408  0.78245203  0.62583906  1
  V  V1  1  0.43208408  0.71754797  0.12583906  1
  V  V2  1  0.06791592  0.21754797  0.37416094  1
  V  V3  1  0.56791592  0.28245203  0.87416094  1
  H  H4  1  0.62339000  0.65560301  0.44404856  1
  H  H5  1  0.12339000  0.84439699  0.94404856  1
  H  H6  1  0.37661000  0.34439699  0.55595144  1
  H  H7  1  0.87661000  0.15560301  0.05595144  1
  H  H8  1  0.70905875  0.48687213  0.51767248  1
  H  H9  1  0.20905875  0.01312787  0.01767248  1
  H  H10  1  0.29094125  0.51312787  0.48232752  1
  H  H11  1  0.79094125  0.98687213  0.98232752  1
  H  H12  1  0.14547063  0.49379281  0.62898788  1
  H  H13  1  0.64547063  0.00620719  0.12898788  1
  H  H14  1  0.85452937  0.50620719  0.37101212  1
  H  H15  1  0.35452937  0.99379281  0.87101212  1
  H  H16  1  0.58912028  0.01463233  0.24667451  1
  H  H17  1  0.08912028  0.48536767  0.74667451  1
  H  H18  1  0.41087972  0.98536767  0.75332549  1
  H  H19  1  0.91087972  0.51463233  0.25332549  1
  H  H20  1  0.77155378  0.72694142  0.79166951  1
  H  H21  1  0.27155378  0.77305858  0.29166951  1
  H  H22  1  0.22844622  0.27305858  0.20833049  1
  H  H23  1  0.72844622  0.22694142  0.70833049  1
  H  H24  1  0.61036076  0.75787277  0.67456257  1
  H  H25  1  0.11036076  0.74212723  0.17456257  1
  H  H26  1  0.38963924  0.24212723  0.32543743  1
  H  H27  1  0.88963924  0.25787277  0.82543743  1
  S  S28  1  0.27052361  0.85942757  0.51346763  1
  S  S29  1  0.77052361  0.64057243  0.01346763  1
  S  S30  1  0.72947639  0.14057243  0.48653237  1
  S  S31  1  0.22947639  0.35942757  0.98653237  1
  O  O32  1  0.05370378  0.90649478  0.73012327  1
  O  O33  1  0.55370378  0.59350522  0.23012327  1
  O  O34  1  0.94629622  0.09350522  0.26987673  1
  O  O35  1  0.44629622  0.40649478  0.76987673  1
  O  O36  1  0.74143004  0.59841214  0.48400357  1
  O  O37  1  0.24143004  0.90158786  0.98400357  1
  O  O38  1  0.25856996  0.40158786  0.51599643  1
  O  O39  1  0.75856996  0.09841214  0.01599643  1
  O  O40  1  0.05675750  0.53905849  0.66847638  1
  O  O41  1  0.55675750  0.96094151  0.16847638  1
  O  O42  1  0.94324250  0.46094151  0.33152362  1
  O  O43  1  0.44324250  0.03905849  0.83152362  1
  O  O44  1  0.73631865  0.70568276  0.70684731  1
  O  O45  1  0.23631865  0.79431724  0.20684731  1
  O  O46  1  0.26368135  0.29431724  0.29315269  1
  O  O47  1  0.76368135  0.20568276  0.79315269  1
  O  O48  1  0.73782604  0.95622027  0.53397062  1
  O  O49  1  0.23782604  0.54377973  0.03397062  1
  O  O50  1  0.26217396  0.04377973  0.46602938  1
  O  O51  1  0.76217396  0.45622027  0.96602938  1
  O  O52  1  0.07851372  0.80197380  0.50995115  1
  O  O53  1  0.57851372  0.69802620  0.00995115  1
  O  O54  1  0.92148628  0.19802620  0.49004885  1
  O  O55  1  0.42148628  0.30197380  0.99004885  1
  O  O56  1  0.33827436  0.73499004  0.43904439  1
  O  O57  1  0.83827436  0.76500996  0.93904439  1
  O  O58  1  0.66172564  0.26500996  0.56095561  1
  O  O59  1  0.16172564  0.23499004  0.06095561  1
  O  O60  1  0.39580640  0.85713266  0.63221363  1
  O  O61  1  0.89580640  0.64286734  0.13221363  1
  O  O62  1  0.60419360  0.14286734  0.36778637  1
  O  O63  1  0.10419360  0.35713266  0.86778637  1
