# generated using pymatgen
data_Ba3MnV4O14
_symmetry_space_group_name_H-M   'P 1'
_cell_length_a   7.31389395
_cell_length_b   13.85527616
_cell_length_c   14.26144174
_cell_angle_alpha   90.00000000
_cell_angle_beta   90.00000000
_cell_angle_gamma   101.13055159
_symmetry_Int_Tables_number   1
_chemical_formula_structural   Ba3MnV4O14
_chemical_formula_sum   'Ba12 Mn4 V16 O56'
_cell_volume   1418.01338980
_cell_formula_units_Z   4
loop_
 _symmetry_equiv_pos_site_id
 _symmetry_equiv_pos_as_xyz
  1  'x, y, z'
loop_
 _atom_site_type_symbol
 _atom_site_label
 _atom_site_symmetry_multiplicity
 _atom_site_fract_x
 _atom_site_fract_y
 _atom_site_fract_z
 _atom_site_occupancy
  Ba  Ba0  1  0.82633144  0.21950735  0.05418563  1
  Ba  Ba1  1  0.67366856  0.28049265  0.55418563  1
  Ba  Ba2  1  0.17366856  0.78049265  0.94581437  1
  Ba  Ba3  1  0.32633144  0.71950735  0.44581437  1
  Ba  Ba4  1  0.23883200  0.29498710  0.77112227  1
  Ba  Ba5  1  0.26116800  0.20501290  0.27112227  1
  Ba  Ba6  1  0.76116800  0.70501290  0.22887773  1
  Ba  Ba7  1  0.73883200  0.79498710  0.72887773  1
  Ba  Ba8  1  0.75896777  0.48486069  0.89111869  1
  Ba  Ba9  1  0.74103223  0.01513931  0.39111869  1
  Ba  Ba10  1  0.24103223  0.51513931  0.10888131  1
  Ba  Ba11  1  0.25896777  0.98486069  0.60888131  1
  Mn  Mn12  1  0.38233940  0.00666283  0.10016590  1
  Mn  Mn13  1  0.11766060  0.49333717  0.60016590  1
  Mn  Mn14  1  0.61766060  0.99333717  0.89983410  1
  Mn  Mn15  1  0.88233940  0.50666283  0.39983410  1
  V  V16  1  0.33748588  0.24136120  0.02784798  1
  V  V17  1  0.16251412  0.25863880  0.52784798  1
  V  V18  1  0.66251412  0.75863880  0.97215202  1
  V  V19  1  0.83748588  0.74136120  0.47215202  1
  V  V20  1  0.15743410  0.04964983  0.88934580  1
  V  V21  1  0.34256590  0.45035017  0.38934580  1
  V  V22  1  0.84256590  0.95035017  0.11065420  1
  V  V23  1  0.65743410  0.54964983  0.61065420  1
  V  V24  1  0.25551282  0.76704033  0.18804773  1
  V  V25  1  0.24448718  0.73295967  0.68804773  1
  V  V26  1  0.74448718  0.23295967  0.81195227  1
  V  V27  1  0.75551282  0.26704033  0.31195227  1
  V  V28  1  0.25172437  0.94941263  0.33133455  1
  V  V29  1  0.24827563  0.55058737  0.83133455  1
  V  V30  1  0.74827563  0.05058737  0.66866545  1
  V  V31  1  0.75172437  0.44941263  0.16866545  1
  O  O32  1  0.50983319  0.32201980  0.97553081  1
  O  O33  1  0.99016681  0.17798020  0.47553081  1
  O  O34  1  0.49016681  0.67798020  0.02446919  1
  O  O35  1  0.00983319  0.82201980  0.52446919  1
  O  O36  1  0.43672722  0.16283122  0.09891226  1
  O  O37  1  0.06327278  0.33716878  0.59891226  1
  O  O38  1  0.56327278  0.83716878  0.90108774  1
  O  O39  1  0.93672722  0.66283122  0.40108774  1
  O  O40  1  0.20393819  0.30050814  0.09857367  1
  O  O41  1  0.29606181  0.19949186  0.59857367  1
  O  O42  1  0.79606181  0.69949186  0.90142633  1
  O  O43  1  0.70393819  0.80050814  0.40142633  1
  O  O44  1  0.16985621  0.17290256  0.94326914  1
  O  O45  1  0.33014379  0.32709744  0.44326914  1
  O  O46  1  0.83014379  0.82709744  0.05673086  1
  O  O47  1  0.66985621  0.67290256  0.55673086  1
  O  O48  1  0.31575023  0.98456248  0.94474069  1
  O  O49  1  0.18424977  0.51543752  0.44474069  1
  O  O50  1  0.68424977  0.01543752  0.05525931  1
  O  O51  1  0.81575023  0.48456248  0.55525931  1
  O  O52  1  0.22446672  0.07710078  0.77808179  1
  O  O53  1  0.27553328  0.42289922  0.27808179  1
  O  O54  1  0.77553328  0.92289922  0.22191821  1
  O  O55  1  0.72446672  0.57710078  0.72191821  1
  O  O56  1  0.93346400  0.98367592  0.88908329  1
  O  O57  1  0.56653600  0.51632408  0.38908329  1
  O  O58  1  0.06653600  0.01632408  0.11091671  1
  O  O59  1  0.43346400  0.48367592  0.61091671  1
  O  O60  1  0.36532697  0.85347569  0.10952325  1
  O  O61  1  0.13467303  0.64652431  0.60952325  1
  O  O62  1  0.63467303  0.14652431  0.89047675  1
  O  O63  1  0.86532697  0.35347569  0.39047675  1
  O  O64  1  0.08755096  0.69055891  0.12502059  1
  O  O65  1  0.41244904  0.80944109  0.62502059  1
  O  O66  1  0.91244904  0.30944109  0.87497941  1
  O  O67  1  0.58755096  0.19055891  0.37497941  1
  O  O68  1  0.39341032  0.69739397  0.24434359  1
  O  O69  1  0.10658968  0.80260603  0.74434359  1
  O  O70  1  0.60658968  0.30260603  0.75565641  1
  O  O71  1  0.89341032  0.19739397  0.25565641  1
  O  O72  1  0.14130981  0.82963115  0.27755638  1
  O  O73  1  0.35869019  0.67036885  0.77755638  1
  O  O74  1  0.85869019  0.17036885  0.72244362  1
  O  O75  1  0.64130981  0.32963115  0.22244362  1
  O  O76  1  0.40347155  0.01668578  0.25272089  1
  O  O77  1  0.09652845  0.48331422  0.75272089  1
  O  O78  1  0.59652845  0.98331422  0.74727911  1
  O  O79  1  0.90347155  0.51668578  0.24727911  1
  O  O80  1  0.37890889  0.92288804  0.42639731  1
  O  O81  1  0.12109111  0.57711196  0.92639731  1
  O  O82  1  0.62109111  0.07711196  0.57360269  1
  O  O83  1  0.87890889  0.42288804  0.07360269  1
  O  O84  1  0.10455276  0.02287317  0.36668990  1
  O  O85  1  0.39544724  0.47712683  0.86668990  1
  O  O86  1  0.89544724  0.97712683  0.63331010  1
  O  O87  1  0.60455276  0.52287317  0.13331010  1
