# generated using pymatgen
data_ZnB12(H5O12)2
_symmetry_space_group_name_H-M   'P 1'
_cell_length_a   8.70160010
_cell_length_b   8.78193684
_cell_length_c   11.71922062
_cell_angle_alpha   102.87976037
_cell_angle_beta   90.00000000
_cell_angle_gamma   90.00000000
_symmetry_Int_Tables_number   1
_chemical_formula_structural   ZnB12(H5O12)2
_chemical_formula_sum   'Zn2 B24 H20 O48'
_cell_volume   873.01458540
_cell_formula_units_Z   2
loop_
 _symmetry_equiv_pos_site_id
 _symmetry_equiv_pos_as_xyz
  1  'x, y, z'
loop_
 _atom_site_type_symbol
 _atom_site_label
 _atom_site_symmetry_multiplicity
 _atom_site_fract_x
 _atom_site_fract_y
 _atom_site_fract_z
 _atom_site_occupancy
  Zn  Zn0  1  0.50000000  0.50000000  0.50000000  1
  Zn  Zn1  1  -0.00000000  0.00000000  0.50000000  1
  B  B2  1  0.59352637  0.70645298  0.96866056  1
  B  B3  1  0.09352637  0.79354702  0.03133944  1
  B  B4  1  0.40647363  0.29354702  0.03133944  1
  B  B5  1  0.90647363  0.20645298  0.96866056  1
  B  B6  1  0.59384634  0.89514739  0.84869594  1
  B  B7  1  0.09384634  0.60485261  0.15130406  1
  B  B8  1  0.40615366  0.10485261  0.15130406  1
  B  B9  1  0.90615366  0.39514739  0.84869594  1
  B  B10  1  0.45772696  0.64103701  0.77993688  1
  B  B11  1  0.95772696  0.85896299  0.22006312  1
  B  B12  1  0.54227304  0.35896299  0.22006312  1
  B  B13  1  0.04227304  0.14103701  0.77993688  1
  B  B14  1  0.20426010  0.56281036  0.64715884  1
  B  B15  1  0.70426010  0.93718964  0.35284116  1
  B  B16  1  0.79573990  0.43718964  0.35284116  1
  B  B17  1  0.29573990  0.06281036  0.64715884  1
  B  B18  1  0.24757111  0.25521173  0.52300240  1
  B  B19  1  0.74757111  0.24478827  0.47699760  1
  B  B20  1  0.75242889  0.74478827  0.47699760  1
  B  B21  1  0.25242889  0.75521173  0.52300240  1
  B  B22  1  0.51215180  0.20583508  0.58308783  1
  B  B23  1  0.01215180  0.29416492  0.41691217  1
  B  B24  1  0.48784820  0.79416492  0.41691217  1
  B  B25  1  0.98784820  0.70583508  0.58308783  1
  H  H26  1  0.22314399  0.69998363  0.82488336  1
  H  H27  1  0.72314399  0.80001637  0.17511664  1
  H  H28  1  0.77685601  0.30001637  0.17511664  1
  H  H29  1  0.27685601  0.19998363  0.82488336  1
  H  H30  1  0.11796665  0.35763816  0.68404042  1
  H  H31  1  0.61796665  0.14236184  0.31595958  1
  H  H32  1  0.88203335  0.64236184  0.31595958  1
  H  H33  1  0.38203335  0.85763816  0.68404042  1
  H  H34  1  0.58792764  0.06834400  0.76646093  1
  H  H35  1  0.08792764  0.43165600  0.23353907  1
  H  H36  1  0.41207236  0.93165600  0.23353907  1
  H  H37  1  0.91207236  0.56834400  0.76646093  1
  H  H38  1  0.59369481  0.57320966  0.08641784  1
  H  H39  1  0.09369481  0.92679034  0.91358216  1
  H  H40  1  0.40630519  0.42679034  0.91358216  1
  H  H41  1  0.90630519  0.07320966  0.08641784  1
  H  H42  1  0.36706638  0.50261065  0.29048384  1
  H  H43  1  0.86706638  0.99738935  0.70951616  1
  H  H44  1  0.63293362  0.49738935  0.70951616  1
  H  H45  1  0.13293362  0.00261065  0.29048384  1
  O  O46  1  0.64778870  0.84463002  0.94504418  1
  O  O47  1  0.14778870  0.65536998  0.05495582  1
  O  O48  1  0.35221130  0.15536998  0.05495582  1
  O  O49  1  0.85221130  0.34463002  0.94504418  1
  O  O50  1  0.49003195  0.80437065  0.77386333  1
  O  O51  1  0.99003195  0.69562935  0.22613667  1
  O  O52  1  0.50996805  0.19562935  0.22613667  1
  O  O53  1  0.00996805  0.30437065  0.77386333  1
  O  O54  1  0.49835401  0.60786815  0.89232280  1
  O  O55  1  0.99835401  0.89213185  0.10767720  1
  O  O56  1  0.50164599  0.39213185  0.10767720  1
  O  O57  1  0.00164599  0.10786815  0.89232280  1
  O  O58  1  0.28431998  0.62135084  0.76474208  1
  O  O59  1  0.78431998  0.87864916  0.23525792  1
  O  O60  1  0.71568002  0.37864916  0.23525792  1
  O  O61  1  0.21568002  0.12135084  0.76474208  1
  O  O62  1  0.19873235  0.38855287  0.62991037  1
  O  O63  1  0.69873235  0.11144713  0.37008963  1
  O  O64  1  0.80126765  0.61144713  0.37008963  1
  O  O65  1  0.30126765  0.88855287  0.62991037  1
  O  O66  1  0.41513544  0.27040815  0.51113325  1
  O  O67  1  0.91513544  0.22959185  0.48886675  1
  O  O68  1  0.58486456  0.72959185  0.48886675  1
  O  O69  1  0.08486456  0.77040815  0.51113325  1
  O  O70  1  0.29009744  0.60694262  0.55408248  1
  O  O71  1  0.79009744  0.89305738  0.44591752  1
  O  O72  1  0.70990256  0.39305738  0.44591752  1
  O  O73  1  0.20990256  0.10694262  0.55408248  1
  O  O74  1  0.64469594  0.03499496  0.82957710  1
  O  O75  1  0.14469594  0.46500504  0.17042290  1
  O  O76  1  0.35530406  0.96500504  0.17042290  1
  O  O77  1  0.85530406  0.53499496  0.82957710  1
  O  O78  1  0.63371171  0.67453624  0.07452861  1
  O  O79  1  0.13371171  0.82546376  0.92547139  1
  O  O80  1  0.36628829  0.32546376  0.92547139  1
  O  O81  1  0.86628829  0.17453624  0.07452861  1
  O  O82  1  0.04810914  0.62270237  0.65920062  1
  O  O83  1  0.54810914  0.87729763  0.34079938  1
  O  O84  1  0.95189086  0.37729763  0.34079938  1
  O  O85  1  0.45189086  0.12270237  0.65920062  1
  O  O86  1  0.16791443  0.27749739  0.42112232  1
  O  O87  1  0.66791443  0.22250261  0.57887768  1
  O  O88  1  0.83208557  0.72250261  0.57887768  1
  O  O89  1  0.33208557  0.77749739  0.42112232  1
  O  O90  1  0.46696732  0.47041873  0.31573380  1
  O  O91  1  0.96696732  0.02958127  0.68426620  1
  O  O92  1  0.53303268  0.52958127  0.68426620  1
  O  O93  1  0.03303268  0.97041873  0.31573380  1
