# generated using pymatgen
data_Ba12(CoO3)11
_symmetry_space_group_name_H-M   'P 1'
_cell_length_a   11.57749989
_cell_length_b   11.57749989
_cell_length_c   14.79856419
_cell_angle_alpha   101.15985533
_cell_angle_beta   101.15985533
_cell_angle_gamma   119.98101234
_symmetry_Int_Tables_number   1
_chemical_formula_structural   Ba12(CoO3)11
_chemical_formula_sum   'Ba24 Co22 O66'
_cell_volume   1584.29003138
_cell_formula_units_Z   2
loop_
 _symmetry_equiv_pos_site_id
 _symmetry_equiv_pos_as_xyz
  1  'x, y, z'
loop_
 _atom_site_type_symbol
 _atom_site_label
 _atom_site_symmetry_multiplicity
 _atom_site_fract_x
 _atom_site_fract_y
 _atom_site_fract_z
 _atom_site_occupancy
  Ba  Ba0  1  0.13108953  0.54956220  0.41951901  1
  Ba  Ba1  1  0.45043780  0.86891047  0.08048099  1
  Ba  Ba2  1  0.86891047  0.45043780  0.58048099  1
  Ba  Ba3  1  0.54956220  0.13108953  0.91951901  1
  Ba  Ba4  1  0.96243476  0.38171887  0.08994915  1
  Ba  Ba5  1  0.61828113  0.03756524  0.41005085  1
  Ba  Ba6  1  0.03756524  0.61828113  0.91005085  1
  Ba  Ba7  1  0.38171887  0.96243476  0.58994915  1
  Ba  Ba8  1  0.20973326  0.79026674  0.25000000  1
  Ba  Ba9  1  0.79026674  0.20973326  0.75000000  1
  Ba  Ba10  1  0.69847773  0.30152227  0.25000000  1
  Ba  Ba11  1  0.30152227  0.69847773  0.75000000  1
  Ba  Ba12  1  0.95884070  0.87132690  0.08349086  1
  Ba  Ba13  1  0.12867310  0.04115930  0.41650914  1
  Ba  Ba14  1  0.04115930  0.12867310  0.91650914  1
  Ba  Ba15  1  0.87132690  0.95884070  0.58349086  1
  Ba  Ba16  1  0.22865857  0.30278594  0.24829497  1
  Ba  Ba17  1  0.69721406  0.77134143  0.25170503  1
  Ba  Ba18  1  0.77134143  0.69721406  0.75170503  1
  Ba  Ba19  1  0.30278594  0.22865857  0.74829497  1
  Ba  Ba20  1  0.62971908  0.54780543  0.42661241  1
  Ba  Ba21  1  0.45219457  0.37028092  0.07338759  1
  Ba  Ba22  1  0.37028092  0.45219457  0.57338759  1
  Ba  Ba23  1  0.54780543  0.62971908  0.92661241  1
  Co  Co24  1  0.87831310  0.12168690  0.25000000  1
  Co  Co25  1  0.12168690  0.87831310  0.75000000  1
  Co  Co26  1  0.97342492  0.22510162  0.44655985  1
  Co  Co27  1  0.77489838  0.02657508  0.05344015  1
  Co  Co28  1  0.02657508  0.77489838  0.55344015  1
  Co  Co29  1  0.22510162  0.97342492  0.94655985  1
  Co  Co30  1  0.93449710  0.68406281  0.36727727  1
  Co  Co31  1  0.31593719  0.06550290  0.13272273  1
  Co  Co32  1  0.06550290  0.31593719  0.63272273  1
  Co  Co33  1  0.68406281  0.93449710  0.86727727  1
  Co  Co34  1  0.84399616  0.59398676  0.18719562  1
  Co  Co35  1  0.40601324  0.15600384  0.31280438  1
  Co  Co36  1  0.15600384  0.40601324  0.81280438  1
  Co  Co37  1  0.59398676  0.84399616  0.68719562  1
  Co  Co38  1  0.75712411  0.50640463  0.01141773  1
  Co  Co39  1  0.49359537  0.24287589  0.48858227  1
  Co  Co40  1  0.24287589  0.49359537  0.98858227  1
  Co  Co41  1  0.50640463  0.75712411  0.51141773  1
  Co  Co42  1  0.32955704  0.58136231  0.16090123  1
  Co  Co43  1  0.41863769  0.67044296  0.33909877  1
  Co  Co44  1  0.67044296  0.41863769  0.83909877  1
  Co  Co45  1  0.58136231  0.32955704  0.66090123  1
  O  O46  1  0.90724655  0.79979847  0.45589522  1
  O  O47  1  0.20020153  0.09275345  0.04410478  1
  O  O48  1  0.09275345  0.20020153  0.54410478  1
  O  O49  1  0.79979847  0.90724655  0.95589522  1
  O  O50  1  0.72635460  0.62314267  0.09931941  1
  O  O51  1  0.37685733  0.27364540  0.40068059  1
  O  O52  1  0.27364540  0.37685733  0.90068059  1
  O  O53  1  0.62314267  0.72635460  0.59931941  1
  O  O54  1  0.44755086  0.55244914  0.25000000  1
  O  O55  1  0.55244914  0.44755086  0.75000000  1
  O  O56  1  0.90634876  0.58405304  0.45285463  1
  O  O57  1  0.41594696  0.09365124  0.04714537  1
  O  O58  1  0.09365124  0.41594696  0.54714537  1
  O  O59  1  0.58405304  0.90634876  0.95285463  1
  O  O60  1  0.59567297  0.27341139  0.40181358  1
  O  O61  1  0.72658861  0.40432703  0.09818642  1
  O  O62  1  0.40432703  0.72658861  0.59818642  1
  O  O63  1  0.27341139  0.59567297  0.90181358  1
  O  O64  1  0.22709878  0.55219361  0.25067553  1
  O  O65  1  0.44780639  0.77290122  0.24932447  1
  O  O66  1  0.77290122  0.44780639  0.74932447  1
  O  O67  1  0.55219361  0.22709878  0.75067553  1
  O  O68  1  0.94861668  0.62478219  0.10096209  1
  O  O69  1  0.37521781  0.05138332  0.39903791  1
  O  O70  1  0.05138332  0.37521781  0.89903791  1
  O  O71  1  0.62478219  0.94861668  0.60096209  1
  O  O72  1  0.12346691  0.80240280  0.45954265  1
  O  O73  1  0.19759720  0.87653309  0.04045735  1
  O  O74  1  0.87653309  0.19759720  0.54045735  1
  O  O75  1  0.80240280  0.12346691  0.95954265  1
  O  O76  1  0.85845521  0.25422109  0.36221605  1
  O  O77  1  0.74577891  0.14154479  0.13778395  1
  O  O78  1  0.14154479  0.74577891  0.63778395  1
  O  O79  1  0.25422109  0.85845521  0.86221605  1
  O  O80  1  0.96193312  0.56524083  0.27520673  1
  O  O81  1  0.43475917  0.03806688  0.22479327  1
  O  O82  1  0.03806688  0.43475917  0.72479327  1
  O  O83  1  0.56524083  0.96193312  0.77520673  1
  O  O84  1  0.21216948  0.61218517  0.07672860  1
  O  O85  1  0.38781483  0.78783052  0.42327140  1
  O  O86  1  0.78783052  0.38781483  0.92327140  1
  O  O87  1  0.61218517  0.21216948  0.57672860  1
  O  O88  1  0.08141353  0.25958123  0.36658318  1
  O  O89  1  0.74041877  0.91858647  0.13341682  1
  O  O90  1  0.91858647  0.74041877  0.63341682  1
  O  O91  1  0.25958123  0.08141353  0.86658318  1
  O  O92  1  0.03631067  0.85724195  0.85583025  1
  O  O93  1  0.14275805  0.96368933  0.64416975  1
  O  O94  1  0.96368933  0.14275805  0.14416975  1
  O  O95  1  0.85724195  0.03631067  0.35583025  1
  O  O96  1  0.96189862  0.78344886  0.27675366  1
  O  O97  1  0.21655114  0.03810138  0.22324634  1
  O  O98  1  0.03810138  0.21655114  0.72324634  1
  O  O99  1  0.78344886  0.96189862  0.77675366  1
  O  O100  1  0.21376737  0.39095273  0.07586801  1
  O  O101  1  0.60904727  0.78623263  0.42413199  1
  O  O102  1  0.78623263  0.60904727  0.92413199  1
  O  O103  1  0.39095273  0.21376737  0.57586801  1
  O  O104  1  0.38908257  0.56502213  0.42400575  1
  O  O105  1  0.43497787  0.61091743  0.07599425  1
  O  O106  1  0.61091743  0.43497787  0.57599425  1
  O  O107  1  0.56502213  0.38908257  0.92400575  1
  O  O108  1  0.74228955  0.56528453  0.27657349  1
  O  O109  1  0.43471547  0.25771045  0.22342651  1
  O  O110  1  0.25771045  0.43471547  0.72342651  1
  O  O111  1  0.56528453  0.74228955  0.77657349  1
