# generated using pymatgen
data_BiSe
_symmetry_space_group_name_H-M   'P 1'
_cell_length_a   5.77493508
_cell_length_b   7.63912729
_cell_length_c   6.15175427
_cell_angle_alpha   90.00000000
_cell_angle_beta   88.10310089
_cell_angle_gamma   90.00000000
_symmetry_Int_Tables_number   1
_chemical_formula_structural   BiSe
_chemical_formula_sum   'Bi4 Se4'
_cell_volume   271.23877732
_cell_formula_units_Z   4
loop_
 _symmetry_equiv_pos_site_id
 _symmetry_equiv_pos_as_xyz
  1  'x, y, z'
loop_
 _atom_site_type_symbol
 _atom_site_label
 _atom_site_symmetry_multiplicity
 _atom_site_fract_x
 _atom_site_fract_y
 _atom_site_fract_z
 _atom_site_occupancy
  Bi  Bi0  1  0.98155282  0.68312584  0.38894877  1
  Bi  Bi1  1  0.48155282  0.81687416  0.88894877  1
  Bi  Bi2  1  0.01844718  0.31687416  0.61105123  1
  Bi  Bi3  1  0.51844718  0.18312584  0.11105123  1
  Se  Se4  1  0.46842385  0.65065566  0.28389255  1
  Se  Se5  1  0.96842385  0.84934434  0.78389255  1
  Se  Se6  1  0.53157615  0.34934434  0.71610745  1
  Se  Se7  1  0.03157615  0.15065566  0.21610745  1
