# generated using pymatgen
data_Bi6Se3(BrO7)2
_symmetry_space_group_name_H-M   'P 1'
_cell_length_a   7.23838093
_cell_length_b   11.27055906
_cell_length_c   12.36506885
_cell_angle_alpha   66.91265503
_cell_angle_beta   81.84165466
_cell_angle_gamma   77.98411438
_symmetry_Int_Tables_number   1
_chemical_formula_structural   Bi6Se3(BrO7)2
_chemical_formula_sum   'Bi12 Se6 Br4 O28'
_cell_volume   905.58666671
_cell_formula_units_Z   2
loop_
 _symmetry_equiv_pos_site_id
 _symmetry_equiv_pos_as_xyz
  1  'x, y, z'
loop_
 _atom_site_type_symbol
 _atom_site_label
 _atom_site_symmetry_multiplicity
 _atom_site_fract_x
 _atom_site_fract_y
 _atom_site_fract_z
 _atom_site_occupancy
  Bi  Bi0  1  0.53964349  0.63581970  0.36221288  1
  Bi  Bi1  1  0.46035651  0.36418030  0.63778712  1
  Bi  Bi2  1  0.06615394  0.81217477  0.32710418  1
  Bi  Bi3  1  0.93384606  0.18782523  0.67289582  1
  Bi  Bi4  1  0.13687863  0.45993584  0.37965477  1
  Bi  Bi5  1  0.86312137  0.54006416  0.62034523  1
  Bi  Bi6  1  0.80438098  0.92086925  0.00659418  1
  Bi  Bi7  1  0.19561902  0.07913075  0.99340582  1
  Bi  Bi8  1  0.28856349  0.70697498  0.06815105  1
  Bi  Bi9  1  0.71143651  0.29302502  0.93184895  1
  Bi  Bi10  1  0.31680031  0.75354766  0.61284252  1
  Bi  Bi11  1  0.68319969  0.24645234  0.38715748  1
  Se  Se12  1  0.53257286  0.01352882  0.20523124  1
  Se  Se13  1  0.46742714  0.98647118  0.79476876  1
  Se  Se14  1  0.23998194  0.10851902  0.43170141  1
  Se  Se15  1  0.76001806  0.89148098  0.56829859  1
  Se  Se16  1  0.81539622  0.55232184  0.13484057  1
  Se  Se17  1  0.18460378  0.44767816  0.86515943  1
  Br  Br18  1  0.59586110  0.61062358  0.84171227  1
  Br  Br19  1  0.40413890  0.38937642  0.15828773  1
  Br  Br20  1  0.05684734  0.81027816  0.83473924  1
  Br  Br21  1  0.94315266  0.18972184  0.16526076  1
  O  O22  1  0.79105002  0.46362607  0.28769854  1
  O  O23  1  0.20894998  0.53637393  0.71230146  1
  O  O24  1  0.26639034  0.66902141  0.26071737  1
  O  O25  1  0.73360966  0.33097859  0.73928263  1
  O  O26  1  0.91170535  0.11176239  0.92016037  1
  O  O27  1  0.08829465  0.88823761  0.07983963  1
  O  O28  1  0.95920749  0.62541194  0.42574213  1
  O  O29  1  0.04079251  0.37458806  0.57425787  1
  O  O30  1  0.58721352  0.54529707  0.55981641  1
  O  O31  1  0.41278648  0.45470293  0.44018359  1
  O  O32  1  0.57488307  0.09430535  0.05142535  1
  O  O33  1  0.42511693  0.90569465  0.94857465  1
  O  O34  1  0.30988414  0.75165370  0.43836254  1
  O  O35  1  0.69011586  0.24834630  0.56163746  1
  O  O36  1  0.98238708  0.64223077  0.13549702  1
  O  O37  1  0.01761292  0.35776923  0.86450298  1
  O  O38  1  0.61919714  0.67359811  0.11757986  1
  O  O39  1  0.38080286  0.32640189  0.88242014  1
  O  O40  1  0.71716067  0.88385620  0.22007666  1
  O  O41  1  0.28283933  0.11614380  0.77992334  1
  O  O42  1  0.34019262  0.95016262  0.19811700  1
  O  O43  1  0.65980738  0.04983738  0.80188300  1
  O  O44  1  0.98268664  0.80719122  0.54579496  1
  O  O45  1  0.01731336  0.19280878  0.45420504  1
  O  O46  1  0.25841114  0.97769751  0.56501316  1
  O  O47  1  0.74158886  0.02230249  0.43498684  1
  O  O48  1  0.63195469  0.79046876  0.54432942  1
  O  O49  1  0.36804531  0.20953124  0.45567058  1
