# generated using pymatgen
data_Er11(Ni10C)6
_symmetry_space_group_name_H-M   'P 1'
_cell_length_a   10.75847864
_cell_length_b   10.75847864
_cell_length_c   10.75847864
_cell_angle_alpha   109.47122063
_cell_angle_beta   109.47122063
_cell_angle_gamma   109.47122063
_symmetry_Int_Tables_number   1
_chemical_formula_structural   Er11(Ni10C)6
_chemical_formula_sum   'Er11 Ni60 C6'
_cell_volume   958.58514675
_cell_formula_units_Z   1
loop_
 _symmetry_equiv_pos_site_id
 _symmetry_equiv_pos_as_xyz
  1  'x, y, z'
loop_
 _atom_site_type_symbol
 _atom_site_label
 _atom_site_symmetry_multiplicity
 _atom_site_fract_x
 _atom_site_fract_y
 _atom_site_fract_z
 _atom_site_occupancy
  Er  Er0  1  0.66292894  0.00000000  -0.00000000  1
  Er  Er1  1  -0.00000000  0.66292894  -0.00000000  1
  Er  Er2  1  -0.00000000  0.00000000  0.66292894  1
  Er  Er3  1  0.33707106  0.33707106  0.33707106  1
  Er  Er4  1  0.33707106  0.00000000  -0.00000000  1
  Er  Er5  1  0.00000000  0.33707106  -0.00000000  1
  Er  Er6  1  -0.00000000  0.00000000  0.33707106  1
  Er  Er7  1  0.66292894  0.66292894  0.66292894  1
  Er  Er8  1  -0.00000000  0.50000000  0.50000000  1
  Er  Er9  1  0.50000000  0.00000000  0.50000000  1
  Er  Er10  1  0.50000000  0.50000000  -0.00000000  1
  Ni  Ni11  1  0.58112702  0.23292688  -0.00000000  1
  Ni  Ni12  1  0.34820014  0.76707312  0.76707312  1
  Ni  Ni13  1  0.58112702  -0.00000000  0.23292688  1
  Ni  Ni14  1  0.23292688  0.58112702  -0.00000000  1
  Ni  Ni15  1  -0.00000000  0.58112702  0.23292688  1
  Ni  Ni16  1  0.76707312  0.34820014  0.76707312  1
  Ni  Ni17  1  0.76707312  0.76707312  0.34820014  1
  Ni  Ni18  1  -0.00000000  0.23292688  0.58112702  1
  Ni  Ni19  1  0.23292688  -0.00000000  0.58112702  1
  Ni  Ni20  1  0.41887298  0.41887298  0.65179986  1
  Ni  Ni21  1  0.65179986  0.41887298  0.41887298  1
  Ni  Ni22  1  0.41887298  0.65179986  0.41887298  1
  Ni  Ni23  1  0.41887298  0.76707312  0.00000000  1
  Ni  Ni24  1  0.65179986  0.23292688  0.23292688  1
  Ni  Ni25  1  0.41887298  0.00000000  0.76707312  1
  Ni  Ni26  1  0.76707312  0.41887298  0.00000000  1
  Ni  Ni27  1  0.00000000  0.41887298  0.76707312  1
  Ni  Ni28  1  0.23292688  0.65179986  0.23292688  1
  Ni  Ni29  1  0.23292688  0.23292688  0.65179986  1
  Ni  Ni30  1  0.00000000  0.76707312  0.41887298  1
  Ni  Ni31  1  0.76707312  0.00000000  0.41887298  1
  Ni  Ni32  1  0.58112702  0.58112702  0.34820014  1
  Ni  Ni33  1  0.34820014  0.58112702  0.58112702  1
  Ni  Ni34  1  0.58112702  0.34820014  0.58112702  1
  Ni  Ni35  1  0.53280249  0.68127417  0.85152833  1
  Ni  Ni36  1  0.85152833  0.17025416  0.31872583  1
  Ni  Ni37  1  0.68127417  0.14847167  0.82974584  1
  Ni  Ni38  1  0.68127417  0.82974584  0.14847167  1
  Ni  Ni39  1  0.53280249  0.85152833  0.68127417  1
  Ni  Ni40  1  0.85152833  0.31872583  0.17025416  1
  Ni  Ni41  1  0.82974584  0.68127417  0.14847167  1
  Ni  Ni42  1  0.85152833  0.53280249  0.68127417  1
  Ni  Ni43  1  0.31872583  0.85152833  0.17025416  1
  Ni  Ni44  1  0.68127417  0.53280249  0.85152833  1
  Ni  Ni45  1  0.17025416  0.85152833  0.31872583  1
  Ni  Ni46  1  0.14847167  0.68127417  0.82974584  1
  Ni  Ni47  1  0.17025416  0.31872583  0.85152833  1
  Ni  Ni48  1  0.14847167  0.82974584  0.68127417  1
  Ni  Ni49  1  0.68127417  0.85152833  0.53280249  1
  Ni  Ni50  1  0.31872583  0.17025416  0.85152833  1
  Ni  Ni51  1  0.82974584  0.14847167  0.68127417  1
  Ni  Ni52  1  0.85152833  0.68127417  0.53280249  1
  Ni  Ni53  1  0.46719751  0.31872583  0.14847167  1
  Ni  Ni54  1  0.14847167  0.46719751  0.31872583  1
  Ni  Ni55  1  0.31872583  0.14847167  0.46719751  1
  Ni  Ni56  1  0.31872583  0.46719751  0.14847167  1
  Ni  Ni57  1  0.46719751  0.14847167  0.31872583  1
  Ni  Ni58  1  0.14847167  0.31872583  0.46719751  1
  Ni  Ni59  1  0.00000000  0.14335411  0.14335411  1
  Ni  Ni60  1  0.85664589  -0.00000000  0.85664589  1
  Ni  Ni61  1  0.85664589  0.85664589  -0.00000000  1
  Ni  Ni62  1  -0.00000000  0.85664589  0.85664589  1
  Ni  Ni63  1  0.14335411  0.00000000  0.14335411  1
  Ni  Ni64  1  0.14335411  0.14335411  0.00000000  1
  Ni  Ni65  1  0.50000000  0.75000000  0.25000000  1
  Ni  Ni66  1  0.75000000  0.50000000  0.25000000  1
  Ni  Ni67  1  0.25000000  0.75000000  0.50000000  1
  Ni  Ni68  1  0.25000000  0.50000000  0.75000000  1
  Ni  Ni69  1  0.50000000  0.25000000  0.75000000  1
  Ni  Ni70  1  0.75000000  0.25000000  0.50000000  1
  C  C71  1  -0.00000000  0.29187084  0.29187084  1
  C  C72  1  0.70812916  0.00000000  0.70812916  1
  C  C73  1  0.70812916  0.70812916  0.00000000  1
  C  C74  1  0.00000000  0.70812916  0.70812916  1
  C  C75  1  0.29187084  -0.00000000  0.29187084  1
  C  C76  1  0.29187084  0.29187084  -0.00000000  1
