# generated using pymatgen
data_CsFeBP3O11
_symmetry_space_group_name_H-M   'P 1'
_cell_length_a   8.53310256
_cell_length_b   8.71991878
_cell_length_c   12.98386061
_cell_angle_alpha   90.00000000
_cell_angle_beta   90.00000000
_cell_angle_gamma   90.00000000
_symmetry_Int_Tables_number   1
_chemical_formula_structural   CsFeBP3O11
_chemical_formula_sum   'Cs4 Fe4 B4 P12 O44'
_cell_volume   966.10259733
_cell_formula_units_Z   4
loop_
 _symmetry_equiv_pos_site_id
 _symmetry_equiv_pos_as_xyz
  1  'x, y, z'
loop_
 _atom_site_type_symbol
 _atom_site_label
 _atom_site_symmetry_multiplicity
 _atom_site_fract_x
 _atom_site_fract_y
 _atom_site_fract_z
 _atom_site_occupancy
  Cs  Cs0  1  0.35774077  0.65266845  0.75000000  1
  Cs  Cs1  1  0.14225923  0.15266845  0.75000000  1
  Cs  Cs2  1  0.64225923  0.34733155  0.25000000  1
  Cs  Cs3  1  0.85774077  0.84733155  0.25000000  1
  Fe  Fe4  1  0.50000000  -0.00000000  0.50000000  1
  Fe  Fe5  1  -0.00000000  0.50000000  -0.00000000  1
  Fe  Fe6  1  0.50000000  -0.00000000  0.00000000  1
  Fe  Fe7  1  -0.00000000  0.50000000  0.50000000  1
  B  B8  1  0.67232015  0.31703362  0.75000000  1
  B  B9  1  0.82767985  0.81703362  0.75000000  1
  B  B10  1  0.32767985  0.68296638  0.25000000  1
  B  B11  1  0.17232015  0.18296638  0.25000000  1
  P  P12  1  0.56462323  0.01624322  0.75000000  1
  P  P13  1  0.93537677  0.51624322  0.75000000  1
  P  P14  1  0.43537677  0.98375678  0.25000000  1
  P  P15  1  0.06462323  0.48375678  0.25000000  1
  P  P16  1  0.38249112  0.62653947  0.45707853  1
  P  P17  1  0.11750888  0.12653947  0.04292147  1
  P  P18  1  0.61750888  0.37346053  0.95707853  1
  P  P19  1  0.88249112  0.87346053  0.54292147  1
  P  P20  1  0.61750888  0.37346053  0.54292147  1
  P  P21  1  0.88249112  0.87346053  0.95707853  1
  P  P22  1  0.38249112  0.62653947  0.04292147  1
  P  P23  1  0.11750888  0.12653947  0.45707853  1
  O  O24  1  0.66392132  0.86618766  0.75000000  1
  O  O25  1  0.83607868  0.36618766  0.75000000  1
  O  O26  1  0.33607868  0.13381234  0.25000000  1
  O  O27  1  0.16392132  0.63381234  0.25000000  1
  O  O28  1  0.68625062  0.14946902  0.75000000  1
  O  O29  1  0.81374938  0.64946902  0.75000000  1
  O  O30  1  0.31374938  0.85053098  0.25000000  1
  O  O31  1  0.18625062  0.35053098  0.25000000  1
  O  O32  1  0.50000000  0.50000000  0.50000000  1
  O  O33  1  -0.00000000  -0.00000000  0.00000000  1
  O  O34  1  0.50000000  0.50000000  -0.00000000  1
  O  O35  1  -0.00000000  -0.00000000  0.50000000  1
  O  O36  1  0.41970971  0.62467968  0.33892913  1
  O  O37  1  0.08029029  0.12467968  0.16107087  1
  O  O38  1  0.58029029  0.37532032  0.83892913  1
  O  O39  1  0.91970971  0.87532032  0.66107087  1
  O  O40  1  0.58029029  0.37532032  0.66107087  1
  O  O41  1  0.91970971  0.87532032  0.83892913  1
  O  O42  1  0.41970971  0.62467968  0.16107087  1
  O  O43  1  0.08029029  0.12467968  0.33892913  1
  O  O44  1  0.45997326  0.01820759  0.65428123  1
  O  O45  1  0.04002674  0.51820759  0.84571877  1
  O  O46  1  0.54002674  0.98179241  0.15428123  1
  O  O47  1  0.95997326  0.48179241  0.34571877  1
  O  O48  1  0.54002674  0.98179241  0.34571877  1
  O  O49  1  0.95997326  0.48179241  0.15428123  1
  O  O50  1  0.45997326  0.01820759  0.84571877  1
  O  O51  1  0.04002674  0.51820759  0.65428123  1
  O  O52  1  0.42537064  0.77640342  0.50852227  1
  O  O53  1  0.07462936  0.27640342  0.99147773  1
  O  O54  1  0.57462936  0.22359658  0.00852227  1
  O  O55  1  0.92537064  0.72359658  0.49147773  1
  O  O56  1  0.57462936  0.22359658  0.49147773  1
  O  O57  1  0.92537064  0.72359658  0.00852227  1
  O  O58  1  0.42537064  0.77640342  0.99147773  1
  O  O59  1  0.07462936  0.27640342  0.50852227  1
  O  O60  1  0.21925254  0.56996388  0.47957780  1
  O  O61  1  0.28074746  0.06996388  0.02042220  1
  O  O62  1  0.78074746  0.43003612  0.97957780  1
  O  O63  1  0.71925254  0.93003612  0.52042220  1
  O  O64  1  0.78074746  0.43003612  0.52042220  1
  O  O65  1  0.71925254  0.93003612  0.97957780  1
  O  O66  1  0.21925254  0.56996388  0.02042220  1
  O  O67  1  0.28074746  0.06996388  0.47957780  1
