# generated using pymatgen
data_ScV(TeO4)2
_symmetry_space_group_name_H-M   'P 1'
_cell_length_a   5.19517448
_cell_length_b   8.23199414
_cell_length_c   16.88909112
_cell_angle_alpha   94.72372393
_cell_angle_beta   90.00000000
_cell_angle_gamma   90.00000000
_symmetry_Int_Tables_number   1
_chemical_formula_structural   ScV(TeO4)2
_chemical_formula_sum   'Sc4 V4 Te8 O32'
_cell_volume   719.83643115
_cell_formula_units_Z   4
loop_
 _symmetry_equiv_pos_site_id
 _symmetry_equiv_pos_as_xyz
  1  'x, y, z'
loop_
 _atom_site_type_symbol
 _atom_site_label
 _atom_site_symmetry_multiplicity
 _atom_site_fract_x
 _atom_site_fract_y
 _atom_site_fract_z
 _atom_site_occupancy
  Sc  Sc0  1  0.72791082  0.33979568  0.32677486  1
  Sc  Sc1  1  0.77208918  0.83979568  0.82677486  1
  Sc  Sc2  1  0.27208918  0.66020432  0.67322514  1
  Sc  Sc3  1  0.22791082  0.16020432  0.17322514  1
  V  V4  1  0.21048474  0.14635194  0.42761119  1
  V  V5  1  0.28951526  0.64635194  0.92761119  1
  V  V6  1  0.78951526  0.85364806  0.57238881  1
  V  V7  1  0.71048474  0.35364806  0.07238881  1
  Te  Te8  1  0.24944758  0.55593307  0.22274167  1
  Te  Te9  1  0.25055242  0.05593307  0.72274167  1
  Te  Te10  1  0.75055242  0.44406693  0.77725833  1
  Te  Te11  1  0.74944758  0.94406693  0.27725833  1
  Te  Te12  1  0.85534137  0.36418492  0.56895842  1
  Te  Te13  1  0.64465863  0.86418492  0.06895842  1
  Te  Te14  1  0.14465863  0.63581508  0.43104158  1
  Te  Te15  1  0.35534137  0.13581508  0.93104158  1
  O  O16  1  0.53924910  0.53073969  0.28697006  1
  O  O17  1  0.96075090  0.03073969  0.78697006  1
  O  O18  1  0.46075090  0.46926031  0.71302994  1
  O  O19  1  0.03924910  0.96926031  0.21302994  1
  O  O20  1  0.06678805  0.36147708  0.24849484  1
  O  O21  1  0.43321195  0.86147708  0.74849484  1
  O  O22  1  0.93321195  0.63852292  0.75150516  1
  O  O23  1  0.56678805  0.13852292  0.25150516  1
  O  O24  1  0.09679515  0.19807841  0.53045546  1
  O  O25  1  0.40320485  0.69807841  0.03045546  1
  O  O26  1  0.90320485  0.80192159  0.46954454  1
  O  O27  1  0.59679515  0.30192159  0.96954454  1
  O  O28  1  0.92211503  0.31768875  0.67846169  1
  O  O29  1  0.57788497  0.81768875  0.17846169  1
  O  O30  1  0.07788497  0.68231125  0.32153831  1
  O  O31  1  0.42211503  0.18231125  0.82153831  1
  O  O32  1  0.09681695  0.53904074  0.57328905  1
  O  O33  1  0.40318305  0.03904074  0.07328905  1
  O  O34  1  0.90318305  0.46095926  0.42671095  1
  O  O35  1  0.59681695  0.96095926  0.92671095  1
  O  O36  1  0.93769980  0.12734954  0.36069493  1
  O  O37  1  0.56230020  0.62734954  0.86069493  1
  O  O38  1  0.06230020  0.87265046  0.63930507  1
  O  O39  1  0.43769980  0.37265046  0.13930507  1
  O  O40  1  0.42098881  0.29743977  0.40397311  1
  O  O41  1  0.07901119  0.79743977  0.90397311  1
  O  O42  1  0.57901119  0.70256023  0.59602689  1
  O  O43  1  0.92098881  0.20256023  0.09602689  1
  O  O44  1  0.36332086  0.96963335  0.42070854  1
  O  O45  1  0.13667914  0.46963335  0.92070854  1
  O  O46  1  0.63667914  0.03036665  0.57929146  1
  O  O47  1  0.86332086  0.53036665  0.07929146  1
