# generated using pymatgen
data_PH4NO3
_symmetry_space_group_name_H-M   'P 1'
_cell_length_a   4.67737740
_cell_length_b   14.51996847
_cell_length_c   22.90991942
_cell_angle_alpha   107.71328070
_cell_angle_beta   90.00000000
_cell_angle_gamma   90.00000000
_symmetry_Int_Tables_number   1
_chemical_formula_structural   PH4NO3
_chemical_formula_sum   'P16 H64 N16 O48'
_cell_volume   1482.17032682
_cell_formula_units_Z   16
loop_
 _symmetry_equiv_pos_site_id
 _symmetry_equiv_pos_as_xyz
  1  'x, y, z'
loop_
 _atom_site_type_symbol
 _atom_site_label
 _atom_site_symmetry_multiplicity
 _atom_site_fract_x
 _atom_site_fract_y
 _atom_site_fract_z
 _atom_site_occupancy
  P  P0  1  0.19586739  0.53471143  0.39140934  1
  P  P1  1  0.69586739  0.96528857  0.60859066  1
  P  P2  1  0.80413261  0.46528857  0.60859066  1
  P  P3  1  0.30413261  0.03471143  0.39140934  1
  P  P4  1  0.69440788  0.62480154  0.35085058  1
  P  P5  1  0.19440788  0.87519846  0.64914942  1
  P  P6  1  0.30559212  0.37519846  0.64914942  1
  P  P7  1  0.80559212  0.12480154  0.35085058  1
  P  P8  1  0.29533204  0.27100346  0.15033843  1
  P  P9  1  0.79533204  0.22899654  0.84966157  1
  P  P10  1  0.70466796  0.72899654  0.84966157  1
  P  P11  1  0.20466796  0.77100346  0.15033843  1
  P  P12  1  0.70334733  0.64116061  0.11039688  1
  P  P13  1  0.20334733  0.85883939  0.88960312  1
  P  P14  1  0.29665267  0.35883939  0.88960312  1
  P  P15  1  0.79665267  0.14116061  0.11039688  1
  H  H16  1  0.28331273  0.36669838  0.43477469  1
  H  H17  1  0.78331273  0.13330162  0.56522531  1
  H  H18  1  0.71668727  0.63330162  0.56522531  1
  H  H19  1  0.21668727  0.86669838  0.43477469  1
  H  H20  1  0.46632715  0.35596940  0.49713029  1
  H  H21  1  0.96632715  0.14403060  0.50286971  1
  H  H22  1  0.53367285  0.64403060  0.50286971  1
  H  H23  1  0.03367285  0.85596940  0.49713029  1
  H  H24  1  0.10342300  0.35008005  0.49535620  1
  H  H25  1  0.60342300  0.14991995  0.50464380  1
  H  H26  1  0.89657700  0.64991995  0.50464380  1
  H  H27  1  0.39657700  0.85008005  0.49535620  1
  H  H28  1  0.30041833  0.25913944  0.45006917  1
  H  H29  1  0.80041833  0.24086056  0.54993083  1
  H  H30  1  0.69958167  0.74086056  0.54993083  1
  H  H31  1  0.19958167  0.75913944  0.45006917  1
  H  H32  1  0.71389121  0.30983830  0.05155736  1
  H  H33  1  0.21389121  0.19016170  0.94844264  1
  H  H34  1  0.28610879  0.69016170  0.94844264  1
  H  H35  1  0.78610879  0.80983830  0.05155736  1
  H  H36  1  0.62411784  0.36087249  0.99809852  1
  H  H37  1  0.12411784  0.13912751  0.00190148  1
  H  H38  1  0.37588216  0.63912751  0.00190148  1
  H  H39  1  0.87588216  0.86087249  0.99809852  1
  H  H40  1  0.75322924  0.43109884  0.06723850  1
  H  H41  1  0.25322924  0.06890116  0.93276150  1
  H  H42  1  0.24677076  0.56890116  0.93276150  1
  H  H43  1  0.74677076  0.93109884  0.06723850  1
  H  H44  1  0.97451767  0.35424352  0.01664964  1
  H  H45  1  0.47451767  0.14575648  0.98335036  1
  H  H46  1  0.02548233  0.64575648  0.98335036  1
  H  H47  1  0.52548233  0.85424352  0.01664964  1
  H  H48  1  0.07794702  0.53291844  0.17080178  1
  H  H49  1  0.57794702  0.96708156  0.82919822  1
  H  H50  1  0.92205298  0.46708156  0.82919822  1
  H  H51  1  0.42205298  0.03291844  0.17080178  1
  H  H52  1  0.10834568  0.57154736  0.24687772  1
  H  H53  1  0.60834568  0.92845264  0.75312228  1
  H  H54  1  0.89165432  0.42845264  0.75312228  1
  H  H55  1  0.39165432  0.07154736  0.24687772  1
  H  H56  1  0.40728056  0.55867250  0.20269860  1
  H  H57  1  0.90728056  0.94132750  0.79730140  1
  H  H58  1  0.59271944  0.44132750  0.79730140  1
  H  H59  1  0.09271944  0.05867250  0.20269860  1
  H  H60  1  0.23145497  0.45934640  0.20817598  1
  H  H61  1  0.73145497  0.04065360  0.79182402  1
  H  H62  1  0.76854503  0.54065360  0.79182402  1
  H  H63  1  0.26854503  0.95934640  0.20817598  1
  H  H64  1  0.76045850  0.75099640  0.29231809  1
  H  H65  1  0.26045850  0.74900360  0.70768191  1
  H  H66  1  0.23954150  0.24900360  0.70768191  1
  H  H67  1  0.73954150  0.25099640  0.29231809  1
  H  H68  1  0.58550543  0.83408086  0.26641460  1
  H  H69  1  0.08550543  0.66591914  0.73358540  1
  H  H70  1  0.41449457  0.16591914  0.73358540  1
  H  H71  1  0.91449457  0.33408086  0.26641460  1
  H  H72  1  0.94644640  0.83842385  0.27334121  1
  H  H73  1  0.44644640  0.66157615  0.72665879  1
  H  H74  1  0.05355360  0.16157615  0.72665879  1
  H  H75  1  0.55355360  0.33842385  0.27334121  1
  H  H76  1  0.74009364  0.86939339  0.33634069  1
  H  H77  1  0.24009364  0.63060661  0.66365931  1
  H  H78  1  0.25990636  0.13060661  0.66365931  1
  H  H79  1  0.75990636  0.36939339  0.33634069  1
  N  N80  1  0.28857865  0.33296308  0.46917492  1
  N  N81  1  0.78857865  0.16703692  0.53082508  1
  N  N82  1  0.71142135  0.66703692  0.53082508  1
  N  N83  1  0.21142135  0.83296308  0.46917492  1
  N  N84  1  0.76823184  0.36407484  0.03332776  1
  N  N85  1  0.26823184  0.13592516  0.96667224  1
  N  N86  1  0.23176816  0.63592516  0.96667224  1
  N  N87  1  0.73176816  0.86407484  0.03332776  1
  N  N88  1  0.20967832  0.53056617  0.20701440  1
  N  N89  1  0.70967832  0.96943383  0.79298560  1
  N  N90  1  0.79032168  0.46943383  0.79298560  1
  N  N91  1  0.29032168  0.03056617  0.20701440  1
  N  N92  1  0.75767147  0.82383151  0.29238480  1
  N  N93  1  0.25767147  0.67616849  0.70761520  1
  N  N94  1  0.24232853  0.17616849  0.70761520  1
  N  N95  1  0.74232853  0.32383151  0.29238480  1
  O  O96  1  0.26615232  0.43023655  0.38076944  1
  O  O97  1  0.76615232  0.06976345  0.61923056  1
  O  O98  1  0.73384768  0.56976345  0.61923056  1
  O  O99  1  0.23384768  0.93023655  0.38076944  1
  O  O100  1  0.21226688  0.60632108  0.45449082  1
  O  O101  1  0.71226688  0.89367892  0.54550918  1
  O  O102  1  0.78773312  0.39367892  0.54550918  1
  O  O103  1  0.28773312  0.10632108  0.45449082  1
  O  O104  1  0.37966489  0.57443432  0.34307698  1
  O  O105  1  0.87966489  0.92556568  0.65692302  1
  O  O106  1  0.62033511  0.42556568  0.65692302  1
  O  O107  1  0.12033511  0.07443432  0.34307698  1
  O  O108  1  0.71042881  0.71367036  0.40421647  1
  O  O109  1  0.21042881  0.78632964  0.59578353  1
  O  O110  1  0.28957119  0.28632964  0.59578353  1
  O  O111  1  0.78957119  0.21367036  0.40421647  1
  O  O112  1  0.76801363  0.63010371  0.28748206  1
  O  O113  1  0.26801363  0.86989629  0.71251794  1
  O  O114  1  0.23198637  0.36989629  0.71251794  1
  O  O115  1  0.73198637  0.13010371  0.28748206  1
  O  O116  1  0.87906600  0.53562649  0.36226365  1
  O  O117  1  0.37906600  0.96437351  0.63773635  1
  O  O118  1  0.12093400  0.46437351  0.63773635  1
  O  O119  1  0.62093400  0.03562649  0.36226365  1
  O  O120  1  0.23335095  0.33911991  0.21378508  1
  O  O121  1  0.73335095  0.16088009  0.78621492  1
  O  O122  1  0.76664905  0.66088009  0.78621492  1
  O  O123  1  0.26664905  0.83911991  0.21378508  1
  O  O124  1  0.27582738  0.30630921  0.09601767  1
  O  O125  1  0.77582738  0.19369079  0.90398233  1
  O  O126  1  0.72417262  0.69369079  0.90398233  1
  O  O127  1  0.22417262  0.80630921  0.09601767  1
  O  O128  1  0.88994780  0.72757945  0.15680640  1
  O  O129  1  0.38994780  0.77242055  0.84319360  1
  O  O130  1  0.11005220  0.27242055  0.84319360  1
  O  O131  1  0.61005220  0.22757945  0.15680640  1
  O  O132  1  0.77417102  0.54760489  0.12275212  1
  O  O133  1  0.27417102  0.95239511  0.87724788  1
  O  O134  1  0.22582898  0.45239511  0.87724788  1
  O  O135  1  0.72582898  0.04760489  0.12275212  1
  O  O136  1  0.71271712  0.64730833  0.04625418  1
  O  O137  1  0.21271712  0.85269167  0.95374582  1
  O  O138  1  0.28728288  0.35269167  0.95374582  1
  O  O139  1  0.78728288  0.14730833  0.04625418  1
  O  O140  1  0.10919859  0.17193743  0.14091409  1
  O  O141  1  0.60919859  0.32806257  0.85908591  1
  O  O142  1  0.89080141  0.82806257  0.85908591  1
  O  O143  1  0.39080141  0.67193743  0.14091409  1
