# generated using pymatgen
data_CaSb4H6(SO8)2
_symmetry_space_group_name_H-M   'P 1'
_cell_length_a   5.72266710
_cell_length_b   10.28301906
_cell_length_c   12.92188506
_cell_angle_alpha   96.53103279
_cell_angle_beta   102.79322418
_cell_angle_gamma   90.00000000
_symmetry_Int_Tables_number   1
_chemical_formula_structural   CaSb4H6(SO8)2
_chemical_formula_sum   'Ca2 Sb8 H12 S4 O32'
_cell_volume   736.46721912
_cell_formula_units_Z   2
loop_
 _symmetry_equiv_pos_site_id
 _symmetry_equiv_pos_as_xyz
  1  'x, y, z'
loop_
 _atom_site_type_symbol
 _atom_site_label
 _atom_site_symmetry_multiplicity
 _atom_site_fract_x
 _atom_site_fract_y
 _atom_site_fract_z
 _atom_site_occupancy
  Ca  Ca0  1  0.31820380  0.75000000  0.00000000  1
  Ca  Ca1  1  0.68179620  0.25000000  1.00000000  1
  Sb  Sb2  1  0.78826587  0.01472774  0.58211816  1
  Sb  Sb3  1  0.20614770  0.48527226  0.41788184  1
  Sb  Sb4  1  0.21173413  0.98527226  0.41788184  1
  Sb  Sb5  1  0.79385230  0.51472774  0.58211816  1
  Sb  Sb6  1  0.25440326  0.77001490  0.63398092  1
  Sb  Sb7  1  0.62042234  0.72998510  0.36601908  1
  Sb  Sb8  1  0.74559674  0.22998510  0.36601908  1
  Sb  Sb9  1  0.37957766  0.27001490  0.63398092  1
  H  H10  1  0.79962929  0.72399932  0.88815031  1
  H  H11  1  0.91147898  0.77600068  0.11184969  1
  H  H12  1  0.20037071  0.27600068  0.11184969  1
  H  H13  1  0.08852102  0.22399932  0.88815031  1
  H  H14  1  0.85002116  0.87752879  0.89922486  1
  H  H15  1  0.95079631  0.62247121  0.10077514  1
  H  H16  1  0.14997884  0.12247121  0.10077514  1
  H  H17  1  0.04920369  0.37752879  0.89922486  1
  H  H18  1  0.95892905  0.78169188  0.76173893  1
  H  H19  1  0.19719013  0.71830812  0.23826107  1
  H  H20  1  0.04107095  0.21830812  0.23826107  1
  H  H21  1  0.80280987  0.28169188  0.76173893  1
  S  S22  1  0.43566840  0.01713359  0.84180972  1
  S  S23  1  0.59385869  0.48286641  0.15819028  1
  S  S24  1  0.56433160  0.98286641  0.15819028  1
  S  S25  1  0.40614131  0.51713359  0.84180972  1
  O  O26  1  0.35505198  0.02890086  0.72384464  1
  O  O27  1  0.63120734  0.47109914  0.27615536  1
  O  O28  1  0.64494802  0.97109914  0.27615536  1
  O  O29  1  0.36879266  0.52890086  0.72384464  1
  O  O30  1  0.37787097  0.88071333  0.85774338  1
  O  O31  1  0.52012759  0.61928667  0.14225662  1
  O  O32  1  0.62212903  0.11928667  0.14225662  1
  O  O33  1  0.47987241  0.38071333  0.85774338  1
  O  O34  1  0.31381741  0.11522610  0.90469268  1
  O  O35  1  0.40912473  0.38477390  0.09530732  1
  O  O36  1  0.68618259  0.88477390  0.09530732  1
  O  O37  1  0.59087527  0.61522610  0.90469268  1
  O  O38  1  0.69872342  0.04593691  0.87844395  1
  O  O39  1  0.82027947  0.45406309  0.12155605  1
  O  O40  1  0.30127658  0.95406309  0.12155605  1
  O  O41  1  0.17972053  0.54593691  0.87844395  1
  O  O42  1  0.92404701  0.79163643  0.88765001  1
  O  O43  1  0.03639700  0.70836357  0.11234999  1
  O  O44  1  0.07595299  0.20836357  0.11234999  1
  O  O45  1  0.96360300  0.29163643  0.88765001  1
  O  O46  1  0.07738829  0.88838417  0.52351796  1
  O  O47  1  0.55387034  0.61161583  0.47648204  1
  O  O48  1  0.92261171  0.11161583  0.47648204  1
  O  O49  1  0.44612966  0.38838417  0.52351796  1
  O  O50  1  0.07969173  0.61549584  0.52582243  1
  O  O51  1  0.55386930  0.88450416  0.47417757  1
  O  O52  1  0.92030827  0.38450416  0.47417757  1
  O  O53  1  0.44613070  0.11549584  0.52582243  1
  O  O54  1  0.94611749  0.77068617  0.68181021  1
  O  O55  1  0.26430728  0.72931383  0.31818979  1
  O  O56  1  0.05388251  0.22931383  0.31818979  1
  O  O57  1  0.73569272  0.27068617  0.68181021  1
