# generated using pymatgen
data_GaH15N5Cl3
_symmetry_space_group_name_H-M   'P 1'
_cell_length_a   7.12308659
_cell_length_b   11.00566629
_cell_length_c   13.97786958
_cell_angle_alpha   90.00000000
_cell_angle_beta   90.00000000
_cell_angle_gamma   90.00000000
_symmetry_Int_Tables_number   1
_chemical_formula_structural   GaH15N5Cl3
_chemical_formula_sum   'Ga4 H60 N20 Cl12'
_cell_volume   1095.78549641
_cell_formula_units_Z   4
loop_
 _symmetry_equiv_pos_site_id
 _symmetry_equiv_pos_as_xyz
  1  'x, y, z'
loop_
 _atom_site_type_symbol
 _atom_site_label
 _atom_site_symmetry_multiplicity
 _atom_site_fract_x
 _atom_site_fract_y
 _atom_site_fract_z
 _atom_site_occupancy
  Ga  Ga0  1  0.68663449  0.75000000  0.90093694  1
  Ga  Ga1  1  0.81336551  0.75000000  0.40093694  1
  Ga  Ga2  1  0.31336551  0.25000000  0.09906306  1
  Ga  Ga3  1  0.18663449  0.25000000  0.59906306  1
  H  H4  1  0.54820732  0.52896886  0.88784534  1
  H  H5  1  0.95179268  0.97103114  0.38784534  1
  H  H6  1  0.45179268  0.02896886  0.11215466  1
  H  H7  1  0.04820732  0.47103114  0.61215466  1
  H  H8  1  0.45179268  0.47103114  0.11215466  1
  H  H9  1  0.04820732  0.02896886  0.61215466  1
  H  H10  1  0.54820732  0.97103114  0.88784534  1
  H  H11  1  0.95179268  0.52896886  0.38784534  1
  H  H12  1  0.72000604  0.52796577  0.96750339  1
  H  H13  1  0.77999396  0.97203423  0.46750339  1
  H  H14  1  0.27999396  0.02796577  0.03249661  1
  H  H15  1  0.22000604  0.47203423  0.53249661  1
  H  H16  1  0.27999396  0.47203423  0.03249661  1
  H  H17  1  0.22000604  0.02796577  0.53249661  1
  H  H18  1  0.72000604  0.97203423  0.96750339  1
  H  H19  1  0.77999396  0.52796577  0.46750339  1
  H  H20  1  0.77004324  0.52248742  0.85200476  1
  H  H21  1  0.72995676  0.97751258  0.35200476  1
  H  H22  1  0.22995676  0.02248742  0.14799524  1
  H  H23  1  0.27004324  0.47751258  0.64799524  1
  H  H24  1  0.22995676  0.47751258  0.14799524  1
  H  H25  1  0.27004324  0.02248742  0.64799524  1
  H  H26  1  0.77004324  0.97751258  0.85200476  1
  H  H27  1  0.72995676  0.52248742  0.35200476  1
  H  H28  1  0.83752278  0.75000000  0.72408920  1
  H  H29  1  0.66247722  0.75000000  0.22408920  1
  H  H30  1  0.16247722  0.25000000  0.27591080  1
  H  H31  1  0.33752278  0.25000000  0.77591080  1
  H  H32  1  0.97702174  0.67405802  0.79726924  1
  H  H33  1  0.52297826  0.82594198  0.29726924  1
  H  H34  1  0.02297826  0.17405802  0.20273076  1
  H  H35  1  0.47702174  0.32594198  0.70273076  1
  H  H36  1  0.02297826  0.32594198  0.20273076  1
  H  H37  1  0.47702174  0.17405802  0.70273076  1
  H  H38  1  0.97702174  0.82594198  0.79726924  1
  H  H39  1  0.52297826  0.67405802  0.29726924  1
  H  H40  1  0.03287604  0.75000000  0.97577261  1
  H  H41  1  0.46712396  0.75000000  0.47577261  1
  H  H42  1  0.96712396  0.25000000  0.02422739  1
  H  H43  1  0.53287604  0.25000000  0.52422739  1
  H  H44  1  0.88777292  0.67441843  0.04690119  1
  H  H45  1  0.61222708  0.82558157  0.54690119  1
  H  H46  1  0.11222708  0.17441843  0.95309881  1
  H  H47  1  0.38777292  0.32558157  0.45309881  1
  H  H48  1  0.11222708  0.32558157  0.95309881  1
  H  H49  1  0.38777292  0.17441843  0.45309881  1
  H  H50  1  0.88777292  0.82558157  0.04690119  1
  H  H51  1  0.61222708  0.67441843  0.54690119  1
  H  H52  1  0.48770881  0.67417958  0.75134319  1
  H  H53  1  0.01229119  0.82582042  0.25134319  1
  H  H54  1  0.51229119  0.17417958  0.24865681  1
  H  H55  1  0.98770881  0.32582042  0.74865681  1
  H  H56  1  0.51229119  0.32582042  0.24865681  1
  H  H57  1  0.98770881  0.17417958  0.74865681  1
  H  H58  1  0.48770881  0.82582042  0.75134319  1
  H  H59  1  0.01229119  0.67417958  0.25134319  1
  H  H60  1  0.35180249  0.75000000  0.82823740  1
  H  H61  1  0.14819751  0.75000000  0.32823740  1
  H  H62  1  0.64819751  0.25000000  0.17176260  1
  H  H63  1  0.85180249  0.25000000  0.67176260  1
  N  N64  1  0.68115504  0.56035976  0.90151244  1
  N  N65  1  0.81884496  0.93964024  0.40151244  1
  N  N66  1  0.31884496  0.06035976  0.09848756  1
  N  N67  1  0.18115504  0.43964024  0.59848756  1
  N  N68  1  0.31884496  0.43964024  0.09848756  1
  N  N69  1  0.18115504  0.06035976  0.59848756  1
  N  N70  1  0.68115504  0.93964024  0.90151244  1
  N  N71  1  0.81884496  0.56035976  0.40151244  1
  N  N72  1  0.89309358  0.75000000  0.79197741  1
  N  N73  1  0.60690642  0.75000000  0.29197741  1
  N  N74  1  0.10690642  0.25000000  0.20802259  1
  N  N75  1  0.39309358  0.25000000  0.70802259  1
  N  N76  1  0.89976905  0.75000000  0.00318945  1
  N  N77  1  0.60023095  0.75000000  0.50318945  1
  N  N78  1  0.10023095  0.25000000  0.99681055  1
  N  N79  1  0.39976905  0.25000000  0.49681055  1
  N  N80  1  0.47901805  0.75000000  0.79413949  1
  N  N81  1  0.02098195  0.75000000  0.29413949  1
  N  N82  1  0.52098195  0.25000000  0.20586051  1
  N  N83  1  0.97901805  0.25000000  0.70586051  1
  Cl  Cl84  1  0.45304708  0.75000000  0.02261221  1
  Cl  Cl85  1  0.04695292  0.75000000  0.52261221  1
  Cl  Cl86  1  0.54695292  0.25000000  0.97738779  1
  Cl  Cl87  1  0.95304708  0.25000000  0.47738779  1
  Cl  Cl88  1  0.65038514  0.50904444  0.65024635  1
  Cl  Cl89  1  0.84961486  0.99095556  0.15024635  1
  Cl  Cl90  1  0.34961486  0.00904444  0.34975365  1
  Cl  Cl91  1  0.15038514  0.49095556  0.84975365  1
  Cl  Cl92  1  0.34961486  0.49095556  0.34975365  1
  Cl  Cl93  1  0.15038514  0.00904444  0.84975365  1
  Cl  Cl94  1  0.65038514  0.99095556  0.65024635  1
  Cl  Cl95  1  0.84961486  0.50904444  0.15024635  1
