# generated using pymatgen
data_WO3
_symmetry_space_group_name_H-M   'P 1'
_cell_length_a   7.56772666
_cell_length_b   7.65911111
_cell_length_c   7.68231865
_cell_angle_alpha   89.06676477
_cell_angle_beta   89.32061086
_cell_angle_gamma   89.30809201
_symmetry_Int_Tables_number   1
_chemical_formula_structural   WO3
_chemical_formula_sum   'W8 O24'
_cell_volume   445.16120110
_cell_formula_units_Z   8
loop_
 _symmetry_equiv_pos_site_id
 _symmetry_equiv_pos_as_xyz
  1  'x, y, z'
loop_
 _atom_site_type_symbol
 _atom_site_label
 _atom_site_symmetry_multiplicity
 _atom_site_fract_x
 _atom_site_fract_y
 _atom_site_fract_z
 _atom_site_occupancy
  W  W0  1  0.74774116  0.01564782  0.26715008  1
  W  W1  1  0.25225884  0.98435218  0.73284992  1
  W  W2  1  0.75020240  0.51670029  0.23341833  1
  W  W3  1  0.24979760  0.48329971  0.76658167  1
  W  W4  1  0.75222259  0.01831027  0.76538445  1
  W  W5  1  0.24777741  0.98168973  0.23461555  1
  W  W6  1  0.75014716  0.51884734  0.73499510  1
  W  W7  1  0.24985284  0.48115266  0.26500490  1
  O  O8  1  -0.00014315  0.02967633  0.21349483  1
  O  O9  1  0.00014315  0.97032367  0.78650517  1
  O  O10  1  0.49855111  0.53044536  0.21564834  1
  O  O11  1  0.50144889  0.46955464  0.78435166  1
  O  O12  1  0.99802549  0.46769867  0.28453409  1
  O  O13  1  0.00197451  0.53230133  0.71546591  1
  O  O14  1  0.50011193  0.96864813  0.28469082  1
  O  O15  1  0.49988807  0.03135187  0.71530918  1
  O  O16  1  0.71929055  0.25728956  0.27524502  1
  O  O17  1  0.28070945  0.74271044  0.72475498  1
  O  O18  1  0.78163440  0.75746920  0.22401876  1
  O  O19  1  0.21836560  0.24253080  0.77598124  1
  O  O20  1  0.78116588  0.25779707  0.72521107  1
  O  O21  1  0.21883412  0.74220293  0.27478893  1
  O  O22  1  0.71840770  0.75772374  0.77548724  1
  O  O23  1  0.28159230  0.24227626  0.22451276  1
  O  O24  1  0.71452760  0.03560312  0.00328469  1
  O  O25  1  0.28547240  0.96439688  0.99671531  1
  O  O26  1  0.71609910  0.53510690  0.49696244  1
  O  O27  1  0.28390090  0.46489310  0.50303756  1
  O  O28  1  0.78493661  0.48466802  0.99633057  1
  O  O29  1  0.21506339  0.51533198  0.00366943  1
  O  O30  1  0.78594906  0.98479890  0.50355760  1
  O  O31  1  0.21405094  0.01520110  0.49644240  1
