# generated using pymatgen
data_YbAlB14
_symmetry_space_group_name_H-M   'P 1'
_cell_length_a   5.89590744
_cell_length_b   7.27997862
_cell_length_c   7.27997862
_cell_angle_alpha   69.07771167
_cell_angle_beta   66.11263588
_cell_angle_gamma   66.11263588
_symmetry_Int_Tables_number   1
_chemical_formula_structural   YbAlB14
_chemical_formula_sum   'Yb2 Al2 B28'
_cell_volume   254.16817223
_cell_formula_units_Z   2
loop_
 _symmetry_equiv_pos_site_id
 _symmetry_equiv_pos_as_xyz
  1  'x, y, z'
loop_
 _atom_site_type_symbol
 _atom_site_label
 _atom_site_symmetry_multiplicity
 _atom_site_fract_x
 _atom_site_fract_y
 _atom_site_fract_z
 _atom_site_occupancy
  Yb  Yb0  1  0.75000000  0.60137685  0.89862315  1
  Yb  Yb1  1  0.25000000  0.39862315  0.10137685  1
  Al  Al2  1  0.50000000  0.00000000  0.50000000  1
  Al  Al3  1  -0.00000000  0.00000000  0.50000000  1
  B  B4  1  0.16668301  0.79792329  0.86871069  1
  B  B5  1  0.83331699  0.20207671  0.13128931  1
  B  B6  1  0.66668301  0.36871069  0.29792329  1
  B  B7  1  0.33331699  0.63128931  0.70207671  1
  B  B8  1  0.64553347  0.97965392  0.72927914  1
  B  B9  1  0.35446653  0.02034608  0.27072086  1
  B  B10  1  0.14553347  0.22927914  0.47965392  1
  B  B11  1  0.85446653  0.77072086  0.52034608  1
  B  B12  1  0.58892628  0.24379127  0.57835618  1
  B  B13  1  0.41107372  0.75620873  0.42164382  1
  B  B14  1  0.08892628  0.07835618  0.74379127  1
  B  B15  1  0.91107372  0.92164382  0.25620873  1
  B  B16  1  0.89724515  0.77802055  0.10180450  1
  B  B17  1  0.77707021  0.22197945  0.89819550  1
  B  B18  1  0.39724515  0.60180450  0.27802055  1
  B  B19  1  0.27707021  0.39819550  0.72197945  1
  B  B20  1  0.10275485  0.22197945  0.89819550  1
  B  B21  1  0.22292979  0.77802055  0.10180450  1
  B  B22  1  0.60275485  0.39819550  0.72197945  1
  B  B23  1  0.72292979  0.60180450  0.27802055  1
  B  B24  1  0.33142921  0.37321354  0.46770315  1
  B  B25  1  0.17234590  0.62678646  0.53229685  1
  B  B26  1  0.83142921  0.96770315  0.87321354  1
  B  B27  1  0.67234590  0.03229685  0.12678646  1
  B  B28  1  0.66857079  0.62678646  0.53229685  1
  B  B29  1  0.82765410  0.37321354  0.46770315  1
  B  B30  1  0.16857079  0.03229685  0.12678646  1
  B  B31  1  0.32765410  0.96770315  0.87321354  1
