# generated using pymatgen
data_HC2N3
_symmetry_space_group_name_H-M   'P 1'
_cell_length_a   4.29669538
_cell_length_b   12.77455126
_cell_length_c   16.99052112
_cell_angle_alpha   90.08289789
_cell_angle_beta   90.00000000
_cell_angle_gamma   90.00000000
_symmetry_Int_Tables_number   1
_chemical_formula_structural   HC2N3
_chemical_formula_sum   'H12 C24 N36'
_cell_volume   932.58078533
_cell_formula_units_Z   12
loop_
 _symmetry_equiv_pos_site_id
 _symmetry_equiv_pos_as_xyz
  1  'x, y, z'
loop_
 _atom_site_type_symbol
 _atom_site_label
 _atom_site_symmetry_multiplicity
 _atom_site_fract_x
 _atom_site_fract_y
 _atom_site_fract_z
 _atom_site_occupancy
  H  H0  1  -0.00000000  0.95050313  0.57874066  1
  H  H1  1  0.00000000  0.82497367  0.62598766  1
  H  H2  1  -0.00000000  0.05679018  0.42218299  1
  H  H3  1  -0.00000000  0.18214417  0.37528646  1
  H  H4  1  -0.00000000  0.61479019  0.61838262  1
  H  H5  1  -0.00000000  0.39538788  0.38184344  1
  H  H6  1  -0.00000000  0.44519567  0.92019820  1
  H  H7  1  -0.00000000  0.31746622  0.87617269  1
  H  H8  1  -0.00000000  0.55738277  0.07551063  1
  H  H9  1  0.00000000  0.68185142  0.12465505  1
  H  H10  1  -0.00000000  0.11022297  0.88343574  1
  H  H11  1  -0.00000000  0.89545083  0.11973258  1
  C  C12  1  0.00000000  0.96445226  0.83723035  1
  C  C13  1  0.00000000  0.82991230  0.92606444  1
  C  C14  1  0.00000000  0.80233551  0.78345986  1
  C  C15  1  0.00000000  0.65282048  0.87066921  1
  C  C16  1  -0.00000000  0.63342115  0.73759210  1
  C  C17  1  0.00000000  0.46495652  0.66156389  1
  C  C18  1  0.00000000  0.32945351  0.57348985  1
  C  C19  1  -0.00000000  0.13457753  0.76308529  1
  C  C20  1  -0.00000000  0.15295816  0.62953359  1
  C  C21  1  -0.00000000  0.18100183  0.49614728  1
  C  C22  1  -0.00000000  0.82637465  0.50518906  1
  C  C23  1  0.00000000  0.85560760  0.37206798  1
  C  C24  1  -0.00000000  0.87483942  0.23912700  1
  C  C25  1  -0.00000000  0.67872643  0.42721842  1
  C  C26  1  -0.00000000  0.70612341  0.28452335  1
  C  C27  1  -0.00000000  0.54413139  0.33829603  1
  C  C28  1  -0.00000000  0.37549668  0.26245369  1
  C  C29  1  -0.00000000  0.35545430  0.12939287  1
  C  C30  1  -0.00000000  0.20635218  0.21727807  1
  C  C31  1  -0.00000000  0.17767709  0.07504787  1
  C  C32  1  0.00000000  0.04372019  0.16398889  1
  C  C33  1  0.00000000  0.68242102  0.00371731  1
  C  C34  1  0.00000000  0.30327623  0.71649739  1
  C  C35  1  -0.00000000  0.32408337  0.99656908  1
  N  N36  1  -0.00000000  0.90526727  0.77216338  1
  N  N37  1  0.00000000  0.93309880  0.91276575  1
  N  N38  1  -0.00000000  0.76189271  0.85986762  1
  N  N39  1  0.00000000  0.73745381  0.72184559  1
  N  N40  1  -0.00000000  0.61366276  0.94203238  1
  N  N41  1  0.00000000  0.58891103  0.80812265  1
  N  N42  1  -0.00000000  0.57295679  0.67003549  1
  N  N43  1  -0.00000000  0.40613684  0.72688105  1
  N  N44  1  -0.00000000  0.43296503  0.58611253  1
  N  N45  1  -0.00000000  0.28802116  0.50171942  1
  N  N46  1  0.00000000  0.26202396  0.64011351  1
  N  N47  1  -0.00000000  0.23865909  0.77865077  1
  N  N48  1  0.00000000  0.07255583  0.82988854  1
  N  N49  1  -0.00000000  0.08982416  0.69248687  1
  N  N50  1  0.00000000  0.11294887  0.55821881  1
  N  N51  1  -0.00000000  0.13716557  0.42544420  1
  N  N52  1  0.00000000  0.87006233  0.57585853  1
  N  N53  1  0.00000000  0.89491378  0.44359752  1
  N  N54  1  -0.00000000  0.91946668  0.30960269  1
  N  N55  1  0.00000000  0.93585907  0.17199021  1
  N  N56  1  -0.00000000  0.71939309  0.49923495  1
  N  N57  1  -0.00000000  0.74664127  0.36103957  1
  N  N58  1  0.00000000  0.77091469  0.22287529  1
  N  N59  1  -0.00000000  0.57544982  0.41390697  1
  N  N60  1  0.00000000  0.60332377  0.27328538  1
  N  N61  1  -0.00000000  0.43637027  0.32980761  1
  N  N62  1  0.00000000  0.41974899  0.19168770  1
  N  N63  1  0.00000000  0.39384201  0.05754063  1
  N  N64  1  -0.00000000  0.27161314  0.27861764  1
  N  N65  1  -0.00000000  0.24637853  0.14074367  1
  N  N66  1  0.00000000  0.10342915  0.22877548  1
  N  N67  1  -0.00000000  0.07452120  0.08841567  1
  N  N68  1  0.00000000  0.21733985  0.00295569  1
  N  N69  1  0.00000000  0.63796075  0.07399837  1
  N  N70  1  0.00000000  0.78934462  0.99811959  1
  N  N71  1  -0.00000000  0.36515099  0.92506665  1
