# generated using pymatgen
data_RbYb(PO3)4
_symmetry_space_group_name_H-M   'P 1'
_cell_length_a   9.03223680
_cell_length_b   10.49405870
_cell_length_c   11.19277495
_cell_angle_alpha   106.54715164
_cell_angle_beta   90.00000000
_cell_angle_gamma   90.00000000
_symmetry_Int_Tables_number   1
_chemical_formula_structural   RbYb(PO3)4
_chemical_formula_sum   'Rb4 Yb4 P16 O48'
_cell_volume   1016.96852646
_cell_formula_units_Z   4
loop_
 _symmetry_equiv_pos_site_id
 _symmetry_equiv_pos_as_xyz
  1  'x, y, z'
loop_
 _atom_site_type_symbol
 _atom_site_label
 _atom_site_symmetry_multiplicity
 _atom_site_fract_x
 _atom_site_fract_y
 _atom_site_fract_z
 _atom_site_occupancy
  Rb  Rb0  1  0.56420915  0.18988561  0.45838345  1
  Rb  Rb1  1  0.93579085  0.68988561  0.95838345  1
  Rb  Rb2  1  0.43579085  0.81011439  0.54161655  1
  Rb  Rb3  1  0.06420915  0.31011439  0.04161655  1
  Yb  Yb4  1  0.27125156  0.99825735  0.18256436  1
  Yb  Yb5  1  0.22874844  0.49825735  0.68256436  1
  Yb  Yb6  1  0.72874844  0.00174265  0.81743564  1
  Yb  Yb7  1  0.77125156  0.50174265  0.31743564  1
  P  P8  1  0.67291814  0.95742849  0.13343942  1
  P  P9  1  0.82708186  0.45742849  0.63343942  1
  P  P10  1  0.32708186  0.04257151  0.86656058  1
  P  P11  1  0.17291814  0.54257151  0.36656058  1
  P  P12  1  0.40777708  0.35327868  0.24210805  1
  P  P13  1  0.09222292  0.85327868  0.74210805  1
  P  P14  1  0.59222292  0.64672132  0.75789195  1
  P  P15  1  0.90777708  0.14672132  0.25789195  1
  P  P16  1  0.47439462  0.25263104  0.77952270  1
  P  P17  1  0.02560538  0.75263104  0.27952270  1
  P  P18  1  0.52560538  0.74736896  0.22047730  1
  P  P19  1  0.97439462  0.24736896  0.72047730  1
  P  P20  1  0.10865660  0.17352808  0.47622856  1
  P  P21  1  0.39134340  0.67352808  0.97622856  1
  P  P22  1  0.89134340  0.82647192  0.52377144  1
  P  P23  1  0.60865660  0.32647192  0.02377144  1
  O  O24  1  0.74302081  0.93610160  0.00868295  1
  O  O25  1  0.75697919  0.43610160  0.50868295  1
  O  O26  1  0.25697919  0.06389840  0.99131705  1
  O  O27  1  0.24302081  0.56389840  0.49131705  1
  O  O28  1  0.79084357  0.02488266  0.24482087  1
  O  O29  1  0.70915643  0.52488266  0.74482087  1
  O  O30  1  0.20915643  0.97511734  0.75517913  1
  O  O31  1  0.29084357  0.47511734  0.25517913  1
  O  O32  1  0.53053359  0.03356521  0.16479524  1
  O  O33  1  0.96946641  0.53356521  0.66479524  1
  O  O34  1  0.46946641  0.96643479  0.83520476  1
  O  O35  1  0.03053359  0.46643479  0.33520476  1
  O  O36  1  0.53906976  0.39947661  0.32469582  1
  O  O37  1  0.96093024  0.89947661  0.82469582  1
  O  O38  1  0.46093024  0.60052339  0.67530418  1
  O  O39  1  0.03906976  0.10052339  0.17530418  1
  O  O40  1  0.32413356  0.23480791  0.25466449  1
  O  O41  1  0.17586644  0.73480791  0.75466449  1
  O  O42  1  0.67586644  0.76519209  0.74533551  1
  O  O43  1  0.82413356  0.26519209  0.24533551  1
  O  O44  1  0.58373793  0.14631265  0.71806399  1
  O  O45  1  0.91626207  0.64631265  0.21806399  1
  O  O46  1  0.41626207  0.85368735  0.28193601  1
  O  O47  1  0.08373793  0.35368735  0.78193601  1
  O  O48  1  0.34228624  0.18802478  0.84315448  1
  O  O49  1  0.15771376  0.68802478  0.34315448  1
  O  O50  1  0.65771376  0.81197522  0.15684552  1
  O  O51  1  0.84228624  0.31197522  0.65684552  1
  O  O52  1  0.16950427  0.31226212  0.51474432  1
  O  O53  1  0.33049573  0.81226212  0.01474432  1
  O  O54  1  0.83049573  0.68773788  0.48525568  1
  O  O55  1  0.66950427  0.18773788  0.98525568  1
  O  O56  1  0.21265717  0.06661649  0.40634678  1
  O  O57  1  0.28734283  0.56661649  0.90634678  1
  O  O58  1  0.78734283  0.93338351  0.59365322  1
  O  O59  1  0.71265717  0.43338351  0.09365322  1
  O  O60  1  0.04629855  0.13946055  0.59892780  1
  O  O61  1  0.45370145  0.63946055  0.09892780  1
  O  O62  1  0.95370145  0.86053945  0.40107220  1
  O  O63  1  0.54629855  0.36053945  0.90107220  1
  O  O64  1  0.09255094  0.83174107  0.20109821  1
  O  O65  1  0.40744906  0.33174107  0.70109821  1
  O  O66  1  0.90744906  0.16825893  0.79890179  1
  O  O67  1  0.59255094  0.66825893  0.29890179  1
  O  O68  1  0.95314653  0.16869512  0.40227860  1
  O  O69  1  0.54685347  0.66869512  0.90227860  1
  O  O70  1  0.04685347  0.83130488  0.59772140  1
  O  O71  1  0.45314653  0.33130488  0.09772140  1
