# generated using pymatgen
data_La3Mo4O16F
_symmetry_space_group_name_H-M   'P 1'
_cell_length_a   7.33763216
_cell_length_b   7.52797504
_cell_length_c   14.86876841
_cell_angle_alpha   102.49656207
_cell_angle_beta   101.18791981
_cell_angle_gamma   100.25311883
_symmetry_Int_Tables_number   1
_chemical_formula_structural   La3Mo4O16F
_chemical_formula_sum   'La6 Mo8 O32 F2'
_cell_volume   765.58761273
_cell_formula_units_Z   2
loop_
 _symmetry_equiv_pos_site_id
 _symmetry_equiv_pos_as_xyz
  1  'x, y, z'
loop_
 _atom_site_type_symbol
 _atom_site_label
 _atom_site_symmetry_multiplicity
 _atom_site_fract_x
 _atom_site_fract_y
 _atom_site_fract_z
 _atom_site_occupancy
  La  La0  1  0.11026671  0.16154758  0.73901248  1
  La  La1  1  0.88973329  0.83845242  0.26098752  1
  La  La2  1  0.21929560  0.72293333  0.87806278  1
  La  La3  1  0.78070440  0.27706667  0.12193722  1
  La  La4  1  0.28043139  0.65398306  0.60544064  1
  La  La5  1  0.71956861  0.34601694  0.39455936  1
  Mo  Mo6  1  0.22762540  0.26241125  0.98895068  1
  Mo  Mo7  1  0.77237460  0.73758875  0.01104932  1
  Mo  Mo8  1  0.83864153  0.57328096  0.66944632  1
  Mo  Mo9  1  0.16135847  0.42671904  0.33055368  1
  Mo  Mo10  1  0.60155688  0.07584272  0.82792946  1
  Mo  Mo11  1  0.39844312  0.92415728  0.17207054  1
  Mo  Mo12  1  0.69140404  0.91196747  0.48585100  1
  Mo  Mo13  1  0.30859596  0.08803253  0.51414900  1
  O  O14  1  0.46294328  0.33867668  0.06131834  1
  O  O15  1  0.53705672  0.66132332  0.93868166  1
  O  O16  1  0.06627363  0.22841754  0.06205373  1
  O  O17  1  0.93372637  0.77158246  0.93794627  1
  O  O18  1  0.16530348  0.42180840  0.91912530  1
  O  O19  1  0.83469652  0.57819160  0.08087470  1
  O  O20  1  0.20852778  0.05838815  0.89160490  1
  O  O21  1  0.79147222  0.94161185  0.10839510  1
  O  O22  1  0.87464432  0.45381518  0.75910875  1
  O  O23  1  0.12535568  0.54618482  0.24089125  1
  O  O24  1  0.39812382  0.39014679  0.36055896  1
  O  O25  1  0.60187618  0.60985321  0.63944104  1
  O  O26  1  0.90865778  0.45471117  0.56694006  1
  O  O27  1  0.09134222  0.54528883  0.43305994  1
  O  O28  1  0.02963514  0.78592300  0.71545026  1
  O  O29  1  0.97036486  0.21407700  0.28454974  1
  O  O30  1  0.47812411  0.24623652  0.79866801  1
  O  O31  1  0.52187589  0.75376348  0.20133199  1
  O  O32  1  0.81290293  0.08126488  0.78473593  1
  O  O33  1  0.18709707  0.91873512  0.21526407  1
  O  O34  1  0.66445556  0.10938583  0.95410419  1
  O  O35  1  0.33554444  0.89061417  0.04589581  1
  O  O36  1  0.43202778  0.85009369  0.77558632  1
  O  O37  1  0.56797222  0.14990631  0.22441368  1
  O  O38  1  0.75794545  0.69528523  0.45645925  1
  O  O39  1  0.24205455  0.30471477  0.54354075  1
  O  O40  1  0.85790304  0.04071125  0.59396873  1
  O  O41  1  0.14209696  0.95928875  0.40603127  1
  O  O42  1  0.44939386  0.82846535  0.50258739  1
  O  O43  1  0.55060614  0.17153465  0.49741261  1
  O  O44  1  0.25707329  0.99243102  0.61408522  1
  O  O45  1  0.74292671  0.00756898  0.38591478  1
  F  F46  1  0.76820363  0.51526071  0.26805100  1
  F  F47  1  0.23179637  0.48473929  0.73194900  1
