# generated using pymatgen
data_Nd2Sb4Ir3
_symmetry_space_group_name_H-M   'P 1'
_cell_length_a   4.58540633
_cell_length_b   11.07275948
_cell_length_c   16.31671945
_cell_angle_alpha   90.00000000
_cell_angle_beta   90.00000000
_cell_angle_gamma   90.00000000
_symmetry_Int_Tables_number   1
_chemical_formula_structural   Nd2Sb4Ir3
_chemical_formula_sum   'Nd8 Sb16 Ir12'
_cell_volume   828.45045132
_cell_formula_units_Z   4
loop_
 _symmetry_equiv_pos_site_id
 _symmetry_equiv_pos_as_xyz
  1  'x, y, z'
loop_
 _atom_site_type_symbol
 _atom_site_label
 _atom_site_symmetry_multiplicity
 _atom_site_fract_x
 _atom_site_fract_y
 _atom_site_fract_z
 _atom_site_occupancy
  Nd  Nd0  1  0.25000000  0.74812182  0.50667971  1
  Nd  Nd1  1  0.25000000  0.75187818  0.00667971  1
  Nd  Nd2  1  0.75000000  0.25187818  0.49332029  1
  Nd  Nd3  1  0.75000000  0.24812182  0.99332029  1
  Nd  Nd4  1  0.25000000  0.58917281  0.75140981  1
  Nd  Nd5  1  0.25000000  0.91082719  0.25140981  1
  Nd  Nd6  1  0.75000000  0.41082719  0.24859019  1
  Nd  Nd7  1  0.75000000  0.08917281  0.74859019  1
  Sb  Sb8  1  0.25000000  0.27508698  0.64979021  1
  Sb  Sb9  1  0.25000000  0.22491302  0.14979021  1
  Sb  Sb10  1  0.75000000  0.72491302  0.35020979  1
  Sb  Sb11  1  0.75000000  0.77508698  0.85020979  1
  Sb  Sb12  1  0.25000000  0.88679386  0.71059738  1
  Sb  Sb13  1  0.25000000  0.61320614  0.21059738  1
  Sb  Sb14  1  0.75000000  0.11320614  0.28940262  1
  Sb  Sb15  1  0.75000000  0.38679386  0.78940262  1
  Sb  Sb16  1  0.25000000  0.06266632  0.89421563  1
  Sb  Sb17  1  0.25000000  0.43733368  0.39421563  1
  Sb  Sb18  1  0.75000000  0.93733368  0.10578437  1
  Sb  Sb19  1  0.75000000  0.56266632  0.60578437  1
  Sb  Sb20  1  0.25000000  0.44705907  0.93159828  1
  Sb  Sb21  1  0.25000000  0.05294093  0.43159828  1
  Sb  Sb22  1  0.75000000  0.55294093  0.06840172  1
  Sb  Sb23  1  0.75000000  0.94705907  0.56840172  1
  Ir  Ir24  1  0.25000000  0.46602314  0.55623278  1
  Ir  Ir25  1  0.25000000  0.03397686  0.05623278  1
  Ir  Ir26  1  0.75000000  0.53397686  0.44376722  1
  Ir  Ir27  1  0.75000000  0.96602314  0.94376722  1
  Ir  Ir28  1  0.25000000  0.05639446  0.59238676  1
  Ir  Ir29  1  0.25000000  0.44360554  0.09238676  1
  Ir  Ir30  1  0.75000000  0.94360554  0.40761324  1
  Ir  Ir31  1  0.75000000  0.55639446  0.90761324  1
  Ir  Ir32  1  0.25000000  0.27689235  0.81756430  1
  Ir  Ir33  1  0.25000000  0.22310765  0.31756430  1
  Ir  Ir34  1  0.75000000  0.72310765  0.18243570  1
  Ir  Ir35  1  0.75000000  0.77689235  0.68243570  1
