# generated using pymatgen
data_ZrP2H4O9
_symmetry_space_group_name_H-M   'P 1'
_cell_length_a   5.39771041
_cell_length_b   9.29767974
_cell_length_c   16.34516079
_cell_angle_alpha   101.46183891
_cell_angle_beta   90.00000000
_cell_angle_gamma   90.00000000
_symmetry_Int_Tables_number   1
_chemical_formula_structural   ZrP2H4O9
_chemical_formula_sum   'Zr4 P8 H16 O36'
_cell_volume   803.94218250
_cell_formula_units_Z   4
loop_
 _symmetry_equiv_pos_site_id
 _symmetry_equiv_pos_as_xyz
  1  'x, y, z'
loop_
 _atom_site_type_symbol
 _atom_site_label
 _atom_site_symmetry_multiplicity
 _atom_site_fract_x
 _atom_site_fract_y
 _atom_site_fract_z
 _atom_site_occupancy
  Zr  Zr0  1  0.24702298  0.74697952  0.98618056  1
  Zr  Zr1  1  0.25297702  0.24697952  0.48618056  1
  Zr  Zr2  1  0.75297702  0.25302048  0.01381944  1
  Zr  Zr3  1  0.74702298  0.75302048  0.51381944  1
  P  P4  1  0.74823654  0.88875502  0.89046514  1
  P  P5  1  0.75176346  0.38875502  0.39046514  1
  P  P6  1  0.25176346  0.11124498  0.10953486  1
  P  P7  1  0.24823654  0.61124498  0.60953486  1
  P  P8  1  0.25669010  0.36854169  0.90079289  1
  P  P9  1  0.24330990  0.86854169  0.40079289  1
  P  P10  1  0.74330990  0.63145831  0.09920711  1
  P  P11  1  0.75669010  0.13145831  0.59920711  1
  H  H12  1  0.59039147  0.93021133  0.77362895  1
  H  H13  1  0.90960853  0.43021133  0.27362895  1
  H  H14  1  0.40960853  0.06978867  0.22637105  1
  H  H15  1  0.09039147  0.56978867  0.72637105  1
  H  H16  1  0.27079956  0.20667838  0.78213457  1
  H  H17  1  0.22920044  0.70667838  0.28213457  1
  H  H18  1  0.72920044  0.79332162  0.21786543  1
  H  H19  1  0.77079956  0.29332162  0.71786543  1
  H  H20  1  0.65084961  0.54942647  0.74482804  1
  H  H21  1  0.84915039  0.04942647  0.24482804  1
  H  H22  1  0.34915039  0.45057353  0.25517196  1
  H  H23  1  0.15084961  0.95057353  0.75517196  1
  H  H24  1  0.80900952  0.51920743  0.81900709  1
  H  H25  1  0.69099048  0.01920743  0.31900709  1
  H  H26  1  0.19099048  0.48079257  0.18099291  1
  H  H27  1  0.30900952  0.98079257  0.68099291  1
  O  O28  1  0.70961406  0.04558219  0.93991969  1
  O  O29  1  0.79038594  0.54558219  0.43991969  1
  O  O30  1  0.29038594  0.95441781  0.06008031  1
  O  O31  1  0.20961406  0.45441781  0.56008031  1
  O  O32  1  0.00486647  0.82885974  0.90559048  1
  O  O33  1  0.49513353  0.32885974  0.40559048  1
  O  O34  1  0.99513353  0.17114026  0.09440952  1
  O  O35  1  0.50486647  0.67114026  0.59440952  1
  O  O36  1  0.54231901  0.78671078  0.91012131  1
  O  O37  1  0.95768099  0.28671078  0.41012131  1
  O  O38  1  0.45768099  0.21328922  0.08987869  1
  O  O39  1  0.04231901  0.71328922  0.58987869  1
  O  O40  1  0.74640915  0.89068641  0.79358900  1
  O  O41  1  0.75359085  0.39068641  0.29358900  1
  O  O42  1  0.25359085  0.10931359  0.20641100  1
  O  O43  1  0.24640915  0.60931359  0.70641100  1
  O  O44  1  0.05357478  0.28905073  0.94020690  1
  O  O45  1  0.44642522  0.78905073  0.44020690  1
  O  O46  1  0.94642522  0.71094927  0.05979310  1
  O  O47  1  0.55357478  0.21094927  0.55979310  1
  O  O48  1  0.51201680  0.33898597  0.93515693  1
  O  O49  1  0.98798320  0.83898597  0.43515693  1
  O  O50  1  0.48798320  0.66101403  0.06484307  1
  O  O51  1  0.01201680  0.16101403  0.56484307  1
  O  O52  1  0.25306625  0.31423740  0.80277553  1
  O  O53  1  0.24693375  0.81423740  0.30277553  1
  O  O54  1  0.74693375  0.68576260  0.19722447  1
  O  O55  1  0.75306625  0.18576260  0.69722447  1
  O  O56  1  0.20323087  0.53398890  0.91311891  1
  O  O57  1  0.29676913  0.03398890  0.41311891  1
  O  O58  1  0.79676913  0.46601110  0.08688109  1
  O  O59  1  0.70323087  0.96601110  0.58688109  1
  O  O60  1  0.80052347  0.49845659  0.75801143  1
  O  O61  1  0.69947653  0.99845659  0.25801143  1
  O  O62  1  0.19947653  0.50154341  0.24198857  1
  O  O63  1  0.30052347  0.00154341  0.74198857  1
