# generated using pymatgen
data_Na2Cu3H8(SeO4)4
_symmetry_space_group_name_H-M   'P 1'
_cell_length_a   5.28711682
_cell_length_b   9.16930305
_cell_length_c   16.00788424
_cell_angle_alpha   90.00000000
_cell_angle_beta   92.49760310
_cell_angle_gamma   90.00000000
_symmetry_Int_Tables_number   1
_chemical_formula_structural   Na2Cu3H8(SeO4)4
_chemical_formula_sum   'Na4 Cu6 H16 Se8 O32'
_cell_volume   775.31183220
_cell_formula_units_Z   2
loop_
 _symmetry_equiv_pos_site_id
 _symmetry_equiv_pos_as_xyz
  1  'x, y, z'
loop_
 _atom_site_type_symbol
 _atom_site_label
 _atom_site_symmetry_multiplicity
 _atom_site_fract_x
 _atom_site_fract_y
 _atom_site_fract_z
 _atom_site_occupancy
  Na  Na0  1  0.73809971  0.13765728  0.46067615  1
  Na  Na1  1  0.26190029  0.63765728  0.03932385  1
  Na  Na2  1  0.26190029  0.86234272  0.53932385  1
  Na  Na3  1  0.73809971  0.36234272  0.96067615  1
  Cu  Cu4  1  0.00000000  0.50000000  0.50000000  1
  Cu  Cu5  1  0.00000000  0.00000000  -0.00000000  1
  Cu  Cu6  1  0.69860967  0.07378507  0.67145101  1
  Cu  Cu7  1  0.30139033  0.57378507  0.82854899  1
  Cu  Cu8  1  0.30139033  0.92621493  0.32854899  1
  Cu  Cu9  1  0.69860967  0.42621493  0.17145101  1
  H  H10  1  0.73256038  0.78681023  0.59385694  1
  H  H11  1  0.26743962  0.28681023  0.90614306  1
  H  H12  1  0.26743962  0.21318977  0.40614306  1
  H  H13  1  0.73256038  0.71318977  0.09385694  1
  H  H14  1  0.61795172  0.74867478  0.68085328  1
  H  H15  1  0.38204828  0.24867478  0.81914672  1
  H  H16  1  0.38204828  0.25132522  0.31914672  1
  H  H17  1  0.61795172  0.75132522  0.18085328  1
  H  H18  1  0.20374427  0.57052729  0.63771588  1
  H  H19  1  0.79625573  0.07052729  0.86228412  1
  H  H20  1  0.79625573  0.42947271  0.36228412  1
  H  H21  1  0.20374427  0.92947271  0.13771588  1
  H  H22  1  0.44563353  0.53108529  0.58586364  1
  H  H23  1  0.55436647  0.03108529  0.91413636  1
  H  H24  1  0.55436647  0.46891471  0.41413636  1
  H  H25  1  0.44563353  0.96891471  0.08586364  1
  Se  Se26  1  0.19926550  0.21803505  0.59820466  1
  Se  Se27  1  0.80073450  0.71803505  0.90179534  1
  Se  Se28  1  0.80073450  0.78196495  0.40179534  1
  Se  Se29  1  0.19926550  0.28196495  0.09820466  1
  Se  Se30  1  0.21023882  0.96457190  0.77345191  1
  Se  Se31  1  0.78976118  0.46457190  0.72654809  1
  Se  Se32  1  0.78976118  0.03542810  0.22654809  1
  Se  Se33  1  0.21023882  0.53542810  0.27345191  1
  O  O34  1  0.92155661  0.05936820  0.77308859  1
  O  O35  1  0.07844339  0.55936820  0.72691141  1
  O  O36  1  0.07844339  0.94063180  0.22691141  1
  O  O37  1  0.92155661  0.44063180  0.27308859  1
  O  O38  1  0.98480288  0.07252928  0.59481833  1
  O  O39  1  0.01519712  0.57252928  0.90518167  1
  O  O40  1  0.01519712  0.92747072  0.40518167  1
  O  O41  1  0.98480288  0.42747072  0.09481833  1
  O  O42  1  0.41274400  0.10791871  0.74622255  1
  O  O43  1  0.58725600  0.60791871  0.75377745  1
  O  O44  1  0.58725600  0.89208129  0.25377745  1
  O  O45  1  0.41274400  0.39208129  0.24622255  1
  O  O46  1  0.12550067  0.29504930  0.50031990  1
  O  O47  1  0.87449933  0.79504930  -0.00031990  1
  O  O48  1  0.87449933  0.70495070  0.49968010  1
  O  O49  1  0.12550067  0.20495070  0.00031990  1
  O  O50  1  0.62821878  0.82731422  0.63809607  1
  O  O51  1  0.37178122  0.32731422  0.86190393  1
  O  O52  1  0.37178122  0.17268578  0.36190393  1
  O  O53  1  0.62821878  0.67268578  0.13809607  1
  O  O54  1  0.27379320  0.57720182  0.57965707  1
  O  O55  1  0.72620680  0.07720182  0.92034293  1
  O  O56  1  0.72620680  0.42279818  0.42034293  1
  O  O57  1  0.27379320  0.92279818  0.07965707  1
  O  O58  1  0.46650279  0.12076918  0.57309439  1
  O  O59  1  0.53349721  0.62076918  0.92690561  1
  O  O60  1  0.53349721  0.87923082  0.42690561  1
  O  O61  1  0.46650279  0.37923082  0.07309439  1
  O  O62  1  0.27209595  0.94782880  0.87810566  1
  O  O63  1  0.72790405  0.44782880  0.62189434  1
  O  O64  1  0.72790405  0.05217120  0.12189434  1
  O  O65  1  0.27209595  0.55217120  0.37810566  1
