# generated using pymatgen
data_Ba5Y8Mn4O21
_symmetry_space_group_name_H-M   'P 1'
_cell_length_a   5.81389843
_cell_length_b   10.34835075
_cell_length_c   10.34835075
_cell_angle_alpha   85.47407883
_cell_angle_beta   73.68551071
_cell_angle_gamma   73.68551071
_symmetry_Int_Tables_number   1
_chemical_formula_structural   Ba5Y8Mn4O21
_chemical_formula_sum   'Ba5 Y8 Mn4 O21'
_cell_volume   573.47136893
_cell_formula_units_Z   1
loop_
 _symmetry_equiv_pos_site_id
 _symmetry_equiv_pos_as_xyz
  1  'x, y, z'
loop_
 _atom_site_type_symbol
 _atom_site_label
 _atom_site_symmetry_multiplicity
 _atom_site_fract_x
 _atom_site_fract_y
 _atom_site_fract_z
 _atom_site_occupancy
  Ba  Ba0  1  0.00000000  -0.00000000  0.00000000  1
  Ba  Ba1  1  0.86076791  0.67294493  0.60551926  1
  Ba  Ba2  1  0.13923209  0.32705507  0.39448074  1
  Ba  Ba3  1  0.53371284  0.60551926  0.32705507  1
  Ba  Ba4  1  0.46628716  0.39448074  0.67294493  1
  Y  Y5  1  0.83015138  0.41859492  0.92110231  1
  Y  Y6  1  0.16984862  0.58140508  0.07889769  1
  Y  Y7  1  0.24874631  0.92110231  0.58140508  1
  Y  Y8  1  0.75125369  0.07889769  0.41859492  1
  Y  Y9  1  0.64069994  0.76962610  0.94897402  1
  Y  Y10  1  0.35930006  0.23037390  0.05102598  1
  Y  Y11  1  0.41032604  0.94897402  0.23037390  1
  Y  Y12  1  0.58967396  0.05102598  0.76962610  1
  Mn  Mn13  1  0.75186884  0.28839254  0.20786977  1
  Mn  Mn14  1  0.24813116  0.71160746  0.79213023  1
  Mn  Mn15  1  0.04026138  0.20786977  0.71160746  1
  Mn  Mn16  1  0.95973862  0.79213023  0.28839254  1
  O  O17  1  0.50000000  -0.00000000  0.00000000  1
  O  O18  1  0.03841496  0.58886458  0.33430550  1
  O  O19  1  0.96158504  0.41113542  0.66569450  1
  O  O20  1  0.62727954  0.33430550  0.41113542  1
  O  O21  1  0.37272046  0.66569450  0.58886458  1
  O  O22  1  0.70091407  0.22536147  0.87064893  1
  O  O23  1  0.79692447  0.77463853  0.12935107  1
  O  O24  1  0.92627554  0.87064893  0.77463853  1
  O  O25  1  0.57156300  0.12935107  0.22536147  1
  O  O26  1  0.29908593  0.77463853  0.12935107  1
  O  O27  1  0.20307553  0.22536147  0.87064893  1
  O  O28  1  0.07372446  0.12935107  0.22536147  1
  O  O29  1  0.42843700  0.87064893  0.77463853  1
  O  O30  1  0.50699687  0.59436424  0.89336783  1
  O  O31  1  0.99472894  0.40563576  0.10663217  1
  O  O32  1  0.10136111  0.89336783  0.40563576  1
  O  O33  1  0.40036470  0.10663217  0.59436424  1
  O  O34  1  0.49300313  0.40563576  0.10663217  1
  O  O35  1  0.00527106  0.59436424  0.89336783  1
  O  O36  1  0.89863889  0.10663217  0.59436424  1
  O  O37  1  0.59963530  0.89336783  0.40563576  1
