# generated using pymatgen
data_Al13Co4
_symmetry_space_group_name_H-M   'P 1'
_cell_length_a   8.21866224
_cell_length_b   12.54246370
_cell_length_c   14.28521507
_cell_angle_alpha   90.00000000
_cell_angle_beta   90.00000000
_cell_angle_gamma   90.00000000
_symmetry_Int_Tables_number   1
_chemical_formula_structural   Al13Co4
_chemical_formula_sum   'Al78 Co24'
_cell_volume   1472.55243696
_cell_formula_units_Z   6
loop_
 _symmetry_equiv_pos_site_id
 _symmetry_equiv_pos_as_xyz
  1  'x, y, z'
loop_
 _atom_site_type_symbol
 _atom_site_label
 _atom_site_symmetry_multiplicity
 _atom_site_fract_x
 _atom_site_fract_y
 _atom_site_fract_z
 _atom_site_occupancy
  Al  Al0  1  0.50000000  0.99450076  0.31607832  1
  Al  Al1  1  -0.00000000  0.00549924  0.81607832  1
  Al  Al2  1  0.50000000  0.89885807  0.47902129  1
  Al  Al3  1  -0.00000000  0.10114193  0.97902129  1
  Al  Al4  1  0.50000000  0.09613856  0.12834271  1
  Al  Al5  1  -0.00000000  0.90386144  0.62834271  1
  Al  Al6  1  0.50000000  0.09013258  0.94064915  1
  Al  Al7  1  -0.00000000  0.90986742  0.44064915  1
  Al  Al8  1  0.50000000  0.85956994  0.16945096  1
  Al  Al9  1  -0.00000000  0.14043006  0.66945096  1
  Al  Al10  1  0.50000000  0.17627680  0.65317995  1
  Al  Al11  1  -0.00000000  0.82372320  0.15317995  1
  Al  Al12  1  0.50000000  0.19461673  0.33145724  1
  Al  Al13  1  -0.00000000  0.80538327  0.83145724  1
  Al  Al14  1  0.50000000  0.75118737  0.91331237  1
  Al  Al15  1  -0.00000000  0.24881263  0.41331237  1
  Al  Al16  1  0.50000000  0.60147893  0.34967887  1
  Al  Al17  1  -0.00000000  0.39852107  0.84967887  1
  Al  Al18  1  0.50000000  0.63147474  0.65863873  1
  Al  Al19  1  -0.00000000  0.36852526  0.15863873  1
  Al  Al20  1  0.50000000  0.33149219  0.17282811  1
  Al  Al21  1  -0.00000000  0.66850781  0.67282811  1
  Al  Al22  1  0.50000000  0.40969316  0.89022910  1
  Al  Al23  1  -0.00000000  0.59030684  0.39022910  1
  Al  Al24  1  0.50000000  0.50199544  0.50952257  1
  Al  Al25  1  -0.00000000  0.49800456  0.00952257  1
  Al  Al26  1  0.50000000  0.40391331  0.70255233  1
  Al  Al27  1  -0.00000000  0.59608669  0.20255233  1
  Al  Al28  1  0.50000000  0.30312273  0.49023528  1
  Al  Al29  1  -0.00000000  0.69687727  0.99023528  1
  Al  Al30  1  0.50000000  0.90415020  0.74234164  1
  Al  Al31  1  -0.00000000  0.09584980  0.24234164  1
  Al  Al32  1  0.50000000  0.59154947  0.09074896  1
  Al  Al33  1  -0.00000000  0.40845053  0.59074896  1
  Al  Al34  1  0.72076848  0.79635995  0.59734425  1
  Al  Al35  1  0.27923152  0.79635995  0.59734425  1
  Al  Al36  1  0.77923152  0.20364005  0.09734425  1
  Al  Al37  1  0.22076848  0.20364005  0.09734425  1
  Al  Al38  1  0.70905677  0.09110278  0.78193985  1
  Al  Al39  1  0.29094323  0.09110278  0.78193985  1
  Al  Al40  1  0.79094323  0.90889722  0.28193985  1
  Al  Al41  1  0.20905677  0.90889722  0.28193985  1
  Al  Al42  1  0.73448976  0.92084812  0.90630575  1
  Al  Al43  1  0.26551024  0.92084812  0.90630575  1
  Al  Al44  1  0.76551024  0.07915188  0.40630575  1
  Al  Al45  1  0.23448976  0.07915188  0.40630575  1
  Al  Al46  1  0.75027724  0.75230864  0.41436758  1
  Al  Al47  1  0.24972276  0.75230864  0.41436758  1
  Al  Al48  1  0.74972276  0.24769136  0.91436758  1
  Al  Al49  1  0.25027724  0.24769136  0.91436758  1
  Al  Al50  1  0.72098200  0.01460693  0.59316183  1
  Al  Al51  1  0.27901800  0.01460693  0.59316183  1
  Al  Al52  1  0.77901800  0.98539307  0.09316183  1
  Al  Al53  1  0.22098200  0.98539307  0.09316183  1
  Al  Al54  1  0.72347197  0.77893303  0.04898351  1
  Al  Al55  1  0.27652803  0.77893303  0.04898351  1
  Al  Al56  1  0.77652803  0.22106697  0.54898351  1
  Al  Al57  1  0.22347197  0.22106697  0.54898351  1
  Al  Al58  1  0.71557495  0.40742863  0.04577619  1
  Al  Al59  1  0.28442505  0.40742863  0.04577619  1
  Al  Al60  1  0.78442505  0.59257137  0.54577619  1
  Al  Al61  1  0.21557495  0.59257137  0.54577619  1
  Al  Al62  1  0.72082840  0.70389719  0.23142695  1
  Al  Al63  1  0.27917160  0.70389719  0.23142695  1
  Al  Al64  1  0.77917160  0.29610281  0.73142695  1
  Al  Al65  1  0.22082840  0.29610281  0.73142695  1
  Al  Al66  1  0.73112719  0.58200139  0.92416849  1
  Al  Al67  1  0.26887281  0.58200139  0.92416849  1
  Al  Al68  1  0.76887281  0.41799861  0.42416849  1
  Al  Al69  1  0.23112719  0.41799861  0.42416849  1
  Al  Al70  1  0.72043383  0.48709523  0.23855965  1
  Al  Al71  1  0.27956617  0.48709523  0.23855965  1
  Al  Al72  1  0.77956617  0.51290477  0.73855965  1
  Al  Al73  1  0.22043383  0.51290477  0.73855965  1
  Al  Al74  1  0.72302229  0.71977912  0.77727947  1
  Al  Al75  1  0.27697771  0.71977912  0.77727947  1
  Al  Al76  1  0.77697771  0.28022088  0.27727947  1
  Al  Al77  1  0.22302229  0.28022088  0.27727947  1
  Co  Co78  1  0.50000000  0.10458925  0.49750692  1
  Co  Co79  1  -0.00000000  0.89541075  0.99750692  1
  Co  Co80  1  0.50000000  0.91051532  0.01351257  1
  Co  Co81  1  -0.00000000  0.08948468  0.51351257  1
  Co  Co82  1  0.50000000  0.80085523  0.32464347  1
  Co  Co83  1  -0.00000000  0.19914477  0.82464347  1
  Co  Co84  1  0.50000000  0.23119420  0.81198970  1
  Co  Co85  1  -0.00000000  0.76880580  0.31198970  1
  Co  Co86  1  0.50000000  0.39451508  0.33137443  1
  Co  Co87  1  -0.00000000  0.60548492  0.83137443  1
  Co  Co88  1  0.50000000  0.58871309  0.81613287  1
  Co  Co89  1  -0.00000000  0.41128691  0.31613287  1
  Co  Co90  1  0.50000000  0.26942121  0.01633775  1
  Co  Co91  1  -0.00000000  0.73057879  0.51633775  1
  Co  Co92  1  0.50000000  0.69697795  0.50498518  1
  Co  Co93  1  -0.00000000  0.30302205  0.00498518  1
  Co  Co94  1  0.72539081  0.09341912  0.23744210  1
  Co  Co95  1  0.27460919  0.09341912  0.23744210  1
  Co  Co96  1  0.77460919  0.90658088  0.73744210  1
  Co  Co97  1  0.22539081  0.90658088  0.73744210  1
  Co  Co98  1  0.72411581  0.40692360  0.59201915  1
  Co  Co99  1  0.27588419  0.40692360  0.59201915  1
  Co  Co100  1  0.77588419  0.59307640  0.09201915  1
  Co  Co101  1  0.22411581  0.59307640  0.09201915  1
