# generated using pymatgen
data_Bi2B3HO8
_symmetry_space_group_name_H-M   'P 1'
_cell_length_a   6.10601756
_cell_length_b   11.55493469
_cell_length_c   19.59190132
_cell_angle_alpha   90.00000000
_cell_angle_beta   90.00000000
_cell_angle_gamma   90.00000000
_symmetry_Int_Tables_number   1
_chemical_formula_structural   Bi2B3HO8
_chemical_formula_sum   'Bi16 B24 H8 O64'
_cell_volume   1382.29942938
_cell_formula_units_Z   8
loop_
 _symmetry_equiv_pos_site_id
 _symmetry_equiv_pos_as_xyz
  1  'x, y, z'
loop_
 _atom_site_type_symbol
 _atom_site_label
 _atom_site_symmetry_multiplicity
 _atom_site_fract_x
 _atom_site_fract_y
 _atom_site_fract_z
 _atom_site_occupancy
  Bi  Bi0  1  0.70900761  0.84635223  0.32169134  1
  Bi  Bi1  1  0.20900761  0.65364777  0.67830866  1
  Bi  Bi2  1  0.29099239  0.34635223  0.17830866  1
  Bi  Bi3  1  0.79099239  0.15364777  0.82169134  1
  Bi  Bi4  1  0.29099239  0.15364777  0.67830866  1
  Bi  Bi5  1  0.79099239  0.34635223  0.32169134  1
  Bi  Bi6  1  0.70900761  0.65364777  0.82169134  1
  Bi  Bi7  1  0.20900761  0.84635223  0.17830866  1
  Bi  Bi8  1  0.29901227  0.09485396  0.30594053  1
  Bi  Bi9  1  0.79901227  0.40514604  0.69405947  1
  Bi  Bi10  1  0.70098773  0.59485396  0.19405947  1
  Bi  Bi11  1  0.20098773  0.90514604  0.80594053  1
  Bi  Bi12  1  0.70098773  0.90514604  0.69405947  1
  Bi  Bi13  1  0.20098773  0.59485396  0.30594053  1
  Bi  Bi14  1  0.29901227  0.40514604  0.80594053  1
  Bi  Bi15  1  0.79901227  0.09485396  0.19405947  1
  B  B16  1  0.35673314  0.84870411  0.43726205  1
  B  B17  1  0.85673314  0.65129589  0.56273795  1
  B  B18  1  0.64326686  0.34870411  0.06273795  1
  B  B19  1  0.14326686  0.15129589  0.93726205  1
  B  B20  1  0.64326686  0.15129589  0.56273795  1
  B  B21  1  0.14326686  0.34870411  0.43726205  1
  B  B22  1  0.35673314  0.65129589  0.93726205  1
  B  B23  1  0.85673314  0.84870411  0.06273795  1
  B  B24  1  0.76825360  0.07742590  0.44863759  1
  B  B25  1  0.26825360  0.42257410  0.55136241  1
  B  B26  1  0.23174640  0.57742590  0.05136241  1
  B  B27  1  0.73174640  0.92257410  0.94863759  1
  B  B28  1  0.23174640  0.92257410  0.55136241  1
  B  B29  1  0.73174640  0.57742590  0.44863759  1
  B  B30  1  0.76825360  0.42257410  0.94863759  1
  B  B31  1  0.26825360  0.07742590  0.05136241  1
  B  B32  1  0.45554681  0.20481580  0.45429116  1
  B  B33  1  0.95554681  0.29518420  0.54570884  1
  B  B34  1  0.54445319  0.70481580  0.04570884  1
  B  B35  1  0.04445319  0.79518420  0.95429116  1
  B  B36  1  0.54445319  0.79518420  0.54570884  1
  B  B37  1  0.04445319  0.70481580  0.45429116  1
  B  B38  1  0.45554681  0.29518420  0.95429116  1
  B  B39  1  0.95554681  0.20481580  0.04570884  1
  H  H40  1  0.03725571  0.98336913  0.43761999  1
  H  H41  1  0.53725571  0.51663087  0.56238001  1
  H  H42  1  0.96274429  0.48336913  0.06238001  1
  H  H43  1  0.46274429  0.01663087  0.93761999  1
  H  H44  1  0.96274429  0.01663087  0.56238001  1
  H  H45  1  0.46274429  0.48336913  0.43761999  1
  H  H46  1  0.03725571  0.51663087  0.93761999  1
  H  H47  1  0.53725571  0.98336913  0.06238001  1
  O  O48  1  0.43340631  0.90833514  0.37740054  1
  O  O49  1  0.93340631  0.59166486  0.62259946  1
  O  O50  1  0.56659369  0.40833514  0.12259946  1
  O  O51  1  0.06659369  0.09166486  0.87740054  1
  O  O52  1  0.56659369  0.09166486  0.62259946  1
  O  O53  1  0.06659369  0.40833514  0.37740054  1
  O  O54  1  0.43340631  0.59166486  0.87740054  1
  O  O55  1  0.93340631  0.90833514  0.12259946  1
  O  O56  1  0.30299379  0.25849156  0.41489095  1
  O  O57  1  0.80299379  0.24150844  0.58510905  1
  O  O58  1  0.69700621  0.75849156  0.08510905  1
  O  O59  1  0.19700621  0.74150844  0.91489095  1
  O  O60  1  0.69700621  0.74150844  0.58510905  1
  O  O61  1  0.19700621  0.75849156  0.41489095  1
  O  O62  1  0.30299379  0.24150844  0.91489095  1
  O  O63  1  0.80299379  0.25849156  0.08510905  1
  O  O64  1  0.58530661  0.98458526  0.25739288  1
  O  O65  1  0.08530661  0.51541474  0.74260712  1
  O  O66  1  0.41469339  0.48458526  0.24260712  1
  O  O67  1  0.91469339  0.01541474  0.75739288  1
  O  O68  1  0.41469339  0.01541474  0.74260712  1
  O  O69  1  0.91469339  0.48458526  0.25739288  1
  O  O70  1  0.58530661  0.51541474  0.75739288  1
  O  O71  1  0.08530661  0.98458526  0.24260712  1
  O  O72  1  0.61328491  0.14486889  0.41510586  1
  O  O73  1  0.11328491  0.35513111  0.58489414  1
  O  O74  1  0.38671509  0.64486889  0.08489414  1
  O  O75  1  0.88671509  0.85513111  0.91510586  1
  O  O76  1  0.38671509  0.85513111  0.58489414  1
  O  O77  1  0.88671509  0.64486889  0.41510586  1
  O  O78  1  0.61328491  0.35513111  0.91510586  1
  O  O79  1  0.11328491  0.14486889  0.08489414  1
  O  O80  1  0.91835290  0.01954514  0.40871563  1
  O  O81  1  0.41835290  0.48045486  0.59128437  1
  O  O82  1  0.08164710  0.51954514  0.09128437  1
  O  O83  1  0.58164710  0.98045486  0.90871563  1
  O  O84  1  0.08164710  0.98045486  0.59128437  1
  O  O85  1  0.58164710  0.51954514  0.40871563  1
  O  O86  1  0.91835290  0.48045486  0.90871563  1
  O  O87  1  0.41835290  0.01954514  0.09128437  1
  O  O88  1  0.53743929  0.79392822  0.47632688  1
  O  O89  1  0.03743929  0.70607178  0.52367312  1
  O  O90  1  0.46256071  0.29392822  0.02367312  1
  O  O91  1  0.96256071  0.20607178  0.97632688  1
  O  O92  1  0.46256071  0.20607178  0.52367312  1
  O  O93  1  0.96256071  0.29392822  0.47632688  1
  O  O94  1  0.53743929  0.70607178  0.97632688  1
  O  O95  1  0.03743929  0.79392822  0.02367312  1
  O  O96  1  0.52297155  0.71134232  0.26782469  1
  O  O97  1  0.02297155  0.78865768  0.73217531  1
  O  O98  1  0.47702845  0.21134232  0.23217531  1
  O  O99  1  0.97702845  0.28865768  0.76782469  1
  O  O100  1  0.47702845  0.28865768  0.73217531  1
  O  O101  1  0.97702845  0.21134232  0.26782469  1
  O  O102  1  0.52297155  0.78865768  0.76782469  1
  O  O103  1  0.02297155  0.71134232  0.23217531  1
  O  O104  1  0.23558725  0.93318180  0.48182368  1
  O  O105  1  0.73558725  0.56681820  0.51817632  1
  O  O106  1  0.76441275  0.43318180  0.01817632  1
  O  O107  1  0.26441275  0.06681820  0.98182368  1
  O  O108  1  0.76441275  0.06681820  0.51817632  1
  O  O109  1  0.26441275  0.43318180  0.48182368  1
  O  O110  1  0.23558725  0.56681820  0.98182368  1
  O  O111  1  0.73558725  0.93318180  0.01817632  1
