# generated using pymatgen
data_LaErS3
_symmetry_space_group_name_H-M   'P 1'
_cell_length_a   4.01310963
_cell_length_b   11.08349346
_cell_length_c   21.65542006
_cell_angle_alpha   101.48518754
_cell_angle_beta   90.00000000
_cell_angle_gamma   90.00000000
_symmetry_Int_Tables_number   1
_chemical_formula_structural   LaErS3
_chemical_formula_sum   'La8 Er8 S24'
_cell_volume   943.93011098
_cell_formula_units_Z   8
loop_
 _symmetry_equiv_pos_site_id
 _symmetry_equiv_pos_as_xyz
  1  'x, y, z'
loop_
 _atom_site_type_symbol
 _atom_site_label
 _atom_site_symmetry_multiplicity
 _atom_site_fract_x
 _atom_site_fract_y
 _atom_site_fract_z
 _atom_site_occupancy
  La  La0  1  0.25000000  0.69733202  0.76482872  1
  La  La1  1  0.75000000  0.30266798  0.23517128  1
  La  La2  1  0.25000000  0.09207312  0.86344724  1
  La  La3  1  0.75000000  0.90792688  0.13655276  1
  La  La4  1  0.25000000  0.30786726  0.73089168  1
  La  La5  1  0.75000000  0.69213274  0.26910832  1
  La  La6  1  0.25000000  0.19982894  0.53405679  1
  La  La7  1  0.75000000  0.80017106  0.46594321  1
  Er  Er8  1  0.25000000  0.44852885  0.41696733  1
  Er  Er9  1  0.75000000  0.55147115  0.58303267  1
  Er  Er10  1  0.25000000  0.02857299  0.35088117  1
  Er  Er11  1  0.75000000  0.97142701  0.64911883  1
  Er  Er12  1  0.25000000  0.17846630  0.04727936  1
  Er  Er13  1  0.75000000  0.82153370  0.95272064  1
  Er  Er14  1  0.25000000  0.52318483  0.08837553  1
  Er  Er15  1  0.75000000  0.47681517  0.91162447  1
  S  S16  1  0.25000000  0.91434774  0.03597595  1
  S  S17  1  0.75000000  0.08565226  0.96402405  1
  S  S18  1  0.25000000  0.79567937  0.36760921  1
  S  S19  1  0.75000000  0.20432063  0.63239079  1
  S  S20  1  0.25000000  0.25402473  0.32524701  1
  S  S21  1  0.75000000  0.74597527  0.67475299  1
  S  S22  1  0.25000000  0.36424454  0.96383158  1
  S  S23  1  0.75000000  0.63575546  0.03616842  1
  S  S24  1  0.25000000  0.49412035  0.22187616  1
  S  S25  1  0.75000000  0.50587965  0.77812384  1
  S  S26  1  0.25000000  0.74845628  0.17522555  1
  S  S27  1  0.75000000  0.25154372  0.82477445  1
  S  S28  1  0.25000000  0.12399146  0.16408264  1
  S  S29  1  0.75000000  0.87600854  0.83591736  1
  S  S30  1  0.25000000  0.64330567  0.51525964  1
  S  S31  1  0.75000000  0.35669433  0.48474036  1
  S  S32  1  0.25000000  0.94289321  0.55655704  1
  S  S33  1  0.75000000  0.05710679  0.44344296  1
  S  S34  1  0.25000000  0.03701843  0.72803604  1
  S  S35  1  0.75000000  0.96298157  0.27196396  1
  S  S36  1  0.25000000  0.45370454  0.63311753  1
  S  S37  1  0.75000000  0.54629546  0.36688247  1
  S  S38  1  0.25000000  0.65847124  0.90054279  1
  S  S39  1  0.75000000  0.34152876  0.09945721  1
