# generated using pymatgen
data_K6Al4Si6BH4ClO24
_symmetry_space_group_name_H-M   'P 1'
_cell_length_a   9.98342535
_cell_length_b   9.98342535
_cell_length_c   13.23788444
_cell_angle_alpha   90.00000000
_cell_angle_beta   90.00000000
_cell_angle_gamma   90.00000000
_symmetry_Int_Tables_number   1
_chemical_formula_structural   K6Al4Si6BH4ClO24
_chemical_formula_sum   'K12 Al8 Si12 B2 H8 Cl2 O48'
_cell_volume   1319.40381467
_cell_formula_units_Z   2
loop_
 _symmetry_equiv_pos_site_id
 _symmetry_equiv_pos_as_xyz
  1  'x, y, z'
loop_
 _atom_site_type_symbol
 _atom_site_label
 _atom_site_symmetry_multiplicity
 _atom_site_fract_x
 _atom_site_fract_y
 _atom_site_fract_z
 _atom_site_occupancy
  K  K0  1  0.50000000  0.50000000  0.74746361  1
  K  K1  1  -0.00000000  -0.00000000  0.75253639  1
  K  K2  1  0.50000000  0.50000000  0.25253639  1
  K  K3  1  -0.00000000  -0.00000000  0.24746361  1
  K  K4  1  0.70791796  0.72413681  0.55773866  1
  K  K5  1  0.20791796  0.77586319  0.94226134  1
  K  K6  1  0.29208204  0.27586319  0.55773866  1
  K  K7  1  0.79208204  0.22413681  0.94226134  1
  K  K8  1  0.72413681  0.29208204  0.44226134  1
  K  K9  1  0.77586319  0.79208204  0.05773866  1
  K  K10  1  0.27586319  0.70791796  0.44226134  1
  K  K11  1  0.22413681  0.20791796  0.05773866  1
  Al  Al12  1  0.88828757  0.65449242  0.81441591  1
  Al  Al13  1  0.38828757  0.84550758  0.68558409  1
  Al  Al14  1  0.11171243  0.34550758  0.81441591  1
  Al  Al15  1  0.61171243  0.15449242  0.68558409  1
  Al  Al16  1  0.65449242  0.11171243  0.18558409  1
  Al  Al17  1  0.84550758  0.61171243  0.31441591  1
  Al  Al18  1  0.34550758  0.88828757  0.18558409  1
  Al  Al19  1  0.15449242  0.38828757  0.31441591  1
  Si  Si20  1  0.65469695  0.88513342  0.80547114  1
  Si  Si21  1  0.15469695  0.61486658  0.69452886  1
  Si  Si22  1  0.34530305  0.11486658  0.80547114  1
  Si  Si23  1  0.84530305  0.38513342  0.69452886  1
  Si  Si24  1  0.88513342  0.34530305  0.19452886  1
  Si  Si25  1  0.61486658  0.84530305  0.30547114  1
  Si  Si26  1  0.11486658  0.65469695  0.19452886  1
  Si  Si27  1  0.38513342  0.15469695  0.30547114  1
  Si  Si28  1  -0.00000000  0.50000000  0.50789286  1
  Si  Si29  1  0.50000000  -0.00000000  0.99210714  1
  Si  Si30  1  0.50000000  -0.00000000  0.49210714  1
  Si  Si31  1  -0.00000000  0.50000000  0.00789286  1
  B  B32  1  0.50000000  0.50000000  0.00000000  1
  B  B33  1  -0.00000000  -0.00000000  0.50000000  1
  H  H34  1  0.67841053  0.52395053  0.06855335  1
  H  H35  1  0.17841053  0.97604947  0.43144665  1
  H  H36  1  0.32158947  0.47604947  0.06855335  1
  H  H37  1  0.82158947  0.02395053  0.43144665  1
  H  H38  1  0.52395053  0.32158947  0.93144665  1
  H  H39  1  0.97604947  0.82158947  0.56855335  1
  H  H40  1  0.47604947  0.67841053  0.93144665  1
  H  H41  1  0.02395053  0.17841053  0.56855335  1
  Cl  Cl42  1  0.50000000  0.50000000  0.50000000  1
  Cl  Cl43  1  -0.00000000  -0.00000000  0.00000000  1
  O  O44  1  0.79244880  0.80113564  0.81724596  1
  O  O45  1  0.29244880  0.69886436  0.68275404  1
  O  O46  1  0.20755120  0.19886436  0.81724596  1
  O  O47  1  0.70755120  0.30113564  0.68275404  1
  O  O48  1  0.80113564  0.20755120  0.18275404  1
  O  O49  1  0.69886436  0.70755120  0.31724596  1
  O  O50  1  0.19886436  0.79244880  0.18275404  1
  O  O51  1  0.30113564  0.29244880  0.31724596  1
  O  O52  1  0.91075205  0.60223099  0.94055478  1
  O  O53  1  0.41075205  0.89776901  0.55944522  1
  O  O54  1  0.08924795  0.39776901  0.94055478  1
  O  O55  1  0.58924795  0.10223099  0.55944522  1
  O  O56  1  0.60223099  0.08924795  0.05944522  1
  O  O57  1  0.89776901  0.58924795  0.44055478  1
  O  O58  1  0.39776901  0.91075205  0.05944522  1
  O  O59  1  0.10223099  0.41075205  0.44055478  1
  O  O60  1  0.58645975  0.89558982  0.92054706  1
  O  O61  1  0.08645975  0.60441018  0.57945294  1
  O  O62  1  0.41354025  0.10441018  0.92054706  1
  O  O63  1  0.91354025  0.39558982  0.57945294  1
  O  O64  1  0.89558982  0.41354025  0.07945294  1
  O  O65  1  0.60441018  0.91354025  0.42054706  1
  O  O66  1  0.10441018  0.58645975  0.07945294  1
  O  O67  1  0.39558982  0.08645975  0.42054706  1
  O  O68  1  0.55012093  0.80550984  0.73186412  1
  O  O69  1  0.05012093  0.69449016  0.76813588  1
  O  O70  1  0.44987907  0.19449016  0.73186412  1
  O  O71  1  0.94987907  0.30550984  0.76813588  1
  O  O72  1  0.80550984  0.44987907  0.26813588  1
  O  O73  1  0.69449016  0.94987907  0.23186412  1
  O  O74  1  0.19449016  0.55012093  0.26813588  1
  O  O75  1  0.30550984  0.05012093  0.23186412  1
  O  O76  1  0.81147570  0.53640998  0.73402202  1
  O  O77  1  0.31147570  0.96359002  0.76597798  1
  O  O78  1  0.18852430  0.46359002  0.73402202  1
  O  O79  1  0.68852430  0.03640998  0.76597798  1
  O  O80  1  0.53640998  0.18852430  0.26597798  1
  O  O81  1  0.96359002  0.68852430  0.23402202  1
  O  O82  1  0.46359002  0.81147570  0.26597798  1
  O  O83  1  0.03640998  0.31147570  0.23402202  1
  O  O84  1  0.92224926  0.90244882  0.56236391  1
  O  O85  1  0.42224926  0.59755118  0.93763609  1
  O  O86  1  0.07775074  0.09755118  0.56236391  1
  O  O87  1  0.57775074  0.40244882  0.93763609  1
  O  O88  1  0.90244882  0.07775074  0.43763609  1
  O  O89  1  0.59755118  0.57775074  0.06236391  1
  O  O90  1  0.09755118  0.92224926  0.43763609  1
  O  O91  1  0.40244882  0.42224926  0.06236391  1
