# generated using pymatgen
data_Sm2Fe3Si5
_symmetry_space_group_name_H-M   'P 1'
_cell_length_a   5.58590025
_cell_length_b   10.45403128
_cell_length_c   10.45403128
_cell_angle_alpha   90.00000000
_cell_angle_beta   90.00000000
_cell_angle_gamma   90.00000000
_symmetry_Int_Tables_number   1
_chemical_formula_structural   Sm2Fe3Si5
_chemical_formula_sum   'Sm8 Fe12 Si20'
_cell_volume   610.46499588
_cell_formula_units_Z   4
loop_
 _symmetry_equiv_pos_site_id
 _symmetry_equiv_pos_as_xyz
  1  'x, y, z'
loop_
 _atom_site_type_symbol
 _atom_site_label
 _atom_site_symmetry_multiplicity
 _atom_site_fract_x
 _atom_site_fract_y
 _atom_site_fract_z
 _atom_site_occupancy
  Sm  Sm0  1  0.50000000  0.73565854  0.56898046  1
  Sm  Sm1  1  0.50000000  0.26434146  0.43101954  1
  Sm  Sm2  1  -0.00000000  0.76434146  0.06898046  1
  Sm  Sm3  1  0.00000000  0.23565854  0.93101954  1
  Sm  Sm4  1  0.50000000  0.56898046  0.26434146  1
  Sm  Sm5  1  0.50000000  0.43101954  0.73565854  1
  Sm  Sm6  1  0.00000000  0.06898046  0.23565854  1
  Sm  Sm7  1  -0.00000000  0.93101954  0.76434146  1
  Fe  Fe8  1  0.50000000  0.85358524  0.87653965  1
  Fe  Fe9  1  0.50000000  0.14641476  0.12346035  1
  Fe  Fe10  1  -0.00000000  0.64641476  0.37653965  1
  Fe  Fe11  1  0.00000000  0.35358524  0.62346035  1
  Fe  Fe12  1  0.50000000  0.87653965  0.14641476  1
  Fe  Fe13  1  0.50000000  0.12346035  0.85358524  1
  Fe  Fe14  1  0.00000000  0.37653965  0.35358524  1
  Fe  Fe15  1  -0.00000000  0.62346035  0.64641476  1
  Fe  Fe16  1  0.25000000  -0.00000000  0.50000000  1
  Fe  Fe17  1  0.75000000  0.50000000  0.00000000  1
  Fe  Fe18  1  0.25000000  0.50000000  0.00000000  1
  Fe  Fe19  1  0.75000000  -0.00000000  0.50000000  1
  Si  Si20  1  0.25000000  0.17755755  0.67755755  1
  Si  Si21  1  0.25000000  0.82244245  0.32244245  1
  Si  Si22  1  0.75000000  0.32244245  0.17755755  1
  Si  Si23  1  0.75000000  0.67755755  0.82244245  1
  Si  Si24  1  0.25000000  0.67755755  0.82244245  1
  Si  Si25  1  0.25000000  0.32244245  0.17755755  1
  Si  Si26  1  0.75000000  0.17755755  0.67755755  1
  Si  Si27  1  0.75000000  0.82244245  0.32244245  1
  Si  Si28  1  0.22104704  0.50000000  0.50000000  1
  Si  Si29  1  0.72104704  0.00000000  0.00000000  1
  Si  Si30  1  0.77895296  0.50000000  0.50000000  1
  Si  Si31  1  0.27895296  -0.00000000  -0.00000000  1
  Si  Si32  1  0.50000000  0.98089429  0.67898060  1
  Si  Si33  1  0.50000000  0.01910571  0.32101940  1
  Si  Si34  1  -0.00000000  0.51910571  0.17898060  1
  Si  Si35  1  0.00000000  0.48089429  0.82101940  1
  Si  Si36  1  0.50000000  0.67898060  0.01910571  1
  Si  Si37  1  0.50000000  0.32101940  0.98089429  1
  Si  Si38  1  -0.00000000  0.17898060  0.48089429  1
  Si  Si39  1  0.00000000  0.82101940  0.51910571  1
