# generated using pymatgen
data_Rb2Cd3(B4O7)4
_symmetry_space_group_name_H-M   'P 1'
_cell_length_a   7.78265620
_cell_length_b   11.56662240
_cell_length_c   13.52600393
_cell_angle_alpha   91.54747914
_cell_angle_beta   90.00000000
_cell_angle_gamma   109.65935495
_symmetry_Int_Tables_number   1
_chemical_formula_structural   Rb2Cd3(B4O7)4
_chemical_formula_sum   'Rb4 Cd6 B32 O56'
_cell_volume   1146.15192730
_cell_formula_units_Z   2
loop_
 _symmetry_equiv_pos_site_id
 _symmetry_equiv_pos_as_xyz
  1  'x, y, z'
loop_
 _atom_site_type_symbol
 _atom_site_label
 _atom_site_symmetry_multiplicity
 _atom_site_fract_x
 _atom_site_fract_y
 _atom_site_fract_z
 _atom_site_occupancy
  Rb  Rb0  1  0.22185571  0.49925598  0.59317634  1
  Rb  Rb1  1  0.72259973  0.50074402  0.90682366  1
  Rb  Rb2  1  0.77814429  0.50074402  0.40682366  1
  Rb  Rb3  1  0.27740027  0.49925598  0.09317634  1
  Cd  Cd4  1  0.74164490  1.00000000  0.25000000  1
  Cd  Cd5  1  0.25835510  0.00000000  0.75000000  1
  Cd  Cd6  1  0.24293289  0.00180854  0.39816931  1
  Cd  Cd7  1  0.24112435  0.99819146  0.10183069  1
  Cd  Cd8  1  0.75706711  0.99819146  0.60183069  1
  Cd  Cd9  1  0.75887565  0.00180854  0.89816931  1
  B  B10  1  0.99445502  0.15371195  0.08766653  1
  B  B11  1  0.84074307  0.84628805  0.41233347  1
  B  B12  1  0.00554498  0.84628805  0.91233347  1
  B  B13  1  0.15925693  0.15371195  0.58766653  1
  B  B14  1  0.17128715  0.19234533  0.25905087  1
  B  B15  1  0.97894182  0.80765467  0.24094913  1
  B  B16  1  0.82871285  0.80765467  0.74094913  1
  B  B17  1  0.02105818  0.19234533  0.75905087  1
  B  B18  1  0.48715865  0.81540498  0.41256280  1
  B  B19  1  0.67175367  0.18459502  0.08743720  1
  B  B20  1  0.51284135  0.18459502  0.58743720  1
  B  B21  1  0.32824633  0.81540498  0.91256280  1
  B  B22  1  0.51504023  0.19117328  0.25289839  1
  B  B23  1  0.32386695  0.80882672  0.24710161  1
  B  B24  1  0.48495977  0.80882672  0.74710161  1
  B  B25  1  0.67613305  0.19117328  0.75289839  1
  B  B26  1  0.99615197  0.17379446  0.42113148  1
  B  B27  1  0.82235751  0.82620554  0.07886852  1
  B  B28  1  0.00384803  0.82620554  0.57886852  1
  B  B29  1  0.17764249  0.17379446  0.92113148  1
  B  B30  1  0.65057581  0.13852129  0.42319088  1
  B  B31  1  0.51205452  0.86147871  0.07680912  1
  B  B32  1  0.34942419  0.86147871  0.57680912  1
  B  B33  1  0.48794548  0.13852129  0.92319088  1
  B  B34  1  0.28470114  0.62041212  0.33982264  1
  B  B35  1  0.66428902  0.37958788  0.16017736  1
  B  B36  1  0.71529886  0.37958788  0.66017736  1
  B  B37  1  0.33571098  0.62041212  0.83982264  1
  B  B38  1  0.23246043  0.37569236  0.84758165  1
  B  B39  1  0.85676807  0.62430764  0.65241835  1
  B  B40  1  0.76753957  0.62430764  0.15241835  1
  B  B41  1  0.14323193  0.37569236  0.34758165  1
  O  O42  1  0.12392371  0.13843197  0.48738561  1
  O  O43  1  0.98549174  0.86156803  0.01261439  1
  O  O44  1  0.87607629  0.86156803  0.51261439  1
  O  O45  1  0.01450826  0.13843197  0.98738561  1
  O  O46  1  0.83123719  0.15420438  0.12571029  1
  O  O47  1  0.67703281  0.84579562  0.37428971  1
  O  O48  1  0.16876281  0.84579562  0.87428971  1
  O  O49  1  0.32296719  0.15420438  0.62571029  1
  O  O50  1  0.01392074  0.12423382  0.32155107  1
  O  O51  1  0.88968692  0.87576618  0.17844893  1
  O  O52  1  0.98607926  0.87576618  0.67844893  1
  O  O53  1  0.11031308  0.12423382  0.82155107  1
  O  O54  1  0.19361562  0.87998503  0.54085102  1
  O  O55  1  0.31363059  0.12001497  0.95914898  1
  O  O56  1  0.80638438  0.12001497  0.45914898  1
  O  O57  1  0.68636941  0.87998503  0.04085102  1
  O  O58  1  0.63287638  0.14748224  0.32276155  1
  O  O59  1  0.48539414  0.85251776  0.17723845  1
  O  O60  1  0.36712362  0.85251776  0.67723845  1
  O  O61  1  0.51460586  0.14748224  0.82276155  1
  O  O62  1  0.32741137  0.15405514  0.28857847  1
  O  O63  1  0.17335623  0.84594486  0.21142153  1
  O  O64  1  0.67258863  0.84594486  0.71142153  1
  O  O65  1  0.82664377  0.15405514  0.78857847  1
  O  O66  1  0.39047835  0.86949376  0.34447994  1
  O  O67  1  0.52098459  0.13050624  0.15552006  1
  O  O68  1  0.60952165  0.13050624  0.65552006  1
  O  O69  1  0.47901541  0.86949376  0.84447994  1
  O  O70  1  0.39805221  0.68031731  0.41638684  1
  O  O71  1  0.71773490  0.31968269  0.08361316  1
  O  O72  1  0.60194779  0.31968269  0.58361316  1
  O  O73  1  0.28226510  0.68031731  0.91638684  1
  O  O74  1  0.97789114  0.84281452  0.34891994  1
  O  O75  1  0.13507661  0.15718548  0.15108006  1
  O  O76  1  0.02210886  0.15718548  0.65108006  1
  O  O77  1  0.86492339  0.84281452  0.84891994  1
  O  O78  1  0.11915872  0.32680763  0.76904700  1
  O  O79  1  0.79235109  0.67319237  0.73095300  1
  O  O80  1  0.88084128  0.67319237  0.23095300  1
  O  O81  1  0.20764891  0.32680763  0.26904700  1
  O  O82  1  0.40389570  0.67371215  0.75298334  1
  O  O83  1  0.73018355  0.32628785  0.74701666  1
  O  O84  1  0.59610430  0.32628785  0.24701666  1
  O  O85  1  0.26981645  0.67371215  0.25298334  1
  O  O86  1  0.04460173  0.30821829  0.42341287  1
  O  O87  1  0.73638345  0.69178171  0.07658713  1
  O  O88  1  0.95539827  0.69178171  0.57658713  1
  O  O89  1  0.26361655  0.30821829  0.92341287  1
  O  O90  1  0.50829808  0.13416147  0.48507185  1
  O  O91  1  0.37413661  0.86583853  0.01492815  1
  O  O92  1  0.49170192  0.86583853  0.51492815  1
  O  O93  1  0.62586339  0.13416147  0.98507185  1
  O  O94  1  0.17101825  0.50052778  0.35635470  1
  O  O95  1  0.67049048  0.49947222  0.14364530  1
  O  O96  1  0.82898175  0.49947222  0.64364530  1
  O  O97  1  0.32950952  0.50052778  0.85635470  1
