# generated using pymatgen
data_NaSc3P8(H7O12)2
_symmetry_space_group_name_H-M   'P 1'
_cell_length_a   7.71111939
_cell_length_b   9.80687553
_cell_length_c   9.77177310
_cell_angle_alpha   115.68822239
_cell_angle_beta   101.22161421
_cell_angle_gamma   101.88350749
_symmetry_Int_Tables_number   1
_chemical_formula_structural   NaSc3P8(H7O12)2
_chemical_formula_sum   'Na1 Sc3 P8 H14 O24'
_cell_volume   616.96992120
_cell_formula_units_Z   1
loop_
 _symmetry_equiv_pos_site_id
 _symmetry_equiv_pos_as_xyz
  1  'x, y, z'
loop_
 _atom_site_type_symbol
 _atom_site_label
 _atom_site_symmetry_multiplicity
 _atom_site_fract_x
 _atom_site_fract_y
 _atom_site_fract_z
 _atom_site_occupancy
  Na  Na0  1  -0.00000000  0.50000000  -0.00000000  1
  Sc  Sc1  1  -0.00000000  0.00000000  0.50000000  1
  Sc  Sc2  1  0.49699601  0.71842524  0.76250183  1
  Sc  Sc3  1  0.50300399  0.28157476  0.23749817  1
  P  P4  1  0.21153341  0.33839121  0.47544369  1
  P  P5  1  0.78846659  0.66160879  0.52455631  1
  P  P6  1  0.31253462  0.27039899  0.87895478  1
  P  P7  1  0.68746538  0.72960101  0.12104522  1
  P  P8  1  0.29720135  0.75929810  0.43151801  1
  P  P9  1  0.70279865  0.24070190  0.56848199  1
  P  P10  1  0.22115383  0.87575931  0.99690129  1
  P  P11  1  0.77884617  0.12424069  0.00309871  1
  H  H12  1  0.04442434  0.37138741  0.43930577  1
  H  H13  1  0.95557566  0.62861259  0.56069423  1
  H  H14  1  0.48541427  0.29150926  0.85033797  1
  H  H15  1  0.51458573  0.70849074  0.14966203  1
  H  H16  1  0.46744247  0.82838500  0.41800043  1
  H  H17  1  0.53255753  0.17161500  0.58199957  1
  H  H18  1  0.06329217  0.89055913  0.91187585  1
  H  H19  1  0.93670783  0.10944087  0.08812415  1
  H  H20  1  0.24532954  0.50226123  0.28972724  1
  H  H21  1  0.75467046  0.49773877  0.71027276  1
  H  H22  1  0.26586302  0.43280142  0.78860757  1
  H  H23  1  0.73413698  0.56719858  0.21139243  1
  H  H24  1  0.12602485  0.84955380  0.18410710  1
  H  H25  1  0.87397515  0.15044620  0.81589290  1
  O  O26  1  0.16059441  0.17397042  0.46486050  1
  O  O27  1  0.83940559  0.82602958  0.53513950  1
  O  O28  1  0.30370384  0.34663341  0.35147057  1
  O  O29  1  0.69629616  0.65336659  0.64852943  1
  O  O30  1  0.33147771  0.47031284  0.64970939  1
  O  O31  1  0.66852229  0.52968716  0.35029061  1
  O  O32  1  0.17125947  0.11262137  0.74168818  1
  O  O33  1  0.82874053  0.88737863  0.25831182  1
  O  O34  1  0.34111830  0.29061690  0.04508195  1
  O  O35  1  0.65888170  0.70938310  0.95491805  1
  O  O36  1  0.25120824  0.41788709  0.88252697  1
  O  O37  1  0.74879176  0.58211291  0.11747303  1
  O  O38  1  0.33800805  0.73759736  0.57662896  1
  O  O39  1  0.66199195  0.26240264  0.42337104  1
  O  O40  1  0.17084151  0.85649683  0.42039722  1
  O  O41  1  0.82915849  0.14350317  0.57960278  1
  O  O42  1  0.20402702  0.58526627  0.27305916  1
  O  O43  1  0.79597298  0.41473373  0.72694084  1
  O  O44  1  0.35206210  0.03888251  0.12801900  1
  O  O45  1  0.64793790  0.96111749  0.87198100  1
  O  O46  1  0.29739206  0.76654094  0.87937309  1
  O  O47  1  0.70260794  0.23345906  0.12062691  1
  O  O48  1  0.13643015  0.77871108  0.07997038  1
  O  O49  1  0.86356985  0.22128892  0.92002962  1
