# generated using pymatgen
data_Li3V2BP4H2O17
_symmetry_space_group_name_H-M   'P 1'
_cell_length_a   8.40023336
_cell_length_b   9.55429304
_cell_length_c   15.72046383
_cell_angle_alpha   87.77014183
_cell_angle_beta   90.00000000
_cell_angle_gamma   90.00000000
_symmetry_Int_Tables_number   1
_chemical_formula_structural   Li3V2BP4H2O17
_chemical_formula_sum   'Li12 V8 B4 P16 H8 O68'
_cell_volume   1260.74217475
_cell_formula_units_Z   4
loop_
 _symmetry_equiv_pos_site_id
 _symmetry_equiv_pos_as_xyz
  1  'x, y, z'
loop_
 _atom_site_type_symbol
 _atom_site_label
 _atom_site_symmetry_multiplicity
 _atom_site_fract_x
 _atom_site_fract_y
 _atom_site_fract_z
 _atom_site_occupancy
  Li  Li0  1  0.34703590  0.63463404  0.51559731  1
  Li  Li1  1  0.84703590  0.86536596  0.98440269  1
  Li  Li2  1  0.65296410  0.36536596  0.48440269  1
  Li  Li3  1  0.15296410  0.13463404  0.01559731  1
  Li  Li4  1  0.64034098  0.78035382  0.56122270  1
  Li  Li5  1  0.14034098  0.71964618  0.93877730  1
  Li  Li6  1  0.35965902  0.21964618  0.43877730  1
  Li  Li7  1  0.85965902  0.28035382  0.06122270  1
  Li  Li8  1  0.40164189  0.10568293  0.23863027  1
  Li  Li9  1  0.90164189  0.39431707  0.26136973  1
  Li  Li10  1  0.59835811  0.89431707  0.76136973  1
  Li  Li11  1  0.09835811  0.60568293  0.73863027  1
  V  V12  1  0.47942273  0.42144964  0.29269376  1
  V  V13  1  0.97942273  0.07855036  0.20730624  1
  V  V14  1  0.52057727  0.57855036  0.70730624  1
  V  V15  1  0.02057727  0.92144964  0.79269376  1
  V  V16  1  0.51403088  0.75463383  0.00167260  1
  V  V17  1  0.01403088  0.74536617  0.49832740  1
  V  V18  1  0.48596912  0.24536617  0.99832740  1
  V  V19  1  0.98596912  0.25463383  0.50167260  1
  B  B20  1  0.70216358  0.89718557  0.28474733  1
  B  B21  1  0.20216358  0.60281443  0.21525267  1
  B  B22  1  0.29783642  0.10281443  0.71525267  1
  B  B23  1  0.79783642  0.39718557  0.78474733  1
  P  P24  1  0.65320126  0.67199896  0.39830474  1
  P  P25  1  0.15320126  0.82800104  0.10169526  1
  P  P26  1  0.34679874  0.32800104  0.60169526  1
  P  P27  1  0.84679874  0.17199896  0.89830474  1
  P  P28  1  0.71799276  0.15164898  0.35647298  1
  P  P29  1  0.21799276  0.34835102  0.14352702  1
  P  P30  1  0.28200724  0.84835102  0.64352702  1
  P  P31  1  0.78200724  0.65164898  0.85647298  1
  P  P32  1  0.14429082  0.48892941  0.37902507  1
  P  P33  1  0.64429082  0.01107059  0.12097493  1
  P  P34  1  0.85570918  0.51107059  0.62097493  1
  P  P35  1  0.35570918  0.98892941  0.87902507  1
  P  P36  1  0.66761824  0.49384458  0.11658111  1
  P  P37  1  0.16761824  0.00615542  0.38341889  1
  P  P38  1  0.33238176  0.50615542  0.88341889  1
  P  P39  1  0.83238176  0.99384458  0.61658111  1
  H  H40  1  0.89283880  0.61458498  0.07757551  1
  H  H41  1  0.39283880  0.88541502  0.42242449  1
  H  H42  1  0.10716120  0.38541502  0.92242449  1
  H  H43  1  0.60716120  0.11458498  0.57757551  1
  H  H44  1  0.43573786  0.67037203  0.21887982  1
  H  H45  1  0.93573786  0.82962797  0.28112018  1
  H  H46  1  0.56426214  0.32962797  0.78112018  1
  H  H47  1  0.06426214  0.17037203  0.71887982  1
  O  O48  1  0.32001033  0.82533547  0.06427023  1
  O  O49  1  0.82001033  0.67466453  0.43572977  1
  O  O50  1  0.67998967  0.17466453  0.93572977  1
  O  O51  1  0.17998967  0.32533547  0.56427023  1
  O  O52  1  0.52655757  0.73224166  0.45814723  1
  O  O53  1  0.02655757  0.76775834  0.04185277  1
  O  O54  1  0.47344243  0.26775834  0.54185277  1
  O  O55  1  0.97344243  0.23224166  0.95814723  1
  O  O56  1  0.61316682  0.51577521  0.38062228  1
  O  O57  1  0.11316682  0.98422479  0.11937772  1
  O  O58  1  0.38683318  0.48422479  0.61937772  1
  O  O59  1  0.88683318  0.01577521  0.88062228  1
  O  O60  1  0.64805355  0.75605524  0.30915534  1
  O  O61  1  0.14805355  0.74394476  0.19084466  1
  O  O62  1  0.35194645  0.24394476  0.69084466  1
  O  O63  1  0.85194645  0.25605524  0.80915534  1
  O  O64  1  0.72717332  0.69553532  0.94451118  1
  O  O65  1  0.22717332  0.80446468  0.55548882  1
  O  O66  1  0.27282668  0.30446468  0.05548882  1
  O  O67  1  0.77282668  0.19553532  0.44451118  1
  O  O68  1  0.34287089  0.30788945  0.21304127  1
  O  O69  1  0.84287089  0.19211055  0.28695873  1
  O  O70  1  0.65712911  0.69211055  0.78695873  1
  O  O71  1  0.15712911  0.80788945  0.71304127  1
  O  O72  1  0.55401691  0.22203812  0.33699544  1
  O  O73  1  0.05401691  0.27796188  0.16300456  1
  O  O74  1  0.44598309  0.77796188  0.66300456  1
  O  O75  1  0.94598309  0.72203812  0.83699544  1
  O  O76  1  0.69338816  0.98906279  0.35838962  1
  O  O77  1  0.19338816  0.51093721  0.14161038  1
  O  O78  1  0.30661184  0.01093721  0.64161038  1
  O  O79  1  0.80661184  0.48906279  0.85838962  1
  O  O80  1  0.66393942  0.88897868  0.06127711  1
  O  O81  1  0.16393942  0.61102132  0.43872289  1
  O  O82  1  0.33606058  0.11102132  0.93872289  1
  O  O83  1  0.83606058  0.38897868  0.56127711  1
  O  O84  1  0.49612914  0.89230190  0.90226672  1
  O  O85  1  0.99612914  0.60769810  0.59773328  1
  O  O86  1  0.50387086  0.10769810  0.09773328  1
  O  O87  1  0.00387086  0.39230190  0.40226672  1
  O  O88  1  0.30289079  0.40566654  0.37887763  1
  O  O89  1  0.80289079  0.09433346  0.12112237  1
  O  O90  1  0.69710921  0.59433346  0.62112237  1
  O  O91  1  0.19710921  0.90566654  0.87887763  1
  O  O92  1  0.09764417  0.54171591  0.28499847  1
  O  O93  1  0.59764417  0.95828409  0.21500153  1
  O  O94  1  0.90235583  0.45828409  0.71500153  1
  O  O95  1  0.40235583  0.04171591  0.78499847  1
  O  O96  1  0.55698809  0.61685685  0.09835640  1
  O  O97  1  0.05698809  0.88314315  0.40164360  1
  O  O98  1  0.44301191  0.38314315  0.90164360  1
  O  O99  1  0.94301191  0.11685685  0.59835640  1
  O  O100  1  0.35856194  0.62851073  0.94253532  1
  O  O101  1  0.85856194  0.87148927  0.55746468  1
  O  O102  1  0.64143806  0.37148927  0.05746468  1
  O  O103  1  0.14143806  0.12851073  0.44253532  1
  O  O104  1  0.66096983  0.44083390  0.21101365  1
  O  O105  1  0.16096983  0.05916610  0.28898635  1
  O  O106  1  0.33903017  0.55916610  0.78898635  1
  O  O107  1  0.83903017  0.94083390  0.71101365  1
  O  O108  1  0.85289794  0.52810219  0.10712589  1
  O  O109  1  0.35289794  0.97189781  0.39287411  1
  O  O110  1  0.14710206  0.47189781  0.89287411  1
  O  O111  1  0.64710206  0.02810219  0.60712589  1
  O  O112  1  0.36562842  0.60578839  0.25090602  1
  O  O113  1  0.86562842  0.89421161  0.24909398  1
  O  O114  1  0.63437158  0.39421161  0.74909398  1
  O  O115  1  0.13437158  0.10578839  0.75090602  1
