# generated using pymatgen
data_Nd6InFe13
_symmetry_space_group_name_H-M   'P 1'
_cell_length_a   8.09478970
_cell_length_b   8.09478970
_cell_length_c   13.12227224
_cell_angle_alpha   107.96506468
_cell_angle_beta   107.96506468
_cell_angle_gamma   90.00000000
_symmetry_Int_Tables_number   1
_chemical_formula_structural   Nd6InFe13
_chemical_formula_sum   'Nd12 In2 Fe26'
_cell_volume   773.73305726
_cell_formula_units_Z   2
loop_
 _symmetry_equiv_pos_site_id
 _symmetry_equiv_pos_as_xyz
  1  'x, y, z'
loop_
 _atom_site_type_symbol
 _atom_site_label
 _atom_site_symmetry_multiplicity
 _atom_site_fract_x
 _atom_site_fract_y
 _atom_site_fract_z
 _atom_site_occupancy
  Nd  Nd0  1  0.60432704  0.60432704  0.20865407  1
  Nd  Nd1  1  0.10432704  0.10432704  0.20865407  1
  Nd  Nd2  1  0.39567296  0.39567296  0.79134593  1
  Nd  Nd3  1  0.89567296  0.89567296  0.79134593  1
  Nd  Nd4  1  0.97891431  0.47891431  0.63097458  1
  Nd  Nd5  1  0.65206027  0.15206027  0.63097458  1
  Nd  Nd6  1  0.15206027  0.97891431  0.63097458  1
  Nd  Nd7  1  0.47891431  0.65206027  0.63097458  1
  Nd  Nd8  1  0.02108569  0.52108569  0.36902542  1
  Nd  Nd9  1  0.34793973  0.84793973  0.36902542  1
  Nd  Nd10  1  0.84793973  0.02108569  0.36902542  1
  Nd  Nd11  1  0.52108569  0.34793973  0.36902542  1
  In  In12  1  0.25000000  0.25000000  0.50000000  1
  In  In13  1  0.75000000  0.75000000  0.50000000  1
  Fe  Fe14  1  0.00000000  0.50000000  -0.00000000  1
  Fe  Fe15  1  0.50000000  -0.00000000  -0.00000000  1
  Fe  Fe16  1  0.71003429  0.56650528  -0.00000000  1
  Fe  Fe17  1  0.28996571  0.43349472  -0.00000000  1
  Fe  Fe18  1  0.78996571  0.06650528  -0.00000000  1
  Fe  Fe19  1  0.21003429  0.93349472  -0.00000000  1
  Fe  Fe20  1  0.56650528  0.28996571  -0.00000000  1
  Fe  Fe21  1  0.43349472  0.71003429  -0.00000000  1
  Fe  Fe22  1  0.06650528  0.21003429  -0.00000000  1
  Fe  Fe23  1  0.93349472  0.78996571  -0.00000000  1
  Fe  Fe24  1  0.12067051  0.62067051  0.88318455  1
  Fe  Fe25  1  0.76251404  0.26251404  0.88318455  1
  Fe  Fe26  1  0.26251404  0.12067051  0.88318455  1
  Fe  Fe27  1  0.62067051  0.76251404  0.88318455  1
  Fe  Fe28  1  0.87932949  0.37932949  0.11681545  1
  Fe  Fe29  1  0.23748596  0.73748596  0.11681545  1
  Fe  Fe30  1  0.73748596  0.87932949  0.11681545  1
  Fe  Fe31  1  0.37932949  0.23748596  0.11681545  1
  Fe  Fe32  1  0.29371416  0.79371416  0.81303553  1
  Fe  Fe33  1  0.51932137  0.01932137  0.81303553  1
  Fe  Fe34  1  0.01932137  0.29371416  0.81303553  1
  Fe  Fe35  1  0.79371416  0.51932137  0.81303553  1
  Fe  Fe36  1  0.70628584  0.20628584  0.18696447  1
  Fe  Fe37  1  0.48067863  0.98067863  0.18696447  1
  Fe  Fe38  1  0.98067863  0.70628584  0.18696447  1
  Fe  Fe39  1  0.20628584  0.48067863  0.18696447  1
