# generated using pymatgen
data_Dy(PO3)3
_symmetry_space_group_name_H-M   'P 1'
_cell_length_a   10.20947433
_cell_length_b   11.44411619
_cell_length_c   20.28574804
_cell_angle_alpha   90.00000000
_cell_angle_beta   90.00000000
_cell_angle_gamma   97.66836031
_symmetry_Int_Tables_number   1
_chemical_formula_structural   Dy(PO3)3
_chemical_formula_sum   'Dy12 P36 O108'
_cell_volume   2348.95835234
_cell_formula_units_Z   12
loop_
 _symmetry_equiv_pos_site_id
 _symmetry_equiv_pos_as_xyz
  1  'x, y, z'
loop_
 _atom_site_type_symbol
 _atom_site_label
 _atom_site_symmetry_multiplicity
 _atom_site_fract_x
 _atom_site_fract_y
 _atom_site_fract_z
 _atom_site_occupancy
  Dy  Dy0  1  0.47200864  0.50265841  0.82281003  1
  Dy  Dy1  1  0.02799136  0.49734159  0.32281003  1
  Dy  Dy2  1  0.52799136  0.49734159  0.17718997  1
  Dy  Dy3  1  0.97200864  0.50265841  0.67718997  1
  Dy  Dy4  1  0.01848147  0.99987557  0.34628224  1
  Dy  Dy5  1  0.48151853  0.00012443  0.84628224  1
  Dy  Dy6  1  0.98151853  0.00012443  0.65371776  1
  Dy  Dy7  1  0.51848147  0.99987557  0.15371776  1
  Dy  Dy8  1  0.00000000  0.50000000  -0.00000000  1
  Dy  Dy9  1  0.50000000  0.50000000  0.50000000  1
  Dy  Dy10  1  0.00000000  -0.00000000  -0.00000000  1
  Dy  Dy11  1  0.50000000  -0.00000000  0.50000000  1
  P  P12  1  0.03288534  0.27218365  0.44872185  1
  P  P13  1  0.46711466  0.72781635  0.94872185  1
  P  P14  1  0.96711466  0.72781635  0.55127815  1
  P  P15  1  0.53288534  0.27218365  0.05127815  1
  P  P16  1  0.18209447  0.81872210  0.45926540  1
  P  P17  1  0.31790553  0.18127790  0.95926540  1
  P  P18  1  0.81790553  0.18127790  0.54073460  1
  P  P19  1  0.68209447  0.81872210  0.04073460  1
  P  P20  1  0.67690748  0.34598232  0.62526840  1
  P  P21  1  0.82309252  0.65401768  0.12526840  1
  P  P22  1  0.32309252  0.65401768  0.37473160  1
  P  P23  1  0.17690748  0.34598232  0.87473160  1
  P  P24  1  0.49097414  0.23781520  0.72671892  1
  P  P25  1  0.00902586  0.76218480  0.22671892  1
  P  P26  1  0.50902586  0.76218480  0.27328108  1
  P  P27  1  0.99097414  0.23781520  0.77328108  1
  P  P28  1  0.80815865  0.14630330  0.88269985  1
  P  P29  1  0.69184135  0.85369670  0.38269985  1
  P  P30  1  0.19184135  0.85369670  0.11730015  1
  P  P31  1  0.30815865  0.14630330  0.61730015  1
  P  P32  1  0.69119208  0.36032387  0.93382803  1
  P  P33  1  0.80880792  0.63967613  0.43382803  1
  P  P34  1  0.30880792  0.63967613  0.06617197  1
  P  P35  1  0.19119208  0.36032387  0.56617197  1
  P  P36  1  0.80170049  0.67808647  0.79191850  1
  P  P37  1  0.69829951  0.32191353  0.29191850  1
  P  P38  1  0.19829951  0.32191353  0.20808150  1
  P  P39  1  0.30170049  0.67808647  0.70808150  1
  P  P40  1  0.82461002  0.13265516  0.22198177  1
  P  P41  1  0.67538998  0.86734484  0.72198177  1
  P  P42  1  0.17538998  0.86734484  0.77801823  1
  P  P43  1  0.32461002  0.13265516  0.27801823  1
  P  P44  1  0.97700141  0.24570479  0.11158382  1
  P  P45  1  0.52299859  0.75429521  0.61158382  1
  P  P46  1  0.02299859  0.75429521  0.88841618  1
  P  P47  1  0.47700141  0.24570479  0.38841618  1
  O  O48  1  0.05427989  0.38743166  0.41289327  1
  O  O49  1  0.44572011  0.61256834  0.91289327  1
  O  O50  1  0.94572011  0.61256834  0.58710673  1
  O  O51  1  0.55427989  0.38743166  0.08710673  1
  O  O52  1  0.03726484  0.16106904  0.41018252  1
  O  O53  1  0.46273516  0.83893096  0.91018252  1
  O  O54  1  0.96273516  0.83893096  0.58981748  1
  O  O55  1  0.53726484  0.16106904  0.08981748  1
  O  O56  1  0.30900721  0.87931066  0.48688032  1
  O  O57  1  0.19099279  0.12068934  0.98688032  1
  O  O58  1  0.69099279  0.12068934  0.51311968  1
  O  O59  1  0.80900721  0.87931066  0.01311968  1
  O  O60  1  0.08704795  0.89220386  0.42889000  1
  O  O61  1  0.41295205  0.10779614  0.92889000  1
  O  O62  1  0.91295205  0.10779614  0.57111000  1
  O  O63  1  0.58704795  0.89220386  0.07111000  1
  O  O64  1  0.58144604  0.37902961  0.57459223  1
  O  O65  1  0.91855396  0.62097039  0.07459223  1
  O  O66  1  0.41855396  0.62097039  0.42540777  1
  O  O67  1  0.08144604  0.37902961  0.92540777  1
  O  O68  1  0.75206596  0.44140302  0.66624982  1
  O  O69  1  0.74793404  0.55859698  0.16624982  1
  O  O70  1  0.24793404  0.55859698  0.33375018  1
  O  O71  1  0.25206596  0.44140302  0.83375018  1
  O  O72  1  0.46232195  0.36080503  0.74153349  1
  O  O73  1  0.03767805  0.63919497  0.24153349  1
  O  O74  1  0.53767805  0.63919497  0.25846651  1
  O  O75  1  0.96232195  0.36080503  0.75846651  1
  O  O76  1  0.52341204  0.16390492  0.78368844  1
  O  O77  1  0.97658796  0.83609508  0.28368844  1
  O  O78  1  0.47658796  0.83609508  0.21631156  1
  O  O79  1  0.02341204  0.16390492  0.71631156  1
  O  O80  1  0.91104085  0.12520940  0.93239147  1
  O  O81  1  0.58895915  0.87479060  0.43239147  1
  O  O82  1  0.08895915  0.87479060  0.06760853  1
  O  O83  1  0.41104085  0.12520940  0.56760853  1
  O  O84  1  0.68851559  0.05536878  0.87944606  1
  O  O85  1  0.81148441  0.94463122  0.37944606  1
  O  O86  1  0.31148441  0.94463122  0.12055394  1
  O  O87  1  0.18851559  0.05536878  0.62055394  1
  O  O88  1  0.57616639  0.39259607  0.89509949  1
  O  O89  1  0.92383361  0.60740393  0.39509949  1
  O  O90  1  0.42383361  0.60740393  0.10490051  1
  O  O91  1  0.07616639  0.39259607  0.60490051  1
  O  O92  1  0.79259537  0.45699352  0.95914855  1
  O  O93  1  0.70740463  0.54300648  0.45914855  1
  O  O94  1  0.20740463  0.54300648  0.04085145  1
  O  O95  1  0.29259537  0.45699352  0.54085145  1
  O  O96  1  0.10771302  0.73298715  0.51443652  1
  O  O97  1  0.39228698  0.26701285  0.01443652  1
  O  O98  1  0.89228698  0.26701285  0.48556348  1
  O  O99  1  0.60771302  0.73298715  0.98556348  1
  O  O100  1  0.21039658  0.72203027  0.40592972  1
  O  O101  1  0.28960342  0.27796973  0.90592972  1
  O  O102  1  0.78960342  0.27796973  0.59407028  1
  O  O103  1  0.71039658  0.72203027  0.09407028  1
  O  O104  1  0.60680859  0.24236356  0.67255863  1
  O  O105  1  0.89319141  0.75763644  0.17255863  1
  O  O106  1  0.39319141  0.75763644  0.32744137  1
  O  O107  1  0.10680859  0.24236356  0.82744137  1
  O  O108  1  0.86985076  0.15918854  0.80987307  1
  O  O109  1  0.63014924  0.84081146  0.30987307  1
  O  O110  1  0.13014924  0.84081146  0.19012693  1
  O  O111  1  0.36985076  0.15918854  0.69012693  1
  O  O112  1  0.76830554  0.27612191  0.88977368  1
  O  O113  1  0.73169446  0.72387809  0.38977368  1
  O  O114  1  0.23169446  0.72387809  0.11022632  1
  O  O115  1  0.26830554  0.27612191  0.61022632  1
  O  O116  1  0.13915202  0.27113258  0.50713962  1
  O  O117  1  0.36084798  0.72886742  0.00713962  1
  O  O118  1  0.86084798  0.72886742  0.49286038  1
  O  O119  1  0.63915202  0.27113258  0.99286038  1
  O  O120  1  0.67667441  0.59893932  0.80768103  1
  O  O121  1  0.82332559  0.40106068  0.30768103  1
  O  O122  1  0.32332559  0.40106068  0.19231897  1
  O  O123  1  0.17667441  0.59893932  0.69231897  1
  O  O124  1  0.89607041  0.63687967  0.74317565  1
  O  O125  1  0.60392959  0.36312033  0.24317565  1
  O  O126  1  0.10392959  0.36312033  0.25682435  1
  O  O127  1  0.39607041  0.63687967  0.75682435  1
  O  O128  1  0.93796424  0.09370599  0.25928169  1
  O  O129  1  0.56203576  0.90629401  0.75928169  1
  O  O130  1  0.06203576  0.90629401  0.74071831  1
  O  O131  1  0.43796424  0.09370599  0.24071831  1
  O  O132  1  0.73279210  0.04239649  0.18488783  1
  O  O133  1  0.76720790  0.95760351  0.68488783  1
  O  O134  1  0.26720790  0.95760351  0.81511217  1
  O  O135  1  0.23279210  0.04239649  0.31511217  1
  O  O136  1  0.94646541  0.34347746  0.06742576  1
  O  O137  1  0.55353459  0.65652254  0.56742576  1
  O  O138  1  0.05353459  0.65652254  0.93257424  1
  O  O139  1  0.44646541  0.34347746  0.43257424  1
  O  O140  1  0.97135745  0.12320140  0.08447282  1
  O  O141  1  0.52864255  0.87679860  0.58447282  1
  O  O142  1  0.02864255  0.87679860  0.91552718  1
  O  O143  1  0.47135745  0.12320140  0.41552718  1
  O  O144  1  0.76606415  0.80539029  0.77168650  1
  O  O145  1  0.73393585  0.19460971  0.27168650  1
  O  O146  1  0.23393585  0.19460971  0.22831350  1
  O  O147  1  0.26606415  0.80539029  0.72831350  1
  O  O148  1  0.87898990  0.24205483  0.17414747  1
  O  O149  1  0.62101010  0.75794517  0.67414747  1
  O  O150  1  0.12101010  0.75794517  0.82585253  1
  O  O151  1  0.37898990  0.24205483  0.32585253  1
  O  O152  1  0.87722341  0.71410632  0.85944336  1
  O  O153  1  0.62277659  0.28589368  0.35944336  1
  O  O154  1  0.12277659  0.28589368  0.14055664  1
  O  O155  1  0.37722341  0.71410632  0.64055664  1
