# generated using pymatgen
data_Rb4Mo5H4Se2O23
_symmetry_space_group_name_H-M   'P 1'
_cell_length_a   10.47420378
_cell_length_b   11.38321627
_cell_length_c   12.41082891
_cell_angle_alpha   104.98756409
_cell_angle_beta   90.00000000
_cell_angle_gamma   117.39176958
_symmetry_Int_Tables_number   1
_chemical_formula_structural   Rb4Mo5H4Se2O23
_chemical_formula_sum   'Rb8 Mo10 H8 Se4 O46'
_cell_volume   1256.87281222
_cell_formula_units_Z   2
loop_
 _symmetry_equiv_pos_site_id
 _symmetry_equiv_pos_as_xyz
  1  'x, y, z'
loop_
 _atom_site_type_symbol
 _atom_site_label
 _atom_site_symmetry_multiplicity
 _atom_site_fract_x
 _atom_site_fract_y
 _atom_site_fract_z
 _atom_site_occupancy
  Rb  Rb0  1  0.16710431  0.37374962  0.90684427  1
  Rb  Rb1  1  0.79335468  0.62625038  0.09315573  1
  Rb  Rb2  1  0.76527695  0.65599579  0.72873062  1
  Rb  Rb3  1  0.10928117  0.34400421  0.27126938  1
  Rb  Rb4  1  0.34712362  0.64170161  0.59320941  1
  Rb  Rb5  1  0.70542202  0.35829839  0.40679059  1
  Rb  Rb6  1  0.75301244  0.02393465  0.74661117  1
  Rb  Rb7  1  0.72907779  0.97606535  0.25338883  1
  Mo  Mo8  1  0.39950947  0.00000000  0.50000000  1
  Mo  Mo9  1  0.35161701  0.28878617  0.59922953  1
  Mo  Mo10  1  0.06283084  0.71121383  0.40077047  1
  Mo  Mo11  1  0.99401501  0.19410100  0.53627790  1
  Mo  Mo12  1  0.79991402  0.80589900  0.46372210  1
  Mo  Mo13  1  0.51489445  0.80494292  0.94523029  1
  Mo  Mo14  1  0.70995152  0.19505708  0.05476971  1
  Mo  Mo15  1  0.10655776  0.00000000  0.00000000  1
  Mo  Mo16  1  0.43997897  0.28374828  0.11849913  1
  Mo  Mo17  1  0.15623069  0.71625172  0.88150087  1
  H  H18  1  0.86668440  0.39393197  0.65748037  1
  H  H19  1  0.47275243  0.60606803  0.34251963  1
  H  H20  1  0.72848462  0.38282514  0.71153854  1
  H  H21  1  0.34565949  0.61717486  0.28846146  1
  H  H22  1  0.13085431  0.58358554  0.16819728  1
  H  H23  1  0.54726877  0.41641446  0.83180272  1
  H  H24  1  0.28233665  0.64687135  0.12716290  1
  H  H25  1  0.63546530  0.35312865  0.87283710  1
  Se  Se26  1  0.11448546  0.98499696  0.66823805  1
  Se  Se27  1  0.12948850  0.01500304  0.33176195  1
  Se  Se28  1  0.36528765  0.96146876  0.16117806  1
  Se  Se29  1  0.40381889  0.03853124  0.83882194  1
  O  O30  1  0.53556840  0.06713238  0.41773430  1
  O  O31  1  0.46843602  0.93286762  0.58226570  1
  O  O32  1  0.42216314  0.16166899  0.61861298  1
  O  O33  1  0.26049415  0.83833101  0.38138702  1
  O  O34  1  0.49423985  0.40263467  0.54438376  1
  O  O35  1  0.09160518  0.59736533  0.45561624  1
  O  O36  1  0.19987377  0.32530468  0.54628716  1
  O  O37  1  0.87456909  0.67469532  0.45371284  1
  O  O38  1  0.41306989  0.39618178  0.06049507  1
  O  O39  1  0.01688811  0.60381822  0.93950493  1
  O  O40  1  0.65597643  0.00000000  0.00000000  1
  O  O41  1  0.11750520  0.62996410  0.73780927  1
  O  O42  1  0.48754110  0.37003590  0.26219073  1
  O  O43  1  0.56246461  0.76882035  0.80863534  1
  O  O44  1  0.79364427  0.23117965  0.19136466  1
  O  O45  1  0.21777214  0.88425323  0.05505674  1
  O  O46  1  0.33351891  0.11574677  0.94494326  1
  O  O47  1  0.48659749  0.11153736  0.12680686  1
  O  O48  1  0.37506013  0.88846264  0.87319314  1
  O  O49  1  0.17496936  0.89027289  0.56767915  1
  O  O50  1  0.28469647  0.10972711  0.43232085  1
  O  O51  1  0.13545463  0.12078537  0.61439587  1
  O  O52  1  0.01466926  0.87921463  0.38560413  1
  O  O53  1  0.93123182  0.88799086  0.64311491  1
  O  O54  1  0.04324096  0.11200914  0.35688509  1
  O  O55  1  0.44510353  0.85920900  0.12357065  1
  O  O56  1  0.58589453  0.14079100  0.87642935  1
  O  O57  1  0.38402030  0.37892534  0.74331776  1
  O  O58  1  0.00509496  0.62107466  0.25668224  1
  O  O59  1  0.91643858  0.25758554  0.45721796  1
  O  O60  1  0.65885304  0.74241446  0.54278204  1
  O  O61  1  0.59146354  0.73189220  0.01382467  1
  O  O62  1  0.85957134  0.26810780  0.98617533  1
  O  O63  1  0.84685292  0.00000000  0.50000000  1
  O  O64  1  0.63791601  0.32864778  0.07871427  1
  O  O65  1  0.30926823  0.67135222  0.92128573  1
  O  O66  1  0.96193166  0.25452302  0.67342918  1
  O  O67  1  0.70740864  0.74547698  0.32657082  1
  O  O68  1  0.04484382  0.08251070  0.92857058  1
  O  O69  1  0.96233311  0.91748930  0.07142942  1
  O  O70  1  0.23676148  0.15278226  0.12946547  1
  O  O71  1  0.08397922  0.84721774  0.87053453  1
  O  O72  1  0.21322972  0.56568565  0.14825952  1
  O  O73  1  0.64754406  0.43431435  0.85174048  1
  O  O74  1  0.77692785  0.39752396  0.64457371  1
  O  O75  1  0.37940389  0.60247604  0.35542629  1
