# generated using pymatgen
data_Cu3Pb2Se2(NO7)2
_symmetry_space_group_name_H-M   'P 1'
_cell_length_a   5.84838982
_cell_length_b   6.87190375
_cell_length_c   19.66353560
_cell_angle_alpha   90.00000000
_cell_angle_beta   90.00000000
_cell_angle_gamma   115.18415733
_symmetry_Int_Tables_number   1
_chemical_formula_structural   Cu3Pb2Se2(NO7)2
_chemical_formula_sum   'Cu6 Pb4 Se4 N4 O28'
_cell_volume   715.14985241
_cell_formula_units_Z   2
loop_
 _symmetry_equiv_pos_site_id
 _symmetry_equiv_pos_as_xyz
  1  'x, y, z'
loop_
 _atom_site_type_symbol
 _atom_site_label
 _atom_site_symmetry_multiplicity
 _atom_site_fract_x
 _atom_site_fract_y
 _atom_site_fract_z
 _atom_site_occupancy
  Cu  Cu0  1  0.38524425  0.77048849  0.64721404  1
  Cu  Cu1  1  0.61475575  0.22951151  0.14721404  1
  Cu  Cu2  1  0.88629059  0.27103057  0.64639939  1
  Cu  Cu3  1  0.38473998  0.27103057  0.64639939  1
  Cu  Cu4  1  0.11370941  0.72896943  0.14639939  1
  Cu  Cu5  1  0.61526002  0.72896943  0.14639939  1
  Pb  Pb6  1  0.53383323  0.06766645  0.49715199  1
  Pb  Pb7  1  0.46616677  0.93233355  0.99715199  1
  Pb  Pb8  1  0.23512575  0.47025150  0.79902450  1
  Pb  Pb9  1  0.76487425  0.52974850  0.29902450  1
  Se  Se10  1  0.23397270  0.46794540  0.51029005  1
  Se  Se11  1  0.76602730  0.53205460  0.01029005  1
  Se  Se12  1  0.53816038  0.07632075  0.78248683  1
  Se  Se13  1  0.46183962  0.92367925  0.28248683  1
  N  N14  1  0.86268861  0.72537722  0.84923644  1
  N  N15  1  0.13731139  0.27462278  0.34923644  1
  N  N16  1  0.89775951  0.79551901  0.45154480  1
  N  N17  1  0.10224049  0.20448099  0.95154480  1
  O  O18  1  0.23139854  0.46279708  0.67276380  1
  O  O19  1  0.76860146  0.53720292  0.17276380  1
  O  O20  1  0.53946070  0.07892140  0.62006161  1
  O  O21  1  0.46053930  0.92107860  0.12006161  1
  O  O22  1  0.35820194  0.71640388  0.55118906  1
  O  O23  1  0.64179806  0.28359612  0.05118906  1
  O  O24  1  0.40331415  0.34306292  0.54899102  1
  O  O25  1  0.93974877  0.34306292  0.54899102  1
  O  O26  1  0.59668585  0.65693708  0.04899102  1
  O  O27  1  0.06025123  0.65693708  0.04899102  1
  O  O28  1  0.41313251  0.82626502  0.74332058  1
  O  O29  1  0.58686749  0.17373498  0.24332058  1
  O  O30  1  0.83193803  0.19940596  0.74374605  1
  O  O31  1  0.36746794  0.19940596  0.74374605  1
  O  O32  1  0.16806197  0.80059404  0.24374605  1
  O  O33  1  0.63253206  0.80059404  0.24374605  1
  O  O34  1  0.80552416  0.61104833  0.79557620  1
  O  O35  1  0.19447584  0.38895167  0.29557620  1
  O  O36  1  0.07879625  0.78055014  0.87614685  1
  O  O37  1  0.70175390  0.78055014  0.87614685  1
  O  O38  1  0.92120375  0.21944986  0.37614685  1
  O  O39  1  0.29824610  0.21944986  0.37614685  1
  O  O40  1  0.95476899  0.90953798  0.50485476  1
  O  O41  1  0.04523101  0.09046202  0.00485476  1
  O  O42  1  0.05740376  0.73851462  0.42430937  1
  O  O43  1  0.68111086  0.73851462  0.42430937  1
  O  O44  1  0.94259624  0.26148538  0.92430937  1
  O  O45  1  0.31888914  0.26148538  0.92430937  1
