# generated using pymatgen
data_LiAs2(H3N)4
_symmetry_space_group_name_H-M   'P 1'
_cell_length_a   10.88431609
_cell_length_b   12.45895698
_cell_length_c   14.39649028
_cell_angle_alpha   92.56978753
_cell_angle_beta   90.00000000
_cell_angle_gamma   90.00000000
_symmetry_Int_Tables_number   1
_chemical_formula_structural   LiAs2(H3N)4
_chemical_formula_sum   'Li8 As16 H96 N32'
_cell_volume   1950.30481368
_cell_formula_units_Z   8
loop_
 _symmetry_equiv_pos_site_id
 _symmetry_equiv_pos_as_xyz
  1  'x, y, z'
loop_
 _atom_site_type_symbol
 _atom_site_label
 _atom_site_symmetry_multiplicity
 _atom_site_fract_x
 _atom_site_fract_y
 _atom_site_fract_z
 _atom_site_occupancy
  Li  Li0  1  0.59088676  0.06157549  0.88232755  1
  Li  Li1  1  0.09088676  0.93842451  0.61767245  1
  Li  Li2  1  0.40911324  0.93842451  0.11767245  1
  Li  Li3  1  0.90911324  0.06157549  0.38232755  1
  Li  Li4  1  0.39967373  0.43895617  0.37536164  1
  Li  Li5  1  0.89967373  0.56104383  0.12463836  1
  Li  Li6  1  0.60032627  0.56104383  0.62463836  1
  Li  Li7  1  0.10032627  0.43895617  0.87536164  1
  As  As8  1  0.52680785  0.39514999  0.06930214  1
  As  As9  1  0.02680785  0.60485001  0.43069786  1
  As  As10  1  0.47319215  0.60485001  0.93069786  1
  As  As11  1  0.97319215  0.39514999  0.56930214  1
  As  As12  1  0.55778617  0.42691954  0.90721627  1
  As  As13  1  0.05778617  0.57308046  0.59278373  1
  As  As14  1  0.44221383  0.57308046  0.09278373  1
  As  As15  1  0.94221383  0.42691954  0.40721627  1
  As  As16  1  0.53057305  0.89754729  0.42067181  1
  As  As17  1  0.03057305  0.10245271  0.07932819  1
  As  As18  1  0.46942695  0.10245271  0.57932819  1
  As  As19  1  0.96942695  0.89754729  0.92067181  1
  As  As20  1  0.45548325  0.07880748  0.41245985  1
  As  As21  1  0.95548325  0.92119252  0.08754015  1
  As  As22  1  0.54451675  0.92119252  0.58754015  1
  As  As23  1  0.04451675  0.07880748  0.91245985  1
  H  H24  1  0.63428528  0.07029760  0.06381506  1
  H  H25  1  0.13428528  0.92970240  0.43618494  1
  H  H26  1  0.36571472  0.92970240  0.93618494  1
  H  H27  1  0.86571472  0.07029760  0.56381506  1
  H  H28  1  0.76043622  0.09969255  0.00867613  1
  H  H29  1  0.26043622  0.90030745  0.49132387  1
  H  H30  1  0.23956378  0.90030745  0.99132387  1
  H  H31  1  0.73956378  0.09969255  0.50867613  1
  H  H32  1  0.65258974  0.19092019  0.02583438  1
  H  H33  1  0.15258974  0.80907981  0.47416562  1
  H  H34  1  0.34741026  0.80907981  0.97416562  1
  H  H35  1  0.84741026  0.19092019  0.52583438  1
  H  H36  1  0.79584713  0.10616350  0.80245364  1
  H  H37  1  0.29584713  0.89383650  0.69754636  1
  H  H38  1  0.20415287  0.89383650  0.19754636  1
  H  H39  1  0.70415287  0.10616350  0.30245364  1
  H  H40  1  0.69166087  0.09052801  0.71843323  1
  H  H41  1  0.19166087  0.90947199  0.78156677  1
  H  H42  1  0.30833913  0.90947199  0.28156677  1
  H  H43  1  0.80833913  0.09052801  0.21843323  1
  H  H44  1  0.70014752  0.20417033  0.78027946  1
  H  H45  1  0.20014752  0.79582967  0.71972054  1
  H  H46  1  0.29985248  0.79582967  0.21972054  1
  H  H47  1  0.79985248  0.20417033  0.28027946  1
  H  H48  1  0.69912646  0.88072083  0.87073840  1
  H  H49  1  0.19912646  0.11927917  0.62926160  1
  H  H50  1  0.30087354  0.11927917  0.12926160  1
  H  H51  1  0.80087354  0.88072083  0.37073840  1
  H  H52  1  0.55929224  0.83887191  0.88980797  1
  H  H53  1  0.05929224  0.16112809  0.61019203  1
  H  H54  1  0.44070776  0.16112809  0.11019203  1
  H  H55  1  0.94070776  0.83887191  0.38980797  1
  H  H56  1  0.59633055  0.87913799  0.78645919  1
  H  H57  1  0.09633055  0.12086201  0.71354081  1
  H  H58  1  0.40366945  0.12086201  0.21354081  1
  H  H59  1  0.90366945  0.87913799  0.28645919  1
  H  H60  1  0.42221918  0.20796933  0.88388748  1
  H  H61  1  0.92221918  0.79203067  0.61611252  1
  H  H62  1  0.57778082  0.79203067  0.11611252  1
  H  H63  1  0.07778082  0.20796933  0.38388748  1
  H  H64  1  0.40347719  0.12961640  0.79008329  1
  H  H65  1  0.90347719  0.87038360  0.70991671  1
  H  H66  1  0.59652281  0.87038360  0.20991671  1
  H  H67  1  0.09652281  0.12961640  0.29008329  1
  H  H68  1  0.33690707  0.09970258  0.88809749  1
  H  H69  1  0.83690707  0.90029742  0.61190251  1
  H  H70  1  0.66309293  0.90029742  0.11190251  1
  H  H71  1  0.16309293  0.09970258  0.38809749  1
  H  H72  1  0.19141368  0.40931706  0.29233609  1
  H  H73  1  0.69141368  0.59068294  0.20766391  1
  H  H74  1  0.80858632  0.59068294  0.70766391  1
  H  H75  1  0.30858632  0.40931706  0.79233609  1
  H  H76  1  0.29807462  0.40744741  0.20974413  1
  H  H77  1  0.79807462  0.59255259  0.29025587  1
  H  H78  1  0.70192538  0.59255259  0.79025587  1
  H  H79  1  0.20192538  0.40744741  0.70974413  1
  H  H80  1  0.27195883  0.30010929  0.26871052  1
  H  H81  1  0.77195883  0.69989071  0.23128948  1
  H  H82  1  0.72804117  0.69989071  0.73128948  1
  H  H83  1  0.22804117  0.30010929  0.76871052  1
  H  H84  1  0.56939671  0.29456205  0.36268495  1
  H  H85  1  0.06939671  0.70543795  0.13731505  1
  H  H86  1  0.43060329  0.70543795  0.63731505  1
  H  H87  1  0.93060329  0.29456205  0.86268495  1
  H  H88  1  0.58625954  0.37241090  0.27420145  1
  H  H89  1  0.08625954  0.62758910  0.22579855  1
  H  H90  1  0.41374046  0.62758910  0.72579855  1
  H  H91  1  0.91374046  0.37241090  0.77420145  1
  H  H92  1  0.65084053  0.40512587  0.37481990  1
  H  H93  1  0.15084053  0.59487413  0.12518010  1
  H  H94  1  0.34915947  0.59487413  0.62518010  1
  H  H95  1  0.84915947  0.40512587  0.87481990  1
  H  H96  1  0.43090312  0.66218620  0.40574153  1
  H  H97  1  0.93090312  0.33781380  0.09425847  1
  H  H98  1  0.56909688  0.33781380  0.59425847  1
  H  H99  1  0.06909688  0.66218620  0.90574153  1
  H  H100  1  0.39319022  0.62454477  0.29943951  1
  H  H101  1  0.89319022  0.37545523  0.20056049  1
  H  H102  1  0.60680978  0.37545523  0.70056049  1
  H  H103  1  0.10680978  0.62454477  0.79943951  1
  H  H104  1  0.29134374  0.61957796  0.38381574  1
  H  H105  1  0.79134374  0.38042204  0.11618426  1
  H  H106  1  0.70865626  0.38042204  0.61618426  1
  H  H107  1  0.20865626  0.61957796  0.88381574  1
  H  H108  1  0.34155630  0.30131270  0.50209115  1
  H  H109  1  0.84155630  0.69868730  0.99790885  1
  H  H110  1  0.65844370  0.69868730  0.49790885  1
  H  H111  1  0.15844370  0.30131270  0.00209115  1
  H  H112  1  0.38385675  0.41301019  0.55678498  1
  H  H113  1  0.88385675  0.58698981  0.94321502  1
  H  H114  1  0.61614325  0.58698981  0.44321502  1
  H  H115  1  0.11614325  0.41301019  0.05678498  1
  H  H116  1  0.24619584  0.40357602  0.51121321  1
  H  H117  1  0.74619584  0.59642398  0.98878679  1
  H  H118  1  0.75380416  0.59642398  0.48878679  1
  H  H119  1  0.25380416  0.40357602  0.01121321  1
  N  N120  1  0.66693373  0.11104273  0.00895450  1
  N  N121  1  0.16693373  0.88895727  0.49104550  1
  N  N122  1  0.33306627  0.88895727  0.99104550  1
  N  N123  1  0.83306627  0.11104273  0.50895450  1
  N  N124  1  0.70686644  0.12272235  0.78428476  1
  N  N125  1  0.20686644  0.87727765  0.71571524  1
  N  N126  1  0.29313356  0.87727765  0.21571524  1
  N  N127  1  0.79313356  0.12272235  0.28428476  1
  N  N128  1  0.60838886  0.89576973  0.85637819  1
  N  N129  1  0.10838886  0.10423027  0.64362181  1
  N  N130  1  0.39161114  0.10423027  0.14362181  1
  N  N131  1  0.89161114  0.89576973  0.35637819  1
  N  N132  1  0.41662167  0.12901234  0.86065712  1
  N  N133  1  0.91662167  0.87098766  0.63934288  1
  N  N134  1  0.58337833  0.87098766  0.13934288  1
  N  N135  1  0.08337833  0.12901234  0.36065712  1
  N  N136  1  0.27760683  0.38199484  0.27470979  1
  N  N137  1  0.77760683  0.61800516  0.22529021  1
  N  N138  1  0.72239317  0.61800516  0.72529021  1
  N  N139  1  0.22239317  0.38199484  0.77470979  1
  N  N140  1  0.57262010  0.37331980  0.34497724  1
  N  N141  1  0.07262010  0.62668020  0.15502276  1
  N  N142  1  0.42737990  0.62668020  0.65502276  1
  N  N143  1  0.92737990  0.37331980  0.84497724  1
  N  N144  1  0.38215624  0.60541011  0.36749965  1
  N  N145  1  0.88215624  0.39458989  0.13250035  1
  N  N146  1  0.61784376  0.39458989  0.63250035  1
  N  N147  1  0.11784376  0.60541011  0.86749965  1
  N  N148  1  0.33664734  0.38325811  0.49983596  1
  N  N149  1  0.83664734  0.61674189  0.00016404  1
  N  N150  1  0.66335266  0.61674189  0.50016404  1
  N  N151  1  0.16335266  0.38325811  0.99983596  1
