# generated using pymatgen
data_ScV(SeO4)2
_symmetry_space_group_name_H-M   'P 1'
_cell_length_a   5.20974039
_cell_length_b   9.15410323
_cell_length_c   14.83782335
_cell_angle_alpha   104.92548071
_cell_angle_beta   90.00000000
_cell_angle_gamma   90.00000000
_symmetry_Int_Tables_number   1
_chemical_formula_structural   ScV(SeO4)2
_chemical_formula_sum   'Sc4 V4 Se8 O32'
_cell_volume   683.74918069
_cell_formula_units_Z   4
loop_
 _symmetry_equiv_pos_site_id
 _symmetry_equiv_pos_as_xyz
  1  'x, y, z'
loop_
 _atom_site_type_symbol
 _atom_site_label
 _atom_site_symmetry_multiplicity
 _atom_site_fract_x
 _atom_site_fract_y
 _atom_site_fract_z
 _atom_site_occupancy
  Sc  Sc0  1  0.19594445  0.58286819  0.38907237  1
  Sc  Sc1  1  0.30405555  0.08286819  0.88907237  1
  Sc  Sc2  1  0.80405555  0.41713181  0.61092763  1
  Sc  Sc3  1  0.69594445  0.91713181  0.11092763  1
  V  V4  1  0.64469154  0.85425923  0.48423028  1
  V  V5  1  0.85530846  0.35425923  0.98423028  1
  V  V6  1  0.35530846  0.14574077  0.51576972  1
  V  V7  1  0.14469154  0.64574077  0.01576972  1
  Se  Se8  1  0.29355900  0.91011264  0.30458619  1
  Se  Se9  1  0.20644100  0.41011264  0.80458619  1
  Se  Se10  1  0.70644100  0.08988736  0.69541381  1
  Se  Se11  1  0.79355900  0.58988736  0.19541381  1
  Se  Se12  1  0.69668433  0.31198148  0.37031036  1
  Se  Se13  1  0.80331567  0.81198148  0.87031036  1
  Se  Se14  1  0.30331567  0.68801852  0.62968964  1
  Se  Se15  1  0.19668433  0.18801852  0.12968964  1
  O  O16  1  0.40527826  0.78903006  0.37354849  1
  O  O17  1  0.09472174  0.28903006  0.87354849  1
  O  O18  1  0.59472174  0.21096994  0.62645151  1
  O  O19  1  0.90527826  0.71096994  0.12645151  1
  O  O20  1  0.27696467  0.08780427  0.38313627  1
  O  O21  1  0.22303533  0.58780427  0.88313627  1
  O  O22  1  0.72303533  0.91219573  0.61686373  1
  O  O23  1  0.77696467  0.41219573  0.11686373  1
  O  O24  1  0.56732762  0.92637332  0.24620874  1
  O  O25  1  0.93267238  0.42637332  0.74620874  1
  O  O26  1  0.43267238  0.07362668  0.75379126  1
  O  O27  1  0.06732762  0.57362668  0.25379126  1
  O  O28  1  0.51218282  0.44302478  0.33525936  1
  O  O29  1  0.98781718  0.94302478  0.83525936  1
  O  O30  1  0.48781718  0.55697522  0.66474064  1
  O  O31  1  0.01218282  0.05697522  0.16474064  1
  O  O32  1  0.98131148  0.40494889  0.39983039  1
  O  O33  1  0.51868852  0.90494889  0.89983039  1
  O  O34  1  0.01868852  0.59505111  0.60016961  1
  O  O35  1  0.48131148  0.09505111  0.10016961  1
  O  O36  1  0.58325181  0.32566099  0.48489028  1
  O  O37  1  0.91674819  0.82566099  0.98489028  1
  O  O38  1  0.41674819  0.67433901  0.51510972  1
  O  O39  1  0.08325181  0.17433901  0.01510972  1
  O  O40  1  0.71207599  0.01988203  0.45982853  1
  O  O41  1  0.78792401  0.51988203  0.95982853  1
  O  O42  1  0.28792401  0.98011797  0.54017147  1
  O  O43  1  0.21207599  0.48011797  0.04017147  1
  O  O44  1  0.89202863  0.73864935  0.44022222  1
  O  O45  1  0.60797137  0.23864935  0.94022222  1
  O  O46  1  0.10797137  0.26135065  0.55977778  1
  O  O47  1  0.39202863  0.76135065  0.05977778  1
