# generated using pymatgen
data_Ti2Be17
_symmetry_space_group_name_H-M   'P 1'
_cell_length_a   7.15707789
_cell_length_b   7.33075013
_cell_length_c   7.33075013
_cell_angle_alpha   120.01228857
_cell_angle_beta   90.00000000
_cell_angle_gamma   90.00000000
_symmetry_Int_Tables_number   1
_chemical_formula_structural   Ti2Be17
_chemical_formula_sum   'Ti4 Be34'
_cell_volume   333.04998429
_cell_formula_units_Z   2
loop_
 _symmetry_equiv_pos_site_id
 _symmetry_equiv_pos_as_xyz
  1  'x, y, z'
loop_
 _atom_site_type_symbol
 _atom_site_label
 _atom_site_symmetry_multiplicity
 _atom_site_fract_x
 _atom_site_fract_y
 _atom_site_fract_z
 _atom_site_occupancy
  Ti  Ti0  1  0.75000000  0.99999611  0.00000389  1
  Ti  Ti1  1  0.25000000  0.00000389  0.99999611  1
  Ti  Ti2  1  0.25000000  0.66666619  0.33333381  1
  Ti  Ti3  1  0.75000000  0.33333381  0.66666619  1
  Be  Be4  1  0.60201735  0.66666998  0.33333002  1
  Be  Be5  1  0.39798265  0.33333002  0.66666998  1
  Be  Be6  1  0.10201735  0.33333002  0.66666998  1
  Be  Be7  1  0.89798265  0.66666998  0.33333002  1
  Be  Be8  1  0.50000000  0.50000000  -0.00000000  1
  Be  Be9  1  0.50000000  0.50000000  0.50000000  1
  Be  Be10  1  0.50000000  -0.00000000  0.50000000  1
  Be  Be11  1  0.00000000  0.50000000  -0.00000000  1
  Be  Be12  1  0.00000000  0.50000000  0.50000000  1
  Be  Be13  1  0.00000000  -0.00000000  0.50000000  1
  Be  Be14  1  0.75000000  0.66926495  0.03889988  1
  Be  Be15  1  0.75000000  0.36967378  0.33077129  1
  Be  Be16  1  0.75000000  0.96117421  0.63041040  1
  Be  Be17  1  0.75000000  0.36958960  0.03882579  1
  Be  Be18  1  0.75000000  0.96110012  0.33073505  1
  Be  Be19  1  0.75000000  0.66922871  0.63032622  1
  Be  Be20  1  0.25000000  0.33073505  0.96110012  1
  Be  Be21  1  0.25000000  0.63032622  0.66922871  1
  Be  Be22  1  0.25000000  0.03882579  0.36958960  1
  Be  Be23  1  0.25000000  0.63041040  0.96117421  1
  Be  Be24  1  0.25000000  0.03889988  0.66926495  1
  Be  Be25  1  0.25000000  0.33077129  0.36967378  1
  Be  Be26  1  0.48513982  0.83563159  0.67114790  1
  Be  Be27  1  0.48515749  0.83559299  0.16440701  1
  Be  Be28  1  0.48513982  0.32885210  0.16436841  1
  Be  Be29  1  0.51486018  0.16436841  0.32885210  1
  Be  Be30  1  0.51484251  0.16440701  0.83559299  1
  Be  Be31  1  0.51486018  0.67114790  0.83563159  1
  Be  Be32  1  0.98513982  0.16436841  0.32885210  1
  Be  Be33  1  0.98515749  0.16440701  0.83559299  1
  Be  Be34  1  0.98513982  0.67114790  0.83563159  1
  Be  Be35  1  0.01486018  0.83563159  0.67114790  1
  Be  Be36  1  0.01484251  0.83559299  0.16440701  1
  Be  Be37  1  0.01486018  0.32885210  0.16436841  1
