# generated using pymatgen
data_WO3
_symmetry_space_group_name_H-M   'P 1'
_cell_length_a   3.87944224
_cell_length_b   12.34835708
_cell_length_c   12.34835708
_cell_angle_alpha   90.00000000
_cell_angle_beta   90.00000000
_cell_angle_gamma   90.00000000
_symmetry_Int_Tables_number   1
_chemical_formula_structural   WO3
_chemical_formula_sum   'W10 O30'
_cell_volume   591.54481127
_cell_formula_units_Z   10
loop_
 _symmetry_equiv_pos_site_id
 _symmetry_equiv_pos_as_xyz
  1  'x, y, z'
loop_
 _atom_site_type_symbol
 _atom_site_label
 _atom_site_symmetry_multiplicity
 _atom_site_fract_x
 _atom_site_fract_y
 _atom_site_fract_z
 _atom_site_occupancy
  W  W0  1  0.54223315  0.00000000  0.50000000  1
  W  W1  1  0.45776685  0.50000000  -0.00000000  1
  W  W2  1  0.48038603  0.29297709  0.42266729  1
  W  W3  1  0.51961397  0.20702291  0.92266729  1
  W  W4  1  0.48038603  0.70702291  0.57733271  1
  W  W5  1  0.51961397  0.79297709  0.07733271  1
  W  W6  1  0.51961397  0.57733271  0.29297709  1
  W  W7  1  0.48038603  0.92266729  0.79297709  1
  W  W8  1  0.51961397  0.42266729  0.70702291  1
  W  W9  1  0.48038603  0.07733271  0.20702291  1
  O  O10  1  0.01617100  0.00000000  0.50000000  1
  O  O11  1  0.98382900  0.50000000  -0.00000000  1
  O  O12  1  0.99785375  0.29311184  0.42247145  1
  O  O13  1  0.00214625  0.20688816  0.92247145  1
  O  O14  1  0.99785375  0.70688816  0.57752855  1
  O  O15  1  0.00214625  0.79311184  0.07752855  1
  O  O16  1  0.00214625  0.57752855  0.29311184  1
  O  O17  1  0.99785375  0.92247145  0.79311184  1
  O  O18  1  0.00214625  0.42247145  0.70688816  1
  O  O19  1  0.99785375  0.07752855  0.20688816  1
  O  O20  1  0.49991036  0.71321658  0.21321658  1
  O  O21  1  0.50008964  0.78678342  0.71321658  1
  O  O22  1  0.49991036  0.28678342  0.78678342  1
  O  O23  1  0.50008964  0.21321658  0.28678342  1
  O  O24  1  0.49505132  0.50375677  0.15541792  1
  O  O25  1  0.50494868  0.99624323  0.65541792  1
  O  O26  1  0.49505132  0.49624323  0.84458208  1
  O  O27  1  0.50494868  0.00375677  0.34458208  1
  O  O28  1  0.50494868  0.84458208  0.50375677  1
  O  O29  1  0.49505132  0.65541792  0.00375677  1
  O  O30  1  0.50494868  0.15541792  0.49624323  1
  O  O31  1  0.49505132  0.34458208  0.99624323  1
  O  O32  1  0.50083078  0.43293796  0.35758105  1
  O  O33  1  0.49916922  0.06706204  0.85758105  1
  O  O34  1  0.50083078  0.56706204  0.64241895  1
  O  O35  1  0.49916922  0.93293796  0.14241895  1
  O  O36  1  0.49916922  0.64241895  0.43293796  1
  O  O37  1  0.50083078  0.85758105  0.93293796  1
  O  O38  1  0.49916922  0.35758105  0.56706204  1
  O  O39  1  0.50083078  0.14241895  0.06706204  1
