# generated using pymatgen
data_LaGaS3
_symmetry_space_group_name_H-M   'P 1'
_cell_length_a   6.10343232
_cell_length_b   10.49435657
_cell_length_c   22.15452389
_cell_angle_alpha   90.00000000
_cell_angle_beta   90.00000000
_cell_angle_gamma   90.00000000
_symmetry_Int_Tables_number   1
_chemical_formula_structural   LaGaS3
_chemical_formula_sum   'La12 Ga12 S36'
_cell_volume   1419.03259310
_cell_formula_units_Z   12
loop_
 _symmetry_equiv_pos_site_id
 _symmetry_equiv_pos_as_xyz
  1  'x, y, z'
loop_
 _atom_site_type_symbol
 _atom_site_label
 _atom_site_symmetry_multiplicity
 _atom_site_fract_x
 _atom_site_fract_y
 _atom_site_fract_z
 _atom_site_occupancy
  La  La0  1  0.73052641  0.52138930  0.24224693  1
  La  La1  1  0.23052641  0.47861070  0.75775307  1
  La  La2  1  0.23052641  0.97861070  0.74224693  1
  La  La3  1  0.73052641  0.02138930  0.25775307  1
  La  La4  1  0.74125218  0.79852105  0.05860033  1
  La  La5  1  0.24125218  0.20147895  0.94139967  1
  La  La6  1  0.24125218  0.70147895  0.55860033  1
  La  La7  1  0.74125218  0.29852105  0.44139967  1
  La  La8  1  0.23764506  0.74574459  0.91965084  1
  La  La9  1  0.73764506  0.25425541  0.08034916  1
  La  La10  1  0.73764506  0.75425541  0.41965084  1
  La  La11  1  0.23764506  0.24574459  0.58034916  1
  Ga  Ga12  1  0.22313238  0.72927596  0.23162892  1
  Ga  Ga13  1  0.72313238  0.27072404  0.76837108  1
  Ga  Ga14  1  0.72313238  0.77072404  0.73162892  1
  Ga  Ga15  1  0.22313238  0.22927596  0.26837108  1
  Ga  Ga16  1  0.34312081  0.52550814  0.09492452  1
  Ga  Ga17  1  0.84312081  0.47449186  0.90507548  1
  Ga  Ga18  1  0.84312081  0.97449186  0.59492452  1
  Ga  Ga19  1  0.34312081  0.02550814  0.40507548  1
  Ga  Ga20  1  0.18164094  0.52393163  0.37315938  1
  Ga  Ga21  1  0.68164094  0.47606837  0.62684062  1
  Ga  Ga22  1  0.68164094  0.97606837  0.87315938  1
  Ga  Ga23  1  0.18164094  0.02393163  0.12684062  1
  S  S24  1  0.22005071  0.52527323  0.19514022  1
  S  S25  1  0.72005071  0.47472677  0.80485978  1
  S  S26  1  0.72005071  0.97472677  0.69514022  1
  S  S27  1  0.22005071  0.02527323  0.30485978  1
  S  S28  1  0.72173109  0.53092736  0.10851046  1
  S  S29  1  0.22173109  0.46907264  0.89148954  1
  S  S30  1  0.22173109  0.96907264  0.60851046  1
  S  S31  1  0.72173109  0.03092736  0.39148954  1
  S  S32  1  0.76548010  0.67278891  0.94224118  1
  S  S33  1  0.26548010  0.32721109  0.05775882  1
  S  S34  1  0.26548010  0.82721109  0.44224118  1
  S  S35  1  0.76548010  0.17278891  0.55775882  1
  S  S36  1  0.26045197  0.71378205  0.04875311  1
  S  S37  1  0.76045197  0.28621795  0.95124689  1
  S  S38  1  0.76045197  0.78621795  0.54875311  1
  S  S39  1  0.26045197  0.21378205  0.45124689  1
  S  S40  1  0.00917312  0.53439825  0.46402672  1
  S  S41  1  0.50917312  0.46560175  0.53597328  1
  S  S42  1  0.50917312  0.96560175  0.96402672  1
  S  S43  1  0.00917312  0.03439825  0.03597328  1
  S  S44  1  0.01580440  0.68716901  0.31779984  1
  S  S45  1  0.51580440  0.31283099  0.68220016  1
  S  S46  1  0.51580440  0.81283099  0.81779984  1
  S  S47  1  0.01580440  0.18716901  0.18220016  1
  S  S48  1  0.99902950  0.85615028  0.17496433  1
  S  S49  1  0.49902950  0.14384972  0.82503567  1
  S  S50  1  0.49902950  0.64384972  0.67496433  1
  S  S51  1  0.99902950  0.35615028  0.32503567  1
  S  S52  1  0.54695979  0.51240449  0.37015158  1
  S  S53  1  0.04695979  0.48759551  0.62984842  1
  S  S54  1  0.04695979  0.98759551  0.87015158  1
  S  S55  1  0.54695979  0.01240449  0.12984842  1
  S  S56  1  0.55949156  0.77098642  0.26398331  1
  S  S57  1  0.05949156  0.22901358  0.73601669  1
  S  S58  1  0.05949156  0.72901358  0.76398331  1
  S  S59  1  0.55949156  0.27098642  0.23601669  1
