# generated using pymatgen
data_ZrCrGe2
_symmetry_space_group_name_H-M   'P 1'
_cell_length_a   8.20716972
_cell_length_b   9.36530669
_cell_length_c   10.11577690
_cell_angle_alpha   90.00000000
_cell_angle_beta   90.00000000
_cell_angle_gamma   90.00000000
_symmetry_Int_Tables_number   1
_chemical_formula_structural   ZrCrGe2
_chemical_formula_sum   'Zr12 Cr12 Ge24'
_cell_volume   777.52553552
_cell_formula_units_Z   12
loop_
 _symmetry_equiv_pos_site_id
 _symmetry_equiv_pos_as_xyz
  1  'x, y, z'
loop_
 _atom_site_type_symbol
 _atom_site_label
 _atom_site_symmetry_multiplicity
 _atom_site_fract_x
 _atom_site_fract_y
 _atom_site_fract_z
 _atom_site_occupancy
  Zr  Zr0  1  0.74518293  0.82875851  0.04711800  1
  Zr  Zr1  1  0.74518293  0.17124149  0.95288200  1
  Zr  Zr2  1  0.25481707  0.67124149  0.54711800  1
  Zr  Zr3  1  0.25481707  0.32875851  0.45288200  1
  Zr  Zr4  1  0.25481707  0.17124149  0.95288200  1
  Zr  Zr5  1  0.25481707  0.82875851  0.04711800  1
  Zr  Zr6  1  0.74518293  0.32875851  0.45288200  1
  Zr  Zr7  1  0.74518293  0.67124149  0.54711800  1
  Zr  Zr8  1  0.50000000  0.83380265  0.32055276  1
  Zr  Zr9  1  0.50000000  0.16619735  0.67944724  1
  Zr  Zr10  1  0.50000000  0.66619735  0.82055276  1
  Zr  Zr11  1  0.50000000  0.33380265  0.17944724  1
  Cr  Cr12  1  0.74961406  0.58269207  0.24486801  1
  Cr  Cr13  1  0.74961406  0.41730793  0.75513199  1
  Cr  Cr14  1  0.25038594  0.91730793  0.74486801  1
  Cr  Cr15  1  0.25038594  0.08269207  0.25513199  1
  Cr  Cr16  1  0.25038594  0.41730793  0.75513199  1
  Cr  Cr17  1  0.25038594  0.58269207  0.24486801  1
  Cr  Cr18  1  0.74961406  0.08269207  0.25513199  1
  Cr  Cr19  1  0.74961406  0.91730793  0.74486801  1
  Cr  Cr20  1  0.74543881  -0.00000000  0.50000000  1
  Cr  Cr21  1  0.25456119  0.50000000  -0.00000000  1
  Cr  Cr22  1  0.25456119  -0.00000000  0.50000000  1
  Cr  Cr23  1  0.74543881  0.50000000  -0.00000000  1
  Ge  Ge24  1  0.84280689  0.83196637  0.31774889  1
  Ge  Ge25  1  0.84280689  0.16803363  0.68225111  1
  Ge  Ge26  1  0.15719311  0.66803363  0.81774889  1
  Ge  Ge27  1  0.15719311  0.33196637  0.18225111  1
  Ge  Ge28  1  0.15719311  0.16803363  0.68225111  1
  Ge  Ge29  1  0.15719311  0.83196637  0.31774889  1
  Ge  Ge30  1  0.84280689  0.33196637  0.18225111  1
  Ge  Ge31  1  0.84280689  0.66803363  0.81774889  1
  Ge  Ge32  1  0.50000000  0.54134854  0.37794837  1
  Ge  Ge33  1  0.50000000  0.45865146  0.62205163  1
  Ge  Ge34  1  0.50000000  0.95865146  0.87794837  1
  Ge  Ge35  1  0.50000000  0.04134854  0.12205163  1
  Ge  Ge36  1  0.00000000  0.54479546  0.37622583  1
  Ge  Ge37  1  -0.00000000  0.45520454  0.62377417  1
  Ge  Ge38  1  0.00000000  0.95520454  0.87622583  1
  Ge  Ge39  1  0.00000000  0.04479546  0.12377417  1
  Ge  Ge40  1  0.50000000  0.63163743  0.10166567  1
  Ge  Ge41  1  0.50000000  0.36836257  0.89833433  1
  Ge  Ge42  1  0.50000000  0.86836257  0.60166567  1
  Ge  Ge43  1  0.50000000  0.13163743  0.39833433  1
  Ge  Ge44  1  -0.00000000  0.62501322  0.09556128  1
  Ge  Ge45  1  0.00000000  0.37498678  0.90443872  1
  Ge  Ge46  1  -0.00000000  0.87498678  0.59556128  1
  Ge  Ge47  1  0.00000000  0.12501322  0.40443872  1
