# generated using pymatgen
data_Bi2Pd(SeO3)4
_symmetry_space_group_name_H-M   'P 1'
_cell_length_a   7.30977027
_cell_length_b   8.24846069
_cell_length_c   10.93339437
_cell_angle_alpha   109.79385169
_cell_angle_beta   90.00000000
_cell_angle_gamma   90.00000000
_symmetry_Int_Tables_number   1
_chemical_formula_structural   Bi2Pd(SeO3)4
_chemical_formula_sum   'Bi4 Pd2 Se8 O24'
_cell_volume   620.27320124
_cell_formula_units_Z   2
loop_
 _symmetry_equiv_pos_site_id
 _symmetry_equiv_pos_as_xyz
  1  'x, y, z'
loop_
 _atom_site_type_symbol
 _atom_site_label
 _atom_site_symmetry_multiplicity
 _atom_site_fract_x
 _atom_site_fract_y
 _atom_site_fract_z
 _atom_site_occupancy
  Bi  Bi0  1  0.37748893  0.24398807  0.09312415  1
  Bi  Bi1  1  0.87748893  0.25601193  0.90687585  1
  Bi  Bi2  1  0.62251107  0.75601193  0.90687585  1
  Bi  Bi3  1  0.12251107  0.74398807  0.09312415  1
  Pd  Pd4  1  0.50000000  0.50000000  0.50000000  1
  Pd  Pd5  1  0.00000000  0.00000000  0.50000000  1
  Se  Se6  1  0.32682792  0.36226974  0.81385792  1
  Se  Se7  1  0.82682792  0.13773026  0.18614208  1
  Se  Se8  1  0.67317208  0.63773026  0.18614208  1
  Se  Se9  1  0.17317208  0.86226974  0.81385792  1
  Se  Se10  1  0.66763604  0.88809361  0.63478112  1
  Se  Se11  1  0.16763604  0.61190639  0.36521888  1
  Se  Se12  1  0.33236396  0.11190639  0.36521888  1
  Se  Se13  1  0.83236396  0.38809361  0.63478112  1
  O  O14  1  0.59673810  0.69426389  0.65703173  1
  O  O15  1  0.09673810  0.80573611  0.34296827  1
  O  O16  1  0.40326190  0.30573611  0.34296827  1
  O  O17  1  0.90326190  0.19426389  0.65703173  1
  O  O18  1  0.38226892  0.56954584  0.82286854  1
  O  O19  1  0.88226892  0.93045416  0.17713146  1
  O  O20  1  0.61773108  0.43045416  0.17713146  1
  O  O21  1  0.11773108  0.06954584  0.82286854  1
  O  O22  1  0.14503887  0.41867130  0.92786301  1
  O  O23  1  0.64503887  0.08132870  0.07213699  1
  O  O24  1  0.85496113  0.58132870  0.07213699  1
  O  O25  1  0.35496113  0.91867130  0.92786301  1
  O  O26  1  0.87887627  0.81833686  0.56174103  1
  O  O27  1  0.37887627  0.68166314  0.43825897  1
  O  O28  1  0.12112373  0.18166314  0.43825897  1
  O  O29  1  0.62112373  0.31833686  0.56174103  1
  O  O30  1  0.48862501  0.30397215  0.90669401  1
  O  O31  1  0.98862501  0.19602785  0.09330599  1
  O  O32  1  0.51137499  0.69602785  0.09330599  1
  O  O33  1  0.01137499  0.80397215  0.90669401  1
  O  O34  1  0.71536093  0.98149599  0.79741439  1
  O  O35  1  0.21536093  0.51850401  0.20258561  1
  O  O36  1  0.28463907  0.01850401  0.20258561  1
  O  O37  1  0.78463907  0.48149599  0.79741439  1
