# generated using pymatgen
data_CsAlAs3H5O12
_symmetry_space_group_name_H-M   'P 1'
_cell_length_a   4.72529888
_cell_length_b   7.93324016
_cell_length_c   15.31583931
_cell_angle_alpha   89.07749666
_cell_angle_beta   86.90107414
_cell_angle_gamma   72.67349613
_symmetry_Int_Tables_number   1
_chemical_formula_structural   CsAlAs3H5O12
_chemical_formula_sum   'Cs2 Al2 As6 H10 O24'
_cell_volume   547.28948178
_cell_formula_units_Z   2
loop_
 _symmetry_equiv_pos_site_id
 _symmetry_equiv_pos_as_xyz
  1  'x, y, z'
loop_
 _atom_site_type_symbol
 _atom_site_label
 _atom_site_symmetry_multiplicity
 _atom_site_fract_x
 _atom_site_fract_y
 _atom_site_fract_z
 _atom_site_occupancy
  Cs  Cs0  1  0.01230666  0.97292389  0.49893046  1
  Cs  Cs1  1  0.98523055  0.02707611  0.99893046  1
  Al  Al2  1  0.82469084  0.28411819  0.25257474  1
  Al  Al3  1  0.10880902  0.71588181  0.75257474  1
  As  As4  1  0.26977098  0.43299453  0.12949045  1
  As  As5  1  0.70276550  0.56700547  0.62949045  1
  As  As6  1  0.47151881  0.99756772  0.24948723  1
  As  As7  1  0.46908653  0.00243228  0.74948723  1
  As  As8  1  0.23440478  0.41733496  0.37790640  1
  As  As9  1  0.65173974  0.58266504  0.87790640  1
  H  H10  1  0.46885345  0.66432267  0.09999920  1
  H  H11  1  0.13317611  0.33567733  0.59999920  1
  H  H12  1  0.43430747  0.72913327  0.30464328  1
  H  H13  1  0.16344073  0.27086673  0.80464328  1
  H  H14  1  0.88494141  0.79671073  0.18211673  1
  H  H15  1  0.68165215  0.20328927  0.68211673  1
  H  H16  1  0.47715043  0.43873754  0.49868315  1
  H  H17  1  0.91588797  0.56126246  0.99868315  1
  H  H18  1  0.82820732  0.61339627  0.44649527  1
  H  H19  1  0.44160358  0.38660373  0.94649527  1
  O  O20  1  0.60491625  0.28491075  0.15080323  1
  O  O21  1  0.88982700  0.71508925  0.65080323  1
  O  O22  1  0.98022461  0.46107880  0.20516444  1
  O  O23  1  0.44130341  0.53892120  0.70516444  1
  O  O24  1  0.18481629  0.39925620  0.02551290  1
  O  O25  1  0.58407249  0.60074380  0.52551290  1
  O  O26  1  0.29156041  0.65368394  0.13373031  1
  O  O27  1  0.94524435  0.34631606  0.63373031  1
  O  O28  1  0.66752083  0.10590254  0.30457722  1
  O  O29  1  0.77342337  0.89409746  0.80457722  1
  O  O30  1  0.15704140  0.10128317  0.19803956  1
  O  O31  1  0.25832457  0.89871683  0.69803956  1
  O  O32  1  0.40275686  0.84933524  0.32850132  1
  O  O33  1  0.25209210  0.15066476  0.82850132  1
  O  O34  1  0.68972498  0.86867133  0.16341568  1
  O  O35  1  0.55839631  0.13132867  0.66341568  1
  O  O36  1  0.05378423  0.26785825  0.35499482  1
  O  O37  1  0.32164248  0.73214175  0.85499482  1
  O  O38  1  0.49462716  0.46557263  0.30834604  1
  O  O39  1  0.96019979  0.53442737  0.80834604  1
  O  O40  1  0.39038001  0.34113692  0.47849415  1
  O  O41  1  0.73151693  0.65886308  0.97849415  1
  O  O42  1  0.98393874  0.62582266  0.40006342  1
  O  O43  1  0.60976140  0.37417734  0.90006342  1
