# generated using pymatgen
data_V2Ag(PO5)2
_symmetry_space_group_name_H-M   'P 1'
_cell_length_a   5.30821663
_cell_length_b   8.21994403
_cell_length_c   17.26434972
_cell_angle_alpha   90.00000000
_cell_angle_beta   91.69809814
_cell_angle_gamma   90.00000000
_symmetry_Int_Tables_number   1
_chemical_formula_structural   V2Ag(PO5)2
_chemical_formula_sum   'V8 Ag4 P8 O40'
_cell_volume   752.96876146
_cell_formula_units_Z   4
loop_
 _symmetry_equiv_pos_site_id
 _symmetry_equiv_pos_as_xyz
  1  'x, y, z'
loop_
 _atom_site_type_symbol
 _atom_site_label
 _atom_site_symmetry_multiplicity
 _atom_site_fract_x
 _atom_site_fract_y
 _atom_site_fract_z
 _atom_site_occupancy
  V  V0  1  0.14490345  0.63247083  0.57065858  1
  V  V1  1  0.85509655  0.13247083  0.92934142  1
  V  V2  1  0.85509655  0.36752917  0.42934142  1
  V  V3  1  0.14490345  0.86752917  0.07065858  1
  V  V4  1  0.46584454  0.46778791  0.85312155  1
  V  V5  1  0.53415546  0.96778791  0.64687845  1
  V  V6  1  0.53415546  0.53221209  0.14687845  1
  V  V7  1  0.46584454  0.03221209  0.35312155  1
  Ag  Ag8  1  0.06620407  0.28758327  0.68722299  1
  Ag  Ag9  1  0.93379593  0.78758327  0.81277701  1
  Ag  Ag10  1  0.93379593  0.71241673  0.31277701  1
  Ag  Ag11  1  0.06620407  0.21241673  0.18722299  1
  P  P12  1  0.36716679  0.23511985  0.51597060  1
  P  P13  1  0.63283321  0.73511985  0.98402940  1
  P  P14  1  0.63283321  0.76488015  0.48402940  1
  P  P15  1  0.36716679  0.26488015  0.01597060  1
  P  P16  1  0.35672906  0.07777451  0.81723284  1
  P  P17  1  0.64327094  0.57777451  0.68276716  1
  P  P18  1  0.64327094  0.92222549  0.18276716  1
  P  P19  1  0.35672906  0.42222549  0.31723284  1
  O  O20  1  0.18379851  0.81332007  0.61089060  1
  O  O21  1  0.81620149  0.31332007  0.88910940  1
  O  O22  1  0.81620149  0.18667993  0.38910940  1
  O  O23  1  0.18379851  0.68667993  0.11089060  1
  O  O24  1  0.86282768  0.64694721  0.48742201  1
  O  O25  1  0.13717232  0.14694721  0.01257799  1
  O  O26  1  0.13717232  0.35305279  0.51257799  1
  O  O27  1  0.86282768  0.85305279  0.98742201  1
  O  O28  1  0.88299574  0.53021073  0.63977659  1
  O  O29  1  0.11700426  0.03021073  0.86022341  1
  O  O30  1  0.11700426  0.46978927  0.36022341  1
  O  O31  1  0.88299574  0.96978927  0.13977659  1
  O  O32  1  0.38310069  0.67302193  0.48623721  1
  O  O33  1  0.61689931  0.17302193  0.01376279  1
  O  O34  1  0.61689931  0.32697807  0.51376279  1
  O  O35  1  0.38310069  0.82697807  0.98623721  1
  O  O36  1  0.39939743  0.52043340  0.64150503  1
  O  O37  1  0.60060257  0.02043340  0.85849497  1
  O  O38  1  0.60060257  0.47956660  0.35849497  1
  O  O39  1  0.39939743  0.97956660  0.14150503  1
  O  O40  1  0.22513983  0.57841999  0.82426188  1
  O  O41  1  0.77486017  0.07841999  0.67573812  1
  O  O42  1  0.77486017  0.42158001  0.17573812  1
  O  O43  1  0.22513983  0.92158001  0.32426188  1
  O  O44  1  0.35562377  0.26542152  0.80300440  1
  O  O45  1  0.64437623  0.76542152  0.69699560  1
  O  O46  1  0.64437623  0.73457848  0.19699560  1
  O  O47  1  0.35562377  0.23457848  0.30300440  1
  O  O48  1  0.67264032  0.49711368  0.76451266  1
  O  O49  1  0.32735968  0.99711368  0.73548734  1
  O  O50  1  0.32735968  0.50288632  0.23548734  1
  O  O51  1  0.67264032  0.00288632  0.26451266  1
  O  O52  1  0.65475554  0.63750476  0.90679473  1
  O  O53  1  0.34524446  0.13750476  0.59320527  1
  O  O54  1  0.34524446  0.36249524  0.09320527  1
  O  O55  1  0.65475554  0.86249524  0.40679473  1
  O  O56  1  0.34247211  0.38962097  0.94822570  1
  O  O57  1  0.65752789  0.88962097  0.55177430  1
  O  O58  1  0.65752789  0.61037903  0.05177430  1
  O  O59  1  0.34247211  0.11037903  0.44822570  1
