# generated using pymatgen
data_P2H10SN6
_symmetry_space_group_name_H-M   'P 1'
_cell_length_a   7.81909008
_cell_length_b   10.43173231
_cell_length_c   10.59690548
_cell_angle_alpha   104.74244522
_cell_angle_beta   90.00000000
_cell_angle_gamma   90.00000000
_symmetry_Int_Tables_number   1
_chemical_formula_structural   P2H10SN6
_chemical_formula_sum   'P8 H40 S4 N24'
_cell_volume   835.89915977
_cell_formula_units_Z   4
loop_
 _symmetry_equiv_pos_site_id
 _symmetry_equiv_pos_as_xyz
  1  'x, y, z'
loop_
 _atom_site_type_symbol
 _atom_site_label
 _atom_site_symmetry_multiplicity
 _atom_site_fract_x
 _atom_site_fract_y
 _atom_site_fract_z
 _atom_site_occupancy
  P  P0  1  0.69543953  0.69829284  0.34212826  1
  P  P1  1  0.19543953  0.30170716  0.15787174  1
  P  P2  1  0.30456047  0.30170716  0.65787174  1
  P  P3  1  0.80456047  0.69829284  0.84212826  1
  P  P4  1  0.42052263  0.86028390  0.28522468  1
  P  P5  1  0.92052263  0.13971610  0.21477532  1
  P  P6  1  0.57947737  0.13971610  0.71477532  1
  P  P7  1  0.07947737  0.86028390  0.78522468  1
  H  H8  1  0.56328959  0.57593966  0.16436365  1
  H  H9  1  0.06328959  0.42406034  0.33563635  1
  H  H10  1  0.43671041  0.42406034  0.83563635  1
  H  H11  1  0.93671041  0.57593966  0.66436365  1
  H  H12  1  0.33491729  0.04306185  0.21273352  1
  H  H13  1  0.83491729  0.95693815  0.28726648  1
  H  H14  1  0.66508271  0.95693815  0.78726648  1
  H  H15  1  0.16508271  0.04306185  0.71273352  1
  H  H16  1  0.72214398  0.48809627  0.21295038  1
  H  H17  1  0.22214398  0.51190373  0.28704962  1
  H  H18  1  0.27785602  0.51190373  0.78704962  1
  H  H19  1  0.77785602  0.48809627  0.71295038  1
  H  H20  1  0.54825747  0.00986158  0.18763940  1
  H  H21  1  0.04825747  -0.00986158  0.31236060  1
  H  H22  1  0.45174253  -0.00986158  0.81236060  1
  H  H23  1  0.95174253  0.00986158  0.68763940  1
  H  H24  1  0.65873788  0.59630318  0.51367308  1
  H  H25  1  0.15873788  0.40369682  0.98632692  1
  H  H26  1  0.34126212  0.40369682  0.48632692  1
  H  H27  1  0.84126212  0.59630318  0.01367308  1
  H  H28  1  0.24645300  0.83357414  0.45069000  1
  H  H29  1  0.74645300  0.16642586  0.04931000  1
  H  H30  1  0.75354700  0.16642586  0.54931000  1
  H  H31  1  0.25354700  0.83357414  0.95069000  1
  H  H32  1  0.94220716  0.74177711  0.46520944  1
  H  H33  1  0.44220716  0.25822289  0.03479056  1
  H  H34  1  0.05779284  0.25822289  0.53479056  1
  H  H35  1  0.55779284  0.74177711  0.96520944  1
  H  H36  1  0.33267238  0.98544483  0.48637260  1
  H  H37  1  0.83267238  0.01455517  0.01362740  1
  H  H38  1  0.66732762  0.01455517  0.51362740  1
  H  H39  1  0.16732762  0.98544483  0.98637260  1
  H  H40  1  0.52577885  0.72806004  0.52552953  1
  H  H41  1  0.02577885  0.27193996  0.97447047  1
  H  H42  1  0.47422115  0.27193996  0.47447047  1
  H  H43  1  0.97422115  0.72806004  0.02552953  1
  H  H44  1  0.98564031  0.71297065  0.30235269  1
  H  H45  1  0.48564031  0.28702935  0.19764731  1
  H  H46  1  0.01435969  0.28702935  0.69764731  1
  H  H47  1  0.51435969  0.71297065  0.80235269  1
  S  S48  1  0.30308200  0.70815037  0.16054782  1
  S  S49  1  0.80308200  0.29184963  0.33945218  1
  S  S50  1  0.69691800  0.29184963  0.83945218  1
  S  S51  1  0.19691800  0.70815037  0.66054782  1
  N  N52  1  0.44213612  0.00137446  0.24154370  1
  N  N53  1  0.94213612  -0.00137446  0.25845630  1
  N  N54  1  0.55786388  -0.00137446  0.75845630  1
  N  N55  1  0.05786388  0.00137446  0.74154370  1
  N  N56  1  0.68414987  0.57953494  0.20404111  1
  N  N57  1  0.18414987  0.42046506  0.29595889  1
  N  N58  1  0.31585013  0.42046506  0.79595889  1
  N  N59  1  0.81585013  0.57953494  0.70404111  1
  N  N60  1  0.90134544  0.70222070  0.37239540  1
  N  N61  1  0.40134544  0.29777930  0.12760460  1
  N  N62  1  0.09865456  0.29777930  0.62760460  1
  N  N63  1  0.59865456  0.70222070  0.87239540  1
  N  N64  1  0.61539633  0.83283756  0.32381957  1
  N  N65  1  0.11539633  0.16716244  0.17618043  1
  N  N66  1  0.38460367  0.16716244  0.67618043  1
  N  N67  1  0.88460367  0.83283756  0.82381957  1
  N  N68  1  0.28627982  0.90942520  0.41268075  1
  N  N69  1  0.78627982  0.09057480  0.08731925  1
  N  N70  1  0.71372018  0.09057480  0.58731925  1
  N  N71  1  0.21372018  0.90942520  0.91268075  1
  N  N72  1  0.60215381  0.65915305  0.46655934  1
  N  N73  1  0.10215381  0.34084695  0.03344066  1
  N  N74  1  0.39784619  0.34084695  0.53344066  1
  N  N75  1  0.89784619  0.65915305  0.96655934  1
