# generated using pymatgen
data_Ca(GaS2)2
_symmetry_space_group_name_H-M   'P 1'
_cell_length_a   6.92810161
_cell_length_b   7.32255769
_cell_length_c   27.40971537
_cell_angle_alpha   90.00000000
_cell_angle_beta   90.00000000
_cell_angle_gamma   109.34736874
_symmetry_Int_Tables_number   1
_chemical_formula_structural   Ca(GaS2)2
_chemical_formula_sum   'Ca8 Ga16 S32'
_cell_volume   1312.00679288
_cell_formula_units_Z   8
loop_
 _symmetry_equiv_pos_site_id
 _symmetry_equiv_pos_as_xyz
  1  'x, y, z'
loop_
 _atom_site_type_symbol
 _atom_site_label
 _atom_site_symmetry_multiplicity
 _atom_site_fract_x
 _atom_site_fract_y
 _atom_site_fract_z
 _atom_site_occupancy
  Ca  Ca0  1  0.94222737  0.32678536  0.57079458  1
  Ca  Ca1  1  0.55777263  0.67321464  0.07079458  1
  Ca  Ca2  1  0.05777263  0.67321464  0.42920542  1
  Ca  Ca3  1  0.44222737  0.32678536  0.92920542  1
  Ca  Ca4  1  0.40293965  0.95615988  0.69313593  1
  Ca  Ca5  1  0.09706035  0.04384012  0.19313593  1
  Ca  Ca6  1  0.59706035  0.04384012  0.30686407  1
  Ca  Ca7  1  0.90293965  0.95615988  0.80686407  1
  Ga  Ga8  1  0.08239566  0.45022287  0.73426294  1
  Ga  Ga9  1  0.41760434  0.54977713  0.23426294  1
  Ga  Ga10  1  0.91760434  0.54977713  0.26573706  1
  Ga  Ga11  1  0.58239566  0.45022287  0.76573706  1
  Ga  Ga12  1  0.86833805  0.70961228  0.65014272  1
  Ga  Ga13  1  0.63166195  0.29038772  0.15014272  1
  Ga  Ga14  1  0.13166195  0.29038772  0.34985728  1
  Ga  Ga15  1  0.36833805  0.70961228  0.84985728  1
  Ga  Ga16  1  0.55264681  0.72919201  0.55222839  1
  Ga  Ga17  1  0.94735319  0.27080799  0.05222839  1
  Ga  Ga18  1  0.44735319  0.27080799  0.44777161  1
  Ga  Ga19  1  0.05264681  0.72919201  0.94777161  1
  Ga  Ga20  1  0.26667435  0.98483988  0.56424845  1
  Ga  Ga21  1  0.23332565  0.01516012  0.06424845  1
  Ga  Ga22  1  0.73332565  0.01516012  0.43575155  1
  Ga  Ga23  1  0.76667435  0.98483988  0.93575155  1
  S  S24  1  0.58471023  0.01043310  0.59715701  1
  S  S25  1  0.91528977  0.98956690  0.09715701  1
  S  S26  1  0.41528977  0.98956690  0.40284299  1
  S  S27  1  0.08471023  0.01043310  0.90284299  1
  S  S28  1  0.63585061  0.50902693  0.59900643  1
  S  S29  1  0.86414939  0.49097307  0.09900643  1
  S  S30  1  0.36414939  0.49097307  0.40099357  1
  S  S31  1  0.13585061  0.50902693  0.90099357  1
  S  S32  1  0.25524337  0.24297462  0.75311583  1
  S  S33  1  0.24475663  0.75702538  0.25311583  1
  S  S34  1  0.74475663  0.75702538  0.24688417  1
  S  S35  1  0.75524337  0.24297462  0.74688417  1
  S  S36  1  0.12725436  0.57235934  0.65724720  1
  S  S37  1  0.37274564  0.42764066  0.15724720  1
  S  S38  1  0.87274564  0.42764066  0.34275280  1
  S  S39  1  0.62725436  0.57235934  0.84275280  1
  S  S40  1  0.21692375  0.68604287  0.52930066  1
  S  S41  1  0.28307625  0.31395713  0.02930066  1
  S  S42  1  0.78307625  0.31395713  0.47069934  1
  S  S43  1  0.71692375  0.68604287  0.97069934  1
  S  S44  1  0.19365158  0.73820664  0.77899167  1
  S  S45  1  0.30634842  0.26179336  0.27899167  1
  S  S46  1  0.80634842  0.26179336  0.22100833  1
  S  S47  1  0.69365158  0.73820664  0.72100833  1
  S  S48  1  0.76422213  0.78381516  0.48617370  1
  S  S49  1  0.73577787  0.21618484  0.98617370  1
  S  S50  1  0.23577787  0.21618484  0.51382630  1
  S  S51  1  0.26422213  0.78381516  0.01382630  1
  S  S52  1  0.07162660  0.02078130  0.62993723  1
  S  S53  1  0.42837340  0.97921870  0.12993723  1
  S  S54  1  0.92837340  0.97921870  0.37006277  1
  S  S55  1  0.57162660  0.02078130  0.87006277  1
