# generated using pymatgen
data_B5H5CI
_symmetry_space_group_name_H-M   'P 1'
_cell_length_a   7.53074963
_cell_length_b   7.98200884
_cell_length_c   26.35874492
_cell_angle_alpha   90.00000000
_cell_angle_beta   90.00000000
_cell_angle_gamma   95.52087820
_symmetry_Int_Tables_number   1
_chemical_formula_structural   B5H5CI
_chemical_formula_sum   'B40 H40 C8 I8'
_cell_volume   1577.08772467
_cell_formula_units_Z   8
loop_
 _symmetry_equiv_pos_site_id
 _symmetry_equiv_pos_as_xyz
  1  'x, y, z'
loop_
 _atom_site_type_symbol
 _atom_site_label
 _atom_site_symmetry_multiplicity
 _atom_site_fract_x
 _atom_site_fract_y
 _atom_site_fract_z
 _atom_site_occupancy
  B  B0  1  0.16137822  0.80549087  0.58262581  1
  B  B1  1  0.83862178  0.69450913  0.08262581  1
  B  B2  1  0.83862178  0.19450913  0.41737419  1
  B  B3  1  0.16137822  0.30549087  0.91737419  1
  B  B4  1  0.23550235  0.01306863  0.60344427  1
  B  B5  1  0.76449765  0.48693137  0.10344427  1
  B  B6  1  0.76449765  0.98693137  0.39655573  1
  B  B7  1  0.23550235  0.51306863  0.89655573  1
  B  B8  1  0.35558418  0.99814110  0.66134179  1
  B  B9  1  0.64441582  0.50185890  0.16134179  1
  B  B10  1  0.64441582  0.00185890  0.33865821  1
  B  B11  1  0.35558418  0.49814110  0.83865821  1
  B  B12  1  0.35605300  0.78107089  0.67713908  1
  B  B13  1  0.64394700  0.71892911  0.17713908  1
  B  B14  1  0.64394700  0.21892911  0.32286092  1
  B  B15  1  0.35605300  0.28107089  0.82286092  1
  B  B16  1  0.01131217  0.71362896  0.62925738  1
  B  B17  1  0.98868783  0.78637104  0.12925738  1
  B  B18  1  0.98868783  0.28637104  0.37074262  1
  B  B19  1  0.01131217  0.21362896  0.87074262  1
  B  B20  1  0.01079671  0.93018791  0.61356356  1
  B  B21  1  0.98920329  0.56981209  0.11356356  1
  B  B22  1  0.98920329  0.06981209  0.38643644  1
  B  B23  1  0.01079671  0.43018791  0.88643644  1
  B  B24  1  0.13074454  0.04952744  0.66239359  1
  B  B25  1  0.86925546  0.45047256  0.16239359  1
  B  B26  1  0.86925546  0.95047256  0.33760641  1
  B  B27  1  0.13074454  0.54952744  0.83760641  1
  B  B28  1  0.20647173  0.90390002  0.70744365  1
  B  B29  1  0.79352827  0.59609998  0.20744365  1
  B  B30  1  0.79352827  0.09609998  0.29255635  1
  B  B31  1  0.20647173  0.40390002  0.79255635  1
  B  B32  1  0.13053059  0.69897721  0.68674252  1
  B  B33  1  0.86946941  0.80102279  0.18674252  1
  B  B34  1  0.86946941  0.30102279  0.31325748  1
  B  B35  1  0.13053059  0.19897721  0.81325748  1
  B  B36  1  0.99214286  0.86424895  0.67842945  1
  B  B37  1  0.00785714  0.63575105  0.17842945  1
  B  B38  1  0.00785714  0.13575105  0.32157055  1
  B  B39  1  0.99214286  0.36424895  0.82157055  1
  H  H40  1  0.47894031  0.83051326  0.59378205  1
  H  H41  1  0.52105969  0.66948674  0.09378205  1
  H  H42  1  0.52105969  0.16948674  0.40621795  1
  H  H43  1  0.47894031  0.33051326  0.90621795  1
  H  H44  1  0.27664571  0.55967332  0.61741550  1
  H  H45  1  0.72335429  0.94032668  0.11741550  1
  H  H46  1  0.72335429  0.44032668  0.38258450  1
  H  H47  1  0.27664571  0.05967332  0.88258450  1
  H  H48  1  0.16786616  0.75733139  0.54013145  1
  H  H49  1  0.83213384  0.74266861  0.04013145  1
  H  H50  1  0.83213384  0.24266861  0.45986855  1
  H  H51  1  0.16786616  0.25733139  0.95986855  1
  H  H52  1  0.48691565  0.08935824  0.66903415  1
  H  H53  1  0.51308435  0.41064176  0.16903415  1
  H  H54  1  0.51308435  0.91064176  0.33096585  1
  H  H55  1  0.48691565  0.58935824  0.83096585  1
  H  H56  1  0.48178184  0.71909775  0.69300184  1
  H  H57  1  0.51821816  0.78090225  0.19300184  1
  H  H58  1  0.51821816  0.28090225  0.30699816  1
  H  H59  1  0.48178184  0.21909775  0.80699816  1
  H  H60  1  0.89257487  0.98109084  0.58987104  1
  H  H61  1  0.10742513  0.51890916  0.08987104  1
  H  H62  1  0.10742513  0.01890916  0.41012896  1
  H  H63  1  0.89257487  0.48109084  0.91012896  1
  H  H64  1  0.09450668  0.18703434  0.67346515  1
  H  H65  1  0.90549332  0.31296566  0.17346515  1
  H  H66  1  0.90549332  0.81296566  0.32653485  1
  H  H67  1  0.09450668  0.68703434  0.82653485  1
  H  H68  1  0.23015429  0.92995854  0.75128714  1
  H  H69  1  0.76984571  0.57004146  0.25128714  1
  H  H70  1  0.76984571  0.07004146  0.24871286  1
  H  H71  1  0.23015429  0.42995854  0.74871286  1
  H  H72  1  0.10054211  0.57785782  0.71200718  1
  H  H73  1  0.89945789  0.92214218  0.21200718  1
  H  H74  1  0.89945789  0.42214218  0.28799282  1
  H  H75  1  0.10054211  0.07785782  0.78799282  1
  H  H76  1  0.85795714  0.86739390  0.70221817  1
  H  H77  1  0.14204286  0.63260610  0.20221817  1
  H  H78  1  0.14204286  0.13260610  0.29778183  1
  H  H79  1  0.85795714  0.36739390  0.79778183  1
  C  C80  1  0.35851220  0.84906477  0.61524362  1
  C  C81  1  0.64148780  0.65093523  0.11524362  1
  C  C82  1  0.64148780  0.15093523  0.38475638  1
  C  C83  1  0.35851220  0.34906477  0.88475638  1
  C  C84  1  0.23135067  0.67939768  0.62994503  1
  C  C85  1  0.76864933  0.82060232  0.12994503  1
  C  C86  1  0.76864933  0.32060232  0.37005497  1
  C  C87  1  0.23135067  0.17939768  0.87005497  1
  I  I88  1  0.31713440  0.19993263  0.54577128  1
  I  I89  1  0.68286560  0.30006737  0.04577128  1
  I  I90  1  0.68286560  0.80006737  0.45422872  1
  I  I91  1  0.31713440  0.69993263  0.95422872  1
  I  I92  1  0.81387173  0.51214951  0.60554839  1
  I  I93  1  0.18612827  0.98785049  0.10554839  1
  I  I94  1  0.18612827  0.48785049  0.39445161  1
  I  I95  1  0.81387173  0.01214951  0.89445161  1
