# generated using pymatgen
data_Na2H4WO6
_symmetry_space_group_name_H-M   'P 1'
_cell_length_a   8.68538624
_cell_length_b   10.83210534
_cell_length_c   13.83891177
_cell_angle_alpha   90.00000000
_cell_angle_beta   90.00000000
_cell_angle_gamma   90.00000000
_symmetry_Int_Tables_number   1
_chemical_formula_structural   Na2H4WO6
_chemical_formula_sum   'Na16 H32 W8 O48'
_cell_volume   1301.97891661
_cell_formula_units_Z   8
loop_
 _symmetry_equiv_pos_site_id
 _symmetry_equiv_pos_as_xyz
  1  'x, y, z'
loop_
 _atom_site_type_symbol
 _atom_site_label
 _atom_site_symmetry_multiplicity
 _atom_site_fract_x
 _atom_site_fract_y
 _atom_site_fract_z
 _atom_site_occupancy
  Na  Na0  1  0.84510425  0.49570934  0.91290839  1
  Na  Na1  1  0.34510425  0.00429066  0.08709161  1
  Na  Na2  1  0.15489575  0.99570934  0.58709161  1
  Na  Na3  1  0.65489575  0.50429066  0.41290839  1
  Na  Na4  1  0.15489575  0.50429066  0.08709161  1
  Na  Na5  1  0.65489575  0.99570934  0.91290839  1
  Na  Na6  1  0.84510425  0.00429066  0.41290839  1
  Na  Na7  1  0.34510425  0.49570934  0.58709161  1
  Na  Na8  1  0.24206216  0.55340056  0.85207803  1
  Na  Na9  1  0.74206216  0.94659944  0.14792197  1
  Na  Na10  1  0.75793784  0.05340056  0.64792197  1
  Na  Na11  1  0.25793784  0.44659944  0.35207803  1
  Na  Na12  1  0.75793784  0.44659944  0.14792197  1
  Na  Na13  1  0.25793784  0.05340056  0.85207803  1
  Na  Na14  1  0.24206216  0.94659944  0.35207803  1
  Na  Na15  1  0.74206216  0.55340056  0.64792197  1
  H  H16  1  0.06475533  0.32972115  0.83559518  1
  H  H17  1  0.56475533  0.17027885  0.16440482  1
  H  H18  1  0.93524467  0.82972115  0.66440482  1
  H  H19  1  0.43524467  0.67027885  0.33559518  1
  H  H20  1  0.93524467  0.67027885  0.16440482  1
  H  H21  1  0.43524467  0.82972115  0.83559518  1
  H  H22  1  0.06475533  0.17027885  0.33559518  1
  H  H23  1  0.56475533  0.32972115  0.66440482  1
  H  H24  1  0.06905177  0.39220939  0.73381752  1
  H  H25  1  0.56905177  0.10779061  0.26618248  1
  H  H26  1  0.93094823  0.89220939  0.76618248  1
  H  H27  1  0.43094823  0.60779061  0.23381752  1
  H  H28  1  0.93094823  0.60779061  0.26618248  1
  H  H29  1  0.43094823  0.89220939  0.73381752  1
  H  H30  1  0.06905177  0.10779061  0.23381752  1
  H  H31  1  0.56905177  0.39220939  0.76618248  1
  H  H32  1  0.61932156  0.64880135  0.82829613  1
  H  H33  1  0.11932156  0.85119865  0.17170387  1
  H  H34  1  0.38067844  0.14880135  0.67170387  1
  H  H35  1  0.88067844  0.35119865  0.32829613  1
  H  H36  1  0.38067844  0.35119865  0.17170387  1
  H  H37  1  0.88067844  0.14880135  0.82829613  1
  H  H38  1  0.61932156  0.85119865  0.32829613  1
  H  H39  1  0.11932156  0.64880135  0.67170387  1
  H  H40  1  0.77536342  0.71834533  0.82362894  1
  H  H41  1  0.27536342  0.78165467  0.17637106  1
  H  H42  1  0.22463658  0.21834533  0.67637106  1
  H  H43  1  0.72463658  0.28165467  0.32362894  1
  H  H44  1  0.22463658  0.28165467  0.17637106  1
  H  H45  1  0.72463658  0.21834533  0.82362894  1
  H  H46  1  0.77536342  0.78165467  0.32362894  1
  H  H47  1  0.27536342  0.71834533  0.67637106  1
  W  W48  1  0.01357993  0.80137747  0.97551711  1
  W  W49  1  0.51357993  0.69862253  0.02448289  1
  W  W50  1  0.98642007  0.30137747  0.52448289  1
  W  W51  1  0.48642007  0.19862253  0.47551711  1
  W  W52  1  0.98642007  0.19862253  0.02448289  1
  W  W53  1  0.48642007  0.30137747  0.97551711  1
  W  W54  1  0.01357993  0.69862253  0.47551711  1
  W  W55  1  0.51357993  0.80137747  0.52448289  1
  O  O56  1  0.94890587  0.82140761  0.10025569  1
  O  O57  1  0.44890587  0.67859239  0.89974431  1
  O  O58  1  0.05109413  0.32140761  0.39974431  1
  O  O59  1  0.55109413  0.17859239  0.60025569  1
  O  O60  1  0.05109413  0.17859239  0.89974431  1
  O  O61  1  0.55109413  0.32140761  0.10025569  1
  O  O62  1  0.94890587  0.67859239  0.60025569  1
  O  O63  1  0.44890587  0.82140761  0.39974431  1
  O  O64  1  0.05878650  0.63909571  0.95771128  1
  O  O65  1  0.55878650  0.86090429  0.04228872  1
  O  O66  1  0.94121350  0.13909571  0.54228872  1
  O  O67  1  0.44121350  0.36090429  0.45771128  1
  O  O68  1  0.94121350  0.36090429  0.04228872  1
  O  O69  1  0.44121350  0.13909571  0.95771128  1
  O  O70  1  0.05878650  0.86090429  0.45771128  1
  O  O71  1  0.55878650  0.63909571  0.54228872  1
  O  O72  1  0.18423338  0.89414547  0.96035432  1
  O  O73  1  0.68423338  0.60585453  0.03964568  1
  O  O74  1  0.81576662  0.39414547  0.53964568  1
  O  O75  1  0.31576662  0.10585453  0.46035432  1
  O  O76  1  0.81576662  0.10585453  0.03964568  1
  O  O77  1  0.31576662  0.39414547  0.96035432  1
  O  O78  1  0.18423338  0.60585453  0.46035432  1
  O  O79  1  0.68423338  0.89414547  0.53964568  1
  O  O80  1  0.86883745  0.84799520  0.88613159  1
  O  O81  1  0.36883745  0.65200480  0.11386841  1
  O  O82  1  0.13116255  0.34799520  0.61386841  1
  O  O83  1  0.63116255  0.15200480  0.38613159  1
  O  O84  1  0.13116255  0.15200480  0.11386841  1
  O  O85  1  0.63116255  0.34799520  0.88613159  1
  O  O86  1  0.86883745  0.65200480  0.38613159  1
  O  O87  1  0.36883745  0.84799520  0.61386841  1
  O  O88  1  0.04717765  0.40980246  0.80274898  1
  O  O89  1  0.54717765  0.09019754  0.19725102  1
  O  O90  1  0.95282235  0.90980246  0.69725102  1
  O  O91  1  0.45282235  0.59019754  0.30274898  1
  O  O92  1  0.95282235  0.59019754  0.19725102  1
  O  O93  1  0.45282235  0.90980246  0.80274898  1
  O  O94  1  0.04717765  0.09019754  0.30274898  1
  O  O95  1  0.54717765  0.40980246  0.69725102  1
  O  O96  1  0.72489966  0.64128885  0.80148631  1
  O  O97  1  0.22489966  0.85871115  0.19851369  1
  O  O98  1  0.27510034  0.14128885  0.69851369  1
  O  O99  1  0.77510034  0.35871115  0.30148631  1
  O  O100  1  0.27510034  0.35871115  0.19851369  1
  O  O101  1  0.77510034  0.14128885  0.80148631  1
  O  O102  1  0.72489966  0.85871115  0.30148631  1
  O  O103  1  0.22489966  0.64128885  0.69851369  1
