# generated using pymatgen
data_Ca5P3O13
_symmetry_space_group_name_H-M   'P 1'
_cell_length_a   6.92779671
_cell_length_b   9.53049540
_cell_length_c   16.51408040
_cell_angle_alpha   90.00710657
_cell_angle_beta   90.00000000
_cell_angle_gamma   90.00000000
_symmetry_Int_Tables_number   1
_chemical_formula_structural   Ca5P3O13
_chemical_formula_sum   'Ca20 P12 O52'
_cell_volume   1090.34767699
_cell_formula_units_Z   4
loop_
 _symmetry_equiv_pos_site_id
 _symmetry_equiv_pos_as_xyz
  1  'x, y, z'
loop_
 _atom_site_type_symbol
 _atom_site_label
 _atom_site_symmetry_multiplicity
 _atom_site_fract_x
 _atom_site_fract_y
 _atom_site_fract_z
 _atom_site_occupancy
  Ca  Ca0  1  0.49697514  0.25448198  0.08719401  1
  Ca  Ca1  1  0.99697514  0.24551802  0.41280599  1
  Ca  Ca2  1  0.50302486  0.74551802  0.91280599  1
  Ca  Ca3  1  0.00302486  0.75448198  0.58719401  1
  Ca  Ca4  1  0.00025666  0.24414617  0.07934105  1
  Ca  Ca5  1  0.50025666  0.25585383  0.42065895  1
  Ca  Ca6  1  0.99974334  0.75585383  0.92065895  1
  Ca  Ca7  1  0.49974334  0.74414617  0.57934105  1
  Ca  Ca8  1  0.25518562  0.49846810  0.74812503  1
  Ca  Ca9  1  0.75518562  0.00153190  0.75187497  1
  Ca  Ca10  1  0.74481438  0.50153190  0.25187497  1
  Ca  Ca11  1  0.24481438  0.99846810  0.24812503  1
  Ca  Ca12  1  0.74047272  0.87130189  0.12562850  1
  Ca  Ca13  1  0.24047272  0.62869811  0.37437150  1
  Ca  Ca14  1  0.25952728  0.12869811  0.87437150  1
  Ca  Ca15  1  0.75952728  0.37130189  0.62562850  1
  Ca  Ca16  1  0.75748663  0.37813052  0.87351188  1
  Ca  Ca17  1  0.25748663  0.12186948  0.62648812  1
  Ca  Ca18  1  0.24251337  0.62186948  0.12648812  1
  Ca  Ca19  1  0.74251337  0.87813052  0.37351188  1
  P  P20  1  0.25473967  0.46489569  0.93419541  1
  P  P21  1  0.75473967  0.03510431  0.56580459  1
  P  P22  1  0.74526033  0.53510431  0.06580459  1
  P  P23  1  0.24526033  0.96489569  0.43419541  1
  P  P24  1  0.25521177  0.86738865  0.76449890  1
  P  P25  1  0.75521177  0.63261135  0.73550110  1
  P  P26  1  0.74478823  0.13261135  0.23550110  1
  P  P27  1  0.24478823  0.36738865  0.26449890  1
  P  P28  1  0.75280257  0.07949044  0.94910878  1
  P  P29  1  0.25280257  0.42050956  0.55089122  1
  P  P30  1  0.24719743  0.92050956  0.05089122  1
  P  P31  1  0.74719743  0.57949044  0.44910878  1
  O  O32  1  0.26036466  0.33740042  0.99226042  1
  O  O33  1  0.76036466  0.16259958  0.50773958  1
  O  O34  1  0.73963534  0.66259958  0.00773958  1
  O  O35  1  0.23963534  0.83740042  0.49226042  1
  O  O36  1  0.75848342  0.65675211  0.82845304  1
  O  O37  1  0.25848342  0.84324789  0.67154696  1
  O  O38  1  0.24151658  0.34324789  0.17154696  1
  O  O39  1  0.74151658  0.15675211  0.32845304  1
  O  O40  1  0.24616732  0.07145006  0.08611425  1
  O  O41  1  0.74616732  0.42854994  0.41388575  1
  O  O42  1  0.75383268  0.92854994  0.91388575  1
  O  O43  1  0.25383268  0.57145006  0.58611425  1
  O  O44  1  0.23860763  0.60559065  0.98235896  1
  O  O45  1  0.73860763  0.89440935  0.51764104  1
  O  O46  1  0.76139237  0.39440935  0.01764104  1
  O  O47  1  0.26139237  0.10559065  0.48235896  1
  O  O48  1  0.24540223  0.72530262  0.81133189  1
  O  O49  1  0.74540223  0.77469738  0.68866811  1
  O  O50  1  0.75459777  0.27469738  0.18866811  1
  O  O51  1  0.25459777  0.22530262  0.31133189  1
  O  O52  1  0.72757369  0.07808122  0.04308862  1
  O  O53  1  0.22757369  0.42191878  0.45691138  1
  O  O54  1  0.27242631  0.92191878  0.95691138  1
  O  O55  1  0.77242631  0.57808122  0.54308862  1
  O  O56  1  0.44040053  0.47473594  0.88148821  1
  O  O57  1  0.94040053  0.02526406  0.61851179  1
  O  O58  1  0.55959947  0.52526406  0.11851179  1
  O  O59  1  0.05959947  0.97473594  0.38148821  1
  O  O60  1  0.43866351  0.94606862  0.79337131  1
  O  O61  1  0.93866351  0.55393138  0.70662869  1
  O  O62  1  0.56133649  0.05393138  0.20662869  1
  O  O63  1  0.06133649  0.44606862  0.29337131  1
  O  O64  1  0.94521732  0.15785839  0.93171379  1
  O  O65  1  0.44521732  0.34214161  0.56828621  1
  O  O66  1  0.05478268  0.84214161  0.06828621  1
  O  O67  1  0.55478268  0.65785839  0.43171379  1
  O  O68  1  0.08038891  0.45437637  0.87541999  1
  O  O69  1  0.58038891  0.04562363  0.62458001  1
  O  O70  1  0.91961109  0.54562363  0.12458001  1
  O  O71  1  0.41961109  0.95437637  0.37541999  1
  O  O72  1  0.07823261  0.95712818  0.79042090  1
  O  O73  1  0.57823261  0.54287182  0.70957910  1
  O  O74  1  0.92176739  0.04287182  0.20957910  1
  O  O75  1  0.42176739  0.45712818  0.29042090  1
  O  O76  1  0.58607937  0.16651155  0.91126169  1
  O  O77  1  0.08607937  0.33348845  0.58873831  1
  O  O78  1  0.41392063  0.83348845  0.08873831  1
  O  O79  1  0.91392063  0.66651155  0.41126169  1
  O  O80  1  0.28766668  0.25091144  0.74887431  1
  O  O81  1  0.78766668  0.24908856  0.75112569  1
  O  O82  1  0.71233332  0.74908856  0.25112569  1
  O  O83  1  0.21233332  0.75091144  0.24887431  1
