# generated using pymatgen
data_WO3
_symmetry_space_group_name_H-M   'P 1'
_cell_length_a   7.56825188
_cell_length_b   7.63472200
_cell_length_c   7.70725849
_cell_angle_alpha   90.00000000
_cell_angle_beta   90.68557652
_cell_angle_gamma   90.00000000
_symmetry_Int_Tables_number   1
_chemical_formula_structural   WO3
_chemical_formula_sum   'W8 O24'
_cell_volume   445.30506940
_cell_formula_units_Z   8
loop_
 _symmetry_equiv_pos_site_id
 _symmetry_equiv_pos_as_xyz
  1  'x, y, z'
loop_
 _atom_site_type_symbol
 _atom_site_label
 _atom_site_symmetry_multiplicity
 _atom_site_fract_x
 _atom_site_fract_y
 _atom_site_fract_z
 _atom_site_occupancy
  W  W0  1  0.24725835  0.51464952  0.23190003  1
  W  W1  1  0.74725835  0.98535048  0.73190003  1
  W  W2  1  0.75274165  0.48535048  0.76809997  1
  W  W3  1  0.25274165  0.01464952  0.26809997  1
  W  W4  1  0.25274960  0.51701666  0.73297935  1
  W  W5  1  0.75274960  0.98298334  0.23297935  1
  W  W6  1  0.74725040  0.48298334  0.26702065  1
  W  W7  1  0.24725040  0.01701666  0.76702065  1
  O  O8  1  0.50069219  0.53387304  0.28191253  1
  O  O9  1  0.00069219  0.96612696  0.78191253  1
  O  O10  1  0.49930781  0.46612696  0.71808747  1
  O  O11  1  0.99930781  0.03387304  0.21808747  1
  O  O12  1  0.50005764  0.96438257  0.28093887  1
  O  O13  1  0.00005764  0.53561743  0.78093887  1
  O  O14  1  0.49994236  0.03561743  0.71906113  1
  O  O15  1  -0.00005764  0.46438257  0.21906113  1
  O  O16  1  0.21773207  0.75677573  0.22187727  1
  O  O17  1  0.71773207  0.74322427  0.72187727  1
  O  O18  1  0.78226793  0.24322427  0.77812273  1
  O  O19  1  0.28226793  0.25677573  0.27812273  1
  O  O20  1  0.28779638  0.75721122  0.76766873  1
  O  O21  1  0.78779638  0.74278878  0.26766873  1
  O  O22  1  0.71220362  0.24278878  0.23233127  1
  O  O23  1  0.21220362  0.25721122  0.73233127  1
  O  O24  1  0.21789360  0.53320931  0.49581199  1
  O  O25  1  0.71789360  0.96679069  0.99581199  1
  O  O26  1  0.78210640  0.46679069  0.50418801  1
  O  O27  1  0.28210640  0.03320931  0.00418801  1
  O  O28  1  0.21776589  0.98685706  0.50339866  1
  O  O29  1  0.71776589  0.51314294  0.00339866  1
  O  O30  1  0.78223411  0.01314294  0.49660134  1
  O  O31  1  0.28223411  0.48685706  0.99660134  1
