# generated using pymatgen
data_K2SnH2Cl4O
_symmetry_space_group_name_H-M   'P 1'
_cell_length_a   8.37411078
_cell_length_b   9.27835851
_cell_length_c   12.17434847
_cell_angle_alpha   90.00000000
_cell_angle_beta   90.00000000
_cell_angle_gamma   90.00000000
_symmetry_Int_Tables_number   1
_chemical_formula_structural   K2SnH2Cl4O
_chemical_formula_sum   'K8 Sn4 H8 Cl16 O4'
_cell_volume   945.92255201
_cell_formula_units_Z   4
loop_
 _symmetry_equiv_pos_site_id
 _symmetry_equiv_pos_as_xyz
  1  'x, y, z'
loop_
 _atom_site_type_symbol
 _atom_site_label
 _atom_site_symmetry_multiplicity
 _atom_site_fract_x
 _atom_site_fract_y
 _atom_site_fract_z
 _atom_site_occupancy
  K  K0  1  0.86987093  0.51757712  0.68429032  1
  K  K1  1  0.63012907  0.98242288  0.18429032  1
  K  K2  1  0.13012907  0.01757712  0.31570968  1
  K  K3  1  0.36987093  0.48242288  0.81570968  1
  K  K4  1  0.13012907  0.48242288  0.31570968  1
  K  K5  1  0.36987093  0.01757712  0.81570968  1
  K  K6  1  0.86987093  0.98242288  0.68429032  1
  K  K7  1  0.63012907  0.51757712  0.18429032  1
  Sn  Sn8  1  0.49174291  0.25000000  0.48999592  1
  Sn  Sn9  1  0.00825709  0.25000000  0.98999592  1
  Sn  Sn10  1  0.50825709  0.75000000  0.51000408  1
  Sn  Sn11  1  0.99174291  0.75000000  0.01000408  1
  H  H12  1  0.92259762  0.75000000  0.45993297  1
  H  H13  1  0.57740238  0.75000000  0.95993297  1
  H  H14  1  0.07740238  0.25000000  0.54006703  1
  H  H15  1  0.42259762  0.25000000  0.04006703  1
  H  H16  1  0.06252594  0.75000000  0.54455592  1
  H  H17  1  0.43747406  0.75000000  0.04455592  1
  H  H18  1  0.93747406  0.25000000  0.45544408  1
  H  H19  1  0.56252594  0.25000000  0.95544408  1
  Cl  Cl20  1  0.60598469  0.25000000  0.69281840  1
  Cl  Cl21  1  0.89401531  0.25000000  0.19281840  1
  Cl  Cl22  1  0.39401531  0.75000000  0.30718160  1
  Cl  Cl23  1  0.10598469  0.75000000  0.80718160  1
  Cl  Cl24  1  0.70567097  0.44673851  0.44281792  1
  Cl  Cl25  1  0.79432903  0.05326149  0.94281792  1
  Cl  Cl26  1  0.29432903  0.94673851  0.55718208  1
  Cl  Cl27  1  0.20567097  0.55326149  0.05718208  1
  Cl  Cl28  1  0.29432903  0.55326149  0.55718208  1
  Cl  Cl29  1  0.20567097  0.94673851  0.05718208  1
  Cl  Cl30  1  0.70567097  0.05326149  0.44281792  1
  Cl  Cl31  1  0.79432903  0.44673851  0.94281792  1
  Cl  Cl32  1  0.60100866  0.75000000  0.76500755  1
  Cl  Cl33  1  0.89899134  0.75000000  0.26500755  1
  Cl  Cl34  1  0.39899134  0.25000000  0.23499245  1
  Cl  Cl35  1  0.10100866  0.25000000  0.73499245  1
  O  O36  1  0.94604951  0.75000000  0.53942098  1
  O  O37  1  0.55395049  0.75000000  0.03942098  1
  O  O38  1  0.05395049  0.25000000  0.46057902  1
  O  O39  1  0.44604951  0.25000000  0.96057902  1
