# generated using pymatgen
data_Li2CuB4(PbO5)2
_symmetry_space_group_name_H-M   'P 1'
_cell_length_a   4.86529035
_cell_length_b   8.89829358
_cell_length_c   11.78209570
_cell_angle_alpha   84.46872463
_cell_angle_beta   78.08445553
_cell_angle_gamma   74.13430541
_symmetry_Int_Tables_number   1
_chemical_formula_structural   Li2CuB4(PbO5)2
_chemical_formula_sum   'Li4 Cu2 B8 Pb4 O20'
_cell_volume   479.64376068
_cell_formula_units_Z   2
loop_
 _symmetry_equiv_pos_site_id
 _symmetry_equiv_pos_as_xyz
  1  'x, y, z'
loop_
 _atom_site_type_symbol
 _atom_site_label
 _atom_site_symmetry_multiplicity
 _atom_site_fract_x
 _atom_site_fract_y
 _atom_site_fract_z
 _atom_site_occupancy
  Li  Li0  1  0.12427517  0.73622925  0.63621847  1
  Li  Li1  1  0.49672289  0.76377075  0.86378153  1
  Li  Li2  1  0.87572483  0.26377075  0.36378153  1
  Li  Li3  1  0.50327711  0.23622925  0.13621847  1
  Cu  Cu4  1  0.00000000  -0.00000000  0.50000000  1
  Cu  Cu5  1  0.50000000  0.50000000  0.00000000  1
  B  B6  1  0.03632268  0.48607901  0.81949792  1
  B  B7  1  0.34189961  0.01392099  0.68050208  1
  B  B8  1  0.96367732  0.51392099  0.18050208  1
  B  B9  1  0.65810039  0.98607901  0.31949792  1
  B  B10  1  0.08333952  0.27179887  0.97881790  1
  B  B11  1  0.33395629  0.22820113  0.52118210  1
  B  B12  1  0.91666048  0.72820113  0.02118210  1
  B  B13  1  0.66604371  0.77179887  0.47881790  1
  Pb  Pb14  1  0.64741783  0.42517900  0.63858185  1
  Pb  Pb15  1  0.71117868  0.07482100  0.86141815  1
  Pb  Pb16  1  0.35258217  0.57482100  0.36141815  1
  Pb  Pb17  1  0.28882132  0.92517900  0.13858185  1
  O  O18  1  0.18032154  0.53792884  0.71772316  1
  O  O19  1  0.43597354  0.96207116  0.78227684  1
  O  O20  1  0.81967846  0.46207116  0.28227684  1
  O  O21  1  0.56402646  0.03792884  0.21772316  1
  O  O22  1  0.15364318  0.94762759  0.64423220  1
  O  O23  1  0.74550297  0.55237241  0.85576780  1
  O  O24  1  0.84635682  0.05237241  0.35576780  1
  O  O25  1  0.25449703  0.44762759  0.14423220  1
  O  O26  1  0.86765891  0.80466763  0.52904589  1
  O  O27  1  0.20137242  0.69533237  0.97095411  1
  O  O28  1  0.13234109  0.19533237  0.47095411  1
  O  O29  1  0.79862758  0.30466763  0.02904589  1
  O  O30  1  0.19529035  0.35683316  0.88027382  1
  O  O31  1  0.43239733  0.14316684  0.61972618  1
  O  O32  1  0.80470965  0.64316684  0.11972618  1
  O  O33  1  0.56760267  0.85683316  0.38027382  1
  O  O34  1  0.54387301  0.64686888  0.51503928  1
  O  O35  1  0.70578117  0.85313112  0.98496072  1
  O  O36  1  0.45612699  0.35313112  0.48496072  1
  O  O37  1  0.29421883  0.14686888  0.01503928  1
