# generated using pymatgen
data_Na4NpH7O9
_symmetry_space_group_name_H-M   'P 1'
_cell_length_a   6.04197361
_cell_length_b   8.17238669
_cell_length_c   10.99852101
_cell_angle_alpha   104.19244048
_cell_angle_beta   101.63804891
_cell_angle_gamma   105.89459859
_symmetry_Int_Tables_number   1
_chemical_formula_structural   Na4NpH7O9
_chemical_formula_sum   'Na8 Np2 H14 O18'
_cell_volume   484.86164077
_cell_formula_units_Z   2
loop_
 _symmetry_equiv_pos_site_id
 _symmetry_equiv_pos_as_xyz
  1  'x, y, z'
loop_
 _atom_site_type_symbol
 _atom_site_label
 _atom_site_symmetry_multiplicity
 _atom_site_fract_x
 _atom_site_fract_y
 _atom_site_fract_z
 _atom_site_occupancy
  Na  Na0  1  0.79190492  0.53482424  0.58511266  1
  Na  Na1  1  0.20809508  0.46517576  0.41488734  1
  Na  Na2  1  0.94493836  0.66116844  0.92406342  1
  Na  Na3  1  0.05506164  0.33883156  0.07593658  1
  Na  Na4  1  0.47455382  0.27796124  0.90477370  1
  Na  Na5  1  0.52544618  0.72203876  0.09522630  1
  Na  Na6  1  0.39269121  0.14993996  0.57809008  1
  Na  Na7  1  0.60730879  0.85006004  0.42190992  1
  Np  Np8  1  0.36289539  0.58615379  0.75162889  1
  Np  Np9  1  0.63710461  0.41384621  0.24837111  1
  H  H10  1  0.58644541  0.82289171  0.63149905  1
  H  H11  1  0.41355459  0.17710829  0.36850095  1
  H  H12  1  0.07498008  0.36172040  0.85276193  1
  H  H13  1  0.92501992  0.63827960  0.14723807  1
  H  H14  1  0.84269671  0.17472785  0.61775866  1
  H  H15  1  0.15730329  0.82527215  0.38224134  1
  H  H16  1  0.75901477  0.11145320  0.78591063  1
  H  H17  1  0.24098523  0.88854680  0.21408937  1
  H  H18  1  0.71093398  0.01581279  0.89413086  1
  H  H19  1  0.28906602  0.98418721  0.10586914  1
  H  H20  1  0.17741644  0.93074291  0.72971382  1
  H  H21  1  0.82258356  0.06925709  0.27028618  1
  H  H22  1  0.01376316  0.04404294  0.68698067  1
  H  H23  1  0.98623684  0.95595706  0.31301933  1
  O  O24  1  0.14697241  0.72134087  0.75797304  1
  O  O25  1  0.85302759  0.27865913  0.24202696  1
  O  O26  1  0.60805211  0.77419207  0.89534948  1
  O  O27  1  0.39194789  0.22580793  0.10465052  1
  O  O28  1  0.57619305  0.44592349  0.74849976  1
  O  O29  1  0.42380695  0.55407651  0.25150024  1
  O  O30  1  0.11902318  0.39574343  0.60938946  1
  O  O31  1  0.88097682  0.60425657  0.39061054  1
  O  O32  1  0.50918008  0.69188240  0.59690244  1
  O  O33  1  0.49081992  0.30811760  0.40309756  1
  O  O34  1  0.21235036  0.46882692  0.90620819  1
  O  O35  1  0.78764964  0.53117308  0.09379181  1
  O  O36  1  0.75337565  0.06969726  0.63751914  1
  O  O37  1  0.24662435  0.93030274  0.36248086  1
  O  O38  1  0.76029689  0.13524533  0.88276079  1
  O  O39  1  0.23970311  0.86475467  0.11723921  1
  O  O40  1  0.18734107  0.04788692  0.71651474  1
  O  O41  1  0.81265893  0.95211308  0.28348526  1
