# generated using pymatgen
data_RbTa(CuTe2)2
_symmetry_space_group_name_H-M   'P 1'
_cell_length_a   6.10409385
_cell_length_b   8.43954988
_cell_length_c   10.89666703
_cell_angle_alpha   90.00000000
_cell_angle_beta   106.26557089
_cell_angle_gamma   90.00000000
_symmetry_Int_Tables_number   1
_chemical_formula_structural   RbTa(CuTe2)2
_chemical_formula_sum   'Rb2 Ta2 Cu4 Te8'
_cell_volume   538.88182247
_cell_formula_units_Z   2
loop_
 _symmetry_equiv_pos_site_id
 _symmetry_equiv_pos_as_xyz
  1  'x, y, z'
loop_
 _atom_site_type_symbol
 _atom_site_label
 _atom_site_symmetry_multiplicity
 _atom_site_fract_x
 _atom_site_fract_y
 _atom_site_fract_z
 _atom_site_occupancy
  Rb  Rb0  1  0.82103886  0.75000000  0.12700317  1
  Rb  Rb1  1  0.19403570  0.25000000  0.87299683  1
  Ta  Ta2  1  0.35477493  0.75000000  0.70881735  1
  Ta  Ta3  1  0.14595758  0.25000000  0.29118265  1
  Cu  Cu4  1  0.26138640  0.50000000  0.50000000  1
  Cu  Cu5  1  0.26138640  -0.00000000  0.50000000  1
  Cu  Cu6  1  0.85487151  0.75000000  0.71014040  1
  Cu  Cu7  1  0.64473111  0.25000000  0.28985960  1
  Te  Te8  1  0.99776867  0.75000000  0.50126772  1
  Te  Te9  1  0.99650096  0.25000000  0.49873228  1
  Te  Te10  1  0.21090136  0.75000000  0.91610394  1
  Te  Te11  1  0.79479741  0.25000000  0.08389606  1
  Te  Te12  1  0.60506932  0.49314358  0.71121409  1
  Te  Te13  1  0.39385523  0.50685642  0.28878591  1
  Te  Te14  1  0.60506932  0.00685642  0.71121409  1
  Te  Te15  1  0.39385523  0.99314358  0.28878591  1
