# generated using pymatgen
data_HC2N3
_symmetry_space_group_name_H-M   'P 1'
_cell_length_a   8.35539791
_cell_length_b   12.74895885
_cell_length_c   16.91810267
_cell_angle_alpha   89.90978904
_cell_angle_beta   89.99372393
_cell_angle_gamma   90.00059680
_symmetry_Int_Tables_number   1
_chemical_formula_structural   HC2N3
_chemical_formula_sum   'H24 C48 N72'
_cell_volume   1802.15844878
_cell_formula_units_Z   24
loop_
 _symmetry_equiv_pos_site_id
 _symmetry_equiv_pos_as_xyz
  1  'x, y, z'
loop_
 _atom_site_type_symbol
 _atom_site_label
 _atom_site_symmetry_multiplicity
 _atom_site_fract_x
 _atom_site_fract_y
 _atom_site_fract_z
 _atom_site_occupancy
  H  H0  1  0.97500390  0.04931258  0.57810260  1
  H  H1  1  0.96235802  0.17529953  0.62505645  1
  H  H2  1  0.02468748  0.94349274  0.42267093  1
  H  H3  1  0.03753621  0.81763359  0.37608588  1
  H  H4  1  0.96206242  0.38424495  0.61849288  1
  H  H5  1  0.03725687  0.60524602  0.38189708  1
  H  H6  1  0.97447137  0.55437593  0.92035544  1
  H  H7  1  0.96273799  0.68265543  0.87716688  1
  H  H8  1  0.02416182  0.44307375  0.07511730  1
  H  H9  1  0.03749375  0.31820438  0.12366092  1
  H  H10  1  0.96326575  0.88778165  0.88278289  1
  H  H11  1  0.03820873  0.10550264  0.11993284  1
  H  H12  1  0.52499946  0.04935478  0.07812712  1
  H  H13  1  0.53768598  0.17531859  0.12520390  1
  H  H14  1  0.47530930  0.94347128  0.92265866  1
  H  H15  1  0.46244802  0.81762002  0.87602809  1
  H  H16  1  0.53792971  0.38417975  0.11845551  1
  H  H17  1  0.46275469  0.60538664  0.88195619  1
  H  H18  1  0.52551883  0.55439333  0.42037716  1
  H  H19  1  0.53726039  0.68261676  0.37717042  1
  H  H20  1  0.47584108  0.44310603  0.57510607  1
  H  H21  1  0.46251569  0.31830798  0.62366100  1
  H  H22  1  0.46134007  0.10769481  0.62078400  1
  H  H23  1  0.53687565  0.88679783  0.38245386  1
  C  C24  1  0.95697321  0.03467910  0.83779229  1
  C  C25  1  0.97734986  0.16943505  0.92660215  1
  C  C26  1  0.94990138  0.19708129  0.78393477  1
  C  C27  1  0.96365572  0.34697119  0.87117319  1
  C  C28  1  0.94948577  0.36632477  0.73771038  1
  C  C29  1  0.95711364  0.53429797  0.66118377  1
  C  C30  1  0.97756130  0.66986321  0.57293201  1
  C  C31  1  0.94998591  0.86547095  0.76250680  1
  C  C32  1  0.96386961  0.84700941  0.62870801  1
  C  C33  1  0.99996110  0.81894010  0.49595607  1
  C  C34  1  0.99968528  0.17375307  0.50519670  1
  C  C35  1  0.03600379  0.14434817  0.37267277  1
  C  C36  1  0.05052516  0.12509375  0.23933676  1
  C  C37  1  0.02234560  0.32183779  0.42759765  1
  C  C38  1  0.04992675  0.29405820  0.28499212  1
  C  C39  1  0.04279034  0.45633216  0.33867258  1
  C  C40  1  0.05019299  0.62448063  0.26238058  1
  C  C41  1  0.03619767  0.64440839  0.12889902  1
  C  C42  1  0.05017298  0.79382809  0.21673436  1
  C  C43  1  0.02304729  0.82275081  0.07462187  1
  C  C44  1  0.04334438  0.95670597  0.16349804  1
  C  C45  1  0.99984721  0.31776792  0.00359165  1
  C  C46  1  0.95013425  0.69638471  0.71580491  1
  C  C47  1  0.00022936  0.67552790  0.99660413  1
  C  C48  1  0.54297868  0.03437931  0.33797653  1
  C  C49  1  0.52262938  0.16925740  0.42668964  1
  C  C50  1  0.55006251  0.19684008  0.28402508  1
  C  C51  1  0.53634761  0.34682500  0.37117003  1
  C  C52  1  0.55051740  0.36610385  0.23769756  1
  C  C53  1  0.54287902  0.53418748  0.16117191  1
  C  C54  1  0.52242567  0.66978819  0.07287720  1
  C  C55  1  0.55007295  0.86542400  0.26234908  1
  C  C56  1  0.53615905  0.84695952  0.12859985  1
  C  C57  1  0.50002265  0.81889487  0.99588936  1
  C  C58  1  0.50036870  0.17389758  0.00538139  1
  C  C59  1  0.46392765  0.14444446  0.87295660  1
  C  C60  1  0.44930830  0.12515742  0.73976651  1
  C  C61  1  0.47768634  0.32201878  0.92774855  1
  C  C62  1  0.45002685  0.29421229  0.78524770  1
  C  C63  1  0.45722588  0.45658428  0.83870191  1
  C  C64  1  0.44980514  0.62497982  0.76239829  1
  C  C65  1  0.46378517  0.64475770  0.62890756  1
  C  C66  1  0.44989722  0.79436470  0.71656377  1
  C  C67  1  0.47699998  0.82315198  0.57445466  1
  C  C68  1  0.45670488  0.95736014  0.66312897  1
  C  C69  1  0.50015600  0.31775381  0.50357788  1
  C  C70  1  0.54988250  0.69630960  0.21570910  1
  C  C71  1  0.49978466  0.67562340  0.49661652  1
  N  N72  1  0.94531654  0.09423017  0.77278982  1
  N  N73  1  0.97302917  0.06605479  0.91341841  1
  N  N74  1  0.96107336  0.23764060  0.86049244  1
  N  N75  1  0.94617711  0.26206353  0.72204849  1
  N  N76  1  0.98081858  0.38640481  0.94219679  1
  N  N77  1  0.95220032  0.41093644  0.80861708  1
  N  N78  1  0.95318299  0.42646688  0.66989662  1
  N  N79  1  0.94558606  0.59355653  0.72636357  1
  N  N80  1  0.97342277  0.56624095  0.58564900  1
  N  N81  1  0.99824808  0.71155300  0.50159040  1
  N  N82  1  0.96112727  0.73761380  0.63923090  1
  N  N83  1  0.94647075  0.76109406  0.77809814  1
  N  N84  1  0.95362719  0.92664995  0.82986705  1
  N  N85  1  0.95289055  0.91027671  0.69152338  1
  N  N86  1  0.98081458  0.88709794  0.55754620  1
  N  N87  1  0.02281716  0.86278354  0.42585013  1
  N  N88  1  0.97687019  0.12992484  0.57530364  1
  N  N89  1  0.01864971  0.10509382  0.44403905  1
  N  N90  1  0.04754755  0.08028109  0.31041121  1
  N  N91  1  0.04713396  0.06451030  0.17193288  1
  N  N92  1  0.00162512  0.28093915  0.49921946  1
  N  N93  1  0.03865623  0.25358830  0.36172011  1
  N  N94  1  0.05386454  0.22918260  0.22321541  1
  N  N95  1  0.02659511  0.42518854  0.41438321  1
  N  N96  1  0.05445077  0.39697691  0.27377919  1
  N  N97  1  0.04637999  0.56406581  0.33005772  1
  N  N98  1  0.04717410  0.58005073  0.19125210  1
  N  N99  1  0.01897071  0.60572406  0.05720714  1
  N  N100  1  0.05385404  0.72848273  0.27849890  1
  N  N101  1  0.03919926  0.75363229  0.14008810  1
  N  N102  1  0.05465523  0.89661322  0.22825955  1
  N  N103  1  0.02728824  0.92596262  0.08786519  1
  N  N104  1  0.00231493  0.78246228  0.00291770  1
  N  N105  1  0.02264869  0.36236058  0.07335994  1
  N  N106  1  0.99801613  0.21046793  0.99810871  1
  N  N107  1  0.97696095  0.63452718  0.92564459  1
  N  N108  1  0.55462401  0.09397578  0.27296304  1
  N  N109  1  0.52693280  0.06582559  0.41358692  1
  N  N110  1  0.53890393  0.23746094  0.36055506  1
  N  N111  1  0.55381916  0.26181602  0.22210124  1
  N  N112  1  0.51919461  0.38634986  0.44216456  1
  N  N113  1  0.54781049  0.41075199  0.30858935  1
  N  N114  1  0.54681639  0.42631910  0.16989475  1
  N  N115  1  0.55440484  0.59347861  0.22632288  1
  N  N116  1  0.52657088  0.56615898  0.08563306  1
  N  N117  1  0.50173286  0.71149828  0.00153910  1
  N  N118  1  0.53887728  0.73755359  0.13914156  1
  N  N119  1  0.55357159  0.76104302  0.27794741  1
  N  N120  1  0.54639188  0.92636597  0.32981300  1
  N  N121  1  0.54719011  0.91026728  0.19138606  1
  N  N122  1  0.51918374  0.88706305  0.05745925  1
  N  N123  1  0.47716098  0.86276437  0.92580816  1
  N  N124  1  0.52319471  0.12997827  0.07544464  1
  N  N125  1  0.48137192  0.10519134  0.94427932  1
  N  N126  1  0.45225075  0.08026521  0.81076463  1
  N  N127  1  0.45274869  0.06515632  0.67206831  1
  N  N128  1  0.49842695  0.28110114  0.99936844  1
  N  N129  1  0.46132891  0.25371516  0.86195077  1
  N  N130  1  0.44600797  0.22924909  0.72359296  1
  N  N131  1  0.47342505  0.42538327  0.91442355  1
  N  N132  1  0.44556207  0.39711669  0.77387748  1
  N  N133  1  0.45362467  0.56438214  0.83005101  1
  N  N134  1  0.45280988  0.58047261  0.69128848  1
  N  N135  1  0.48101698  0.60589782  0.55725475  1
  N  N136  1  0.44616607  0.72903685  0.77840039  1
  N  N137  1  0.46082283  0.75405936  0.63996270  1
  N  N138  1  0.44544436  0.89720625  0.72788619  1
  N  N139  1  0.47277400  0.92651515  0.58751275  1
  N  N140  1  0.49774090  0.78259499  0.50283827  1
  N  N141  1  0.47735754  0.36239577  0.57333788  1
  N  N142  1  0.50196915  0.21044911  0.49815916  1
  N  N143  1  0.52303521  0.63454513  0.42567844  1
