# generated using pymatgen
data_CoMoH24N6ClO7
_symmetry_space_group_name_H-M   'P 1'
_cell_length_a   8.53797975
_cell_length_b   8.84667180
_cell_length_c   18.69906968
_cell_angle_alpha   90.00000000
_cell_angle_beta   90.00000000
_cell_angle_gamma   90.00000000
_symmetry_Int_Tables_number   1
_chemical_formula_structural   CoMoH24N6ClO7
_chemical_formula_sum   'Co4 Mo4 H96 N24 Cl4 O28'
_cell_volume   1412.39130799
_cell_formula_units_Z   4
loop_
 _symmetry_equiv_pos_site_id
 _symmetry_equiv_pos_as_xyz
  1  'x, y, z'
loop_
 _atom_site_type_symbol
 _atom_site_label
 _atom_site_symmetry_multiplicity
 _atom_site_fract_x
 _atom_site_fract_y
 _atom_site_fract_z
 _atom_site_occupancy
  Co  Co0  1  0.32146537  0.75000000  0.16758385  1
  Co  Co1  1  0.17853463  0.75000000  0.66758385  1
  Co  Co2  1  0.67853463  0.25000000  0.83241615  1
  Co  Co3  1  0.82146537  0.25000000  0.33241615  1
  Mo  Mo4  1  0.10782838  0.75000000  0.40117893  1
  Mo  Mo5  1  0.39217162  0.75000000  0.90117893  1
  Mo  Mo6  1  0.89217162  0.25000000  0.59882107  1
  Mo  Mo7  1  0.60782838  0.25000000  0.09882107  1
  H  H8  1  0.36152442  0.99855556  0.10328101  1
  H  H9  1  0.13847558  0.50144444  0.60328101  1
  H  H10  1  0.63847558  0.49855556  0.89671899  1
  H  H11  1  0.86152442  0.00144444  0.39671899  1
  H  H12  1  0.63847558  0.00144444  0.89671899  1
  H  H13  1  0.86152442  0.49855556  0.39671899  1
  H  H14  1  0.36152442  0.50144444  0.10328101  1
  H  H15  1  0.13847558  0.99855556  0.60328101  1
  H  H16  1  0.31054190  0.86798333  0.04428998  1
  H  H17  1  0.18945810  0.63201667  0.54428998  1
  H  H18  1  0.68945810  0.36798333  0.95571002  1
  H  H19  1  0.81054190  0.13201667  0.45571002  1
  H  H20  1  0.68945810  0.13201667  0.95571002  1
  H  H21  1  0.81054190  0.36798333  0.45571002  1
  H  H22  1  0.31054190  0.63201667  0.04428998  1
  H  H23  1  0.18945810  0.86798333  0.54428998  1
  H  H24  1  0.17338757  0.94840651  0.09389847  1
  H  H25  1  0.32661243  0.55159349  0.59389847  1
  H  H26  1  0.82661243  0.44840651  0.90610153  1
  H  H27  1  0.67338757  0.05159349  0.40610153  1
  H  H28  1  0.82661243  0.05159349  0.90610153  1
  H  H29  1  0.67338757  0.44840651  0.40610153  1
  H  H30  1  0.17338757  0.55159349  0.09389847  1
  H  H31  1  0.32661243  0.94840651  0.59389847  1
  H  H32  1  0.07507664  0.75000000  0.24716431  1
  H  H33  1  0.42492336  0.75000000  0.74716431  1
  H  H34  1  0.92492336  0.25000000  0.75283569  1
  H  H35  1  0.57507664  0.25000000  0.25283569  1
  H  H36  1  0.03794656  0.84250510  0.17155388  1
  H  H37  1  0.46205344  0.65749490  0.67155388  1
  H  H38  1  0.96205344  0.34250510  0.82844612  1
  H  H39  1  0.53794656  0.15749490  0.32844612  1
  H  H40  1  0.96205344  0.15749490  0.82844612  1
  H  H41  1  0.53794656  0.34250510  0.32844612  1
  H  H42  1  0.03794656  0.65749490  0.17155388  1
  H  H43  1  0.46205344  0.84250510  0.67155388  1
  H  H44  1  0.61436682  0.75000000  0.18974937  1
  H  H45  1  0.88563318  0.75000000  0.68974937  1
  H  H46  1  0.38563318  0.25000000  0.81025063  1
  H  H47  1  0.11436682  0.25000000  0.31025063  1
  H  H48  1  0.58103053  0.65534256  0.11519354  1
  H  H49  1  0.91896947  0.84465744  0.61519354  1
  H  H50  1  0.41896947  0.15534256  0.88480646  1
  H  H51  1  0.08103053  0.34465744  0.38480646  1
  H  H52  1  0.41896947  0.34465744  0.88480646  1
  H  H53  1  0.08103053  0.15534256  0.38480646  1
  H  H54  1  0.58103053  0.84465744  0.11519354  1
  H  H55  1  0.91896947  0.65534256  0.61519354  1
  H  H56  1  0.45670861  0.87322033  0.27122180  1
  H  H57  1  0.04329139  0.62677967  0.77122180  1
  H  H58  1  0.54329139  0.37322033  0.72877820  1
  H  H59  1  0.95670861  0.12677967  0.22877820  1
  H  H60  1  0.54329139  0.12677967  0.72877820  1
  H  H61  1  0.95670861  0.37322033  0.22877820  1
  H  H62  1  0.45670861  0.62677967  0.27122180  1
  H  H63  1  0.04329139  0.87322033  0.77122180  1
  H  H64  1  0.39197902  0.00718524  0.21661580  1
  H  H65  1  0.10802098  0.49281476  0.71661580  1
  H  H66  1  0.60802098  0.50718524  0.78338420  1
  H  H67  1  0.89197902  0.99281476  0.28338420  1
  H  H68  1  0.60802098  0.99281476  0.78338420  1
  H  H69  1  0.89197902  0.50718524  0.28338420  1
  H  H70  1  0.39197902  0.49281476  0.21661580  1
  H  H71  1  0.10802098  0.00718524  0.71661580  1
  H  H72  1  0.26849780  0.92606355  0.27455869  1
  H  H73  1  0.23150220  0.57393645  0.77455869  1
  H  H74  1  0.73150220  0.42606355  0.72544131  1
  H  H75  1  0.76849780  0.07393645  0.22544131  1
  H  H76  1  0.73150220  0.07393645  0.72544131  1
  H  H77  1  0.76849780  0.42606355  0.22544131  1
  H  H78  1  0.26849780  0.57393645  0.27455869  1
  H  H79  1  0.23150220  0.92606355  0.77455869  1
  H  H80  1  0.78835822  0.75000000  0.48746232  1
  H  H81  1  0.71164178  0.75000000  0.98746232  1
  H  H82  1  0.21164178  0.25000000  0.51253768  1
  H  H83  1  0.28835822  0.25000000  0.01253768  1
  H  H84  1  0.63091084  0.75000000  0.44471968  1
  H  H85  1  0.86908916  0.75000000  0.94471968  1
  H  H86  1  0.36908916  0.25000000  0.55528032  1
  H  H87  1  0.13091084  0.25000000  0.05528032  1
  H  H88  1  0.91058496  0.06238201  0.08145813  1
  H  H89  1  0.58941504  0.43761799  0.58145813  1
  H  H90  1  0.08941504  0.56238201  0.91854187  1
  H  H91  1  0.41058496  0.93761799  0.41854187  1
  H  H92  1  0.08941504  0.93761799  0.91854187  1
  H  H93  1  0.41058496  0.56238201  0.41854187  1
  H  H94  1  0.91058496  0.43761799  0.08145813  1
  H  H95  1  0.58941504  0.06238201  0.58145813  1
  H  H96  1  0.91046557  0.89433257  0.05221271  1
  H  H97  1  0.58953443  0.60566743  0.55221271  1
  H  H98  1  0.08953443  0.39433257  0.94778729  1
  H  H99  1  0.41046557  0.10566743  0.44778729  1
  H  H100  1  0.08953443  0.10566743  0.94778729  1
  H  H101  1  0.41046557  0.39433257  0.44778729  1
  H  H102  1  0.91046557  0.60566743  0.05221271  1
  H  H103  1  0.58953443  0.89433257  0.55221271  1
  N  N104  1  0.28780690  0.90874303  0.09456033  1
  N  N105  1  0.21219310  0.59125697  0.59456033  1
  N  N106  1  0.71219310  0.40874303  0.90543967  1
  N  N107  1  0.78780690  0.09125697  0.40543967  1
  N  N108  1  0.71219310  0.09125697  0.90543967  1
  N  N109  1  0.78780690  0.40874303  0.40543967  1
  N  N110  1  0.28780690  0.59125697  0.09456033  1
  N  N111  1  0.21219310  0.90874303  0.59456033  1
  N  N112  1  0.09441204  0.75000000  0.19295775  1
  N  N113  1  0.40558796  0.75000000  0.69295775  1
  N  N114  1  0.90558796  0.25000000  0.80704225  1
  N  N115  1  0.59441204  0.25000000  0.30704225  1
  N  N116  1  0.54925203  0.75000000  0.14323805  1
  N  N117  1  0.95074797  0.75000000  0.64323805  1
  N  N118  1  0.45074797  0.25000000  0.85676195  1
  N  N119  1  0.04925203  0.25000000  0.35676195  1
  N  N120  1  0.36165136  0.90697080  0.24066309  1
  N  N121  1  0.13834864  0.59302920  0.74066309  1
  N  N122  1  0.63834864  0.40697080  0.75933691  1
  N  N123  1  0.86165136  0.09302920  0.25933691  1
  N  N124  1  0.63834864  0.09302920  0.75933691  1
  N  N125  1  0.86165136  0.40697080  0.25933691  1
  N  N126  1  0.36165136  0.59302920  0.24066309  1
  N  N127  1  0.13834864  0.90697080  0.74066309  1
  Cl  Cl128  1  0.66875558  0.75000000  0.31364797  1
  Cl  Cl129  1  0.83124442  0.75000000  0.81364797  1
  Cl  Cl130  1  0.33124442  0.25000000  0.68635203  1
  Cl  Cl131  1  0.16875558  0.25000000  0.18635203  1
  O  O132  1  0.08283342  0.58513961  0.34617362  1
  O  O133  1  0.41716658  0.91486039  0.84617362  1
  O  O134  1  0.91716658  0.08513961  0.65382638  1
  O  O135  1  0.58283342  0.41486039  0.15382638  1
  O  O136  1  0.91716658  0.41486039  0.65382638  1
  O  O137  1  0.58283342  0.08513961  0.15382638  1
  O  O138  1  0.08283342  0.91486039  0.34617362  1
  O  O139  1  0.41716658  0.58513961  0.84617362  1
  O  O140  1  0.97338486  0.75000000  0.47540536  1
  O  O141  1  0.52661514  0.75000000  0.97540536  1
  O  O142  1  0.02661514  0.25000000  0.52459464  1
  O  O143  1  0.47338486  0.25000000  0.02459464  1
  O  O144  1  0.30267399  0.75000000  0.43811286  1
  O  O145  1  0.19732601  0.75000000  0.93811286  1
  O  O146  1  0.69732601  0.25000000  0.56188714  1
  O  O147  1  0.80267399  0.25000000  0.06188714  1
  O  O148  1  0.67057320  0.75000000  0.49398410  1
  O  O149  1  0.82942680  0.75000000  0.99398410  1
  O  O150  1  0.32942680  0.25000000  0.50601590  1
  O  O151  1  0.17057320  0.25000000  0.00601590  1
  O  O152  1  0.95610004  0.96137142  0.08928486  1
  O  O153  1  0.54389996  0.53862858  0.58928486  1
  O  O154  1  0.04389996  0.46137142  0.91071514  1
  O  O155  1  0.45610004  0.03862858  0.41071514  1
  O  O156  1  0.04389996  0.03862858  0.91071514  1
  O  O157  1  0.45610004  0.46137142  0.41071514  1
  O  O158  1  0.95610004  0.53862858  0.08928486  1
  O  O159  1  0.54389996  0.96137142  0.58928486  1
