# generated using pymatgen
data_InBi2S4Br
_symmetry_space_group_name_H-M   'P 1'
_cell_length_a   3.94801071
_cell_length_b   6.68390557
_cell_length_c   8.69146811
_cell_angle_alpha   70.57325037
_cell_angle_beta   76.87243276
_cell_angle_gamma   72.82224689
_symmetry_Int_Tables_number   1
_chemical_formula_structural   InBi2S4Br
_chemical_formula_sum   'In1 Bi2 S4 Br1'
_cell_volume   204.52049607
_cell_formula_units_Z   1
loop_
 _symmetry_equiv_pos_site_id
 _symmetry_equiv_pos_as_xyz
  1  'x, y, z'
loop_
 _atom_site_type_symbol
 _atom_site_label
 _atom_site_symmetry_multiplicity
 _atom_site_fract_x
 _atom_site_fract_y
 _atom_site_fract_z
 _atom_site_occupancy
  In  In0  1  0.00000000  -0.00000000  -0.00000000  1
  Bi  Bi1  1  0.79094330  0.67561079  0.74250262  1
  Bi  Bi2  1  0.20905670  0.32438921  0.25749738  1
  S  S3  1  0.83602462  0.02370545  0.30424530  1
  S  S4  1  0.16397538  0.97629455  0.69575470  1
  S  S5  1  0.62223318  0.69916968  0.05636396  1
  S  S6  1  0.37776682  0.30083032  0.94363604  1
  Br  Br7  1  0.50000000  0.50000000  0.50000000  1
