# generated using pymatgen
data_ZnCuAsO5
_symmetry_space_group_name_H-M   'P 1'
_cell_length_a   5.81389590
_cell_length_b   8.89853997
_cell_length_c   8.70002065
_cell_angle_alpha   90.00000000
_cell_angle_beta   90.00000000
_cell_angle_gamma   90.00000000
_symmetry_Int_Tables_number   1
_chemical_formula_structural   ZnCuAsO5
_chemical_formula_sum   'Zn4 Cu4 As4 O20'
_cell_volume   450.09717825
_cell_formula_units_Z   4
loop_
 _symmetry_equiv_pos_site_id
 _symmetry_equiv_pos_as_xyz
  1  'x, y, z'
loop_
 _atom_site_type_symbol
 _atom_site_label
 _atom_site_symmetry_multiplicity
 _atom_site_fract_x
 _atom_site_fract_y
 _atom_site_fract_z
 _atom_site_occupancy
  Zn  Zn0  1  0.00000000  0.60885340  0.14920349  1
  Zn  Zn1  1  0.00000000  0.39114660  0.85079651  1
  Zn  Zn2  1  0.50000000  0.89114660  0.64920349  1
  Zn  Zn3  1  0.50000000  0.10885340  0.35079651  1
  Cu  Cu4  1  0.25397768  -0.00000000  -0.00000000  1
  Cu  Cu5  1  0.74602232  0.00000000  -0.00000000  1
  Cu  Cu6  1  0.24602232  0.50000000  0.50000000  1
  Cu  Cu7  1  0.75397768  0.50000000  0.50000000  1
  As  As8  1  0.00000000  0.24539383  0.22704868  1
  As  As9  1  0.00000000  0.75460617  0.77295132  1
  As  As10  1  0.50000000  0.25460617  0.72704868  1
  As  As11  1  0.50000000  0.74539383  0.27295132  1
  O  O12  1  0.00000000  0.38946364  0.09424201  1
  O  O13  1  0.00000000  0.61053636  0.90575799  1
  O  O14  1  0.50000000  0.11053636  0.59424201  1
  O  O15  1  0.50000000  0.88946364  0.40575799  1
  O  O16  1  0.00000000  0.07083437  0.12415977  1
  O  O17  1  0.00000000  0.92916563  0.87584023  1
  O  O18  1  0.50000000  0.42916563  0.62415977  1
  O  O19  1  0.50000000  0.57083437  0.37584023  1
  O  O20  1  0.23945288  0.25022050  0.33881624  1
  O  O21  1  0.76054712  0.74977950  0.66118376  1
  O  O22  1  0.23945288  0.74977950  0.66118376  1
  O  O23  1  0.26054712  0.24977950  0.83881624  1
  O  O24  1  0.76054712  0.25022050  0.33881624  1
  O  O25  1  0.73945288  0.75022050  0.16118376  1
  O  O26  1  0.26054712  0.75022050  0.16118376  1
  O  O27  1  0.73945288  0.24977950  0.83881624  1
  O  O28  1  0.00000000  0.56560656  0.38443787  1
  O  O29  1  0.00000000  0.43439344  0.61556213  1
  O  O30  1  0.50000000  0.93439344  0.88443787  1
  O  O31  1  0.50000000  0.06560656  0.11556213  1
