# generated using pymatgen
data_Tm2Mn17C3
_symmetry_space_group_name_H-M   'P 1'
_cell_length_a   8.34904160
_cell_length_b   8.52491510
_cell_length_c   8.52491510
_cell_angle_alpha   120.00000324
_cell_angle_beta   90.00000000
_cell_angle_gamma   90.00000000
_symmetry_Int_Tables_number   1
_chemical_formula_structural   Tm2Mn17C3
_chemical_formula_sum   'Tm4 Mn34 C6'
_cell_volume   525.46932346
_cell_formula_units_Z   2
loop_
 _symmetry_equiv_pos_site_id
 _symmetry_equiv_pos_as_xyz
  1  'x, y, z'
loop_
 _atom_site_type_symbol
 _atom_site_label
 _atom_site_symmetry_multiplicity
 _atom_site_fract_x
 _atom_site_fract_y
 _atom_site_fract_z
 _atom_site_occupancy
  Tm  Tm0  1  0.75000000  0.66666700  0.33333300  1
  Tm  Tm1  1  0.25000000  0.33333300  0.66666700  1
  Tm  Tm2  1  0.75000000  -0.00000000  -0.00000000  1
  Tm  Tm3  1  0.25000000  -0.00000000  -0.00000000  1
  Mn  Mn4  1  0.75000000  0.61434825  0.67236099  1
  Mn  Mn5  1  0.25000000  0.38565175  0.32763901  1
  Mn  Mn6  1  0.75000000  0.05801274  0.38565175  1
  Mn  Mn7  1  0.25000000  0.94198726  0.32763901  1
  Mn  Mn8  1  0.25000000  0.94198726  0.61434825  1
  Mn  Mn9  1  0.75000000  0.05801274  0.67236099  1
  Mn  Mn10  1  0.75000000  0.32763901  0.94198726  1
  Mn  Mn11  1  0.25000000  0.67236099  0.61434825  1
  Mn  Mn12  1  0.25000000  0.67236099  0.05801274  1
  Mn  Mn13  1  0.75000000  0.32763901  0.38565175  1
  Mn  Mn14  1  0.25000000  0.38565175  0.05801274  1
  Mn  Mn15  1  0.75000000  0.61434825  0.94198726  1
  Mn  Mn16  1  0.39041107  0.66666700  0.33333300  1
  Mn  Mn17  1  0.60958893  0.33333300  0.66666700  1
  Mn  Mn18  1  0.89041107  0.33333300  0.66666700  1
  Mn  Mn19  1  0.10958893  0.66666700  0.33333300  1
  Mn  Mn20  1  0.97732433  0.82917850  0.17082150  1
  Mn  Mn21  1  0.02267567  0.17082150  0.82917850  1
  Mn  Mn22  1  0.97732433  0.34164300  0.17082150  1
  Mn  Mn23  1  0.47732433  0.17082150  0.82917850  1
  Mn  Mn24  1  0.02267567  0.65835700  0.82917850  1
  Mn  Mn25  1  0.52267567  0.82917850  0.17082150  1
  Mn  Mn26  1  0.97732433  0.82917850  0.65835700  1
  Mn  Mn27  1  0.47732433  0.65835700  0.82917850  1
  Mn  Mn28  1  0.02267567  0.17082150  0.34164300  1
  Mn  Mn29  1  0.52267567  0.34164300  0.17082150  1
  Mn  Mn30  1  0.47732433  0.17082150  0.34164300  1
  Mn  Mn31  1  0.52267567  0.82917850  0.65835700  1
  Mn  Mn32  1  -0.00000000  0.50000000  0.50000000  1
  Mn  Mn33  1  -0.00000000  -0.00000000  0.50000000  1
  Mn  Mn34  1  0.50000000  0.50000000  0.50000000  1
  Mn  Mn35  1  -0.00000000  0.50000000  -0.00000000  1
  Mn  Mn36  1  0.50000000  -0.00000000  0.50000000  1
  Mn  Mn37  1  0.50000000  0.50000000  -0.00000000  1
  C  C38  1  0.75000000  0.83594836  0.16405164  1
  C  C39  1  0.25000000  0.16405164  0.83594836  1
  C  C40  1  0.75000000  0.32810327  0.16405164  1
  C  C41  1  0.25000000  0.67189673  0.83594836  1
  C  C42  1  0.75000000  0.83594836  0.67189673  1
  C  C43  1  0.25000000  0.16405164  0.32810327  1
