# generated using pymatgen
data_Tl2Ni2(MoO4)3
_symmetry_space_group_name_H-M   'P 1'
_cell_length_a   10.86481068
_cell_length_b   10.86481068
_cell_length_c   10.86481068
_cell_angle_alpha   90.00000000
_cell_angle_beta   90.00000000
_cell_angle_gamma   90.00000000
_symmetry_Int_Tables_number   1
_chemical_formula_structural   Tl2Ni2(MoO4)3
_chemical_formula_sum   'Tl8 Ni8 Mo12 O48'
_cell_volume   1282.52691912
_cell_formula_units_Z   4
loop_
 _symmetry_equiv_pos_site_id
 _symmetry_equiv_pos_as_xyz
  1  'x, y, z'
loop_
 _atom_site_type_symbol
 _atom_site_label
 _atom_site_symmetry_multiplicity
 _atom_site_fract_x
 _atom_site_fract_y
 _atom_site_fract_z
 _atom_site_occupancy
  Tl  Tl0  1  0.05455061  0.05455061  0.05455061  1
  Tl  Tl1  1  0.44544939  0.94544939  0.55455061  1
  Tl  Tl2  1  0.94544939  0.55455061  0.44544939  1
  Tl  Tl3  1  0.55455061  0.44544939  0.94544939  1
  Tl  Tl4  1  0.82197216  0.82197216  0.82197216  1
  Tl  Tl5  1  0.67802784  0.17802784  0.32197216  1
  Tl  Tl6  1  0.17802784  0.32197216  0.67802784  1
  Tl  Tl7  1  0.32197216  0.67802784  0.17802784  1
  Ni  Ni8  1  0.33662345  0.33662345  0.33662345  1
  Ni  Ni9  1  0.16337655  0.66337655  0.83662345  1
  Ni  Ni10  1  0.66337655  0.83662345  0.16337655  1
  Ni  Ni11  1  0.83662345  0.16337655  0.66337655  1
  Ni  Ni12  1  0.60585128  0.60585128  0.60585128  1
  Ni  Ni13  1  0.89414872  0.39414872  0.10585128  1
  Ni  Ni14  1  0.39414872  0.10585128  0.89414872  1
  Ni  Ni15  1  0.10585128  0.89414872  0.39414872  1
  Mo  Mo16  1  0.02283569  0.20906815  0.37651652  1
  Mo  Mo17  1  0.47716431  0.79093185  0.87651652  1
  Mo  Mo18  1  0.97716431  0.70906815  0.12348348  1
  Mo  Mo19  1  0.37651652  0.02283569  0.20906815  1
  Mo  Mo20  1  0.52283569  0.29093185  0.62348348  1
  Mo  Mo21  1  0.87651652  0.47716431  0.79093185  1
  Mo  Mo22  1  0.12348348  0.97716431  0.70906815  1
  Mo  Mo23  1  0.62348348  0.52283569  0.29093185  1
  Mo  Mo24  1  0.20906815  0.37651652  0.02283569  1
  Mo  Mo25  1  0.70906815  0.12348348  0.97716431  1
  Mo  Mo26  1  0.29093185  0.62348348  0.52283569  1
  Mo  Mo27  1  0.79093185  0.87651652  0.47716431  1
  O  O28  1  0.01765820  0.05098485  0.32479252  1
  O  O29  1  0.48234180  0.94901515  0.82479252  1
  O  O30  1  0.98234180  0.55098485  0.17520748  1
  O  O31  1  0.32479252  0.01765820  0.05098485  1
  O  O32  1  0.51765820  0.44901515  0.67520748  1
  O  O33  1  0.82479252  0.48234180  0.94901515  1
  O  O34  1  0.17520748  0.98234180  0.55098485  1
  O  O35  1  0.67520748  0.51765820  0.44901515  1
  O  O36  1  0.05098485  0.32479252  0.01765820  1
  O  O37  1  0.55098485  0.17520748  0.98234180  1
  O  O38  1  0.44901515  0.67520748  0.51765820  1
  O  O39  1  0.94901515  0.82479252  0.48234180  1
  O  O40  1  0.27242269  0.48452316  0.43682314  1
  O  O41  1  0.22757731  0.51547684  0.93682314  1
  O  O42  1  0.72757731  0.98452316  0.06317686  1
  O  O43  1  0.43682314  0.27242269  0.48452316  1
  O  O44  1  0.77242269  0.01547684  0.56317686  1
  O  O45  1  0.93682314  0.22757731  0.51547684  1
  O  O46  1  0.06317686  0.72757731  0.98452316  1
  O  O47  1  0.56317686  0.77242269  0.01547684  1
  O  O48  1  0.48452316  0.43682314  0.27242269  1
  O  O49  1  0.98452316  0.06317686  0.72757731  1
  O  O50  1  0.01547684  0.56317686  0.77242269  1
  O  O51  1  0.51547684  0.93682314  0.22757731  1
  O  O52  1  0.04974927  0.80446563  0.23674486  1
  O  O53  1  0.45025073  0.19553437  0.73674486  1
  O  O54  1  0.95025073  0.30446563  0.26325514  1
  O  O55  1  0.23674486  0.04974927  0.80446563  1
  O  O56  1  0.54974927  0.69553437  0.76325514  1
  O  O57  1  0.73674486  0.45025073  0.19553437  1
  O  O58  1  0.26325514  0.95025073  0.30446563  1
  O  O59  1  0.76325514  0.54974927  0.69553437  1
  O  O60  1  0.80446563  0.23674486  0.04974927  1
  O  O61  1  0.30446563  0.26325514  0.95025073  1
  O  O62  1  0.69553437  0.76325514  0.54974927  1
  O  O63  1  0.19553437  0.73674486  0.45025073  1
  O  O64  1  0.17868508  0.25552868  0.40378066  1
  O  O65  1  0.32131492  0.74447132  0.90378066  1
  O  O66  1  0.82131492  0.75552868  0.09621934  1
  O  O67  1  0.40378066  0.17868508  0.25552868  1
  O  O68  1  0.67868508  0.24447132  0.59621934  1
  O  O69  1  0.90378066  0.32131492  0.74447132  1
  O  O70  1  0.09621934  0.82131492  0.75552868  1
  O  O71  1  0.59621934  0.67868508  0.24447132  1
  O  O72  1  0.25552868  0.40378066  0.17868508  1
  O  O73  1  0.75552868  0.09621934  0.82131492  1
  O  O74  1  0.24447132  0.59621934  0.67868508  1
  O  O75  1  0.74447132  0.90378066  0.32131492  1
