# generated using pymatgen
data_YCrGeO5
_symmetry_space_group_name_H-M   'P 1'
_cell_length_a   5.80855107
_cell_length_b   7.44321781
_cell_length_c   8.48639524
_cell_angle_alpha   90.00000000
_cell_angle_beta   90.00000000
_cell_angle_gamma   90.00000000
_symmetry_Int_Tables_number   1
_chemical_formula_structural   YCrGeO5
_chemical_formula_sum   'Y4 Cr4 Ge4 O20'
_cell_volume   366.90344916
_cell_formula_units_Z   4
loop_
 _symmetry_equiv_pos_site_id
 _symmetry_equiv_pos_as_xyz
  1  'x, y, z'
loop_
 _atom_site_type_symbol
 _atom_site_label
 _atom_site_symmetry_multiplicity
 _atom_site_fract_x
 _atom_site_fract_y
 _atom_site_fract_z
 _atom_site_occupancy
  Y  Y0  1  0.50000000  0.35662053  0.32645527  1
  Y  Y1  1  0.50000000  0.64337947  0.67354473  1
  Y  Y2  1  0.50000000  0.14337947  0.82645527  1
  Y  Y3  1  0.50000000  0.85662053  0.17354473  1
  Cr  Cr4  1  0.24946927  -0.00000000  0.50000000  1
  Cr  Cr5  1  0.75053073  -0.00000000  0.50000000  1
  Cr  Cr6  1  0.75053073  0.50000000  0.00000000  1
  Cr  Cr7  1  0.24946927  0.50000000  0.00000000  1
  Ge  Ge8  1  -0.00000000  0.11735036  0.14436931  1
  Ge  Ge9  1  0.00000000  0.88264964  0.85563069  1
  Ge  Ge10  1  0.00000000  0.38264964  0.64436931  1
  Ge  Ge11  1  -0.00000000  0.61735036  0.35563069  1
  O  O12  1  0.24943968  0.11080384  0.28213302  1
  O  O13  1  0.75056032  0.88919616  0.71786698  1
  O  O14  1  0.24943968  0.88919616  0.71786698  1
  O  O15  1  0.75056032  0.38919616  0.78213302  1
  O  O16  1  0.75056032  0.11080384  0.28213302  1
  O  O17  1  0.24943968  0.61080384  0.21786698  1
  O  O18  1  0.75056032  0.61080384  0.21786698  1
  O  O19  1  0.24943968  0.38919616  0.78213302  1
  O  O20  1  0.00000000  0.34264803  0.08150830  1
  O  O21  1  -0.00000000  0.65735197  0.91849170  1
  O  O22  1  -0.00000000  0.15735197  0.58150830  1
  O  O23  1  0.00000000  0.84264803  0.41849170  1
  O  O24  1  0.50000000  0.33162566  0.05726980  1
  O  O25  1  0.50000000  0.66837434  0.94273020  1
  O  O26  1  0.50000000  0.16837434  0.55726980  1
  O  O27  1  0.50000000  0.83162566  0.44273020  1
  O  O28  1  0.21140301  -0.00000000  -0.00000000  1
  O  O29  1  0.78859699  -0.00000000  -0.00000000  1
  O  O30  1  0.78859699  0.50000000  0.50000000  1
  O  O31  1  0.21140301  0.50000000  0.50000000  1
