# generated using pymatgen
data_TbAl3(BO3)4
_symmetry_space_group_name_H-M   'P 1'
_cell_length_a   5.93218573
_cell_length_b   5.93218573
_cell_length_c   5.93218567
_cell_angle_alpha   104.21392576
_cell_angle_beta   104.21392576
_cell_angle_gamma   104.21392682
_symmetry_Int_Tables_number   1
_chemical_formula_structural   TbAl3(BO3)4
_chemical_formula_sum   'Tb1 Al3 B4 O12'
_cell_volume   185.49197903
_cell_formula_units_Z   1
loop_
 _symmetry_equiv_pos_site_id
 _symmetry_equiv_pos_as_xyz
  1  'x, y, z'
loop_
 _atom_site_type_symbol
 _atom_site_label
 _atom_site_symmetry_multiplicity
 _atom_site_fract_x
 _atom_site_fract_y
 _atom_site_fract_z
 _atom_site_occupancy
  Tb  Tb0  1  0.50000000  0.50000000  0.50000000  1
  Al  Al1  1  0.94439946  0.05560054  0.50000000  1
  Al  Al2  1  0.50000000  0.94439946  0.05560054  1
  Al  Al3  1  0.05560054  0.50000000  0.94439946  1
  B  B4  1  0.55713863  0.44286137  0.00000000  1
  B  B5  1  1.00000000  0.55713863  0.44286137  1
  B  B6  1  0.44286137  0.00000000  0.55713863  1
  B  B7  1  -0.00000000  0.00000000  0.00000000  1
  O  O8  1  0.52841117  0.27855683  0.12759403  1
  O  O9  1  0.12759403  0.52841117  0.27855683  1
  O  O10  1  0.87240597  0.72144317  0.47158883  1
  O  O11  1  0.27855683  0.12759403  0.52841117  1
  O  O12  1  0.72144317  0.47158883  0.87240597  1
  O  O13  1  0.47158883  0.87240597  0.72144317  1
  O  O14  1  0.14878169  0.85121831  0.00000000  1
  O  O15  1  1.00000000  0.14878169  0.85121831  1
  O  O16  1  0.85121831  0.00000000  0.14878169  1
  O  O17  1  0.40867107  0.59132893  0.00000000  1
  O  O18  1  0.00000000  0.40867107  0.59132893  1
  O  O19  1  0.59132893  1.00000000  0.40867107  1
