# generated using pymatgen
data_Y3Fe2Si3
_symmetry_space_group_name_H-M   'P 1'
_cell_length_a   4.08120232
_cell_length_b   5.68385408
_cell_length_c   13.65460003
_cell_angle_alpha   90.00000000
_cell_angle_beta   90.00000000
_cell_angle_gamma   111.03984882
_symmetry_Int_Tables_number   1
_chemical_formula_structural   Y3Fe2Si3
_chemical_formula_sum   'Y6 Fe4 Si6'
_cell_volume   295.62809166
_cell_formula_units_Z   2
loop_
 _symmetry_equiv_pos_site_id
 _symmetry_equiv_pos_as_xyz
  1  'x, y, z'
loop_
 _atom_site_type_symbol
 _atom_site_label
 _atom_site_symmetry_multiplicity
 _atom_site_fract_x
 _atom_site_fract_y
 _atom_site_fract_z
 _atom_site_occupancy
  Y  Y0  1  0.36335709  0.72671418  0.25000000  1
  Y  Y1  1  0.63664291  0.27328582  0.75000000  1
  Y  Y2  1  0.07892249  0.15784498  0.11228738  1
  Y  Y3  1  0.92107751  0.84215502  0.88771262  1
  Y  Y4  1  0.92107751  0.84215502  0.61228738  1
  Y  Y5  1  0.07892249  0.15784498  0.38771262  1
  Fe  Fe6  1  0.21544719  0.43089439  0.58045394  1
  Fe  Fe7  1  0.78455281  0.56910561  0.41954606  1
  Fe  Fe8  1  0.78455281  0.56910561  0.08045394  1
  Fe  Fe9  1  0.21544719  0.43089439  0.91954606  1
  Si  Si10  1  0.67449004  0.34898007  0.25000000  1
  Si  Si11  1  0.32550996  0.65101993  0.75000000  1
  Si  Si12  1  0.37250930  0.74501859  0.04002537  1
  Si  Si13  1  0.62749070  0.25498141  0.95997463  1
  Si  Si14  1  0.62749070  0.25498141  0.54002537  1
  Si  Si15  1  0.37250930  0.74501859  0.45997463  1
