# generated using pymatgen
data_TcF6
_symmetry_space_group_name_H-M   'P 1'
_cell_length_a   4.96247199
_cell_length_b   8.55659950
_cell_length_c   9.36446326
_cell_angle_alpha   90.00000000
_cell_angle_beta   90.00000000
_cell_angle_gamma   90.00000000
_symmetry_Int_Tables_number   1
_chemical_formula_structural   TcF6
_chemical_formula_sum   'Tc4 F24'
_cell_volume   397.63276530
_cell_formula_units_Z   4
loop_
 _symmetry_equiv_pos_site_id
 _symmetry_equiv_pos_as_xyz
  1  'x, y, z'
loop_
 _atom_site_type_symbol
 _atom_site_label
 _atom_site_symmetry_multiplicity
 _atom_site_fract_x
 _atom_site_fract_y
 _atom_site_fract_z
 _atom_site_occupancy
  Tc  Tc0  1  0.58033437  0.75000000  0.87060732  1
  Tc  Tc1  1  0.41966563  0.25000000  0.12939268  1
  Tc  Tc2  1  0.08033437  0.25000000  0.62939268  1
  Tc  Tc3  1  0.91966563  0.75000000  0.37060732  1
  F  F4  1  0.27655841  0.75000000  0.98589087  1
  F  F5  1  0.72344159  0.25000000  0.01410913  1
  F  F6  1  0.77655841  0.25000000  0.51410913  1
  F  F7  1  0.22344159  0.75000000  0.48589087  1
  F  F8  1  0.88387330  0.75000000  0.75492754  1
  F  F9  1  0.11612670  0.25000000  0.24507246  1
  F  F10  1  0.38387330  0.25000000  0.74507246  1
  F  F11  1  0.61612670  0.75000000  0.25492754  1
  F  F12  1  0.73558396  0.90267901  0.98403552  1
  F  F13  1  0.26441604  0.09732099  0.01596448  1
  F  F14  1  0.23558396  0.09732099  0.51596448  1
  F  F15  1  0.26441604  0.40267901  0.01596448  1
  F  F16  1  0.76441604  0.90267901  0.48403552  1
  F  F17  1  0.73558396  0.59732099  0.98403552  1
  F  F18  1  0.76441604  0.59732099  0.48403552  1
  F  F19  1  0.23558396  0.40267901  0.51596448  1
  F  F20  1  0.42694697  0.90314559  0.75739241  1
  F  F21  1  0.57305303  0.09685441  0.24260759  1
  F  F22  1  0.92694697  0.09685441  0.74260759  1
  F  F23  1  0.57305303  0.40314559  0.24260759  1
  F  F24  1  0.07305303  0.90314559  0.25739241  1
  F  F25  1  0.42694697  0.59685441  0.75739241  1
  F  F26  1  0.07305303  0.59685441  0.25739241  1
  F  F27  1  0.92694697  0.40314559  0.74260759  1
