# generated using pymatgen
data_Y2Hf2(MoO4)7
_symmetry_space_group_name_H-M   'P 1'
_cell_length_a   9.95440373
_cell_length_b   11.64740534
_cell_length_c   14.00408084
_cell_angle_alpha   110.93043149
_cell_angle_beta   90.00000000
_cell_angle_gamma   115.29777788
_symmetry_Int_Tables_number   1
_chemical_formula_structural   Y2Hf2(MoO4)7
_chemical_formula_sum   'Y4 Hf4 Mo14 O56'
_cell_volume   1348.50957229
_cell_formula_units_Z   2
loop_
 _symmetry_equiv_pos_site_id
 _symmetry_equiv_pos_as_xyz
  1  'x, y, z'
loop_
 _atom_site_type_symbol
 _atom_site_label
 _atom_site_symmetry_multiplicity
 _atom_site_fract_x
 _atom_site_fract_y
 _atom_site_fract_z
 _atom_site_occupancy
  Y  Y0  1  0.14921994  0.27359003  0.93689353  1
  Y  Y1  1  0.85078006  0.72640997  0.06310647  1
  Y  Y2  1  0.87562992  0.72640997  0.56310647  1
  Y  Y3  1  0.12437008  0.27359003  0.43689353  1
  Hf  Hf4  1  0.42039191  0.76898012  0.81273152  1
  Hf  Hf5  1  0.57960809  0.23101988  0.18726848  1
  Hf  Hf6  1  0.65141178  0.23101988  0.68726848  1
  Hf  Hf7  1  0.34858822  0.76898012  0.31273152  1
  Mo  Mo8  1  0.49910909  0.48710289  0.82665782  1
  Mo  Mo9  1  0.50089091  0.51289711  0.17334218  1
  Mo  Mo10  1  0.01200620  0.51289711  0.67334218  1
  Mo  Mo11  1  0.98799380  0.48710289  0.32665782  1
  Mo  Mo12  1  0.45642832  0.68363595  0.52278590  1
  Mo  Mo13  1  0.54357168  0.31636405  0.47721410  1
  Mo  Mo14  1  0.77279237  0.31636405  0.97721410  1
  Mo  Mo15  1  0.22720763  0.68363595  0.02278590  1
  Mo  Mo16  1  0.81193814  0.87819842  0.85293349  1
  Mo  Mo17  1  0.18806186  0.12180158  0.14706651  1
  Mo  Mo18  1  0.93373971  0.12180158  0.64706651  1
  Mo  Mo19  1  0.06626029  0.87819842  0.35293349  1
  Mo  Mo20  1  0.29637650  -0.00000000  0.75000000  1
  Mo  Mo21  1  0.70362350  -0.00000000  0.25000000  1
  O  O22  1  0.48732101  0.61333941  0.78195455  1
  O  O23  1  0.51267899  0.38666059  0.21804545  1
  O  O24  1  0.87398161  0.38666059  0.71804545  1
  O  O25  1  0.12601839  0.61333941  0.28195455  1
  O  O26  1  0.64264984  0.71316818  0.50434461  1
  O  O27  1  0.35735016  0.28683182  0.49565539  1
  O  O28  1  0.92948166  0.28683182  0.99565539  1
  O  O29  1  0.07051834  0.71316818  0.00434461  1
  O  O30  1  0.31632997  0.37646696  0.83426394  1
  O  O31  1  0.68367003  0.62353304  0.16573606  1
  O  O32  1  0.93986301  0.62353304  0.66573606  1
  O  O33  1  0.06013699  0.37646696  0.33426394  1
  O  O34  1  0.93480329  0.95983288  0.60170610  1
  O  O35  1  0.06519671  0.04016712  0.39829390  1
  O  O36  1  0.97497040  0.04016712  0.89829390  1
  O  O37  1  0.02502960  0.95983288  0.10170610  1
  O  O38  1  0.79711610  0.79356068  0.71685101  1
  O  O39  1  0.20288390  0.20643932  0.28314899  1
  O  O40  1  0.00355542  0.20643932  0.78314899  1
  O  O41  1  0.99644458  0.79356068  0.21685101  1
  O  O42  1  0.57622187  0.38167177  0.73875301  1
  O  O43  1  0.42377813  0.61832823  0.26124699  1
  O  O44  1  0.19455010  0.61832823  0.76124699  1
  O  O45  1  0.80544990  0.38167177  0.23875301  1
  O  O46  1  0.66608562  0.49574009  0.52947249  1
  O  O47  1  0.33391438  0.50425991  0.47052751  1
  O  O48  1  0.17034553  0.50425991  0.97052751  1
  O  O49  1  0.82965447  0.49574009  0.02947249  1
  O  O50  1  0.82948433  0.77608075  0.91673946  1
  O  O51  1  0.17051567  0.22391925  0.08326054  1
  O  O52  1  0.05340358  0.22391925  0.58326054  1
  O  O53  1  0.94659642  0.77608075  0.41673946  1
  O  O54  1  0.61167567  0.57205341  0.95188580  1
  O  O55  1  0.38832433  0.42794659  0.04811420  1
  O  O56  1  0.03962226  0.42794659  0.54811420  1
  O  O57  1  0.96037774  0.57205341  0.45188580  1
  O  O58  1  0.37581657  0.76588267  0.95684188  1
  O  O59  1  0.62418343  0.23411733  0.04315812  1
  O  O60  1  0.60993390  0.23411733  0.54315812  1
  O  O61  1  0.39006610  0.76588267  0.45684188  1
  O  O62  1  0.25969737  0.12780190  0.84277735  1
  O  O63  1  0.74030263  0.87219810  0.15722265  1
  O  O64  1  0.13189547  0.87219810  0.65722265  1
  O  O65  1  0.86810453  0.12780190  0.34277735  1
  O  O66  1  0.43974068  0.07858097  0.68029684  1
  O  O67  1  0.56025932  0.92141903  0.31970316  1
  O  O68  1  0.36115971  0.92141903  0.81970316  1
  O  O69  1  0.63884029  0.07858097  0.18029684  1
  O  O70  1  0.64301593  0.90685580  0.87534448  1
  O  O71  1  0.35698407  0.09314420  0.12465552  1
  O  O72  1  0.73616013  0.09314420  0.62465552  1
  O  O73  1  0.26383987  0.90685580  0.37534448  1
  O  O74  1  0.44859114  0.75202425  0.66071604  1
  O  O75  1  0.55140886  0.24797575  0.33928396  1
  O  O76  1  0.69656689  0.24797575  0.83928396  1
  O  O77  1  0.30343311  0.75202425  0.16071604  1
