# generated using pymatgen
data_RhF6
_symmetry_space_group_name_H-M   'P 1'
_cell_length_a   5.00481646
_cell_length_b   8.63716162
_cell_length_c   9.45202598
_cell_angle_alpha   90.00000000
_cell_angle_beta   90.00000000
_cell_angle_gamma   90.00000000
_symmetry_Int_Tables_number   1
_chemical_formula_structural   RhF6
_chemical_formula_sum   'Rh4 F24'
_cell_volume   408.58658955
_cell_formula_units_Z   4
loop_
 _symmetry_equiv_pos_site_id
 _symmetry_equiv_pos_as_xyz
  1  'x, y, z'
loop_
 _atom_site_type_symbol
 _atom_site_label
 _atom_site_symmetry_multiplicity
 _atom_site_fract_x
 _atom_site_fract_y
 _atom_site_fract_z
 _atom_site_occupancy
  Rh  Rh0  1  0.58071836  0.75000000  0.87089982  1
  Rh  Rh1  1  0.41928164  0.25000000  0.12910018  1
  Rh  Rh2  1  0.08071836  0.25000000  0.62910018  1
  Rh  Rh3  1  0.91928164  0.75000000  0.37089982  1
  F  F4  1  0.27714133  0.75000000  0.98677907  1
  F  F5  1  0.72285867  0.25000000  0.01322093  1
  F  F6  1  0.77714133  0.25000000  0.51322093  1
  F  F7  1  0.22285867  0.75000000  0.48677907  1
  F  F8  1  0.88520726  0.75000000  0.75451126  1
  F  F9  1  0.11479274  0.25000000  0.24548874  1
  F  F10  1  0.38520726  0.25000000  0.74548874  1
  F  F11  1  0.61479274  0.75000000  0.25451126  1
  F  F12  1  0.73757414  0.90323074  0.98422232  1
  F  F13  1  0.26242586  0.09676926  0.01577768  1
  F  F14  1  0.23757414  0.09676926  0.51577768  1
  F  F15  1  0.26242586  0.40323074  0.01577768  1
  F  F16  1  0.76242586  0.90323074  0.48422232  1
  F  F17  1  0.73757414  0.59676926  0.98422232  1
  F  F18  1  0.76242586  0.59676926  0.48422232  1
  F  F19  1  0.23757414  0.40323074  0.51577768  1
  F  F20  1  0.42632598  0.90328517  0.75666215  1
  F  F21  1  0.57367402  0.09671483  0.24333785  1
  F  F22  1  0.92632598  0.09671483  0.74333785  1
  F  F23  1  0.57367402  0.40328517  0.24333785  1
  F  F24  1  0.07367402  0.90328517  0.25666215  1
  F  F25  1  0.42632598  0.59671483  0.75666215  1
  F  F26  1  0.07367402  0.59671483  0.25666215  1
  F  F27  1  0.92632598  0.40328517  0.74333785  1
