# generated using pymatgen
data_Na2ZrFeSi2O8F
_symmetry_space_group_name_H-M   'P 1'
_cell_length_a   7.20003970
_cell_length_b   9.96293464
_cell_length_c   10.82372382
_cell_angle_alpha   90.00000000
_cell_angle_beta   107.99078979
_cell_angle_gamma   90.00000000
_symmetry_Int_Tables_number   1
_chemical_formula_structural   Na2ZrFeSi2O8F
_chemical_formula_sum   'Na8 Zr4 Fe4 Si8 O32 F4'
_cell_volume   738.46153257
_cell_formula_units_Z   4
loop_
 _symmetry_equiv_pos_site_id
 _symmetry_equiv_pos_as_xyz
  1  'x, y, z'
loop_
 _atom_site_type_symbol
 _atom_site_label
 _atom_site_symmetry_multiplicity
 _atom_site_fract_x
 _atom_site_fract_y
 _atom_site_fract_z
 _atom_site_occupancy
  Na  Na0  1  0.52520808  0.39115967  0.30583865  1
  Na  Na1  1  0.47479192  0.60884033  0.69416135  1
  Na  Na2  1  0.47479192  0.89115967  0.19416135  1
  Na  Na3  1  0.52520808  0.10884033  0.80583865  1
  Na  Na4  1  0.34884861  0.12028116  0.42879579  1
  Na  Na5  1  0.65115139  0.87971884  0.57120421  1
  Na  Na6  1  0.65115139  0.62028116  0.07120421  1
  Na  Na7  1  0.34884861  0.37971884  0.92879579  1
  Zr  Zr8  1  0.02542055  0.39543040  0.29513297  1
  Zr  Zr9  1  0.97457945  0.60456960  0.70486703  1
  Zr  Zr10  1  0.97457945  0.89543040  0.20486703  1
  Zr  Zr11  1  0.02542055  0.10456960  0.79513297  1
  Fe  Fe12  1  0.13457436  0.62551171  0.05677501  1
  Fe  Fe13  1  0.86542564  0.37448829  0.94322499  1
  Fe  Fe14  1  0.86542564  0.12551171  0.44322499  1
  Fe  Fe15  1  0.13457436  0.87448829  0.55677501  1
  Si  Si16  1  0.67432465  0.16736031  0.12113813  1
  Si  Si17  1  0.32567535  0.83263969  0.87886187  1
  Si  Si18  1  0.32567535  0.66736031  0.37886187  1
  Si  Si19  1  0.67432465  0.33263969  0.62113813  1
  Si  Si20  1  0.22141522  0.16967131  0.12305365  1
  Si  Si21  1  0.77858478  0.83032869  0.87694635  1
  Si  Si22  1  0.77858478  0.66967131  0.37694635  1
  Si  Si23  1  0.22141522  0.33032869  0.62305365  1
  O  O24  1  0.19407750  0.73300844  0.23838896  1
  O  O25  1  0.80592250  0.26699156  0.76161104  1
  O  O26  1  0.80592250  0.23300844  0.26161104  1
  O  O27  1  0.19407750  0.76699156  0.73838896  1
  O  O28  1  0.17239378  0.01565408  0.15170144  1
  O  O29  1  0.82760622  0.98434592  0.84829856  1
  O  O30  1  0.82760622  0.51565408  0.34829856  1
  O  O31  1  0.17239378  0.48434592  0.65170144  1
  O  O32  1  0.03596071  0.52125590  0.88762332  1
  O  O33  1  0.96403929  0.47874410  0.11237668  1
  O  O34  1  0.96403929  0.02125590  0.61237668  1
  O  O35  1  0.03596071  0.97874410  0.38762332  1
  O  O36  1  0.44635512  0.17768554  0.11926768  1
  O  O37  1  0.55364488  0.82231446  0.88073232  1
  O  O38  1  0.55364488  0.67768554  0.38073232  1
  O  O39  1  0.44635512  0.32231446  0.61926768  1
  O  O40  1  0.26644275  0.51008072  0.38268658  1
  O  O41  1  0.73355725  0.48991928  0.61731342  1
  O  O42  1  0.73355725  0.01008072  0.11731342  1
  O  O43  1  0.26644275  0.98991928  0.88268658  1
  O  O44  1  0.08397041  0.26991466  0.48273001  1
  O  O45  1  0.91602959  0.73008534  0.51726999  1
  O  O46  1  0.91602959  0.76991466  0.01726999  1
  O  O47  1  0.08397041  0.23008534  0.98273001  1
  O  O48  1  0.31382649  0.74600350  0.00306412  1
  O  O49  1  0.68617351  0.25399650  0.99693588  1
  O  O50  1  0.68617351  0.24600350  0.49693588  1
  O  O51  1  0.31382649  0.75399650  0.50306412  1
  O  O52  1  0.21546061  0.26086194  0.24669601  1
  O  O53  1  0.78453939  0.73913806  0.75330399  1
  O  O54  1  0.78453939  0.76086194  0.25330399  1
  O  O55  1  0.21546061  0.23913806  0.74669601  1
  F  F56  1  0.37506940  0.50723334  0.11368584  1
  F  F57  1  0.62493060  0.49276666  0.88631416  1
  F  F58  1  0.62493060  0.00723334  0.38631416  1
  F  F59  1  0.37506940  0.99276666  0.61368584  1
