# generated using pymatgen
data_Nd2Ti3(BiO6)2
_symmetry_space_group_name_H-M   'P 1'
_cell_length_a   5.42636368
_cell_length_b   5.46636919
_cell_length_c   16.90037231
_cell_angle_alpha   90.00000000
_cell_angle_beta   99.23822900
_cell_angle_gamma   90.00000000
_symmetry_Int_Tables_number   1
_chemical_formula_structural   Nd2Ti3(BiO6)2
_chemical_formula_sum   'Nd4 Ti6 Bi4 O24'
_cell_volume   494.80514234
_cell_formula_units_Z   2
loop_
 _symmetry_equiv_pos_site_id
 _symmetry_equiv_pos_as_xyz
  1  'x, y, z'
loop_
 _atom_site_type_symbol
 _atom_site_label
 _atom_site_symmetry_multiplicity
 _atom_site_fract_x
 _atom_site_fract_y
 _atom_site_fract_z
 _atom_site_occupancy
  Nd  Nd0  1  0.45099561  0.99675542  0.86905361  1
  Nd  Nd1  1  0.58194201  0.00324458  0.13094639  1
  Nd  Nd2  1  0.08194201  0.49675542  0.13094639  1
  Nd  Nd3  1  0.95099561  0.50324458  0.86905361  1
  Ti  Ti4  1  0.00643748  -0.00000000  1.00000000  1
  Ti  Ti5  1  0.50643748  0.50000000  1.00000000  1
  Ti  Ti6  1  0.13933413  0.99930517  0.25524355  1
  Ti  Ti7  1  0.88409057  0.00069483  0.74475645  1
  Ti  Ti8  1  0.38409057  0.49930517  0.74475645  1
  Ti  Ti9  1  0.63933413  0.50069483  0.25524355  1
  Bi  Bi10  1  0.21927518  0.47343214  0.42265315  1
  Bi  Bi11  1  0.79662202  0.52656786  0.57734685  1
  Bi  Bi12  1  0.29662202  0.97343214  0.57734685  1
  Bi  Bi13  1  0.71927518  0.02656786  0.42265315  1
  O  O14  1  0.93939423  0.08027811  0.88691018  1
  O  O15  1  0.05248405  0.91972189  0.11308982  1
  O  O16  1  0.55248405  0.58027811  0.11308982  1
  O  O17  1  0.43939423  0.41972189  0.88691018  1
  O  O18  1  0.37077001  0.24436063  0.21685669  1
  O  O19  1  0.15391331  0.75563937  0.78314331  1
  O  O20  1  0.65391331  0.74436063  0.78314331  1
  O  O21  1  0.87077001  0.25563937  0.21685669  1
  O  O22  1  0.50988468  0.24783319  0.50171753  1
  O  O23  1  0.00816715  0.75216681  0.49828247  1
  O  O24  1  0.50816715  0.74783319  0.49828247  1
  O  O25  1  0.00988468  0.25216681  0.50171753  1
  O  O26  1  0.19474728  0.06437622  0.36007979  1
  O  O27  1  0.83466748  0.93562378  0.63992021  1
  O  O28  1  0.33466748  0.56437622  0.63992021  1
  O  O29  1  0.69474728  0.43562378  0.36007979  1
  O  O30  1  0.62778643  0.24272674  0.75641555  1
  O  O31  1  0.87137088  0.75727326  0.24358445  1
  O  O32  1  0.37137088  0.74272674  0.24358445  1
  O  O33  1  0.12778643  0.25727326  0.75641555  1
  O  O34  1  0.25609509  0.25314342  0.02527267  1
  O  O35  1  0.23082242  0.74685658  0.97472733  1
  O  O36  1  0.73082242  0.75314342  0.97472733  1
  O  O37  1  0.75609509  0.24685658  0.02527267  1
