# generated using pymatgen
data_Sr2EuTaO6
_symmetry_space_group_name_H-M   'P 1'
_cell_length_a   5.87880746
_cell_length_b   6.07549881
_cell_length_c   8.39717020
_cell_angle_alpha   90.00000000
_cell_angle_beta   90.04396735
_cell_angle_gamma   90.00000000
_symmetry_Int_Tables_number   1
_chemical_formula_structural   Sr2EuTaO6
_chemical_formula_sum   'Sr4 Eu2 Ta2 O12'
_cell_volume   299.91901718
_cell_formula_units_Z   2
loop_
 _symmetry_equiv_pos_site_id
 _symmetry_equiv_pos_as_xyz
  1  'x, y, z'
loop_
 _atom_site_type_symbol
 _atom_site_label
 _atom_site_symmetry_multiplicity
 _atom_site_fract_x
 _atom_site_fract_y
 _atom_site_fract_z
 _atom_site_occupancy
  Sr  Sr0  1  0.01263804  0.45260400  0.25350139  1
  Sr  Sr1  1  0.98736196  0.54739600  0.74649861  1
  Sr  Sr2  1  0.48736196  0.95260400  0.24649861  1
  Sr  Sr3  1  0.51263804  0.04739600  0.75350139  1
  Eu  Eu4  1  0.00000000  0.00000000  0.50000000  1
  Eu  Eu5  1  0.50000000  0.50000000  0.00000000  1
  Ta  Ta6  1  0.00000000  0.00000000  0.00000000  1
  Ta  Ta7  1  0.50000000  0.50000000  0.50000000  1
  O  O8  1  0.90931219  0.03694196  0.23112406  1
  O  O9  1  0.09068781  0.96305804  0.76887594  1
  O  O10  1  0.59068781  0.53694196  0.26887594  1
  O  O11  1  0.40931219  0.46305804  0.73112406  1
  O  O12  1  0.18662013  0.72912813  0.05503935  1
  O  O13  1  0.81337987  0.27087187  0.94496065  1
  O  O14  1  0.31337987  0.22912813  0.44496065  1
  O  O15  1  0.68662013  0.77087187  0.55503935  1
  O  O16  1  0.27612609  0.18856692  0.04177299  1
  O  O17  1  0.72387391  0.81143308  0.95822701  1
  O  O18  1  0.22387391  0.68856692  0.45822701  1
  O  O19  1  0.77612609  0.31143308  0.54177299  1
