# generated using pymatgen
data_Sr4CaSi3
_symmetry_space_group_name_H-M   'P 1'
_cell_length_a   7.93633844
_cell_length_b   7.93633844
_cell_length_c   9.76323478
_cell_angle_alpha   113.98139695
_cell_angle_beta   113.98139695
_cell_angle_gamma   90.00000000
_symmetry_Int_Tables_number   1
_chemical_formula_structural   Sr4CaSi3
_chemical_formula_sum   'Sr8 Ca2 Si6'
_cell_volume   503.20627035
_cell_formula_units_Z   2
loop_
 _symmetry_equiv_pos_site_id
 _symmetry_equiv_pos_as_xyz
  1  'x, y, z'
loop_
 _atom_site_type_symbol
 _atom_site_label
 _atom_site_symmetry_multiplicity
 _atom_site_fract_x
 _atom_site_fract_y
 _atom_site_fract_z
 _atom_site_occupancy
  Sr  Sr0  1  0.32024837  0.82024837  0.27970312  1
  Sr  Sr1  1  0.67975163  0.17975163  0.72029688  1
  Sr  Sr2  1  0.95945476  0.45945476  0.27970312  1
  Sr  Sr3  1  0.45945476  0.32024837  0.27970312  1
  Sr  Sr4  1  0.17975163  0.04054524  0.72029688  1
  Sr  Sr5  1  0.04054524  0.54054524  0.72029688  1
  Sr  Sr6  1  0.54054524  0.67975163  0.72029688  1
  Sr  Sr7  1  0.82024837  0.95945476  0.27970312  1
  Ca  Ca8  1  0.00000000  -0.00000000  -0.00000000  1
  Ca  Ca9  1  0.50000000  0.50000000  0.00000000  1
  Si  Si10  1  0.61059540  0.11059540  0.00000000  1
  Si  Si11  1  0.38940460  0.88940460  -0.00000000  1
  Si  Si12  1  0.88940460  0.61059540  -0.00000000  1
  Si  Si13  1  0.11059540  0.38940460  0.00000000  1
  Si  Si14  1  0.25000000  0.25000000  0.50000000  1
  Si  Si15  1  0.75000000  0.75000000  0.50000000  1
