# generated using pymatgen
data_Rb3Au3Br8
_symmetry_space_group_name_H-M   'P 1'
_cell_length_a   7.63768725
_cell_length_b   7.63768725
_cell_length_c   19.72442945
_cell_angle_alpha   83.59274741
_cell_angle_beta   83.59274741
_cell_angle_gamma   64.02928873
_symmetry_Int_Tables_number   1
_chemical_formula_structural   Rb3Au3Br8
_chemical_formula_sum   'Rb6 Au6 Br16'
_cell_volume   1025.42125998
_cell_formula_units_Z   2
loop_
 _symmetry_equiv_pos_site_id
 _symmetry_equiv_pos_as_xyz
  1  'x, y, z'
loop_
 _atom_site_type_symbol
 _atom_site_label
 _atom_site_symmetry_multiplicity
 _atom_site_fract_x
 _atom_site_fract_y
 _atom_site_fract_z
 _atom_site_occupancy
  Rb  Rb0  1  0.32284212  0.31297588  0.58444210  1
  Rb  Rb1  1  0.67715788  0.68702412  0.41555790  1
  Rb  Rb2  1  0.68702412  0.67715788  0.91555790  1
  Rb  Rb3  1  0.31297588  0.32284212  0.08444210  1
  Rb  Rb4  1  0.01607870  0.98392130  0.75000000  1
  Rb  Rb5  1  0.98392130  0.01607870  0.25000000  1
  Au  Au6  1  -0.00000000  0.00000000  -0.00000000  1
  Au  Au7  1  -0.00000000  0.00000000  0.50000000  1
  Au  Au8  1  0.38544014  0.38146326  0.81032658  1
  Au  Au9  1  0.61455986  0.61853674  0.18967342  1
  Au  Au10  1  0.61853674  0.61455986  0.68967342  1
  Au  Au11  1  0.38146326  0.38544014  0.31032658  1
  Br  Br12  1  0.67380128  0.24364291  0.87669429  1
  Br  Br13  1  0.32619872  0.75635709  0.12330571  1
  Br  Br14  1  0.75635709  0.32619872  0.62330571  1
  Br  Br15  1  0.24364291  0.67380128  0.37669429  1
  Br  Br16  1  0.49975024  0.90572291  0.75440601  1
  Br  Br17  1  0.50024976  0.09427709  0.24559399  1
  Br  Br18  1  0.09427709  0.50024976  0.74559399  1
  Br  Br19  1  0.90572291  0.49975024  0.25440601  1
  Br  Br20  1  0.20781133  0.14911925  0.93615965  1
  Br  Br21  1  0.79218867  0.85088075  0.06384035  1
  Br  Br22  1  0.85088075  0.79218867  0.56384035  1
  Br  Br23  1  0.14911925  0.20781133  0.43615965  1
  Br  Br24  1  0.29056663  0.83761157  0.57214669  1
  Br  Br25  1  0.70943337  0.16238843  0.42785331  1
  Br  Br26  1  0.16238843  0.70943337  0.92785331  1
  Br  Br27  1  0.83761157  0.29056663  0.07214669  1
