# generated using pymatgen
data_SrCa4P3O12F
_symmetry_space_group_name_H-M   'P 1'
_cell_length_a   7.02412096
_cell_length_b   9.54293084
_cell_length_c   9.54293084
_cell_angle_alpha   119.99999785
_cell_angle_beta   90.00000000
_cell_angle_gamma   90.00000000
_symmetry_Int_Tables_number   1
_chemical_formula_structural   SrCa4P3O12F
_chemical_formula_sum   'Sr2 Ca8 P6 O24 F2'
_cell_volume   553.96990992
_cell_formula_units_Z   2
loop_
 _symmetry_equiv_pos_site_id
 _symmetry_equiv_pos_as_xyz
  1  'x, y, z'
loop_
 _atom_site_type_symbol
 _atom_site_label
 _atom_site_symmetry_multiplicity
 _atom_site_fract_x
 _atom_site_fract_y
 _atom_site_fract_z
 _atom_site_occupancy
  Sr  Sr0  1  0.71336583  0.66666700  0.33333300  1
  Sr  Sr1  1  0.21336583  0.33333300  0.66666700  1
  Ca  Ca2  1  0.21185760  0.66666700  0.33333300  1
  Ca  Ca3  1  0.71185760  0.33333300  0.66666700  1
  Ca  Ca4  1  0.96102941  0.75544935  0.00124011  1
  Ca  Ca5  1  0.96102941  0.24579076  0.24455065  1
  Ca  Ca6  1  0.46102941  0.24455065  0.99875989  1
  Ca  Ca7  1  0.96102941  0.99875989  0.75420924  1
  Ca  Ca8  1  0.46102941  0.75420924  0.75544935  1
  Ca  Ca9  1  0.46102941  0.00124011  0.24579076  1
  P  P10  1  0.96310115  0.60549665  0.63344758  1
  P  P11  1  0.96310115  0.02795093  0.39450335  1
  P  P12  1  0.46310115  0.39450335  0.36655242  1
  P  P13  1  0.96310115  0.36655242  0.97204907  1
  P  P14  1  0.46310115  0.97204907  0.60549665  1
  P  P15  1  0.46310115  0.63344758  0.02795093  1
  O  O16  1  0.97330454  0.84189486  0.31831718  1
  O  O17  1  0.97330454  0.47642232  0.15810514  1
  O  O18  1  0.47330454  0.15810514  0.68168282  1
  O  O19  1  0.97330454  0.68168282  0.52357768  1
  O  O20  1  0.47330454  0.52357768  0.84189486  1
  O  O21  1  0.47330454  0.31831718  0.47642232  1
  O  O22  1  0.64200973  0.74423011  0.09138992  1
  O  O23  1  0.64200973  0.34715981  0.25576989  1
  O  O24  1  0.14200973  0.25576989  0.90861008  1
  O  O25  1  0.64200973  0.90861008  0.65284019  1
  O  O26  1  0.14200973  0.65284019  0.74423011  1
  O  O27  1  0.14200973  0.09138992  0.34715981  1
  O  O28  1  0.95198856  0.41717394  0.53088937  1
  O  O29  1  0.95198856  0.11371543  0.58282606  1
  O  O30  1  0.45198856  0.58282606  0.46911063  1
  O  O31  1  0.95198856  0.46911063  0.88628457  1
  O  O32  1  0.45198856  0.88628457  0.41717394  1
  O  O33  1  0.45198856  0.53088937  0.11371543  1
  O  O34  1  0.78612600  0.66490197  0.74537771  1
  O  O35  1  0.78612600  0.08047574  0.33509803  1
  O  O36  1  0.28612600  0.33509803  0.25462229  1
  O  O37  1  0.78612600  0.25462229  0.91952426  1
  O  O38  1  0.28612600  0.91952426  0.66490197  1
  O  O39  1  0.28612600  0.74537771  0.08047574  1
  F  F40  1  0.96709837  0.00000000  0.00000000  1
  F  F41  1  0.46709837  0.00000000  0.00000000  1
