# generated using pymatgen
data_Mg30TiSnO32
_symmetry_space_group_name_H-M   'P 1'
_cell_length_a   8.62616196
_cell_length_b   8.60169304
_cell_length_c   8.60169304
_cell_angle_alpha   90.00000000
_cell_angle_beta   90.00000000
_cell_angle_gamma   90.00000000
_symmetry_Int_Tables_number   1
_chemical_formula_structural   Mg30TiSnO32
_chemical_formula_sum   'Mg30 Ti1 Sn1 O32'
_cell_volume   638.24215961
_cell_formula_units_Z   1
loop_
 _symmetry_equiv_pos_site_id
 _symmetry_equiv_pos_as_xyz
  1  'x, y, z'
loop_
 _atom_site_type_symbol
 _atom_site_label
 _atom_site_symmetry_multiplicity
 _atom_site_fract_x
 _atom_site_fract_y
 _atom_site_fract_z
 _atom_site_occupancy
  Mg  Mg0  1  0.00000000  -0.00000000  0.50000000  1
  Mg  Mg1  1  0.00000000  0.50000000  -0.00000000  1
  Mg  Mg2  1  0.50000000  -0.00000000  -0.00000000  1
  Mg  Mg3  1  0.50000000  -0.00000000  0.50000000  1
  Mg  Mg4  1  0.50000000  0.50000000  -0.00000000  1
  Mg  Mg5  1  0.50000000  0.50000000  0.50000000  1
  Mg  Mg6  1  0.00000000  0.25239575  0.25239575  1
  Mg  Mg7  1  0.00000000  0.25239575  0.74760425  1
  Mg  Mg8  1  0.00000000  0.74760425  0.25239575  1
  Mg  Mg9  1  0.00000000  0.74760425  0.74760425  1
  Mg  Mg10  1  0.50000000  0.25053070  0.25053070  1
  Mg  Mg11  1  0.50000000  0.25053070  0.74946930  1
  Mg  Mg12  1  0.50000000  0.74946930  0.25053070  1
  Mg  Mg13  1  0.50000000  0.74946930  0.74946930  1
  Mg  Mg14  1  0.25488355  -0.00000000  0.25460383  1
  Mg  Mg15  1  0.25488355  -0.00000000  0.74539617  1
  Mg  Mg16  1  0.25130298  0.50000000  0.25081919  1
  Mg  Mg17  1  0.25130298  0.50000000  0.74918081  1
  Mg  Mg18  1  0.74511645  -0.00000000  0.25460383  1
  Mg  Mg19  1  0.74511645  -0.00000000  0.74539617  1
  Mg  Mg20  1  0.74869702  0.50000000  0.25081919  1
  Mg  Mg21  1  0.74869702  0.50000000  0.74918081  1
  Mg  Mg22  1  0.25488355  0.25460383  -0.00000000  1
  Mg  Mg23  1  0.25130298  0.25081919  0.50000000  1
  Mg  Mg24  1  0.25488355  0.74539617  -0.00000000  1
  Mg  Mg25  1  0.25130298  0.74918081  0.50000000  1
  Mg  Mg26  1  0.74511645  0.25460383  -0.00000000  1
  Mg  Mg27  1  0.74869702  0.25081919  0.50000000  1
  Mg  Mg28  1  0.74511645  0.74539617  -0.00000000  1
  Mg  Mg29  1  0.74869702  0.74918081  0.50000000  1
  Ti  Ti30  1  0.00000000  0.50000000  0.50000000  1
  Sn  Sn31  1  0.00000000  -0.00000000  -0.00000000  1
  O  O32  1  0.27009143  -0.00000000  -0.00000000  1
  O  O33  1  0.25340502  -0.00000000  0.50000000  1
  O  O34  1  0.25340502  0.50000000  -0.00000000  1
  O  O35  1  0.26077054  0.50000000  0.50000000  1
  O  O36  1  0.72990857  -0.00000000  -0.00000000  1
  O  O37  1  0.74659498  -0.00000000  0.50000000  1
  O  O38  1  0.74659498  0.50000000  -0.00000000  1
  O  O39  1  0.73922946  0.50000000  0.50000000  1
  O  O40  1  0.24914236  0.24959491  0.24959491  1
  O  O41  1  0.24914236  0.24959491  0.75040509  1
  O  O42  1  0.24914236  0.75040509  0.24959491  1
  O  O43  1  0.24914236  0.75040509  0.75040509  1
  O  O44  1  0.75085764  0.24959491  0.24959491  1
  O  O45  1  0.75085764  0.24959491  0.75040509  1
  O  O46  1  0.75085764  0.75040509  0.24959491  1
  O  O47  1  0.75085764  0.75040509  0.75040509  1
  O  O48  1  0.00000000  -0.00000000  0.26993569  1
  O  O49  1  0.00000000  -0.00000000  0.73006431  1
  O  O50  1  0.00000000  0.50000000  0.24927431  1
  O  O51  1  0.00000000  0.50000000  0.75072569  1
  O  O52  1  0.50000000  -0.00000000  0.25296609  1
  O  O53  1  0.50000000  -0.00000000  0.74703391  1
  O  O54  1  0.50000000  0.50000000  0.24923642  1
  O  O55  1  0.50000000  0.50000000  0.75076358  1
  O  O56  1  0.00000000  0.26993569  -0.00000000  1
  O  O57  1  0.00000000  0.24927431  0.50000000  1
  O  O58  1  0.00000000  0.73006431  -0.00000000  1
  O  O59  1  0.00000000  0.75072569  0.50000000  1
  O  O60  1  0.50000000  0.25296609  -0.00000000  1
  O  O61  1  0.50000000  0.24923642  0.50000000  1
  O  O62  1  0.50000000  0.74703391  -0.00000000  1
  O  O63  1  0.50000000  0.75076358  0.50000000  1
