# generated using pymatgen
data_GdSBr
_symmetry_space_group_name_H-M   'P 1'
_cell_length_a   6.83969791
_cell_length_b   6.82156899
_cell_length_c   6.96979744
_cell_angle_alpha   90.00000000
_cell_angle_beta   90.00000000
_cell_angle_gamma   99.25242411
_symmetry_Int_Tables_number   1
_chemical_formula_structural   GdSBr
_chemical_formula_sum   'Gd4 S4 Br4'
_cell_volume   320.96221905
_cell_formula_units_Z   4
loop_
 _symmetry_equiv_pos_site_id
 _symmetry_equiv_pos_as_xyz
  1  'x, y, z'
loop_
 _atom_site_type_symbol
 _atom_site_label
 _atom_site_symmetry_multiplicity
 _atom_site_fract_x
 _atom_site_fract_y
 _atom_site_fract_z
 _atom_site_occupancy
  Gd  Gd0  1  0.68129635  0.78960107  0.96466547  1
  Gd  Gd1  1  0.31870365  0.21039893  0.03533453  1
  Gd  Gd2  1  0.31870365  0.71039893  0.46466547  1
  Gd  Gd3  1  0.68129635  0.28960107  0.53533453  1
  S  S4  1  0.44568917  0.99184798  0.73978734  1
  S  S5  1  0.55431083  0.00815202  0.26021266  1
  S  S6  1  0.55431083  0.50815202  0.23978734  1
  S  S7  1  0.44568917  0.49184798  0.76021266  1
  Br  Br8  1  0.91530972  0.71266775  0.61602476  1
  Br  Br9  1  0.08469028  0.28733225  0.38397524  1
  Br  Br10  1  0.08469028  0.78733225  0.11602476  1
  Br  Br11  1  0.91530972  0.21266775  0.88397524  1
