# generated using pymatgen
data_HfAsRu
_symmetry_space_group_name_H-M   'P 1'
_cell_length_a   6.70329127
_cell_length_b   7.65278993
_cell_length_c   7.68186922
_cell_angle_alpha   119.87486181
_cell_angle_beta   115.86843022
_cell_angle_gamma   90.00000000
_symmetry_Int_Tables_number   1
_chemical_formula_structural   HfAsRu
_chemical_formula_sum   'Hf6 As6 Ru6'
_cell_volume   295.29749314
_cell_formula_units_Z   6
loop_
 _symmetry_equiv_pos_site_id
 _symmetry_equiv_pos_as_xyz
  1  'x, y, z'
loop_
 _atom_site_type_symbol
 _atom_site_label
 _atom_site_symmetry_multiplicity
 _atom_site_fract_x
 _atom_site_fract_y
 _atom_site_fract_z
 _atom_site_occupancy
  Hf  Hf0  1  0.24281844  0.46741820  0.43483641  1
  Hf  Hf1  1  0.80798204  0.53258180  0.56516359  1
  Hf  Hf2  1  0.66534016  0.74862057  0.99724113  1
  Hf  Hf3  1  0.66809903  0.25137943  0.00275887  1
  Hf  Hf4  1  0.84654710  0.05217129  0.60434258  1
  Hf  Hf5  1  0.24220452  0.94782871  0.39565742  1
  As  As6  1  0.27653752  0.27672851  0.05345701  1
  As  As7  1  0.22308051  0.72327149  0.94654299  1
  As  As8  1  0.57979043  0.83857142  0.66723482  1
  As  As9  1  0.91255561  0.16142858  0.33276518  1
  As  As10  1  0.91255561  0.67133660  0.33276518  1
  As  As11  1  0.57979043  0.32866340  0.66723482  1
  Ru  Ru12  1  0.00145826  1.00000000  1.00000000  1
  Ru  Ru13  1  0.00145826  0.50000000  1.00000000  1
  Ru  Ru14  1  0.49243050  0.65026749  0.24476997  1
  Ru  Ru15  1  0.24766054  0.34973251  0.75523003  1
  Ru  Ru16  1  0.24766054  0.90549753  0.75523003  1
  Ru  Ru17  1  0.49243050  0.09450247  0.24476997  1
