# generated using pymatgen
data_K2NaTi2Fe7Si8H4O31
_symmetry_space_group_name_H-M   'P 1'
_cell_length_a   5.45029000
_cell_length_b   11.72230449
_cell_length_c   12.07849675
_cell_angle_alpha   63.93341037
_cell_angle_beta   76.91291553
_cell_angle_gamma   85.69016844
_symmetry_Int_Tables_number   1
_chemical_formula_structural   K2NaTi2Fe7Si8H4O31
_chemical_formula_sum   'K2 Na1 Ti2 Fe7 Si8 H4 O31'
_cell_volume   674.93497510
_cell_formula_units_Z   1
loop_
 _symmetry_equiv_pos_site_id
 _symmetry_equiv_pos_as_xyz
  1  'x, y, z'
loop_
 _atom_site_type_symbol
 _atom_site_label
 _atom_site_symmetry_multiplicity
 _atom_site_fract_x
 _atom_site_fract_y
 _atom_site_fract_z
 _atom_site_occupancy
  K  K0  1  0.37349021  0.00325412  0.25552156  1
  K  K1  1  0.62650979  0.99674588  0.74447844  1
  Na  Na2  1  -0.00000000  -0.00000000  -0.00000000  1
  Ti  Ti3  1  0.49374798  0.82142327  0.07599261  1
  Ti  Ti4  1  0.50625202  0.17857673  0.92400739  1
  Fe  Fe5  1  0.56667227  0.52154931  0.34050321  1
  Fe  Fe6  1  0.43332773  0.47845069  0.65949679  1
  Fe  Fe7  1  0.15406986  0.52398015  0.20146508  1
  Fe  Fe8  1  0.84593014  0.47601985  0.79853492  1
  Fe  Fe9  1  0.70774426  0.51629658  0.06752702  1
  Fe  Fe10  1  0.29225574  0.48370342  0.93247298  1
  Fe  Fe11  1  -0.00000000  0.50000000  0.50000000  1
  Si  Si12  1  0.79837428  0.25802561  0.32405487  1
  Si  Si13  1  0.20162572  0.74197439  0.67594513  1
  Si  Si14  1  0.09445227  0.23088186  0.72603000  1
  Si  Si15  1  0.90554773  0.76911814  0.27397000  1
  Si  Si16  1  0.92523110  0.23735139  0.06818767  1
  Si  Si17  1  0.07476890  0.76264861  0.93181233  1
  Si  Si18  1  0.22921471  0.25193550  0.45495033  1
  Si  Si19  1  0.77078529  0.74806450  0.54504967  1
  H  H20  1  0.32770448  0.68831720  0.40494077  1
  H  H21  1  0.67229552  0.31168280  0.59505923  1
  H  H22  1  0.38619556  0.31723631  0.15468166  1
  H  H23  1  0.61380444  0.68276369  0.84531834  1
  O  O24  1  0.85079087  0.19807874  0.22277717  1
  O  O25  1  0.14920913  0.80192126  0.77722283  1
  O  O26  1  0.22219247  0.40652601  0.40031584  1
  O  O27  1  0.77780753  0.59347399  0.59968416  1
  O  O28  1  0.47734883  0.62335943  0.16534323  1
  O  O29  1  0.52265117  0.37664057  0.83465677  1
  O  O30  1  0.09543013  0.38838628  0.66677022  1
  O  O31  1  0.90456987  0.61161372  0.33322978  1
  O  O32  1  0.01355394  0.19871923  0.41110867  1
  O  O33  1  0.98644606  0.80128077  0.58889133  1
  O  O34  1  0.32326865  0.59807370  0.46158059  1
  O  O35  1  0.67673135  0.40192630  0.53841941  1
  O  O36  1  0.70211113  0.17445428  0.04280471  1
  O  O37  1  0.29788887  0.82554572  0.95719529  1
  O  O38  1  0.19246568  0.17227868  0.04473698  1
  O  O39  1  0.80753432  0.82772132  0.95526302  1
  O  O40  1  0.05752819  0.60794602  0.01489696  1
  O  O41  1  0.94247181  0.39205398  0.98510304  1
  O  O42  1  0.18354666  0.82718255  0.19700006  1
  O  O43  1  0.81645334  0.17281745  0.80299994  1
  O  O44  1  0.37387316  0.40872137  0.11692985  1
  O  O45  1  0.62612684  0.59127863  0.88307015  1
  O  O46  1  0.31054881  0.17368442  0.80535421  1
  O  O47  1  0.68945119  0.82631558  0.19464579  1
  O  O48  1  0.81549948  0.41239382  0.25856261  1
  O  O49  1  0.18450052  0.58760618  0.74143739  1
  O  O50  1  0.16161757  0.18739802  0.60822329  1
  O  O51  1  0.83838243  0.81260198  0.39177671  1
  O  O52  1  0.50000000  -0.00000000  -0.00000000  1
  O  O53  1  0.51170024  0.20451367  0.41079263  1
  O  O54  1  0.48829976  0.79548633  0.58920737  1
