# generated using pymatgen
data_HoAl3(BO3)4
_symmetry_space_group_name_H-M   'P 1'
_cell_length_a   5.92550741
_cell_length_b   5.92550741
_cell_length_c   11.12707187
_cell_angle_alpha   98.04440088
_cell_angle_beta   98.04440088
_cell_angle_gamma   104.47592139
_symmetry_Int_Tables_number   1
_chemical_formula_structural   HoAl3(BO3)4
_chemical_formula_sum   'Ho2 Al6 B8 O24'
_cell_volume   368.27685484
_cell_formula_units_Z   2
loop_
 _symmetry_equiv_pos_site_id
 _symmetry_equiv_pos_as_xyz
  1  'x, y, z'
loop_
 _atom_site_type_symbol
 _atom_site_label
 _atom_site_symmetry_multiplicity
 _atom_site_fract_x
 _atom_site_fract_y
 _atom_site_fract_z
 _atom_site_occupancy
  Ho  Ho0  1  0.96419377  0.03580623  0.75000000  1
  Ho  Ho1  1  0.03580623  0.96419377  0.25000000  1
  Al  Al2  1  0.69660067  0.19345986  0.47195499  1
  Al  Al3  1  0.30339933  0.80654014  0.52804501  1
  Al  Al4  1  0.80654014  0.30339933  0.02804501  1
  Al  Al5  1  0.19345986  0.69660067  0.97195499  1
  Al  Al6  1  0.41197601  0.58802399  0.75000000  1
  Al  Al7  1  0.58802399  0.41197601  0.25000000  1
  B  B8  1  0.49260575  0.11796948  0.77730754  1
  B  B9  1  0.50739425  0.88203052  0.22269246  1
  B  B10  1  0.88203052  0.50739425  0.72269246  1
  B  B11  1  0.11796948  0.49260575  0.27730754  1
  B  B12  1  0.72178025  0.77749713  0.99679722  1
  B  B13  1  0.27821975  0.22250287  0.00320278  1
  B  B14  1  0.22250287  0.27821975  0.50320278  1
  B  B15  1  0.77749713  0.72178025  0.49679722  1
  O  O16  1  0.18678217  0.99718865  0.93244386  1
  O  O17  1  0.81321783  0.00281135  0.06755614  1
  O  O18  1  0.00281135  0.81321783  0.56755614  1
  O  O19  1  0.99718865  0.18678217  0.43244386  1
  O  O20  1  0.42280770  0.89403005  0.70440375  1
  O  O21  1  0.57719230  0.10596995  0.29559625  1
  O  O22  1  0.10596995  0.57719230  0.79559625  1
  O  O23  1  0.89403005  0.42280770  0.20440375  1
  O  O24  1  0.70301161  0.17567138  0.85981427  1
  O  O25  1  0.29698839  0.82432862  0.14018573  1
  O  O26  1  0.82432862  0.29698839  0.64018573  1
  O  O27  1  0.17567138  0.70301161  0.35981427  1
  O  O28  1  0.62842206  0.86899948  0.50187956  1
  O  O29  1  0.37157794  0.13100052  0.49812044  1
  O  O30  1  0.13100052  0.37157794  0.99812044  1
  O  O31  1  0.86899948  0.62842206  0.00187956  1
  O  O32  1  0.34948047  0.26506977  0.75959732  1
  O  O33  1  0.65051953  0.73493023  0.24040268  1
  O  O34  1  0.73493023  0.65051953  0.74040268  1
  O  O35  1  0.26506977  0.34948047  0.25959732  1
  O  O36  1  0.49467960  0.70163164  0.92754983  1
  O  O37  1  0.50532040  0.29836836  0.07245017  1
  O  O38  1  0.29836836  0.50532040  0.57245017  1
  O  O39  1  0.70163164  0.49467960  0.42754983  1
