# generated using pymatgen
data_Na2CaFe2(PO4)3
_symmetry_space_group_name_H-M   'P 1'
_cell_length_a   6.61461629
_cell_length_b   8.88902892
_cell_length_c   8.88902892
_cell_angle_alpha   91.97487114
_cell_angle_beta   106.94471304
_cell_angle_gamma   106.94471304
_symmetry_Int_Tables_number   1
_chemical_formula_structural   Na2CaFe2(PO4)3
_chemical_formula_sum   'Na4 Ca2 Fe4 P6 O24'
_cell_volume   474.16830903
_cell_formula_units_Z   2
loop_
 _symmetry_equiv_pos_site_id
 _symmetry_equiv_pos_as_xyz
  1  'x, y, z'
loop_
 _atom_site_type_symbol
 _atom_site_label
 _atom_site_symmetry_multiplicity
 _atom_site_fract_x
 _atom_site_fract_y
 _atom_site_fract_z
 _atom_site_occupancy
  Na  Na0  1  0.75000000  0.97548749  0.02451251  1
  Na  Na1  1  0.25000000  0.02451251  0.97548749  1
  Na  Na2  1  0.00000000  0.50000000  0.50000000  1
  Na  Na3  1  0.50000000  0.50000000  0.50000000  1
  Ca  Ca4  1  0.75000000  0.26865657  0.73134343  1
  Ca  Ca5  1  0.25000000  0.73134343  0.26865657  1
  Fe  Fe6  1  0.63276432  0.38830523  0.06419637  1
  Fe  Fe7  1  0.36723568  0.61169477  0.93580363  1
  Fe  Fe8  1  0.86723568  0.93580363  0.61169477  1
  Fe  Fe9  1  0.13276432  0.06419637  0.38830523  1
  P  P10  1  0.75000000  0.71863756  0.28136244  1
  P  P11  1  0.25000000  0.28136244  0.71863756  1
  P  P12  1  0.87549199  0.65935762  0.86441234  1
  P  P13  1  0.12450801  0.34064238  0.13558766  1
  P  P14  1  0.62450801  0.13558766  0.34064238  1
  P  P15  1  0.37549199  0.86441234  0.65935762  1
  O  O16  1  0.77160222  0.55118360  0.25921561  1
  O  O17  1  0.22839778  0.44881640  0.74078439  1
  O  O18  1  0.72839778  0.74078439  0.44881640  1
  O  O19  1  0.27160222  0.25921561  0.55118360  1
  O  O20  1  0.82032104  0.54110315  0.71735205  1
  O  O21  1  0.17967896  0.45889685  0.28264795  1
  O  O22  1  0.67967896  0.28264795  0.45889685  1
  O  O23  1  0.32032104  0.71735205  0.54110315  1
  O  O24  1  0.53974987  0.73931907  0.15879496  1
  O  O25  1  0.46025013  0.26068093  0.84120504  1
  O  O26  1  0.96025013  0.84120504  0.26068093  1
  O  O27  1  0.03974987  0.15879496  0.73931907  1
  O  O28  1  0.68809992  0.60170859  0.94517601  1
  O  O29  1  0.31190008  0.39829141  0.05482399  1
  O  O30  1  0.81190008  0.05482399  0.39829141  1
  O  O31  1  0.18809992  0.94517601  0.60170859  1
  O  O32  1  0.89239952  0.83100955  0.82399998  1
  O  O33  1  0.10760048  0.16899045  0.17600002  1
  O  O34  1  0.60760048  0.17600002  0.16899045  1
  O  O35  1  0.39239952  0.82399998  0.83100955  1
  O  O36  1  0.89750373  0.33270336  0.01096935  1
  O  O37  1  0.10249627  0.66729664  0.98903065  1
  O  O38  1  0.60249627  0.98903065  0.66729664  1
  O  O39  1  0.39750373  0.01096935  0.33270336  1
