# generated using pymatgen
data_Gd3W(ClO2)3
_symmetry_space_group_name_H-M   'P 1'
_cell_length_a   5.33336625
_cell_length_b   9.22050835
_cell_length_c   9.22050835
_cell_angle_alpha   120.00000575
_cell_angle_beta   90.00000000
_cell_angle_gamma   90.00000000
_symmetry_Int_Tables_number   1
_chemical_formula_structural   Gd3W(ClO2)3
_chemical_formula_sum   'Gd6 W2 Cl6 O12'
_cell_volume   392.68267968
_cell_formula_units_Z   2
loop_
 _symmetry_equiv_pos_site_id
 _symmetry_equiv_pos_as_xyz
  1  'x, y, z'
loop_
 _atom_site_type_symbol
 _atom_site_label
 _atom_site_symmetry_multiplicity
 _atom_site_fract_x
 _atom_site_fract_y
 _atom_site_fract_z
 _atom_site_occupancy
  Gd  Gd0  1  0.75000000  0.59504399  0.68529944  1
  Gd  Gd1  1  0.25000000  0.40495601  0.31470056  1
  Gd  Gd2  1  0.75000000  0.09025545  0.40495601  1
  Gd  Gd3  1  0.25000000  0.90974455  0.59504399  1
  Gd  Gd4  1  0.75000000  0.31470056  0.90974455  1
  Gd  Gd5  1  0.25000000  0.68529944  0.09025545  1
  W  W6  1  0.75000000  0.66666700  0.33333300  1
  W  W7  1  0.25000000  0.33333300  0.66666700  1
  Cl  Cl8  1  0.75000000  0.80883685  0.04901833  1
  Cl  Cl9  1  0.25000000  0.19116315  0.95098167  1
  Cl  Cl10  1  0.75000000  0.24018148  0.19116315  1
  Cl  Cl11  1  0.25000000  0.75981852  0.80883685  1
  Cl  Cl12  1  0.75000000  0.95098167  0.75981852  1
  Cl  Cl13  1  0.25000000  0.04901833  0.24018148  1
  O  O14  1  0.98586183  0.84341028  0.36517558  1
  O  O15  1  0.01413817  0.15658972  0.63482442  1
  O  O16  1  0.98586183  0.52176531  0.15658972  1
  O  O17  1  0.48586183  0.15658972  0.63482442  1
  O  O18  1  0.01413817  0.47823469  0.84341028  1
  O  O19  1  0.51413817  0.84341028  0.36517558  1
  O  O20  1  0.98586183  0.63482442  0.47823469  1
  O  O21  1  0.48586183  0.47823469  0.84341028  1
  O  O22  1  0.01413817  0.36517558  0.52176531  1
  O  O23  1  0.51413817  0.52176531  0.15658972  1
  O  O24  1  0.48586183  0.36517558  0.52176531  1
  O  O25  1  0.51413817  0.63482442  0.47823469  1
