# generated using pymatgen
data_K2LaTa6(Br5O)3
_symmetry_space_group_name_H-M   'P 1'
_cell_length_a   9.59609562
_cell_length_b   9.59609562
_cell_length_c   18.08284879
_cell_angle_alpha   90.00000000
_cell_angle_beta   90.00000000
_cell_angle_gamma   120.00000364
_symmetry_Int_Tables_number   1
_chemical_formula_structural   K2LaTa6(Br5O)3
_chemical_formula_sum   'K4 La2 Ta12 Br30 O6'
_cell_volume   1442.07085618
_cell_formula_units_Z   2
loop_
 _symmetry_equiv_pos_site_id
 _symmetry_equiv_pos_as_xyz
  1  'x, y, z'
loop_
 _atom_site_type_symbol
 _atom_site_label
 _atom_site_symmetry_multiplicity
 _atom_site_fract_x
 _atom_site_fract_y
 _atom_site_fract_z
 _atom_site_occupancy
  K  K0  1  0.66666700  0.33333300  0.95296094  1
  K  K1  1  0.33333300  0.66666700  0.04703906  1
  K  K2  1  0.66666700  0.33333300  0.54703821  1
  K  K3  1  0.33333300  0.66666700  0.45296179  1
  La  La4  1  0.33333300  0.66666700  0.75000382  1
  La  La5  1  0.66666700  0.33333300  0.24999618  1
  Ta  Ta6  1  0.81091567  0.82756403  0.81420831  1
  Ta  Ta7  1  0.18908433  0.17243597  0.18579169  1
  Ta  Ta8  1  0.01664836  0.18908433  0.81420831  1
  Ta  Ta9  1  0.01664698  0.82756285  0.68579179  1
  Ta  Ta10  1  0.98335164  0.81091567  0.18579169  1
  Ta  Ta11  1  0.98335302  0.17243715  0.31420821  1
  Ta  Ta12  1  0.17243597  0.98335164  0.81420831  1
  Ta  Ta13  1  0.17243715  0.18908413  0.68579179  1
  Ta  Ta14  1  0.82756403  0.01664836  0.18579169  1
  Ta  Ta15  1  0.82756285  0.81091587  0.31420821  1
  Ta  Ta16  1  0.81091587  0.98335302  0.68579179  1
  Ta  Ta17  1  0.18908413  0.01664698  0.31420821  1
  Br  Br18  1  0.78601205  0.57203026  0.74999968  1
  Br  Br19  1  0.21398795  0.42796974  0.25000032  1
  Br  Br20  1  0.78601821  0.21398795  0.74999968  1
  Br  Br21  1  0.21398179  0.78601205  0.25000032  1
  Br  Br22  1  0.42796974  0.21398179  0.74999968  1
  Br  Br23  1  0.57203026  0.78601821  0.25000032  1
  Br  Br24  1  0.79580271  0.01908713  0.91457990  1
  Br  Br25  1  0.20419729  0.98091287  0.08542010  1
  Br  Br26  1  0.22328443  0.20419729  0.91457990  1
  Br  Br27  1  0.22328389  0.01908619  0.58542033  1
  Br  Br28  1  0.77671557  0.79580271  0.08542010  1
  Br  Br29  1  0.77671611  0.98091381  0.41457967  1
  Br  Br30  1  0.98091287  0.77671557  0.91457990  1
  Br  Br31  1  0.98091381  0.20419770  0.58542033  1
  Br  Br32  1  0.01908713  0.22328443  0.08542010  1
  Br  Br33  1  0.01908619  0.79580230  0.41457967  1
  Br  Br34  1  0.79580230  0.77671611  0.58542033  1
  Br  Br35  1  0.20419770  0.22328389  0.41457967  1
  Br  Br36  1  0.52964701  0.60286875  0.88454222  1
  Br  Br37  1  0.47035299  0.39713125  0.11545778  1
  Br  Br38  1  0.07322174  0.47035299  0.88454222  1
  Br  Br39  1  0.07322178  0.60286807  0.61545765  1
  Br  Br40  1  0.92677826  0.52964701  0.11545778  1
  Br  Br41  1  0.92677822  0.39713193  0.38454235  1
  Br  Br42  1  0.39713125  0.92677826  0.88454222  1
  Br  Br43  1  0.39713193  0.47035371  0.61545765  1
  Br  Br44  1  0.60286875  0.07322174  0.11545778  1
  Br  Br45  1  0.60286807  0.52964629  0.38454235  1
  Br  Br46  1  0.52964629  0.92677822  0.61545765  1
  Br  Br47  1  0.47035371  0.07322178  0.38454235  1
  O  O48  1  0.18075087  0.36149885  0.74999998  1
  O  O49  1  0.81924913  0.63850115  0.25000002  1
  O  O50  1  0.18074798  0.81924913  0.74999998  1
  O  O51  1  0.81925202  0.18075087  0.25000002  1
  O  O52  1  0.63850115  0.81925202  0.74999998  1
  O  O53  1  0.36149885  0.18074798  0.25000002  1
