# generated using pymatgen
data_Nd12Ni6Pb
_symmetry_space_group_name_H-M   'P 1'
_cell_length_a   8.75191308
_cell_length_b   8.75191308
_cell_length_c   8.75191308
_cell_angle_alpha   109.47122063
_cell_angle_beta   109.47122063
_cell_angle_gamma   109.47122063
_symmetry_Int_Tables_number   1
_chemical_formula_structural   Nd12Ni6Pb
_chemical_formula_sum   'Nd12 Ni6 Pb1'
_cell_volume   516.04443138
_cell_formula_units_Z   1
loop_
 _symmetry_equiv_pos_site_id
 _symmetry_equiv_pos_as_xyz
  1  'x, y, z'
loop_
 _atom_site_type_symbol
 _atom_site_label
 _atom_site_symmetry_multiplicity
 _atom_site_fract_x
 _atom_site_fract_y
 _atom_site_fract_z
 _atom_site_occupancy
  Nd  Nd0  1  0.81370972  0.68999210  0.50370182  1
  Nd  Nd1  1  0.18629028  0.31000790  0.49629818  1
  Nd  Nd2  1  0.18629028  0.68999210  0.87628237  1
  Nd  Nd3  1  0.81370972  0.31000790  0.12371763  1
  Nd  Nd4  1  0.68999210  0.50370182  0.81370972  1
  Nd  Nd5  1  0.31000790  0.49629818  0.18629028  1
  Nd  Nd6  1  0.68999210  0.87628237  0.18629028  1
  Nd  Nd7  1  0.31000790  0.12371763  0.81370972  1
  Nd  Nd8  1  0.50370182  0.81370972  0.68999210  1
  Nd  Nd9  1  0.49629818  0.18629028  0.31000790  1
  Nd  Nd10  1  0.12371763  0.81370972  0.31000790  1
  Nd  Nd11  1  0.87628237  0.18629028  0.68999210  1
  Ni  Ni12  1  0.88192700  0.38192700  0.50000000  1
  Ni  Ni13  1  0.11807300  0.61807300  0.50000000  1
  Ni  Ni14  1  0.38192700  0.50000000  0.88192700  1
  Ni  Ni15  1  0.61807300  0.50000000  0.11807300  1
  Ni  Ni16  1  0.50000000  0.88192700  0.38192700  1
  Ni  Ni17  1  0.50000000  0.11807300  0.61807300  1
  Pb  Pb18  1  -0.00000000  -0.00000000  -0.00000000  1
