# generated using pymatgen
data_InGaSnO5
_symmetry_space_group_name_H-M   'P 1'
_cell_length_a   3.26021947
_cell_length_b   11.05502930
_cell_length_c   12.01846306
_cell_angle_alpha   99.05584321
_cell_angle_beta   90.00000000
_cell_angle_gamma   90.00000000
_symmetry_Int_Tables_number   1
_chemical_formula_structural   InGaSnO5
_chemical_formula_sum   'In4 Ga4 Sn4 O20'
_cell_volume   427.76804737
_cell_formula_units_Z   4
loop_
 _symmetry_equiv_pos_site_id
 _symmetry_equiv_pos_as_xyz
  1  'x, y, z'
loop_
 _atom_site_type_symbol
 _atom_site_label
 _atom_site_symmetry_multiplicity
 _atom_site_fract_x
 _atom_site_fract_y
 _atom_site_fract_z
 _atom_site_occupancy
  In  In0  1  0.50000000  0.69655871  0.92313779  1
  In  In1  1  0.50000000  0.30344129  0.07686221  1
  In  In2  1  0.00000000  0.61828983  0.67115279  1
  In  In3  1  0.00000000  0.38171017  0.32884721  1
  Ga  Ga4  1  0.50000000  0.91481373  0.73674834  1
  Ga  Ga5  1  0.50000000  0.08518627  0.26325166  1
  Ga  Ga6  1  0.00000000  0.40029135  0.84833705  1
  Ga  Ga7  1  0.00000000  0.59970865  0.15166295  1
  Sn  Sn8  1  0.00000000  -0.00000000  -0.00000000  1
  Sn  Sn9  1  0.00000000  -0.00000000  0.50000000  1
  Sn  Sn10  1  0.50000000  0.68866302  0.40708051  1
  Sn  Sn11  1  0.50000000  0.31133698  0.59291949  1
  O  O12  1  0.00000000  0.68652907  0.51426231  1
  O  O13  1  0.00000000  0.31347093  0.48573769  1
  O  O14  1  0.50000000  0.88364849  0.45297385  1
  O  O15  1  0.50000000  0.11635151  0.54702615  1
  O  O16  1  0.00000000  0.57254382  0.85120921  1
  O  O17  1  0.00000000  0.42745618  0.14879079  1
  O  O18  1  0.50000000  0.99910600  0.88437850  1
  O  O19  1  0.50000000  0.00089400  0.11562150  1
  O  O20  1  0.50000000  0.74582986  0.74307098  1
  O  O21  1  0.50000000  0.25417014  0.25692902  1
  O  O22  1  0.50000000  0.49662843  0.63935171  1
  O  O23  1  0.50000000  0.50337157  0.36064829  1
  O  O24  1  -0.00000000  0.81498422  0.96923188  1
  O  O25  1  0.00000000  0.18501578  0.03076812  1
  O  O26  1  -0.00000000  0.30119252  0.70624896  1
  O  O27  1  0.00000000  0.69880748  0.29375104  1
  O  O28  1  -0.00000000  0.95105719  0.66654268  1
  O  O29  1  0.00000000  0.04894281  0.33345732  1
  O  O30  1  0.50000000  0.37034699  0.91585330  1
  O  O31  1  0.50000000  0.62965301  0.08414670  1
