# generated using pymatgen
data_Er12(OsC3)5
_symmetry_space_group_name_H-M   'P 1'
_cell_length_a   5.02184342
_cell_length_b   10.64921580
_cell_length_c   10.64921580
_cell_angle_alpha   120.00000249
_cell_angle_beta   90.00000000
_cell_angle_gamma   90.00000000
_symmetry_Int_Tables_number   1
_chemical_formula_structural   Er12(OsC3)5
_chemical_formula_sum   'Er12 Os5 C15'
_cell_volume   493.20678663
_cell_formula_units_Z   1
loop_
 _symmetry_equiv_pos_site_id
 _symmetry_equiv_pos_as_xyz
  1  'x, y, z'
loop_
 _atom_site_type_symbol
 _atom_site_label
 _atom_site_symmetry_multiplicity
 _atom_site_fract_x
 _atom_site_fract_y
 _atom_site_fract_z
 _atom_site_occupancy
  Er  Er0  1  0.50000000  0.20670092  0.20670092  1
  Er  Er1  1  0.50000000  1.00000000  0.79329908  1
  Er  Er2  1  0.50000000  0.79329908  1.00000000  1
  Er  Er3  1  -0.00000000  0.72742448  0.18317903  1
  Er  Er4  1  0.00000000  0.45575456  0.27257552  1
  Er  Er5  1  -0.00000000  0.54424544  0.81682097  1
  Er  Er6  1  0.00000000  0.81682097  0.54424544  1
  Er  Er7  1  0.00000000  0.18317903  0.72742448  1
  Er  Er8  1  -0.00000000  0.27257552  0.45575456  1
  Er  Er9  1  0.50000000  0.56589299  0.56589299  1
  Er  Er10  1  0.50000000  0.00000000  0.43410701  1
  Er  Er11  1  0.50000000  0.43410701  0.00000000  1
  Os  Os12  1  0.00000000  0.83905568  0.83905568  1
  Os  Os13  1  0.00000000  0.00000000  0.16094432  1
  Os  Os14  1  -0.00000000  0.16094432  0.00000000  1
  Os  Os15  1  0.50000000  0.66666700  0.33333300  1
  Os  Os16  1  0.50000000  0.33333300  0.66666700  1
  C  C17  1  -0.00000000  0.66322620  0.66322620  1
  C  C18  1  -0.00000000  1.00000000  0.33677380  1
  C  C19  1  0.00000000  0.33677380  1.00000000  1
  C  C20  1  0.00000000  0.21064398  0.21064398  1
  C  C21  1  0.00000000  1.00000000  0.78935602  1
  C  C22  1  -0.00000000  0.78935602  1.00000000  1
  C  C23  1  -0.00000000  0.53731498  0.53731498  1
  C  C24  1  0.00000000  0.00000000  0.46268502  1
  C  C25  1  -0.00000000  0.46268502  0.00000000  1
  C  C26  1  0.50000000  0.71724308  0.18388747  1
  C  C27  1  0.50000000  0.46664439  0.28275692  1
  C  C28  1  0.50000000  0.53335561  0.81611253  1
  C  C29  1  0.50000000  0.81611253  0.53335561  1
  C  C30  1  0.50000000  0.18388747  0.71724308  1
  C  C31  1  0.50000000  0.28275692  0.46664439  1
