# generated using pymatgen
data_MnBP(HO3)2
_symmetry_space_group_name_H-M   'P 1'
_cell_length_a   7.70745040
_cell_length_b   7.70745040
_cell_length_c   12.99386145
_cell_angle_alpha   90.00000000
_cell_angle_beta   90.00000000
_cell_angle_gamma   119.99999984
_symmetry_Int_Tables_number   1
_chemical_formula_structural   MnBP(HO3)2
_chemical_formula_sum   'Mn6 B6 P6 H12 O36'
_cell_volume   668.48296004
_cell_formula_units_Z   6
loop_
 _symmetry_equiv_pos_site_id
 _symmetry_equiv_pos_as_xyz
  1  'x, y, z'
loop_
 _atom_site_type_symbol
 _atom_site_label
 _atom_site_symmetry_multiplicity
 _atom_site_fract_x
 _atom_site_fract_y
 _atom_site_fract_z
 _atom_site_occupancy
  Mn  Mn0  1  0.87552068  0.87552068  0.16666700  1
  Mn  Mn1  1  0.00000000  0.12447932  0.83333300  1
  Mn  Mn2  1  0.12447932  0.00000000  0.50000000  1
  Mn  Mn3  1  0.74491371  0.74491371  0.66666700  1
  Mn  Mn4  1  0.00000000  0.25508629  0.33333300  1
  Mn  Mn5  1  0.25508629  0.00000000  0.00000000  1
  B  B6  1  0.75871667  0.31380654  0.96132388  1
  B  B7  1  0.55508987  0.24128333  0.62799088  1
  B  B8  1  0.44491013  0.68619346  0.03867612  1
  B  B9  1  0.68619346  0.44491013  0.29465688  1
  B  B10  1  0.31380654  0.75871667  0.37200912  1
  B  B11  1  0.24128333  0.55508987  0.70534312  1
  P  P12  1  0.91860401  0.24767393  0.59855135  1
  P  P13  1  0.32906992  0.08139599  0.26521835  1
  P  P14  1  0.67093008  0.75232607  0.40144865  1
  P  P15  1  0.75232607  0.67093008  0.93188435  1
  P  P16  1  0.24767393  0.91860401  0.73478165  1
  P  P17  1  0.08139599  0.32906992  0.06811565  1
  H  H18  1  0.40652876  0.68785417  0.57254180  1
  H  H19  1  0.28132541  0.59347124  0.23920880  1
  H  H20  1  0.71867459  0.31214583  0.42745820  1
  H  H21  1  0.31214583  0.71867459  0.90587480  1
  H  H22  1  0.68785417  0.40652876  0.76079120  1
  H  H23  1  0.59347124  0.28132541  0.09412520  1
  H  H24  1  0.62841738  0.04974134  0.88037524  1
  H  H25  1  0.42132396  0.37158262  0.54704224  1
  H  H26  1  0.57867604  0.95025866  0.11962476  1
  H  H27  1  0.95025866  0.57867604  0.21370824  1
  H  H28  1  0.04974134  0.62841738  0.45295776  1
  H  H29  1  0.37158262  0.42132396  0.78629176  1
  O  O30  1  0.75820269  0.17180347  0.88660665  1
  O  O31  1  0.41360078  0.24179731  0.55327365  1
  O  O32  1  0.58639922  0.82819653  0.11339335  1
  O  O33  1  0.82819653  0.58639922  0.21993965  1
  O  O34  1  0.17180347  0.75820269  0.44672635  1
  O  O35  1  0.24179731  0.41360078  0.78006035  1
  O  O36  1  0.53942836  0.59143091  0.97951524  1
  O  O37  1  0.05200254  0.46057164  0.64618224  1
  O  O38  1  0.94799746  0.40856909  0.02048476  1
  O  O39  1  0.40856909  0.94799746  0.31284824  1
  O  O40  1  0.59143091  0.53942836  0.35381776  1
  O  O41  1  0.46057164  0.05200254  0.68715176  1
  O  O42  1  0.41877406  0.63178101  0.63858599  1
  O  O43  1  0.21300695  0.58122594  0.30525299  1
  O  O44  1  0.78699305  0.36821899  0.36141401  1
  O  O45  1  0.36821899  0.78699305  0.97191899  1
  O  O46  1  0.63178101  0.41877406  0.69474701  1
  O  O47  1  0.58122594  0.21300695  0.02808101  1
  O  O48  1  0.77540924  0.79236014  0.83341846  1
  O  O49  1  0.01695090  0.22459076  0.50008546  1
  O  O50  1  0.98304910  0.20763986  0.16658154  1
  O  O51  1  0.20763986  0.98304910  0.16675146  1
  O  O52  1  0.79236014  0.77540924  0.49991454  1
  O  O53  1  0.22459076  0.01695090  0.83324854  1
  O  O54  1  0.72069496  0.24205164  0.56450042  1
  O  O55  1  0.52135669  0.27930504  0.23116742  1
  O  O56  1  0.47864331  0.75794836  0.43549958  1
  O  O57  1  0.75794836  0.47864331  0.89783342  1
  O  O58  1  0.24205164  0.72069496  0.76883258  1
  O  O59  1  0.27930504  0.52135669  0.10216658  1
  O  O60  1  0.87520441  0.08279909  0.67739730  1
  O  O61  1  0.20759468  0.12479559  0.34406430  1
  O  O62  1  0.79240532  0.91720091  0.32260270  1
  O  O63  1  0.91720091  0.79240532  0.01073030  1
  O  O64  1  0.08279909  0.87520441  0.65593570  1
  O  O65  1  0.12479559  0.20759468  0.98926970  1
