# generated using pymatgen
data_Dy2AlGe3
_symmetry_space_group_name_H-M   'P 1'
_cell_length_a   4.19843090
_cell_length_b   6.84351740
_cell_length_c   17.76075768
_cell_angle_alpha   90.00000000
_cell_angle_beta   90.00000000
_cell_angle_gamma   90.00000000
_symmetry_Int_Tables_number   1
_chemical_formula_structural   Dy2AlGe3
_chemical_formula_sum   'Dy8 Al4 Ge12'
_cell_volume   510.30270981
_cell_formula_units_Z   4
loop_
 _symmetry_equiv_pos_site_id
 _symmetry_equiv_pos_as_xyz
  1  'x, y, z'
loop_
 _atom_site_type_symbol
 _atom_site_label
 _atom_site_symmetry_multiplicity
 _atom_site_fract_x
 _atom_site_fract_y
 _atom_site_fract_z
 _atom_site_occupancy
  Dy  Dy0  1  0.75000000  0.83279441  0.79726659  1
  Dy  Dy1  1  0.25000000  0.16720559  0.20273341  1
  Dy  Dy2  1  0.25000000  0.66720559  0.29726659  1
  Dy  Dy3  1  0.75000000  0.33279441  0.70273341  1
  Dy  Dy4  1  0.75000000  0.83269876  0.58503927  1
  Dy  Dy5  1  0.25000000  0.16730124  0.41496073  1
  Dy  Dy6  1  0.25000000  0.66730124  0.08503927  1
  Dy  Dy7  1  0.75000000  0.33269876  0.91496073  1
  Al  Al8  1  0.75000000  0.54990385  0.43541599  1
  Al  Al9  1  0.25000000  0.45009615  0.56458401  1
  Al  Al10  1  0.25000000  0.95009615  0.93541599  1
  Al  Al11  1  0.75000000  0.04990385  0.06458401  1
  Ge  Ge12  1  0.75000000  0.75116493  0.96565164  1
  Ge  Ge13  1  0.25000000  0.24883507  0.03434836  1
  Ge  Ge14  1  0.25000000  0.74883507  0.46565164  1
  Ge  Ge15  1  0.75000000  0.25116493  0.53434836  1
  Ge  Ge16  1  0.75000000  0.96596791  0.32665276  1
  Ge  Ge17  1  0.25000000  0.03403209  0.67334724  1
  Ge  Ge18  1  0.25000000  0.53403209  0.82665276  1
  Ge  Ge19  1  0.75000000  0.46596791  0.17334724  1
  Ge  Ge20  1  0.75000000  0.85431537  0.18809575  1
  Ge  Ge21  1  0.25000000  0.14568463  0.81190425  1
  Ge  Ge22  1  0.25000000  0.64568463  0.68809575  1
  Ge  Ge23  1  0.75000000  0.35431537  0.31190425  1
