# generated using pymatgen
data_KInH8(SO6)2
_symmetry_space_group_name_H-M   'P 1'
_cell_length_a   9.25595575
_cell_length_b   10.77716446
_cell_length_c   10.89120191
_cell_angle_alpha   90.00000000
_cell_angle_beta   90.00000000
_cell_angle_gamma   101.65376950
_symmetry_Int_Tables_number   1
_chemical_formula_structural   KInH8(SO6)2
_chemical_formula_sum   'K4 In4 H32 S8 O48'
_cell_volume   1064.03406588
_cell_formula_units_Z   4
loop_
 _symmetry_equiv_pos_site_id
 _symmetry_equiv_pos_as_xyz
  1  'x, y, z'
loop_
 _atom_site_type_symbol
 _atom_site_label
 _atom_site_symmetry_multiplicity
 _atom_site_fract_x
 _atom_site_fract_y
 _atom_site_fract_z
 _atom_site_occupancy
  K  K0  1  0.78247074  0.18091286  0.95453973  1
  K  K1  1  0.21752926  0.81908714  0.45453973  1
  K  K2  1  0.72007177  0.82415814  0.43705128  1
  K  K3  1  0.27992823  0.17584186  0.93705128  1
  In  In4  1  0.65635771  0.79193753  0.82761449  1
  In  In5  1  0.34364229  0.20806247  0.32761449  1
  In  In6  1  0.84241243  0.20902588  0.56161927  1
  In  In7  1  0.15758757  0.79097412  0.06161927  1
  H  H8  1  0.71284453  0.58691150  0.29578935  1
  H  H9  1  0.28715547  0.41308850  0.79578935  1
  H  H10  1  0.43001890  0.66799439  0.67429093  1
  H  H11  1  0.56998110  0.33200561  0.17429093  1
  H  H12  1  0.93617170  0.59716022  0.49852072  1
  H  H13  1  0.06382830  0.40283978  0.99852072  1
  H  H14  1  0.55862064  0.59007526  0.66705327  1
  H  H15  1  0.44137936  0.40992474  0.16705327  1
  H  H16  1  0.21441025  0.57995037  0.59637132  1
  H  H17  1  0.78558975  0.42004963  0.09637132  1
  H  H18  1  0.35563715  0.90521951  0.87126115  1
  H  H19  1  0.64436285  0.09478049  0.37126115  1
  H  H20  1  0.17748372  0.63652903  0.72146209  1
  H  H21  1  0.82251628  0.36347097  0.22146209  1
  H  H22  1  0.85488216  0.90625983  0.01733867  1
  H  H23  1  0.14511784  0.09374017  0.51733867  1
  H  H24  1  0.93562684  0.68048439  0.61144961  1
  H  H25  1  0.06437316  0.31951561  0.11144961  1
  H  H26  1  0.93673563  0.41018613  0.72601739  1
  H  H27  1  0.06326437  0.58981387  0.22601739  1
  H  H28  1  0.68812094  0.89715344  0.06656463  1
  H  H29  1  0.31187906  0.10284656  0.56656463  1
  H  H30  1  0.93735352  0.67153750  0.22242630  1
  H  H31  1  0.06264648  0.32846250  0.72242630  1
  H  H32  1  0.18836380  0.89429719  0.82184574  1
  H  H33  1  0.81163620  0.10570281  0.32184574  1
  H  H34  1  0.56809868  0.32288591  0.78165908  1
  H  H35  1  0.43190132  0.67711409  0.28165908  1
  H  H36  1  0.68334724  0.65551777  0.17596568  1
  H  H37  1  0.31665276  0.34448223  0.67596568  1
  H  H38  1  0.55222756  0.39806687  0.89777470  1
  H  H39  1  0.44777244  0.60193313  0.39777470  1
  S  S40  1  0.89478920  0.60640670  0.88951925  1
  S  S41  1  0.10521080  0.39359330  0.38951925  1
  S  S42  1  0.39584276  0.60640399  0.00126420  1
  S  S43  1  0.60415724  0.39359601  0.50126420  1
  S  S44  1  0.96779017  0.97361101  0.70976187  1
  S  S45  1  0.03220983  0.02638899  0.20976187  1
  S  S46  1  0.46841141  0.97325147  0.17931047  1
  S  S47  1  0.53158859  0.02674853  0.67931047  1
  O  O48  1  0.96487010  0.57832437  0.77321347  1
  O  O49  1  0.03512990  0.42167563  0.27321347  1
  O  O50  1  0.89246266  0.50589552  0.98039722  1
  O  O51  1  0.10753734  0.49410448  0.48039722  1
  O  O52  1  0.75783569  0.65673650  0.24018886  1
  O  O53  1  0.24216431  0.34326350  0.74018886  1
  O  O54  1  0.47413770  0.73349121  0.95264264  1
  O  O55  1  0.52586230  0.26650879  0.45264264  1
  O  O56  1  0.97396978  0.04575847  0.82364929  1
  O  O57  1  0.02603022  0.95424153  0.32364929  1
  O  O58  1  0.52618640  0.95454590  0.56581668  1
  O  O59  1  0.47381360  0.04545410  0.06581668  1
  O  O60  1  0.95206416  0.32177815  0.71808826  1
  O  O61  1  0.04793584  0.67822185  0.21808826  1
  O  O62  1  0.75099215  0.89963010  0.99072680  1
  O  O63  1  0.24900785  0.10036990  0.49072680  1
  O  O64  1  0.25320007  0.64711817  0.65697372  1
  O  O65  1  0.74679993  0.35288183  0.15697372  1
  O  O66  1  0.25150326  0.89788418  0.89764865  1
  O  O67  1  0.74849674  0.10211582  0.39764865  1
  O  O68  1  0.92563757  0.68256020  0.52206148  1
  O  O69  1  0.07436243  0.31743980  0.02206148  1
  O  O70  1  0.96920667  0.06027803  0.59799355  1
  O  O71  1  0.03079333  0.93972197  0.09799355  1
  O  O72  1  0.59322373  0.90865563  0.19451507  1
  O  O73  1  0.40677627  0.09134437  0.69451507  1
  O  O74  1  0.09198084  0.90874142  0.69413078  1
  O  O75  1  0.90801916  0.09125858  0.19413078  1
  O  O76  1  0.97371671  0.73325764  0.93822678  1
  O  O77  1  0.02628329  0.26674236  0.43822678  1
  O  O78  1  0.39727497  0.50522083  0.91156535  1
  O  O79  1  0.60272503  0.49477917  0.41156535  1
  O  O80  1  0.54160859  0.67778243  0.67505558  1
  O  O81  1  0.45839141  0.32221757  0.17505558  1
  O  O82  1  0.57233053  0.31631536  0.87122157  1
  O  O83  1  0.42766947  0.68368464  0.37122157  1
  O  O84  1  0.53690221  0.41938249  0.61946209  1
  O  O85  1  0.46309779  0.58061751  0.11946209  1
  O  O86  1  0.52978940  0.94050601  0.79145903  1
  O  O87  1  0.47021060  0.05949399  0.29145903  1
  O  O88  1  0.73870738  0.62191854  0.86483576  1
  O  O89  1  0.26129262  0.37808146  0.36483576  1
  O  O90  1  0.67552123  0.12395869  0.69067124  1
  O  O91  1  0.32447877  0.87604131  0.19067124  1
  O  O92  1  0.76205130  0.37974950  0.52137609  1
  O  O93  1  0.23794870  0.62025050  0.02137609  1
  O  O94  1  0.82344372  0.87674217  0.69860884  1
  O  O95  1  0.17655628  0.12325783  0.19860884  1
