# generated using pymatgen
data_DyAl3(BO3)4
_symmetry_space_group_name_H-M   'P 1'
_cell_length_a   5.92836307
_cell_length_b   5.92836307
_cell_length_c   5.92836321
_cell_angle_alpha   104.26838596
_cell_angle_beta   104.26838596
_cell_angle_gamma   104.26839434
_symmetry_Int_Tables_number   1
_chemical_formula_structural   DyAl3(BO3)4
_chemical_formula_sum   'Dy1 Al3 B4 O12'
_cell_volume   184.93485337
_cell_formula_units_Z   1
loop_
 _symmetry_equiv_pos_site_id
 _symmetry_equiv_pos_as_xyz
  1  'x, y, z'
loop_
 _atom_site_type_symbol
 _atom_site_label
 _atom_site_symmetry_multiplicity
 _atom_site_fract_x
 _atom_site_fract_y
 _atom_site_fract_z
 _atom_site_occupancy
  Dy  Dy0  1  0.50000000  0.50000000  0.50000000  1
  Al  Al1  1  0.94424855  0.05575145  0.50000000  1
  Al  Al2  1  0.50000000  0.94424855  0.05575145  1
  Al  Al3  1  0.05575145  0.50000000  0.94424855  1
  B  B4  1  0.55676659  0.44323341  0.00000000  1
  B  B5  1  1.00000000  0.55676659  0.44323341  1
  B  B6  1  0.44323341  0.00000000  0.55676659  1
  B  B7  1  -0.00000000  -0.00000000  0.00000000  1
  O  O8  1  0.52865360  0.27922312  0.12837965  1
  O  O9  1  0.12837965  0.52865360  0.27922312  1
  O  O10  1  0.87162035  0.72077688  0.47134640  1
  O  O11  1  0.27922312  0.12837965  0.52865360  1
  O  O12  1  0.72077688  0.47134640  0.87162035  1
  O  O13  1  0.47134640  0.87162035  0.72077688  1
  O  O14  1  0.14867991  0.85132009  0.00000000  1
  O  O15  1  1.00000000  0.14867991  0.85132009  1
  O  O16  1  0.85132009  0.00000000  0.14867991  1
  O  O17  1  0.40849841  0.59150159  0.00000000  1
  O  O18  1  0.00000000  0.40849841  0.59150159  1
  O  O19  1  0.59150159  1.00000000  0.40849841  1
