# generated using pymatgen
data_EuGa3(BO3)4
_symmetry_space_group_name_H-M   'P 1'
_cell_length_a   6.08707267
_cell_length_b   6.08707267
_cell_length_c   6.08707286
_cell_angle_alpha   103.66016287
_cell_angle_beta   103.66016287
_cell_angle_gamma   103.66017143
_symmetry_Int_Tables_number   1
_chemical_formula_structural   EuGa3(BO3)4
_chemical_formula_sum   'Eu1 Ga3 B4 O12'
_cell_volume   202.52760923
_cell_formula_units_Z   1
loop_
 _symmetry_equiv_pos_site_id
 _symmetry_equiv_pos_as_xyz
  1  'x, y, z'
loop_
 _atom_site_type_symbol
 _atom_site_label
 _atom_site_symmetry_multiplicity
 _atom_site_fract_x
 _atom_site_fract_y
 _atom_site_fract_z
 _atom_site_occupancy
  Eu  Eu0  1  0.50000000  0.50000000  0.50000000  1
  Ga  Ga1  1  0.95029479  0.04970521  0.50000000  1
  Ga  Ga2  1  0.50000000  0.95029479  0.04970521  1
  Ga  Ga3  1  0.04970521  0.50000000  0.95029479  1
  B  B4  1  0.55211131  0.44788869  -0.00000000  1
  B  B5  1  0.00000000  0.55211131  0.44788869  1
  B  B6  1  0.44788869  1.00000000  0.55211131  1
  B  B7  1  -0.00000000  0.00000000  -0.00000000  1
  O  O8  1  0.52206564  0.28492855  0.12186738  1
  O  O9  1  0.12186738  0.52206564  0.28492855  1
  O  O10  1  0.87813262  0.71507145  0.47793436  1
  O  O11  1  0.28492855  0.12186738  0.52206564  1
  O  O12  1  0.71507145  0.47793436  0.87813262  1
  O  O13  1  0.47793436  0.87813262  0.71507145  1
  O  O14  1  0.14498133  0.85501867  -0.00000000  1
  O  O15  1  0.00000000  0.14498133  0.85501867  1
  O  O16  1  0.85501867  1.00000000  0.14498133  1
  O  O17  1  0.40694339  0.59305661  0.00000000  1
  O  O18  1  1.00000000  0.40694339  0.59305661  1
  O  O19  1  0.59305661  0.00000000  0.40694339  1
