# generated using pymatgen
data_Eu3MoO7
_symmetry_space_group_name_H-M   'P 1'
_cell_length_a   6.62792293
_cell_length_b   6.62792293
_cell_length_c   7.67661555
_cell_angle_alpha   90.00000000
_cell_angle_beta   90.00000000
_cell_angle_gamma   111.41196828
_symmetry_Int_Tables_number   1
_chemical_formula_structural   Eu3MoO7
_chemical_formula_sum   'Eu6 Mo2 O14'
_cell_volume   313.95314986
_cell_formula_units_Z   2
loop_
 _symmetry_equiv_pos_site_id
 _symmetry_equiv_pos_as_xyz
  1  'x, y, z'
loop_
 _atom_site_type_symbol
 _atom_site_label
 _atom_site_symmetry_multiplicity
 _atom_site_fract_x
 _atom_site_fract_y
 _atom_site_fract_z
 _atom_site_occupancy
  Eu  Eu0  1  0.52372888  0.06302538  0.25000000  1
  Eu  Eu1  1  0.47627112  0.93697462  0.75000000  1
  Eu  Eu2  1  0.06302538  0.52372888  0.25000000  1
  Eu  Eu3  1  0.93697462  0.47627112  0.75000000  1
  Eu  Eu4  1  0.00000000  0.00000000  -0.00000000  1
  Eu  Eu5  1  0.00000000  0.00000000  0.50000000  1
  Mo  Mo6  1  0.50000000  0.50000000  0.00000000  1
  Mo  Mo7  1  0.50000000  0.50000000  0.50000000  1
  O  O8  1  0.43740955  0.43740955  0.25000000  1
  O  O9  1  0.56259045  0.56259045  0.75000000  1
  O  O10  1  0.15695293  0.89314395  0.25000000  1
  O  O11  1  0.84304707  0.10685605  0.75000000  1
  O  O12  1  0.89314395  0.15695293  0.25000000  1
  O  O13  1  0.10685605  0.84304707  0.75000000  1
  O  O14  1  0.55745438  0.80471429  0.03490771  1
  O  O15  1  0.44254562  0.19528571  0.96509229  1
  O  O16  1  0.44254562  0.19528571  0.53490771  1
  O  O17  1  0.80471429  0.55745438  0.46509229  1
  O  O18  1  0.55745438  0.80471429  0.46509229  1
  O  O19  1  0.19528571  0.44254562  0.53490771  1
  O  O20  1  0.19528571  0.44254562  0.96509229  1
  O  O21  1  0.80471429  0.55745438  0.03490771  1
