# generated using pymatgen
data_Cu2H6C3(BrN3)2
_symmetry_space_group_name_H-M   'P 1'
_cell_length_a   4.77841269
_cell_length_b   8.21858838
_cell_length_c   16.72315472
_cell_angle_alpha   90.00000000
_cell_angle_beta   90.00000000
_cell_angle_gamma   89.04786284
_symmetry_Int_Tables_number   1
_chemical_formula_structural   Cu2H6C3(BrN3)2
_chemical_formula_sum   'Cu4 H12 C6 Br4 N12'
_cell_volume   656.65782416
_cell_formula_units_Z   2
loop_
 _symmetry_equiv_pos_site_id
 _symmetry_equiv_pos_as_xyz
  1  'x, y, z'
loop_
 _atom_site_type_symbol
 _atom_site_label
 _atom_site_symmetry_multiplicity
 _atom_site_fract_x
 _atom_site_fract_y
 _atom_site_fract_z
 _atom_site_occupancy
  Cu  Cu0  1  0.80445785  0.55517144  0.92219362  1
  Cu  Cu1  1  0.19554215  0.44482856  0.07780638  1
  Cu  Cu2  1  0.19554215  0.44482856  0.42219362  1
  Cu  Cu3  1  0.80445785  0.55517144  0.57780638  1
  H  H4  1  0.89587493  0.37084131  0.80284695  1
  H  H5  1  0.10412507  0.62915869  0.19715305  1
  H  H6  1  0.10412507  0.62915869  0.30284695  1
  H  H7  1  0.89587493  0.37084131  0.69715305  1
  H  H8  1  0.48695927  0.81487518  0.93916092  1
  H  H9  1  0.51304073  0.18512482  0.06083908  1
  H  H10  1  0.51304073  0.18512482  0.43916092  1
  H  H11  1  0.48695927  0.81487518  0.56083908  1
  H  H12  1  0.40450091  0.98891620  0.88201087  1
  H  H13  1  0.59549909  0.01108380  0.11798913  1
  H  H14  1  0.59549909  0.01108380  0.38201087  1
  H  H15  1  0.40450091  0.98891620  0.61798913  1
  C  C16  1  0.71754481  0.57098049  0.75000000  1
  C  C17  1  0.28245519  0.42901951  0.25000000  1
  C  C18  1  0.55985733  0.79923901  0.81787514  1
  C  C19  1  0.44014267  0.20076099  0.18212486  1
  C  C20  1  0.44014267  0.20076099  0.31787514  1
  C  C21  1  0.55985733  0.79923901  0.68212486  1
  Br  Br22  1  0.85753260  0.66916530  0.44451276  1
  Br  Br23  1  0.14246740  0.33083470  0.55548724  1
  Br  Br24  1  0.14246740  0.33083470  0.94451276  1
  Br  Br25  1  0.85753260  0.66916530  0.05548724  1
  N  N26  1  0.66340361  0.64278930  0.82194566  1
  N  N27  1  0.33659639  0.35721070  0.17805434  1
  N  N28  1  0.33659639  0.35721070  0.32194566  1
  N  N29  1  0.66340361  0.64278930  0.67805434  1
  N  N30  1  0.49274184  0.87611787  0.88635030  1
  N  N31  1  0.50725816  0.12388213  0.11364970  1
  N  N32  1  0.50725816  0.12388213  0.38635030  1
  N  N33  1  0.49274184  0.87611787  0.61364970  1
  N  N34  1  0.83001489  0.42027098  0.75000000  1
  N  N35  1  0.16998511  0.57972902  0.25000000  1
  N  N36  1  0.51964209  0.88248172  0.75000000  1
  N  N37  1  0.48035791  0.11751828  0.25000000  1
