# generated using pymatgen
data_Mg30TiSnO32
_symmetry_space_group_name_H-M   'P 1'
_cell_length_a   8.61594345
_cell_length_b   8.61594345
_cell_length_c   8.61179686
_cell_angle_alpha   90.00000000
_cell_angle_beta   90.00000000
_cell_angle_gamma   90.00000000
_symmetry_Int_Tables_number   1
_chemical_formula_structural   Mg30TiSnO32
_chemical_formula_sum   'Mg30 Ti1 Sn1 O32'
_cell_volume   639.29227497
_cell_formula_units_Z   1
loop_
 _symmetry_equiv_pos_site_id
 _symmetry_equiv_pos_as_xyz
  1  'x, y, z'
loop_
 _atom_site_type_symbol
 _atom_site_label
 _atom_site_symmetry_multiplicity
 _atom_site_fract_x
 _atom_site_fract_y
 _atom_site_fract_z
 _atom_site_occupancy
  Mg  Mg0  1  -0.00000000  0.50000000  -0.00000000  1
  Mg  Mg1  1  -0.00000000  0.50000000  0.50000000  1
  Mg  Mg2  1  0.50000000  0.00000000  -0.00000000  1
  Mg  Mg3  1  0.50000000  0.00000000  0.50000000  1
  Mg  Mg4  1  0.50000000  0.50000000  -0.00000000  1
  Mg  Mg5  1  0.50000000  0.50000000  0.50000000  1
  Mg  Mg6  1  -0.00000000  0.25600109  0.25284188  1
  Mg  Mg7  1  -0.00000000  0.25600109  0.74715812  1
  Mg  Mg8  1  -0.00000000  0.74399891  0.25284188  1
  Mg  Mg9  1  -0.00000000  0.74399891  0.74715812  1
  Mg  Mg10  1  0.50000000  0.25085164  0.25050723  1
  Mg  Mg11  1  0.50000000  0.25085164  0.74949277  1
  Mg  Mg12  1  0.50000000  0.74914836  0.25050723  1
  Mg  Mg13  1  0.50000000  0.74914836  0.74949277  1
  Mg  Mg14  1  0.25600109  0.00000000  0.25284188  1
  Mg  Mg15  1  0.25600109  0.00000000  0.74715812  1
  Mg  Mg16  1  0.25085164  0.50000000  0.25050723  1
  Mg  Mg17  1  0.25085164  0.50000000  0.74949277  1
  Mg  Mg18  1  0.74399891  0.00000000  0.25284188  1
  Mg  Mg19  1  0.74399891  0.00000000  0.74715812  1
  Mg  Mg20  1  0.74914836  0.50000000  0.25050723  1
  Mg  Mg21  1  0.74914836  0.50000000  0.74949277  1
  Mg  Mg22  1  0.25410247  0.25410247  -0.00000000  1
  Mg  Mg23  1  0.25072128  0.25072128  0.50000000  1
  Mg  Mg24  1  0.25410247  0.74589753  -0.00000000  1
  Mg  Mg25  1  0.25072128  0.74927872  0.50000000  1
  Mg  Mg26  1  0.74589753  0.25410247  -0.00000000  1
  Mg  Mg27  1  0.74927872  0.25072128  0.50000000  1
  Mg  Mg28  1  0.74589753  0.74589753  -0.00000000  1
  Mg  Mg29  1  0.74927872  0.74927872  0.50000000  1
  Ti  Ti30  1  -0.00000000  0.00000000  0.50000000  1
  Sn  Sn31  1  -0.00000000  0.00000000  -0.00000000  1
  O  O32  1  0.27130254  0.00000000  -0.00000000  1
  O  O33  1  0.25716427  0.00000000  0.50000000  1
  O  O34  1  0.25340885  0.50000000  -0.00000000  1
  O  O35  1  0.25118344  0.50000000  0.50000000  1
  O  O36  1  0.72869746  0.00000000  -0.00000000  1
  O  O37  1  0.74283573  0.00000000  0.50000000  1
  O  O38  1  0.74659115  0.50000000  -0.00000000  1
  O  O39  1  0.74881656  0.50000000  0.50000000  1
  O  O40  1  0.24925210  0.24925210  0.24976317  1
  O  O41  1  0.24925210  0.24925210  0.75023683  1
  O  O42  1  0.24925210  0.75074790  0.24976317  1
  O  O43  1  0.24925210  0.75074790  0.75023683  1
  O  O44  1  0.75074790  0.24925210  0.24976317  1
  O  O45  1  0.75074790  0.24925210  0.75023683  1
  O  O46  1  0.75074790  0.75074790  0.24976317  1
  O  O47  1  0.75074790  0.75074790  0.75023683  1
  O  O48  1  -0.00000000  0.00000000  0.26672036  1
  O  O49  1  -0.00000000  0.00000000  0.73327964  1
  O  O50  1  -0.00000000  0.50000000  0.25312374  1
  O  O51  1  -0.00000000  0.50000000  0.74687626  1
  O  O52  1  0.50000000  0.00000000  0.25312374  1
  O  O53  1  0.50000000  0.00000000  0.74687626  1
  O  O54  1  0.50000000  0.50000000  0.25071881  1
  O  O55  1  0.50000000  0.50000000  0.74928119  1
  O  O56  1  -0.00000000  0.27130254  -0.00000000  1
  O  O57  1  -0.00000000  0.25716427  0.50000000  1
  O  O58  1  -0.00000000  0.72869746  -0.00000000  1
  O  O59  1  -0.00000000  0.74283573  0.50000000  1
  O  O60  1  0.50000000  0.25340885  -0.00000000  1
  O  O61  1  0.50000000  0.25118344  0.50000000  1
  O  O62  1  0.50000000  0.74659115  -0.00000000  1
  O  O63  1  0.50000000  0.74881656  0.50000000  1
