# generated using pymatgen
data_Ca3Si4
_symmetry_space_group_name_H-M   'P 1'
_cell_length_a   8.54711559
_cell_length_b   8.54711559
_cell_length_c   14.90334622
_cell_angle_alpha   90.00000000
_cell_angle_beta   90.00000000
_cell_angle_gamma   120.00000745
_symmetry_Int_Tables_number   1
_chemical_formula_structural   Ca3Si4
_chemical_formula_sum   'Ca18 Si24'
_cell_volume   942.87374941
_cell_formula_units_Z   6
loop_
 _symmetry_equiv_pos_site_id
 _symmetry_equiv_pos_as_xyz
  1  'x, y, z'
loop_
 _atom_site_type_symbol
 _atom_site_label
 _atom_site_symmetry_multiplicity
 _atom_site_fract_x
 _atom_site_fract_y
 _atom_site_fract_z
 _atom_site_occupancy
  Ca  Ca0  1  -0.00000000  0.00000000  0.00000000  1
  Ca  Ca1  1  -0.00000000  0.00000000  0.50000000  1
  Ca  Ca2  1  0.66666700  0.33333300  0.75000000  1
  Ca  Ca3  1  0.33333300  0.66666700  0.25000000  1
  Ca  Ca4  1  0.57840412  0.90707547  0.90257246  1
  Ca  Ca5  1  0.42159588  0.09292453  0.09742754  1
  Ca  Ca6  1  0.32867135  0.42159588  0.90257246  1
  Ca  Ca7  1  0.42159588  0.09292453  0.40257246  1
  Ca  Ca8  1  0.67132865  0.57840412  0.09742754  1
  Ca  Ca9  1  0.57840412  0.90707547  0.59742754  1
  Ca  Ca10  1  0.09292453  0.67132865  0.90257246  1
  Ca  Ca11  1  0.67132865  0.57840412  0.40257246  1
  Ca  Ca12  1  0.90707547  0.32867135  0.09742754  1
  Ca  Ca13  1  0.32867135  0.42159588  0.59742754  1
  Ca  Ca14  1  0.90707547  0.32867135  0.40257246  1
  Ca  Ca15  1  0.09292453  0.67132865  0.59742754  1
  Ca  Ca16  1  -0.00000000  0.00000000  0.75000000  1
  Ca  Ca17  1  -0.00000000  0.00000000  0.25000000  1
  Si  Si18  1  0.61733717  0.67330657  0.75000000  1
  Si  Si19  1  0.38266283  0.32669343  0.25000000  1
  Si  Si20  1  0.05596940  0.38266283  0.75000000  1
  Si  Si21  1  0.94403060  0.61733717  0.25000000  1
  Si  Si22  1  0.32669343  0.94403060  0.75000000  1
  Si  Si23  1  0.67330657  0.05596940  0.25000000  1
  Si  Si24  1  0.33333300  0.66666700  0.75000000  1
  Si  Si25  1  0.66666700  0.33333300  0.25000000  1
  Si  Si26  1  0.66666700  0.33333300  0.94312315  1
  Si  Si27  1  0.33333300  0.66666700  0.05687685  1
  Si  Si28  1  0.33333300  0.66666700  0.44312315  1
  Si  Si29  1  0.66666700  0.33333300  0.55687685  1
  Si  Si30  1  0.91018662  0.26310311  0.88988961  1
  Si  Si31  1  0.08981338  0.73689689  0.11011039  1
  Si  Si32  1  0.35291649  0.08981338  0.88988961  1
  Si  Si33  1  0.08981338  0.73689689  0.38988961  1
  Si  Si34  1  0.64708351  0.91018662  0.11011039  1
  Si  Si35  1  0.91018662  0.26310311  0.61011039  1
  Si  Si36  1  0.73689689  0.64708351  0.88988961  1
  Si  Si37  1  0.64708351  0.91018662  0.38988961  1
  Si  Si38  1  0.26310311  0.35291649  0.11011039  1
  Si  Si39  1  0.35291649  0.08981338  0.61011039  1
  Si  Si40  1  0.26310311  0.35291649  0.38988961  1
  Si  Si41  1  0.73689689  0.64708351  0.61011039  1
