# generated using pymatgen
data_Ba3Dy(BO2)9
_symmetry_space_group_name_H-M   'P 1'
_cell_length_a   7.27406588
_cell_length_b   7.27406588
_cell_length_c   17.50285482
_cell_angle_alpha   90.00000000
_cell_angle_beta   90.00000000
_cell_angle_gamma   120.00000409
_symmetry_Int_Tables_number   1
_chemical_formula_structural   Ba3Dy(BO2)9
_chemical_formula_sum   'Ba6 Dy2 B18 O36'
_cell_volume   802.03618835
_cell_formula_units_Z   2
loop_
 _symmetry_equiv_pos_site_id
 _symmetry_equiv_pos_as_xyz
  1  'x, y, z'
loop_
 _atom_site_type_symbol
 _atom_site_label
 _atom_site_symmetry_multiplicity
 _atom_site_fract_x
 _atom_site_fract_y
 _atom_site_fract_z
 _atom_site_occupancy
  Ba  Ba0  1  0.66666700  0.33333300  0.86772435  1
  Ba  Ba1  1  0.33333300  0.66666700  0.13227565  1
  Ba  Ba2  1  0.33333300  0.66666700  0.36772435  1
  Ba  Ba3  1  0.66666700  0.33333300  0.63227565  1
  Ba  Ba4  1  0.00000000  -0.00000000  0.75000000  1
  Ba  Ba5  1  0.00000000  -0.00000000  0.25000000  1
  Dy  Dy6  1  0.00000000  -0.00000000  0.00000000  1
  Dy  Dy7  1  0.00000000  -0.00000000  0.50000000  1
  B  B8  1  0.55017601  0.83496301  0.91820934  1
  B  B9  1  0.44982399  0.16503699  0.08179066  1
  B  B10  1  0.28478700  0.44982399  0.91820934  1
  B  B11  1  0.44982399  0.16503699  0.41820934  1
  B  B12  1  0.71521300  0.55017601  0.08179066  1
  B  B13  1  0.55017601  0.83496301  0.58179066  1
  B  B14  1  0.16503699  0.71521300  0.91820934  1
  B  B15  1  0.71521300  0.55017601  0.41820934  1
  B  B16  1  0.83496301  0.28478700  0.08179066  1
  B  B17  1  0.28478700  0.44982399  0.58179066  1
  B  B18  1  0.83496301  0.28478700  0.41820934  1
  B  B19  1  0.16503699  0.71521300  0.58179066  1
  B  B20  1  0.50484912  0.62215441  0.75000000  1
  B  B21  1  0.49515088  0.37784559  0.25000000  1
  B  B22  1  0.11730529  0.49515088  0.75000000  1
  B  B23  1  0.88269471  0.50484912  0.25000000  1
  B  B24  1  0.37784559  0.88269471  0.75000000  1
  B  B25  1  0.62215441  0.11730529  0.25000000  1
  O  O26  1  0.54203389  0.83304717  0.75000000  1
  O  O27  1  0.45796611  0.16695283  0.25000000  1
  O  O28  1  0.29101328  0.45796611  0.75000000  1
  O  O29  1  0.70898672  0.54203389  0.25000000  1
  O  O30  1  0.16695283  0.70898672  0.75000000  1
  O  O31  1  0.83304717  0.29101328  0.25000000  1
  O  O32  1  0.91994776  0.33279489  0.75000000  1
  O  O33  1  0.08005224  0.66720511  0.25000000  1
  O  O34  1  0.41284713  0.08005224  0.75000000  1
  O  O35  1  0.58715287  0.91994776  0.25000000  1
  O  O36  1  0.66720511  0.58715287  0.75000000  1
  O  O37  1  0.33279489  0.41284713  0.25000000  1
  O  O38  1  0.74982699  0.99506778  0.91907436  1
  O  O39  1  0.25017301  0.00493222  0.08092564  1
  O  O40  1  0.24524079  0.25017301  0.91907436  1
  O  O41  1  0.25017301  0.00493222  0.41907436  1
  O  O42  1  0.75475921  0.74982699  0.08092564  1
  O  O43  1  0.74982699  0.99506778  0.58092564  1
  O  O44  1  0.00493222  0.75475921  0.91907436  1
  O  O45  1  0.75475921  0.74982699  0.41907436  1
  O  O46  1  0.99506778  0.24524079  0.08092564  1
  O  O47  1  0.24524079  0.25017301  0.58092564  1
  O  O48  1  0.99506778  0.24524079  0.41907436  1
  O  O49  1  0.00493222  0.75475921  0.58092564  1
  O  O50  1  0.49672412  0.61985608  0.91807308  1
  O  O51  1  0.50327588  0.38014392  0.08192692  1
  O  O52  1  0.12313196  0.50327588  0.91807308  1
  O  O53  1  0.50327588  0.38014392  0.41807308  1
  O  O54  1  0.87686804  0.49672412  0.08192692  1
  O  O55  1  0.49672412  0.61985608  0.58192692  1
  O  O56  1  0.38014392  0.87686804  0.91807308  1
  O  O57  1  0.87686804  0.49672412  0.41807308  1
  O  O58  1  0.61985608  0.12313196  0.08192692  1
  O  O59  1  0.12313196  0.50327588  0.58192692  1
  O  O60  1  0.61985608  0.12313196  0.41807308  1
  O  O61  1  0.38014392  0.87686804  0.58192692  1
