# generated using pymatgen
data_VFe3(CuO2)4
_symmetry_space_group_name_H-M   'P 1'
_cell_length_a   3.07266746
_cell_length_b   3.07266746
_cell_length_c   23.16210974
_cell_angle_alpha   86.19680097
_cell_angle_beta   86.19680097
_cell_angle_gamma   59.99999996
_symmetry_Int_Tables_number   1
_chemical_formula_structural   VFe3(CuO2)4
_chemical_formula_sum   'V1 Fe3 Cu4 O8'
_cell_volume   188.82621981
_cell_formula_units_Z   1
loop_
 _symmetry_equiv_pos_site_id
 _symmetry_equiv_pos_as_xyz
  1  'x, y, z'
loop_
 _atom_site_type_symbol
 _atom_site_label
 _atom_site_symmetry_multiplicity
 _atom_site_fract_x
 _atom_site_fract_y
 _atom_site_fract_z
 _atom_site_occupancy
  V  V0  1  0.62500000  0.62500000  0.12500000  1
  Fe  Fe1  1  0.87495796  0.87495796  0.37512611  1
  Fe  Fe2  1  0.12500000  0.12500000  0.62500000  1
  Fe  Fe3  1  0.37504204  0.37504204  0.87487389  1
  Cu  Cu4  1  0.00003516  0.00003516  0.99989453  1
  Cu  Cu5  1  0.24996484  0.24996484  0.25010547  1
  Cu  Cu6  1  0.49992177  0.49992177  0.50023470  1
  Cu  Cu7  1  0.75007823  0.75007823  0.74976530  1
  O  O8  1  0.27671403  0.27671403  0.16985790  1
  O  O9  1  0.52659993  0.52659993  0.42020020  1
  O  O10  1  0.77672123  0.77672123  0.66983630  1
  O  O11  1  0.02669980  0.02669980  0.91990060  1
  O  O12  1  0.97328597  0.97328597  0.08014210  1
  O  O13  1  0.22330020  0.22330020  0.33009940  1
  O  O14  1  0.47327877  0.47327877  0.58016370  1
  O  O15  1  0.72340007  0.72340007  0.82979980  1
