# generated using pymatgen
data_Zn3Ag
_symmetry_space_group_name_H-M   'P 1'
_cell_length_a   2.88932980
_cell_length_b   2.88932980
_cell_length_c   8.70293629
_cell_angle_alpha   90.00000000
_cell_angle_beta   90.00000000
_cell_angle_gamma   120.02721095
_symmetry_Int_Tables_number   1
_chemical_formula_structural   Zn3Ag
_chemical_formula_sum   'Zn3 Ag1'
_cell_volume   62.90302394
_cell_formula_units_Z   1
loop_
 _symmetry_equiv_pos_site_id
 _symmetry_equiv_pos_as_xyz
  1  'x, y, z'
loop_
 _atom_site_type_symbol
 _atom_site_label
 _atom_site_symmetry_multiplicity
 _atom_site_fract_x
 _atom_site_fract_y
 _atom_site_fract_z
 _atom_site_occupancy
  Zn  Zn0  1  0.66669652  0.33330348  0.87500000  1
  Zn  Zn1  1  0.33331466  0.66668534  0.11808427  1
  Zn  Zn2  1  0.33331466  0.66668534  0.63191573  1
  Ag  Ag3  1  0.66667416  0.33332584  0.37500000  1
