# generated using pymatgen
data_Ca3Nd8(RuO6)4
_symmetry_space_group_name_H-M   'P 1'
_cell_length_a   11.41300415
_cell_length_b   11.41300415
_cell_length_c   11.44994837
_cell_angle_alpha   119.89332275
_cell_angle_beta   119.89332275
_cell_angle_gamma   90.00000000
_symmetry_Int_Tables_number   1
_chemical_formula_structural   Ca3Nd8(RuO6)4
_chemical_formula_sum   'Ca6 Nd16 Ru8 O48'
_cell_volume   1057.99354981
_cell_formula_units_Z   2
loop_
 _symmetry_equiv_pos_site_id
 _symmetry_equiv_pos_as_xyz
  1  'x, y, z'
loop_
 _atom_site_type_symbol
 _atom_site_label
 _atom_site_symmetry_multiplicity
 _atom_site_fract_x
 _atom_site_fract_y
 _atom_site_fract_z
 _atom_site_occupancy
  Ca  Ca0  1  0.71737076  0.71737076  0.43474153  1
  Ca  Ca1  1  0.96737076  0.46737076  0.93474153  1
  Ca  Ca2  1  0.00112805  0.00112805  0.00225611  1
  Ca  Ca3  1  0.25112805  0.75112805  0.50225611  1
  Ca  Ca4  1  0.21095426  0.21095426  0.42190851  1
  Ca  Ca5  1  0.46095426  0.96095426  0.92190851  1
  Nd  Nd6  1  0.41360521  0.14756278  0.24990430  1
  Nd  Nd7  1  0.83629909  0.10234152  0.24990430  1
  Nd  Nd8  1  0.35234152  0.16360521  0.74990430  1
  Nd  Nd9  1  0.39756278  0.58629909  0.74990430  1
  Nd  Nd10  1  0.42992959  0.49949295  0.39932695  1
  Nd  Nd11  1  0.96939736  0.89983400  0.39932695  1
  Nd  Nd12  1  0.14983400  0.17992959  0.89932695  1
  Nd  Nd13  1  0.74949295  0.71939736  0.89932695  1
  Nd  Nd14  1  0.33585448  0.56895329  0.09371329  1
  Nd  Nd15  1  0.75785881  0.52476000  0.09371329  1
  Nd  Nd16  1  0.77476000  0.08585448  0.59371329  1
  Nd  Nd17  1  0.81895329  0.50785881  0.59371329  1
  Nd  Nd18  1  0.41843685  0.94735601  0.43609585  1
  Nd  Nd19  1  0.01765900  0.48873984  0.43609585  1
  Nd  Nd20  1  0.73873984  0.16843685  0.93609585  1
  Nd  Nd21  1  0.19735601  0.76765900  0.93609585  1
  Ru  Ru22  1  0.08639499  0.33847386  0.16948819  1
  Ru  Ru23  1  0.08309320  0.83101432  0.16948819  1
  Ru  Ru24  1  0.08101432  0.83639499  0.66948819  1
  Ru  Ru25  1  0.58847386  0.83309320  0.66948819  1
  Ru  Ru26  1  0.58523002  0.33392254  0.66964316  1
  Ru  Ru27  1  0.08441314  0.33572062  0.66964316  1
  Ru  Ru28  1  0.58572062  0.33523002  0.16964316  1
  Ru  Ru29  1  0.58392254  0.83441314  0.16964316  1
  O  O30  1  0.66484156  0.17162861  0.11162155  1
  O  O31  1  0.44677999  0.93999294  0.11162155  1
  O  O32  1  0.18999294  0.41484156  0.61162155  1
  O  O33  1  0.42162861  0.19677999  0.61162155  1
  O  O34  1  0.22693601  0.73927158  0.15450854  1
  O  O35  1  0.92757253  0.41523695  0.15450854  1
  O  O36  1  0.66523695  0.97693601  0.65450854  1
  O  O37  1  0.98927158  0.67757253  0.65450854  1
  O  O38  1  0.74818052  0.46968061  0.72792656  1
  O  O39  1  0.97974603  0.25824595  0.72792656  1
  O  O40  1  0.50824595  0.49818052  0.22792656  1
  O  O41  1  0.71968061  0.72974603  0.22792656  1
  O  O42  1  0.77211061  0.48898645  0.32538479  1
  O  O43  1  0.55327419  0.83639834  0.32538479  1
  O  O44  1  0.08639834  0.52211061  0.82538479  1
  O  O45  1  0.73898645  0.30327419  0.82538479  1
  O  O46  1  0.42002902  0.72641953  0.43262138  1
  O  O47  1  0.01259236  0.70620185  0.43262138  1
  O  O48  1  0.95620185  0.17002902  0.93262138  1
  O  O49  1  0.97641953  0.76259236  0.93262138  1
  O  O50  1  0.17641542  0.43476144  0.10826496  1
  O  O51  1  0.93184954  0.67350352  0.10826496  1
  O  O52  1  0.92350352  0.92641542  0.60826496  1
  O  O53  1  0.68476144  0.68184954  0.60826496  1
  O  O54  1  0.47459599  0.97268312  0.72168361  1
  O  O55  1  0.24708763  0.74900049  0.72168361  1
  O  O56  1  0.99900049  0.22459599  0.22168361  1
  O  O57  1  0.22268312  0.99708763  0.22168361  1
  O  O58  1  0.58421384  0.31997813  0.98413616  1
  O  O59  1  0.39992232  0.66415803  0.98413616  1
  O  O60  1  0.91415803  0.33421384  0.48413616  1
  O  O61  1  0.56997813  0.14992232  0.48413616  1
  O  O62  1  0.21403909  0.50383825  0.40644591  1
  O  O63  1  0.19240682  0.90260767  0.40644591  1
  O  O64  1  0.15260767  0.96403909  0.90644591  1
  O  O65  1  0.75383825  0.94240682  0.90644591  1
  O  O66  1  0.23693682  0.24823076  0.17994281  1
  O  O67  1  0.94300599  0.93171204  0.17994281  1
  O  O68  1  0.18171204  0.98693682  0.67994281  1
  O  O69  1  0.49823076  0.69300599  0.67994281  1
  O  O70  1  0.43160653  0.36334524  0.51158562  1
  O  O71  1  0.07997909  0.14824038  0.51158562  1
  O  O72  1  0.39824038  0.18160653  0.01158562  1
  O  O73  1  0.61334524  0.82997909  0.01158562  1
  O  O74  1  0.59715351  0.51538716  0.85334330  1
  O  O75  1  0.25618979  0.33795614  0.85334330  1
  O  O76  1  0.58795614  0.34715351  0.35334330  1
  O  O77  1  0.76538716  0.00618979  0.35334330  1
