# generated using pymatgen
data_Ba2Zn3F10
_symmetry_space_group_name_H-M   'P 1'
_cell_length_a   6.12558305
_cell_length_b   8.04173733
_cell_length_c   9.96779790
_cell_angle_alpha   110.52119374
_cell_angle_beta   107.89470180
_cell_angle_gamma   90.00000000
_symmetry_Int_Tables_number   1
_chemical_formula_structural   Ba2Zn3F10
_chemical_formula_sum   'Ba4 Zn6 F20'
_cell_volume   434.40383731
_cell_formula_units_Z   2
loop_
 _symmetry_equiv_pos_site_id
 _symmetry_equiv_pos_as_xyz
  1  'x, y, z'
loop_
 _atom_site_type_symbol
 _atom_site_label
 _atom_site_symmetry_multiplicity
 _atom_site_fract_x
 _atom_site_fract_y
 _atom_site_fract_z
 _atom_site_occupancy
  Ba  Ba0  1  0.38501684  0.27951719  0.77003368  1
  Ba  Ba1  1  0.61498316  0.72048281  0.22996632  1
  Ba  Ba2  1  0.28282464  0.68595120  0.56564927  1
  Ba  Ba3  1  0.71717536  0.31404880  0.43435073  1
  Zn  Zn4  1  0.25694593  0.00000000  -0.00000000  1
  Zn  Zn5  1  0.74305407  0.00000000  -0.00000000  1
  Zn  Zn6  1  0.17676084  0.01913194  0.35352169  1
  Zn  Zn7  1  0.82323916  0.98086806  0.64647831  1
  Zn  Zn8  1  0.07469187  0.45420725  0.14938374  1
  Zn  Zn9  1  0.92530813  0.54579275  0.85061626  1
  F  F10  1  0.13552557  0.74659144  0.27105114  1
  F  F11  1  0.86447443  0.25340856  0.72894886  1
  F  F12  1  0.37656491  0.02737260  0.22439013  1
  F  F13  1  0.62343509  0.97262740  0.77560987  1
  F  F14  1  0.15217479  0.97262740  0.77560987  1
  F  F15  1  0.84782521  0.02737260  0.22439013  1
  F  F16  1  0.22405707  0.50000000  -0.00000000  1
  F  F17  1  0.77594293  0.50000000  -0.00000000  1
  F  F18  1  0.02154140  0.18117812  0.04308280  1
  F  F19  1  0.97845860  0.81882188  0.95691720  1
  F  F20  1  0.51674977  0.18521938  0.03349953  1
  F  F21  1  0.48325023  0.81478062  0.96650047  1
  F  F22  1  0.23775832  0.28205512  0.47551664  1
  F  F23  1  0.76224168  0.71794488  0.52448336  1
  F  F24  1  0.50000000  0.00000000  0.50000000  1
  F  F25  1  0.00000000  0.00000000  0.50000000  1
  F  F26  1  0.39023999  0.47867791  0.30105442  1
  F  F27  1  0.60976001  0.52132209  0.69894558  1
  F  F28  1  0.08918556  0.52132209  0.69894558  1
  F  F29  1  0.91081444  0.47867791  0.30105442  1
