# generated using pymatgen
data_YErFe14B
_symmetry_space_group_name_H-M   'P 1'
_cell_length_a   8.72355513
_cell_length_b   8.72355513
_cell_length_c   11.90714896
_cell_angle_alpha   90.00000000
_cell_angle_beta   90.00000000
_cell_angle_gamma   90.00000000
_symmetry_Int_Tables_number   1
_chemical_formula_structural   YErFe14B
_chemical_formula_sum   'Y4 Er4 Fe56 B4'
_cell_volume   906.13896668
_cell_formula_units_Z   4
loop_
 _symmetry_equiv_pos_site_id
 _symmetry_equiv_pos_as_xyz
  1  'x, y, z'
loop_
 _atom_site_type_symbol
 _atom_site_label
 _atom_site_symmetry_multiplicity
 _atom_site_fract_x
 _atom_site_fract_y
 _atom_site_fract_z
 _atom_site_occupancy
  Y  Y0  1  0.23242769  0.76757231  0.50000000  1
  Y  Y1  1  0.76757231  0.23242769  0.50000000  1
  Y  Y2  1  0.26757231  0.26757231  0.00000000  1
  Y  Y3  1  0.73242769  0.73242769  0.00000000  1
  Er  Er4  1  0.64378385  0.64378385  0.50000000  1
  Er  Er5  1  0.35621615  0.35621615  0.50000000  1
  Er  Er6  1  0.85621615  0.14378385  0.00000000  1
  Er  Er7  1  0.14378385  0.85621615  0.00000000  1
  Fe  Fe8  1  0.93308441  0.72518754  0.37317860  1
  Fe  Fe9  1  0.06691559  0.27481246  0.37317860  1
  Fe  Fe10  1  0.56691559  0.22518754  0.87317860  1
  Fe  Fe11  1  0.43308441  0.77481246  0.87317860  1
  Fe  Fe12  1  0.06691559  0.27481246  0.62682140  1
  Fe  Fe13  1  0.93308441  0.72518754  0.62682140  1
  Fe  Fe14  1  0.43308441  0.77481246  0.12682140  1
  Fe  Fe15  1  0.56691559  0.22518754  0.12682140  1
  Fe  Fe16  1  0.72518754  0.93308441  0.37317860  1
  Fe  Fe17  1  0.27481246  0.06691559  0.37317860  1
  Fe  Fe18  1  0.22518754  0.56691559  0.87317860  1
  Fe  Fe19  1  0.77481246  0.43308441  0.87317860  1
  Fe  Fe20  1  0.27481246  0.06691559  0.62682140  1
  Fe  Fe21  1  0.72518754  0.93308441  0.62682140  1
  Fe  Fe22  1  0.77481246  0.43308441  0.12682140  1
  Fe  Fe23  1  0.22518754  0.56691559  0.12682140  1
  Fe  Fe24  1  0.14102916  0.53635106  0.32537743  1
  Fe  Fe25  1  0.85897084  0.46364894  0.32537743  1
  Fe  Fe26  1  0.35897084  0.03635106  0.82537743  1
  Fe  Fe27  1  0.64102916  0.96364894  0.82537743  1
  Fe  Fe28  1  0.85897084  0.46364894  0.67462257  1
  Fe  Fe29  1  0.14102916  0.53635106  0.67462257  1
  Fe  Fe30  1  0.64102916  0.96364894  0.17462257  1
  Fe  Fe31  1  0.35897084  0.03635106  0.17462257  1
  Fe  Fe32  1  0.53635106  0.14102916  0.32537743  1
  Fe  Fe33  1  0.46364894  0.85897084  0.32537743  1
  Fe  Fe34  1  0.03635106  0.35897084  0.82537743  1
  Fe  Fe35  1  0.96364894  0.64102916  0.82537743  1
  Fe  Fe36  1  0.46364894  0.85897084  0.67462257  1
  Fe  Fe37  1  0.53635106  0.14102916  0.67462257  1
  Fe  Fe38  1  0.96364894  0.64102916  0.17462257  1
  Fe  Fe39  1  0.03635106  0.35897084  0.17462257  1
  Fe  Fe40  1  0.18270617  0.81729383  0.25351287  1
  Fe  Fe41  1  0.81729383  0.18270617  0.25351287  1
  Fe  Fe42  1  0.31729383  0.31729383  0.75351287  1
  Fe  Fe43  1  0.68270617  0.68270617  0.75351287  1
  Fe  Fe44  1  0.81729383  0.18270617  0.74648713  1
  Fe  Fe45  1  0.18270617  0.81729383  0.74648713  1
  Fe  Fe46  1  0.68270617  0.68270617  0.24648713  1
  Fe  Fe47  1  0.31729383  0.31729383  0.24648713  1
  Fe  Fe48  1  0.40294498  0.59705502  0.30124334  1
  Fe  Fe49  1  0.59705502  0.40294498  0.30124334  1
  Fe  Fe50  1  0.09705502  0.09705502  0.80124334  1
  Fe  Fe51  1  0.90294498  0.90294498  0.80124334  1
  Fe  Fe52  1  0.59705502  0.40294498  0.69875666  1
  Fe  Fe53  1  0.40294498  0.59705502  0.69875666  1
  Fe  Fe54  1  0.90294498  0.90294498  0.19875666  1
  Fe  Fe55  1  0.09705502  0.09705502  0.19875666  1
  Fe  Fe56  1  0.50000000  0.50000000  0.11756259  1
  Fe  Fe57  1  -0.00000000  0.00000000  0.61756259  1
  Fe  Fe58  1  0.50000000  0.50000000  0.88243741  1
  Fe  Fe59  1  -0.00000000  0.00000000  0.38243741  1
  Fe  Fe60  1  -0.00000000  0.50000000  0.50000000  1
  Fe  Fe61  1  0.50000000  0.00000000  0.00000000  1
  Fe  Fe62  1  0.50000000  0.00000000  0.50000000  1
  Fe  Fe63  1  -0.00000000  0.50000000  0.00000000  1
  B  B64  1  0.87657733  0.87657733  0.50000000  1
  B  B65  1  0.12342267  0.12342267  0.50000000  1
  B  B66  1  0.62342267  0.37657733  0.00000000  1
  B  B67  1  0.37657733  0.62342267  0.00000000  1
