# generated using pymatgen
data_Ti4Al2CN
_symmetry_space_group_name_H-M   'P 1'
_cell_length_a   3.03744905
_cell_length_b   3.03751566
_cell_length_c   13.64371132
_cell_angle_alpha   90.00110043
_cell_angle_beta   90.00058539
_cell_angle_gamma   59.99766748
_symmetry_Int_Tables_number   1
_chemical_formula_structural   Ti4Al2CN
_chemical_formula_sum   'Ti4 Al2 C1 N1'
_cell_volume   109.01354751
_cell_formula_units_Z   1
loop_
 _symmetry_equiv_pos_site_id
 _symmetry_equiv_pos_as_xyz
  1  'x, y, z'
loop_
 _atom_site_type_symbol
 _atom_site_label
 _atom_site_symmetry_multiplicity
 _atom_site_fract_x
 _atom_site_fract_y
 _atom_site_fract_z
 _atom_site_occupancy
  Ti  Ti0  1  0.33334255  0.33332592  0.58384333  1
  Ti  Ti1  1  0.66665745  0.66667408  0.41615667  1
  Ti  Ti2  1  0.66666065  0.66666932  0.08434785  1
  Ti  Ti3  1  0.33333935  0.33333068  0.91565215  1
  Al  Al4  1  0.33336985  0.33331640  0.25103007  1
  Al  Al5  1  0.66663015  0.66668360  0.74896993  1
  C  C6  1  -0.00000000  -0.00000000  -0.00000000  1
  N  N7  1  -0.00000000  -0.00000000  0.50000000  1
