# generated using pymatgen
data_TaCo6Mo
_symmetry_space_group_name_H-M   'P 1'
_cell_length_a   4.14880499
_cell_length_b   5.17693448
_cell_length_c   5.17693448
_cell_angle_alpha   120.01122199
_cell_angle_beta   90.00000000
_cell_angle_gamma   90.00000000
_symmetry_Int_Tables_number   1
_chemical_formula_structural   TaCo6Mo
_chemical_formula_sum   'Ta1 Co6 Mo1'
_cell_volume   96.28305662
_cell_formula_units_Z   1
loop_
 _symmetry_equiv_pos_site_id
 _symmetry_equiv_pos_as_xyz
  1  'x, y, z'
loop_
 _atom_site_type_symbol
 _atom_site_label
 _atom_site_symmetry_multiplicity
 _atom_site_fract_x
 _atom_site_fract_y
 _atom_site_fract_z
 _atom_site_occupancy
  Ta  Ta0  1  0.25000000  0.33333732  0.66666268  1
  Co  Co1  1  0.75000000  0.15835369  0.31672230  1
  Co  Co2  1  0.75000000  0.15837714  0.84162286  1
  Co  Co3  1  0.75000000  0.68327770  0.84164631  1
  Co  Co4  1  0.25000000  0.83772702  0.67548067  1
  Co  Co5  1  0.25000000  0.83773140  0.16226860  1
  Co  Co6  1  0.25000000  0.32451933  0.16227298  1
  Mo  Mo7  1  0.75000000  0.66667640  0.33332360  1
