# generated using pymatgen
data_TmAlGa
_symmetry_space_group_name_H-M   'P 1'
_cell_length_a   4.32492748
_cell_length_b   5.68884134
_cell_length_c   5.78704473
_cell_angle_alpha   90.33450985
_cell_angle_beta   111.94232919
_cell_angle_gamma   67.65865653
_symmetry_Int_Tables_number   1
_chemical_formula_structural   TmAlGa
_chemical_formula_sum   'Tm2 Al2 Ga2'
_cell_volume   120.60632731
_cell_formula_units_Z   2
loop_
 _symmetry_equiv_pos_site_id
 _symmetry_equiv_pos_as_xyz
  1  'x, y, z'
loop_
 _atom_site_type_symbol
 _atom_site_label
 _atom_site_symmetry_multiplicity
 _atom_site_fract_x
 _atom_site_fract_y
 _atom_site_fract_z
 _atom_site_occupancy
  Tm  Tm0  1  0.74692669  0.70559719  0.19945057  1
  Tm  Tm1  1  0.25307331  0.29440281  0.80054943  1
  Al  Al2  1  0.54813421  0.28838313  0.38465154  1
  Al  Al3  1  0.45186579  0.71161687  0.61534846  1
  Ga  Ga4  1  0.04454475  0.11912446  0.20821397  1
  Ga  Ga5  1  0.95545525  0.88087554  0.79178603  1
