# generated using pymatgen
data_Th2Mn17C2
_symmetry_space_group_name_H-M   'P 1'
_cell_length_a   6.47855349
_cell_length_b   6.46155730
_cell_length_c   6.47855349
_cell_angle_alpha   83.51415253
_cell_angle_beta   84.39338806
_cell_angle_gamma   83.51415253
_symmetry_Int_Tables_number   1
_chemical_formula_structural   Th2Mn17C2
_chemical_formula_sum   'Th2 Mn17 C2'
_cell_volume   266.74908038
_cell_formula_units_Z   1
loop_
 _symmetry_equiv_pos_site_id
 _symmetry_equiv_pos_as_xyz
  1  'x, y, z'
loop_
 _atom_site_type_symbol
 _atom_site_label
 _atom_site_symmetry_multiplicity
 _atom_site_fract_x
 _atom_site_fract_y
 _atom_site_fract_z
 _atom_site_occupancy
  Th  Th0  1  0.64403065  0.66592631  0.64403065  1
  Th  Th1  1  0.35596935  0.33407369  0.35596935  1
  Mn  Mn2  1  0.34304731  0.86306049  0.34304731  1
  Mn  Mn3  1  0.86152443  0.33967099  0.34014966  1
  Mn  Mn4  1  0.34014966  0.33967099  0.86152443  1
  Mn  Mn5  1  0.65695269  0.13693951  0.65695269  1
  Mn  Mn6  1  0.13847557  0.66032901  0.65985034  1
  Mn  Mn7  1  0.65985034  0.66032901  0.13847557  1
  Mn  Mn8  1  0.00000000  0.50000000  0.00000000  1
  Mn  Mn9  1  0.50000000  -0.00000000  0.00000000  1
  Mn  Mn10  1  0.00000000  -0.00000000  0.50000000  1
  Mn  Mn11  1  0.73377644  -0.00000000  0.26622356  1
  Mn  Mn12  1  0.99644944  0.27854798  0.72254145  1
  Mn  Mn13  1  0.27745855  0.72145202  0.00355056  1
  Mn  Mn14  1  0.00355056  0.72145202  0.27745855  1
  Mn  Mn15  1  0.72254145  0.27854798  0.99644944  1
  Mn  Mn16  1  0.26622356  -0.00000000  0.73377644  1
  Mn  Mn17  1  0.90637883  0.90215137  0.90637883  1
  Mn  Mn18  1  0.09362117  0.09784863  0.09362117  1
  C  C19  1  0.00000000  0.50000000  0.50000000  1
  C  C20  1  0.50000000  0.50000000  0.00000000  1
