# generated using pymatgen
data_TaB2Mo3C2
_symmetry_space_group_name_H-M   'P 1'
_cell_length_a   3.10013890
_cell_length_b   3.13533308
_cell_length_c   8.92919724
_cell_angle_alpha   79.88838233
_cell_angle_beta   90.00000000
_cell_angle_gamma   90.00000000
_symmetry_Int_Tables_number   1
_chemical_formula_structural   TaB2Mo3C2
_chemical_formula_sum   'Ta1 B2 Mo3 C2'
_cell_volume   85.44343150
_cell_formula_units_Z   1
loop_
 _symmetry_equiv_pos_site_id
 _symmetry_equiv_pos_as_xyz
  1  'x, y, z'
loop_
 _atom_site_type_symbol
 _atom_site_label
 _atom_site_symmetry_multiplicity
 _atom_site_fract_x
 _atom_site_fract_y
 _atom_site_fract_z
 _atom_site_occupancy
  Ta  Ta0  1  0.25000000  0.68444199  0.63111601  1
  B  B1  1  0.25000000  0.52876349  0.94247301  1
  B  B2  1  0.75000000  0.47166354  0.05667291  1
  Mo  Mo3  1  0.75000000  0.31655267  0.36689466  1
  Mo  Mo4  1  0.25000000  0.92787807  0.14424386  1
  Mo  Mo5  1  0.75000000  0.06896348  0.86207304  1
  C  C6  1  0.25000000  0.80965782  0.38068435  1
  C  C7  1  0.75000000  0.19207893  0.61584215  1
