# generated using pymatgen
data_Ti4FeBiPb4O15
_symmetry_space_group_name_H-M   'P 1'
_cell_length_a   4.73323681
_cell_length_b   5.45058228
_cell_length_c   13.84915010
_cell_angle_alpha   101.34895873
_cell_angle_beta   90.00000000
_cell_angle_gamma   90.00000000
_symmetry_Int_Tables_number   1
_chemical_formula_structural   Ti4FeBiPb4O15
_chemical_formula_sum   'Ti4 Fe1 Bi1 Pb4 O15'
_cell_volume   350.30659869
_cell_formula_units_Z   1
loop_
 _symmetry_equiv_pos_site_id
 _symmetry_equiv_pos_as_xyz
  1  'x, y, z'
loop_
 _atom_site_type_symbol
 _atom_site_label
 _atom_site_symmetry_multiplicity
 _atom_site_fract_x
 _atom_site_fract_y
 _atom_site_fract_z
 _atom_site_occupancy
  Ti  Ti0  1  0.52657495  0.10223954  0.20447908  1
  Ti  Ti1  1  0.52819546  0.69989665  0.39979330  1
  Ti  Ti2  1  0.52819546  0.30010335  0.60020670  1
  Ti  Ti3  1  0.52657495  0.89776046  0.79552092  1
  Fe  Fe4  1  0.52543399  0.50000000  -0.00000000  1
  Bi  Bi5  1  0.92607228  -0.00000000  -0.00000000  1
  Pb  Pb6  1  0.98803655  0.59494040  0.18988081  1
  Pb  Pb7  1  0.97541346  0.20077927  0.40155854  1
  Pb  Pb8  1  0.97541346  0.79922073  0.59844146  1
  Pb  Pb9  1  0.98803655  0.40505960  0.81011919  1
  O  O10  1  0.63047104  0.59931401  0.70034288  1
  O  O11  1  0.63047104  0.40068599  0.29965712  1
  O  O12  1  0.64376121  -0.00000000  0.50000000  1
  O  O13  1  0.65238799  0.19112872  0.90063444  1
  O  O14  1  0.65238799  0.80887128  0.09936556  1
  O  O15  1  0.65238799  0.70950572  0.90063444  1
  O  O16  1  0.64376121  0.50000000  0.50000000  1
  O  O17  1  0.63047104  0.10102888  0.70034288  1
  O  O18  1  0.65238799  0.29049428  0.09936556  1
  O  O19  1  0.63047104  0.89897112  0.29965712  1
  O  O20  1  0.15649587  0.90202092  0.80404185  1
  O  O21  1  0.15901475  0.70209965  0.40419929  1
  O  O22  1  0.15901475  0.29790035  0.59580071  1
  O  O23  1  0.13207309  0.50000000  -0.00000000  1
  O  O24  1  0.15649587  0.09797908  0.19595815  1
